REMARK SMILES Cc1cccc(O[C@H](C)C(=O)NNC(=O)[C@H]2[C@@H]3CC[C@@H](C3)[C@@H]2C(=O)NCCCCNC(=O)c2ccc(-c3c4nc(c(-c5ccccc5)c5ccc([nH]5)c(-c5ccccc5)c5nc(c(-c6ccccc6)c6ccc3[nH]6)C=C5)C=C4)cc2)c1
REMARK SMILES IDX 26 1 25 2 23 3 24 4 22 6 16 7 17 8 18 9 21 10 20 11 19 12
REMARK SMILES IDX 14 13 13 14 15 16 12 17 10 18 11 19 8 21 9 22 7 23 6 24 1 25
REMARK SMILES IDX 2 26 3 27 81 28 4 29 5 30 27 31 28 32 29 33 30 34 31 35
REMARK SMILES IDX 32 37 33 38 34 39 80 40 35 41 79 42 36 43 37 44 38 45 73 46
REMARK SMILES IDX 39 47 78 48 72 49 74 50 40 51 77 52 71 53 70 54 41 56 63 57
REMARK SMILES IDX 48 58 62 59 49 60 52 61 61 62 75 63 50 64 51 65 60 67 76 68
REMARK SMILES IDX 53 69 42 70 43 71 47 72 44 73 46 74 45 75 64 76 65 77 69 78
REMARK SMILES IDX 66 79 68 80 67 81 54 82 55 83 59 84 56 85 58 86 57 87
REMARK H PARENT 25 5 13 15 12 20 30 36 74 55 52 66
REMARK Flexibility Score: inf
ROOT
ATOM      1  C   UNL     1       3.474   5.252  -3.065  1.00  0.00     0.116 C 
ENDROOT
BRANCH   1   2
ATOM      2  N   UNL     1       4.554   4.307  -2.813  1.00  0.00    -0.356 N 
ATOM      3  C   UNL     1       4.507   2.943  -2.706  1.00  0.00     0.224 C 
ATOM      4  O   UNL     1       5.541   2.332  -2.449  1.00  0.00    -0.275 OA
ATOM      5  H   UNL     1       5.447   4.707  -2.705  1.00  0.00     0.163 HD
BRANCH   3   6
ATOM      6  C   UNL     1       3.167   2.260  -2.920  1.00  0.00     0.094 C 
ATOM      7  C   UNL     1       3.010   0.894  -2.238  1.00  0.00     0.096 C 
ATOM      8  C   UNL     1       2.441  -0.008  -3.364  1.00  0.00     0.002 C 
ATOM      9  C   UNL     1       3.612  -0.379  -4.298  1.00  0.00     0.005 C 
ATOM     10  C   UNL     1       1.681   0.960  -4.270  1.00  0.00     0.009 C 
ATOM     11  C   UNL     1       2.866   1.920  -4.403  1.00  0.00     0.002 C 
ATOM     12  C   UNL     1       3.926   0.961  -4.989  1.00  0.00     0.005 C 
BRANCH   7  13
ATOM     13  C   UNL     1       2.226   0.822  -0.931  1.00  0.00     0.242 C 
ATOM     14  N   UNL     1       1.129   1.571  -0.616  1.00  0.00    -0.267 N 
ATOM     15  H   UNL     1       0.797   1.463   0.304  1.00  0.00     0.191 HD
ATOM     16  O   UNL     1       2.578  -0.007  -0.081  1.00  0.00    -0.273 OA
BRANCH  14  17
ATOM     17  N   UNL     1       0.423   2.451  -1.395  1.00  0.00    -0.264 N 
ATOM     18  C   UNL     1      -0.449   3.417  -1.000  1.00  0.00     0.279 C 
ATOM     19  O   UNL     1      -0.685   4.287  -1.855  1.00  0.00    -0.269 OA
ATOM     20  H   UNL     1       0.566   2.373  -2.366  1.00  0.00     0.191 HD
BRANCH  18  21
ATOM     21  C   UNL     1      -1.242   3.431   0.337  1.00  0.00     0.260 C 
ATOM     22  C   UNL     1      -2.639   2.829   0.135  1.00  0.00     0.064 C 
BRANCH  21  23
ATOM     23  O   UNL     1      -0.709   3.316   1.637  1.00  0.00    -0.481 OA
BRANCH  23  24
ATOM     24  C   UNL     1      -0.270   2.175   2.221  1.00  0.00     0.120 A 
ATOM     25  C   UNL     1       2.367   1.578   4.916  1.00  0.00     0.044 C 
ATOM     26  C   UNL     1       1.320   1.332   3.871  1.00  0.00    -0.047 A 
ATOM     27  C   UNL     1       0.991   0.026   3.503  1.00  0.00     0.003 A 
ATOM     28  C   UNL     1       0.676   2.396   3.230  1.00  0.00     0.049 A 
ATOM     29  C   UNL     1       0.018  -0.204   2.533  1.00  0.00     0.004 A 
ATOM     30  C   UNL     1      -0.625   0.867   1.905  1.00  0.00     0.046 A 
ENDBRANCH  23  24
ENDBRANCH  21  23
ENDBRANCH  18  21
ENDBRANCH  14  17
ENDBRANCH   7  13
ENDBRANCH   3   6
ENDBRANCH   1   2
BRANCH   1  31
ATOM     31  C   UNL     1       2.909   5.878  -1.781  1.00  0.00     0.023 C 
BRANCH  31  32
ATOM     32  C   UNL     1       3.905   6.690  -0.944  1.00  0.00     0.023 C 
BRANCH  32  33
ATOM     33  C   UNL     1       4.561   7.855  -1.674  1.00  0.00     0.116 C 
BRANCH  33  34
ATOM     34  N   UNL     1       3.792   9.090  -1.712  1.00  0.00    -0.352 N 
ATOM     35  C   UNL     1       4.018  10.253  -2.438  1.00  0.00     0.251 C 
ATOM     36  H   UNL     1       2.993   9.104  -1.138  1.00  0.00     0.163 HD
ATOM     37  O   UNL     1       3.321  11.234  -2.238  1.00  0.00    -0.269 OA
BRANCH  35  38
ATOM     38  C   UNL     1       5.002  10.263  -3.559  1.00  0.00     0.039 A 
ATOM     39  C   UNL     1       4.639  10.934  -4.736  1.00  0.00     0.014 A 
ATOM     40  C   UNL     1       6.138   9.463  -3.550  1.00  0.00     0.014 A 
ATOM     41  C   UNL     1       5.236  10.576  -5.943  1.00  0.00     0.010 A 
ATOM     42  C   UNL     1       6.651   9.020  -4.752  1.00  0.00     0.010 A 
ATOM     43  C   UNL     1       6.146   9.522  -5.954  1.00  0.00    -0.014 A 
BRANCH  43  44
ATOM     44  C   UNL     1       6.493   8.767  -7.152  1.00  0.00     0.031 A 
ATOM     45  C   UNL     1       7.846   8.829  -7.732  1.00  0.00     0.074 A 
ATOM     46  C   UNL     1       5.590   7.905  -7.670  1.00  0.00     0.049 A 
ATOM     47  N   UNL     1       8.113   8.496  -8.950  1.00  0.00    -0.248 NA
ATOM     48  C   UNL     1       9.010   9.310  -6.996  1.00  0.00     0.031 C 
ATOM     49  C   UNL     1       5.825   6.823  -8.623  1.00  0.00     0.029 A 
ATOM     50  N   UNL     1       4.205   7.982  -7.579  1.00  0.00    -0.354 N 
ATOM     51  C   UNL     1       9.478   8.436  -9.069  1.00  0.00     0.074 A 
ATOM     52  C   UNL     1       9.995   9.020  -7.852  1.00  0.00     0.031 C 
ATOM     53  C   UNL     1       4.660   6.493  -9.203  1.00  0.00     0.029 A 
ATOM     54  C   UNL     1       3.669   7.463  -8.770  1.00  0.00     0.049 A 
ATOM     55  H   UNL     1       3.691   8.336  -6.817  1.00  0.00     0.167 HD
ATOM     56  C   UNL     1      10.034   7.785 -10.126  1.00  0.00     0.031 A 
ATOM     57  C   UNL     1       2.941   8.263  -9.605  1.00  0.00     0.031 A 
ATOM     58  C   UNL     1       9.037   7.264 -11.056  1.00  0.00     0.049 A 
ATOM     59  C   UNL     1       3.554   8.470 -10.979  1.00  0.00     0.074 A 
ATOM     60  C   UNL     1       8.511   6.009 -11.314  1.00  0.00     0.029 A 
ATOM     61  N   UNL     1       8.214   8.164 -11.709  1.00  0.00    -0.354 N 
ATOM     62  N   UNL     1       4.715   8.004 -11.351  1.00  0.00    -0.248 NA
ATOM     63  C   UNL     1       2.948   9.321 -12.006  1.00  0.00     0.031 C 
ATOM     64  C   UNL     1       7.369   6.170 -12.150  1.00  0.00     0.029 A 
ATOM     65  C   UNL     1       7.214   7.519 -12.405  1.00  0.00     0.049 A 
ATOM     66  H   UNL     1       8.328   9.142 -11.680  1.00  0.00     0.167 HD
ATOM     67  C   UNL     1       5.048   8.530 -12.571  1.00  0.00     0.074 A 
ATOM     68  C   UNL     1       3.904   9.337 -12.951  1.00  0.00     0.031 C 
ATOM     69  C   UNL     1       6.262   8.319 -13.154  1.00  0.00     0.031 A 
BRANCH  56  70
ATOM     70  C   UNL     1      11.495   7.439 -10.192  1.00  0.00    -0.014 A 
ATOM     71  C   UNL     1      11.901   6.254 -10.831  1.00  0.00     0.009 A 
ATOM     72  C   UNL     1      12.512   8.226  -9.628  1.00  0.00     0.009 A 
ATOM     73  C   UNL     1      13.236   5.833 -10.828  1.00  0.00     0.001 A 
ATOM     74  C   UNL     1      13.844   7.791  -9.584  1.00  0.00     0.001 A 
ATOM     75  C   UNL     1      14.204   6.588 -10.177  1.00  0.00     0.000 A 
ENDBRANCH  56  70
BRANCH  57  76
ATOM     76  C   UNL     1       2.159   9.304  -8.875  1.00  0.00    -0.014 A 
ATOM     77  C   UNL     1       1.141   8.884  -7.995  1.00  0.00     0.009 A 
ATOM     78  C   UNL     1       2.646  10.614  -8.762  1.00  0.00     0.009 A 
ATOM     79  C   UNL     1       0.714   9.710  -6.952  1.00  0.00     0.001 A 
ATOM     80  C   UNL     1       2.198  11.445  -7.728  1.00  0.00     0.001 A 
ATOM     81  C   UNL     1       1.264  10.979  -6.803  1.00  0.00     0.000 A 
ENDBRANCH  57  76
BRANCH  69  82
ATOM     82  C   UNL     1       6.675   8.896 -14.478  1.00  0.00    -0.014 A 
ATOM     83  C   UNL     1       5.820   8.930 -15.588  1.00  0.00     0.009 A 
ATOM     84  C   UNL     1       8.007   9.315 -14.681  1.00  0.00     0.009 A 
ATOM     85  C   UNL     1       6.264   9.412 -16.826  1.00  0.00     0.001 A 
ATOM     86  C   UNL     1       8.459   9.775 -15.919  1.00  0.00     0.001 A 
ATOM     87  C   UNL     1       7.581   9.834 -16.992  1.00  0.00     0.000 A 
ENDBRANCH  69  82
ENDBRANCH  43  44
ENDBRANCH  35  38
ENDBRANCH  33  34
ENDBRANCH  32  33
ENDBRANCH  31  32
ENDBRANCH   1  31
TORSDOF 16
