REMARK SMILES O=C(NCCCCNC(=O)C1CN(S(=O)(=O)c2ccc(F)cc2)C1)c1ccc(-c2c3nc(c(-c4ccccc4)c4ccc([nH]4)c(-c4ccccc4)c4nc(c(-c5ccccc5)c5ccc2[nH]5)C=C4)C=C3)cc1
REMARK SMILES IDX 5 1 4 2 3 3 1 4 2 5 25 7 26 8 72 9 27 10 71 11 28 12 29 13
REMARK SMILES IDX 30 14 65 15 31 16 70 17 64 18 66 19 32 20 69 21 63 22 62 23
REMARK SMILES IDX 33 25 55 26 40 27 54 28 41 29 44 30 53 31 67 32 42 33 43 34
REMARK SMILES IDX 52 36 68 37 45 38 34 39 35 40 39 41 36 42 38 43 37 44 56 45
REMARK SMILES IDX 57 46 61 47 58 48 60 49 59 50 46 51 47 52 51 53 48 54 50 55
REMARK SMILES IDX 49 56 6 57 7 58 8 59 9 60 10 62 11 63 12 64 24 65 13 66
REMARK SMILES IDX 14 67 15 68 16 69 17 70 18 71 23 72 19 73 22 74 20 75 21 76
REMARK H PARENT 3 6 66 24 44 35 8 61
REMARK Flexibility Score: inf
ROOT
ATOM      1  C   UNL     1       4.923  -1.748   1.965  1.00  0.00     0.023 C 
ENDROOT
BRANCH   1   2
ATOM      2  C   UNL     1       4.567  -1.131   0.618  1.00  0.00     0.116 C 
BRANCH   2   3
ATOM      3  N   UNL     1       3.136  -1.103   0.357  1.00  0.00    -0.352 N 
ATOM      4  O   UNL     1       1.135  -0.176  -0.130  1.00  0.00    -0.269 OA
ATOM      5  C   UNL     1       2.354  -0.055  -0.069  1.00  0.00     0.251 C 
ATOM      6  H   UNL     1       2.662  -1.953   0.506  1.00  0.00     0.163 HD
BRANCH   5   7
ATOM      7  C   UNL     1       2.987   1.234  -0.419  1.00  0.00     0.039 A 
ATOM      8  C   UNL     1       4.122   1.276  -1.232  1.00  0.00     0.014 A 
ATOM      9  C   UNL     1       2.442   2.416   0.092  1.00  0.00     0.014 A 
ATOM     10  C   UNL     1       4.796   2.478  -1.412  1.00  0.00     0.010 A 
ATOM     11  C   UNL     1       3.078   3.635  -0.155  1.00  0.00     0.010 A 
ATOM     12  C   UNL     1       4.281   3.670  -0.877  1.00  0.00    -0.014 A 
BRANCH  12  13
ATOM     13  C   UNL     1       4.994   4.948  -1.121  1.00  0.00     0.031 A 
ATOM     14  C   UNL     1       5.631   5.710   0.007  1.00  0.00     0.074 A 
ATOM     15  C   UNL     1       5.085   5.409  -2.383  1.00  0.00     0.049 A 
ATOM     16  N   UNL     1       6.302   6.834  -0.036  1.00  0.00    -0.248 NA
ATOM     17  C   UNL     1       5.495   5.143   1.358  1.00  0.00     0.031 C 
ATOM     18  C   UNL     1       4.509   4.758  -3.562  1.00  0.00     0.029 A 
ATOM     19  N   UNL     1       5.712   6.519  -2.886  1.00  0.00    -0.354 N 
ATOM     20  C   UNL     1       6.649   7.121   1.278  1.00  0.00     0.074 A 
ATOM     21  C   UNL     1       6.100   6.063   2.099  1.00  0.00     0.031 C 
ATOM     22  C   UNL     1       4.845   5.458  -4.656  1.00  0.00     0.029 A 
ATOM     23  C   UNL     1       5.609   6.632  -4.251  1.00  0.00     0.049 A 
ATOM     24  H   UNL     1       6.188   7.172  -2.324  1.00  0.00     0.167 HD
ATOM     25  C   UNL     1       7.363   8.168   1.756  1.00  0.00     0.031 A 
ATOM     26  C   UNL     1       6.067   7.581  -5.086  1.00  0.00     0.031 A 
ATOM     27  C   UNL     1       7.913   9.218   0.939  1.00  0.00     0.049 A 
ATOM     28  C   UNL     1       6.831   8.743  -4.527  1.00  0.00     0.074 A 
ATOM     29  C   UNL     1       8.677  10.305   1.331  1.00  0.00     0.029 A 
ATOM     30  N   UNL     1       7.756   9.315  -0.434  1.00  0.00    -0.354 N 
ATOM     31  N   UNL     1       7.171   8.985  -3.285  1.00  0.00    -0.248 NA
ATOM     32  C   UNL     1       7.273   9.764  -5.487  1.00  0.00     0.031 C 
ATOM     33  C   UNL     1       8.947  11.082   0.198  1.00  0.00     0.029 A 
ATOM     34  C   UNL     1       8.389  10.454  -0.904  1.00  0.00     0.049 A 
ATOM     35  H   UNL     1       7.267   8.669  -0.994  1.00  0.00     0.167 HD
ATOM     36  C   UNL     1       7.876  10.179  -3.313  1.00  0.00     0.074 A 
ATOM     37  C   UNL     1       7.933  10.601  -4.698  1.00  0.00     0.031 C 
ATOM     38  C   UNL     1       8.427  10.865  -2.283  1.00  0.00     0.031 A 
BRANCH  25  39
ATOM     39  C   UNL     1       7.567   8.247   3.243  1.00  0.00    -0.014 A 
ATOM     40  C   UNL     1       8.469   7.396   3.900  1.00  0.00     0.009 A 
ATOM     41  C   UNL     1       6.879   9.216   3.989  1.00  0.00     0.009 A 
ATOM     42  C   UNL     1       8.655   7.496   5.282  1.00  0.00     0.001 A 
ATOM     43  C   UNL     1       7.084   9.329   5.365  1.00  0.00     0.001 A 
ATOM     44  C   UNL     1       7.966   8.464   6.011  1.00  0.00     0.000 A 
ENDBRANCH  25  39
BRANCH  26  45
ATOM     45  C   UNL     1       5.799   7.466  -6.541  1.00  0.00    -0.014 A 
ATOM     46  C   UNL     1       6.831   7.137  -7.431  1.00  0.00     0.009 A 
ATOM     47  C   UNL     1       4.501   7.658  -7.040  1.00  0.00     0.009 A 
ATOM     48  C   UNL     1       6.569   7.014  -8.798  1.00  0.00     0.001 A 
ATOM     49  C   UNL     1       4.238   7.509  -8.403  1.00  0.00     0.001 A 
ATOM     50  C   UNL     1       5.274   7.193  -9.281  1.00  0.00     0.000 A 
ENDBRANCH  26  45
BRANCH  38  51
ATOM     51  C   UNL     1       9.153  12.133  -2.623  1.00  0.00    -0.014 A 
ATOM     52  C   UNL     1       8.452  13.301  -2.958  1.00  0.00     0.009 A 
ATOM     53  C   UNL     1      10.556  12.164  -2.585  1.00  0.00     0.009 A 
ATOM     54  C   UNL     1       9.144  14.470  -3.279  1.00  0.00     0.001 A 
ATOM     55  C   UNL     1      11.244  13.341  -2.883  1.00  0.00     0.001 A 
ATOM     56  C   UNL     1      10.538  14.490  -3.238  1.00  0.00     0.000 A 
ENDBRANCH  38  51
ENDBRANCH  12  13
ENDBRANCH   5   7
ENDBRANCH   2   3
ENDBRANCH   1   2
BRANCH   1  57
ATOM     57  C   UNL     1       4.479  -3.196   2.157  1.00  0.00     0.023 C 
BRANCH  57  58
ATOM     58  C   UNL     1       4.911  -4.154   1.052  1.00  0.00     0.116 C 
BRANCH  58  59
ATOM     59  N   UNL     1       6.356  -4.322   0.975  1.00  0.00    -0.356 N 
ATOM     60  C   UNL     1       7.065  -5.505   1.051  1.00  0.00     0.225 C 
ATOM     61  H   UNL     1       6.886  -3.502   0.856  1.00  0.00     0.163 HD
ATOM     62  O   UNL     1       8.288  -5.470   0.900  1.00  0.00    -0.275 OA
BRANCH  60  63
ATOM     63  C   UNL     1       6.257  -6.765   1.336  1.00  0.00     0.109 C 
ATOM     64  C   UNL     1       6.856  -8.181   1.362  1.00  0.00     0.117 C 
ATOM     65  C   UNL     1       5.982  -7.042   2.832  1.00  0.00     0.117 C 
ATOM     66  N   UNL     1       5.900  -8.512   2.512  1.00  0.00    -0.196 NA
BRANCH  66  67
ATOM     67  S   UNL     1       4.362  -9.233   2.188  1.00  0.00     0.243 S 
ATOM     68  O   UNL     1       3.460  -8.183   1.761  1.00  0.00    -0.207 OA
ATOM     69  O   UNL     1       4.601 -10.403   1.369  1.00  0.00    -0.207 OA
BRANCH  67  70
ATOM     70  C   UNL     1       3.800  -9.775   3.784  1.00  0.00     0.082 A 
ATOM     71  C   UNL     1       3.803  -8.896   4.874  1.00  0.00     0.025 A 
ATOM     72  C   UNL     1       3.290 -11.072   3.919  1.00  0.00     0.025 A 
ATOM     73  C   UNL     1       3.301  -9.321   6.105  1.00  0.00     0.040 A 
ATOM     74  C   UNL     1       2.781 -11.487   5.150  1.00  0.00     0.040 A 
ATOM     75  C   UNL     1       2.792 -10.610   6.231  1.00  0.00     0.123 A 
ATOM     76  F   UNL     1       2.297 -11.008   7.409  1.00  0.00    -0.207 F 
ENDBRANCH  67  70
ENDBRANCH  66  67
ENDBRANCH  60  63
ENDBRANCH  58  59
ENDBRANCH  57  58
ENDBRANCH   1  57
TORSDOF 13
