REMARK SMILES C[C@@H]1[C@H](C(=O)NCCCCNC(=O)c2ccc(-c3c4nc(c(-c5ccccc5)c5ccc([nH]5)c(-c5ccccc5)c5nc(c(-c6ccccc6)c6ccc3[nH]6)C=C5)C=C4)cc2)CCN1C(=O)/C=C/c1cccc(Br)c1
REMARK SMILES IDX 8 1 7 2 6 3 4 4 5 5 3 7 1 8 2 9 64 10 62 11 63 12 65 13
REMARK SMILES IDX 66 14 67 15 68 16 69 17 70 18 75 19 71 20 73 21 72 22 74 23
REMARK SMILES IDX 9 24 10 25 11 26 12 27 13 29 14 30 15 31 61 32 16 33 60 34
REMARK SMILES IDX 17 35 18 36 19 37 54 38 20 39 59 40 53 41 55 42 21 43 58 44
REMARK SMILES IDX 52 45 51 46 22 48 44 49 29 50 43 51 30 52 33 53 42 54 56 55
REMARK SMILES IDX 31 56 32 57 41 59 57 60 34 61 23 62 24 63 28 64 25 65 27 66
REMARK SMILES IDX 26 67 45 68 46 69 50 70 47 71 49 72 48 73 35 74 36 75 40 76
REMARK SMILES IDX 37 77 39 78 38 79
REMARK H PARENT 6 6 11 28 55 47 33 58
REMARK Flexibility Score: inf
ROOT
ATOM      1  C   UNL     1       2.704   1.344   2.578  1.00  0.00     0.023 C 
ENDROOT
BRANCH   1   2
ATOM      2  C   UNL     1       1.266   1.806   2.307  1.00  0.00     0.116 C 
BRANCH   2   3
ATOM      3  N   UNL     1       1.142   2.566   1.076  1.00  0.00    -0.356 N 
ATOM      4  C   UNL     1       0.570   2.316  -0.130  1.00  0.00     0.225 C 
ATOM      5  O   UNL     1       0.690   3.218  -0.970  1.00  0.00    -0.275 OA
ATOM      6  H   UNL     1       1.564   3.454   1.126  1.00  0.00     0.163 HD
BRANCH   4   7
ATOM      7  C   UNL     1      -0.148   1.030  -0.535  1.00  0.00     0.102 C 
ATOM      8  C   UNL     1       1.943  -0.350   0.028  1.00  0.00     0.032 C 
ATOM      9  C   UNL     1       0.725  -0.199  -0.849  1.00  0.00     0.094 C 
ATOM     10  N   UNL     1      -0.178  -1.345  -0.694  1.00  0.00    -0.336 N 
ATOM     11  C   UNL     1      -1.281   0.503   0.336  1.00  0.00     0.037 C 
ATOM     12  C   UNL     1      -1.469  -0.927  -0.163  1.00  0.00     0.121 C 
BRANCH  10  13
ATOM     13  C   UNL     1       0.044  -2.680  -0.978  1.00  0.00     0.246 C 
ATOM     14  O   UNL     1      -0.819  -3.540  -0.808  1.00  0.00    -0.270 OA
BRANCH  13  15
ATOM     15  C   UNL     1       1.416  -3.137  -1.346  1.00  0.00     0.072 C 
ATOM     16  C   UNL     1       2.185  -2.611  -2.312  1.00  0.00     0.014 C 
BRANCH  16  17
ATOM     17  C   UNL     1       3.582  -3.010  -2.519  1.00  0.00    -0.024 A 
ATOM     18  C   UNL     1       4.622  -2.374  -1.820  1.00  0.00     0.008 A 
ATOM     19  C   UNL     1       3.898  -3.994  -3.457  1.00  0.00     0.023 A 
ATOM     20  C   UNL     1       5.957  -2.704  -2.065  1.00  0.00     0.002 A 
ATOM     21  C   UNL     1       5.235  -4.314  -3.704  1.00  0.00     0.018 A 
ATOM     22  C   UNL     1       6.265  -3.672  -3.016  1.00  0.00     0.016 A 
ATOM     23  Br  UNL     1       5.657  -5.617  -5.007  1.00  0.00    -0.051 Br
ENDBRANCH  16  17
ENDBRANCH  13  15
ENDBRANCH  10  13
ENDBRANCH   4   7
ENDBRANCH   2   3
ENDBRANCH   1   2
BRANCH   1  24
ATOM     24  C   UNL     1       3.650   2.395   3.122  1.00  0.00     0.023 C 
BRANCH  24  25
ATOM     25  C   UNL     1       3.257   2.933   4.479  1.00  0.00     0.116 C 
BRANCH  25  26
ATOM     26  N   UNL     1       3.075   1.894   5.486  1.00  0.00    -0.352 N 
ATOM     27  C   UNL     1       3.505   1.892   6.792  1.00  0.00     0.251 C 
ATOM     28  H   UNL     1       2.583   1.093   5.193  1.00  0.00     0.163 HD
ATOM     29  O   UNL     1       3.375   0.906   7.501  1.00  0.00    -0.269 OA
BRANCH  27  30
ATOM     30  C   UNL     1       4.167   3.107   7.301  1.00  0.00     0.039 A 
ATOM     31  C   UNL     1       5.410   2.995   7.923  1.00  0.00     0.014 A 
ATOM     32  C   UNL     1       3.597   4.357   7.051  1.00  0.00     0.014 A 
ATOM     33  C   UNL     1       6.120   4.154   8.233  1.00  0.00     0.010 A 
ATOM     34  C   UNL     1       4.353   5.498   7.250  1.00  0.00     0.010 A 
ATOM     35  C   UNL     1       5.612   5.410   7.863  1.00  0.00    -0.014 A 
BRANCH  35  36
ATOM     36  C   UNL     1       6.343   6.663   8.154  1.00  0.00     0.031 A 
ATOM     37  C   UNL     1       5.707   7.686   9.054  1.00  0.00     0.074 A 
ATOM     38  C   UNL     1       7.521   6.915   7.554  1.00  0.00     0.049 A 
ATOM     39  N   UNL     1       6.117   8.890   9.357  1.00  0.00    -0.248 NA
ATOM     40  C   UNL     1       4.411   7.324   9.656  1.00  0.00     0.031 C 
ATOM     41  C   UNL     1       8.212   6.024   6.618  1.00  0.00     0.029 A 
ATOM     42  N   UNL     1       8.345   8.007   7.642  1.00  0.00    -0.354 N 
ATOM     43  C   UNL     1       5.115   9.436  10.149  1.00  0.00     0.074 A 
ATOM     44  C   UNL     1       4.051   8.462  10.227  1.00  0.00     0.031 C 
ATOM     45  C   UNL     1       9.373   6.590   6.250  1.00  0.00     0.029 A 
ATOM     46  C   UNL     1       9.491   7.894   6.893  1.00  0.00     0.049 A 
ATOM     47  H   UNL     1       8.136   8.797   8.191  1.00  0.00     0.167 HD
ATOM     48  C   UNL     1       5.093  10.631  10.783  1.00  0.00     0.031 A 
ATOM     49  C   UNL     1      10.520   8.749   6.748  1.00  0.00     0.031 A 
ATOM     50  C   UNL     1       6.172  11.577  10.740  1.00  0.00     0.049 A 
ATOM     51  C   UNL     1      10.494  10.053   7.494  1.00  0.00     0.074 A 
ATOM     52  C   UNL     1       6.286  12.787  11.398  1.00  0.00     0.029 A 
ATOM     53  N   UNL     1       7.335  11.405  10.005  1.00  0.00    -0.354 N 
ATOM     54  N   UNL     1       9.566  10.533   8.288  1.00  0.00    -0.248 NA
ATOM     55  C   UNL     1      11.665  10.927   7.337  1.00  0.00     0.031 C 
ATOM     56  C   UNL     1       7.508  13.364  11.036  1.00  0.00     0.029 A 
ATOM     57  C   UNL     1       8.171  12.491  10.187  1.00  0.00     0.049 A 
ATOM     58  H   UNL     1       7.535  10.626   9.437  1.00  0.00     0.167 HD
ATOM     59  C   UNL     1      10.053  11.748   8.748  1.00  0.00     0.074 A 
ATOM     60  C   UNL     1      11.363  11.927   8.154  1.00  0.00     0.031 C 
ATOM     61  C   UNL     1       9.472  12.638   9.590  1.00  0.00     0.031 A 
BRANCH  48  62
ATOM     62  C   UNL     1       3.862  10.963  11.576  1.00  0.00    -0.014 A 
ATOM     63  C   UNL     1       3.552  10.274  12.761  1.00  0.00     0.009 A 
ATOM     64  C   UNL     1       2.995  11.972  11.131  1.00  0.00     0.009 A 
ATOM     65  C   UNL     1       2.376  10.557  13.458  1.00  0.00     0.001 A 
ATOM     66  C   UNL     1       1.836  12.275  11.848  1.00  0.00     0.001 A 
ATOM     67  C   UNL     1       1.521  11.560  13.002  1.00  0.00     0.000 A 
ENDBRANCH  48  62
BRANCH  49  68
ATOM     68  C   UNL     1      11.683   8.379   5.901  1.00  0.00    -0.014 A 
ATOM     69  C   UNL     1      12.908   8.035   6.495  1.00  0.00     0.009 A 
ATOM     70  C   UNL     1      11.579   8.365   4.502  1.00  0.00     0.009 A 
ATOM     71  C   UNL     1      14.012   7.710   5.704  1.00  0.00     0.001 A 
ATOM     72  C   UNL     1      12.678   8.015   3.714  1.00  0.00     0.001 A 
ATOM     73  C   UNL     1      13.895   7.697   4.315  1.00  0.00     0.000 A 
ENDBRANCH  49  68
BRANCH  61  74
ATOM     74  C   UNL     1      10.267  13.858   9.950  1.00  0.00    -0.014 A 
ATOM     75  C   UNL     1      10.442  14.909   9.037  1.00  0.00     0.009 A 
ATOM     76  C   UNL     1      10.807  13.975  11.241  1.00  0.00     0.009 A 
ATOM     77  C   UNL     1      11.171  16.042   9.402  1.00  0.00     0.001 A 
ATOM     78  C   UNL     1      11.512  15.120  11.610  1.00  0.00     0.001 A 
ATOM     79  C   UNL     1      11.701  16.148  10.688  1.00  0.00     0.000 A 
ENDBRANCH  61  74
ENDBRANCH  35  36
ENDBRANCH  27  30
ENDBRANCH  25  26
ENDBRANCH  24  25
ENDBRANCH   1  24
TORSDOF 14
