REMARK SMILES COc1cccc(Cn2c(=O)c(=O)n(CC(=O)NCCCCNC(=O)c3ccc(-c4c5nc(c(-c6ccccc6)c6ccc([nH]6)c(-c6ccccc6)c6nc(c(-c7ccccc7)c7ccc4[nH]7)C=C6)C=C5)cc3)c3ccccc32)c1
REMARK SMILES IDX 19 1 18 2 16 3 17 4 15 6 14 7 9 8 10 9 79 10 11 11 12 12
REMARK SMILES IDX 74 13 78 14 13 15 75 16 77 17 76 18 8 19 7 20 3 21 4 22
REMARK SMILES IDX 80 23 5 24 6 25 2 26 1 27 20 28 21 29 22 30 23 31 24 32
REMARK SMILES IDX 25 34 26 35 27 36 73 37 28 38 72 39 29 40 30 41 31 42 66 43
REMARK SMILES IDX 32 44 71 45 65 46 67 47 33 48 70 49 64 50 63 51 34 53 56 54
REMARK SMILES IDX 41 55 55 56 42 57 45 58 54 59 68 60 43 61 44 62 53 64 69 65
REMARK SMILES IDX 46 66 35 67 36 68 40 69 37 70 39 71 38 72 57 73 58 74 62 75
REMARK SMILES IDX 59 76 61 77 60 78 47 79 48 80 52 81 49 82 51 83 50 84
REMARK H PARENT 18 5 23 33 67 52 45 63
REMARK Flexibility Score: inf
ROOT
ATOM      1  C   UNL     1       1.199   6.414  -2.278  1.00  0.00     0.116 C 
ENDROOT
BRANCH   1   2
ATOM      2  N   UNL     1       1.585   6.781  -3.623  1.00  0.00    -0.355 N 
ATOM      3  C   UNL     1       2.731   6.559  -4.315  1.00  0.00     0.240 C 
ATOM      4  O   UNL     1       2.744   6.973  -5.482  1.00  0.00    -0.273 OA
ATOM      5  H   UNL     1       0.898   7.279  -4.123  1.00  0.00     0.163 HD
BRANCH   3   6
ATOM      6  C   UNL     1       3.886   5.668  -3.837  1.00  0.00     0.226 C 
BRANCH   6   7
ATOM      7  N   UNL     1       4.361   5.530  -2.469  1.00  0.00    -0.293 N 
ATOM      8  N   UNL     1       5.391   4.948   0.082  1.00  0.00    -0.298 N 
ATOM      9  C   UNL     1       5.093   3.914  -0.781  1.00  0.00     0.317 A 
ATOM     10  C   UNL     1       5.754   6.177  -0.532  1.00  0.00     0.068 A 
ATOM     11  O   UNL     1       5.510   2.762  -0.692  1.00  0.00    -0.263 OA
ATOM     12  C   UNL     1       4.102   4.307  -1.863  1.00  0.00     0.317 A 
ATOM     13  C   UNL     1       5.281   6.443  -1.853  1.00  0.00     0.069 A 
ATOM     14  C   UNL     1       6.694   7.032   0.058  1.00  0.00     0.028 A 
ATOM     15  O   UNL     1       3.204   3.530  -2.176  1.00  0.00    -0.263 OA
ATOM     16  C   UNL     1       5.731   7.590  -2.517  1.00  0.00     0.028 A 
ATOM     17  C   UNL     1       7.186   8.128  -0.657  1.00  0.00     0.002 A 
ATOM     18  C   UNL     1       6.698   8.412  -1.931  1.00  0.00     0.002 A 
BRANCH   8  19
ATOM     19  C   UNL     1       5.368   4.662   1.515  1.00  0.00     0.162 C 
BRANCH  19  20
ATOM     20  C   UNL     1       3.940   4.243   1.907  1.00  0.00    -0.024 A 
ATOM     21  C   UNL     1       2.036   2.809   1.383  1.00  0.00     0.119 A 
ATOM     22  C   UNL     1       1.179   3.757   1.929  1.00  0.00     0.046 A 
ATOM     23  C   UNL     1       3.413   3.010   1.454  1.00  0.00     0.052 A 
ATOM     24  C   UNL     1       1.691   4.903   2.537  1.00  0.00     0.004 A 
ATOM     25  C   UNL     1       3.064   5.164   2.498  1.00  0.00     0.006 A 
BRANCH  21  26
ATOM     26  O   UNL     1       1.435   1.847   0.619  1.00  0.00    -0.497 OA
ATOM     27  C   UNL     1       1.925   0.523   0.766  1.00  0.00     0.278 C 
ENDBRANCH  21  26
ENDBRANCH  19  20
ENDBRANCH   8  19
ENDBRANCH   6   7
ENDBRANCH   3   6
ENDBRANCH   1   2
BRANCH   1  28
ATOM     28  C   UNL     1       1.694   7.434  -1.254  1.00  0.00     0.023 C 
BRANCH  28  29
ATOM     29  C   UNL     1       0.917   8.756  -1.238  1.00  0.00     0.023 C 
BRANCH  29  30
ATOM     30  C   UNL     1      -0.512   8.642  -0.724  1.00  0.00     0.116 C 
BRANCH  30  31
ATOM     31  N   UNL     1      -0.605   8.204   0.662  1.00  0.00    -0.352 N 
ATOM     32  C   UNL     1      -1.712   8.280   1.479  1.00  0.00     0.251 C 
ATOM     33  H   UNL     1       0.208   7.812   1.056  1.00  0.00     0.163 HD
ATOM     34  O   UNL     1      -1.656   7.982   2.665  1.00  0.00    -0.269 OA
BRANCH  32  35
ATOM     35  C   UNL     1      -2.964   8.793   0.886  1.00  0.00     0.039 A 
ATOM     36  C   UNL     1      -3.517   9.977   1.378  1.00  0.00     0.014 A 
ATOM     37  C   UNL     1      -3.495   8.171  -0.245  1.00  0.00     0.014 A 
ATOM     38  C   UNL     1      -4.553  10.591   0.672  1.00  0.00     0.010 A 
ATOM     39  C   UNL     1      -4.473   8.823  -0.986  1.00  0.00     0.010 A 
ATOM     40  C   UNL     1      -5.001  10.046  -0.543  1.00  0.00    -0.014 A 
BRANCH  40  41
ATOM     41  C   UNL     1      -6.000  10.750  -1.387  1.00  0.00     0.031 A 
ATOM     42  C   UNL     1      -7.334  10.116  -1.660  1.00  0.00     0.074 A 
ATOM     43  C   UNL     1      -5.671  11.914  -1.982  1.00  0.00     0.049 A 
ATOM     44  N   UNL     1      -8.302  10.533  -2.436  1.00  0.00    -0.248 NA
ATOM     45  C   UNL     1      -7.603   8.828  -1.000  1.00  0.00     0.031 C 
ATOM     46  C   UNL     1      -4.387  12.607  -1.846  1.00  0.00     0.029 A 
ATOM     47  N   UNL     1      -6.390  12.715  -2.833  1.00  0.00    -0.354 N 
ATOM     48  C   UNL     1      -9.280   9.550  -2.376  1.00  0.00     0.074 A 
ATOM     49  C   UNL     1      -8.771   8.495  -1.527  1.00  0.00     0.031 C 
ATOM     50  C   UNL     1      -4.421  13.741  -2.565  1.00  0.00     0.029 A 
ATOM     51  C   UNL     1      -5.710  13.838  -3.241  1.00  0.00     0.049 A 
ATOM     52  H   UNL     1      -7.307  12.506  -3.124  1.00  0.00     0.167 HD
ATOM     53  C   UNL     1     -10.503   9.534  -2.957  1.00  0.00     0.031 A 
ATOM     54  C   UNL     1      -6.082  14.832  -4.070  1.00  0.00     0.031 A 
ATOM     55  C   UNL     1     -11.021  10.591  -3.781  1.00  0.00     0.049 A 
ATOM     56  C   UNL     1      -7.447  14.795  -4.697  1.00  0.00     0.074 A 
ATOM     57  C   UNL     1     -12.277  10.703  -4.352  1.00  0.00     0.029 A 
ATOM     58  N   UNL     1     -10.308  11.719  -4.154  1.00  0.00    -0.354 N 
ATOM     59  N   UNL     1      -8.392  13.896  -4.565  1.00  0.00    -0.248 NA
ATOM     60  C   UNL     1      -7.799  15.915  -5.583  1.00  0.00     0.031 C 
ATOM     61  C   UNL     1     -12.310  11.882  -5.104  1.00  0.00     0.029 A 
ATOM     62  C   UNL     1     -11.089  12.523  -4.966  1.00  0.00     0.049 A 
ATOM     63  H   UNL     1      -9.383  11.920  -3.881  1.00  0.00     0.167 HD
ATOM     64  C   UNL     1      -9.456  14.350  -5.332  1.00  0.00     0.074 A 
ATOM     65  C   UNL     1      -9.046  15.612  -5.914  1.00  0.00     0.031 C 
ATOM     66  C   UNL     1     -10.664  13.773  -5.538  1.00  0.00     0.031 A 
BRANCH  53  67
ATOM     67  C   UNL     1     -11.363   8.326  -2.715  1.00  0.00    -0.014 A 
ATOM     68  C   UNL     1     -11.941   8.088  -1.457  1.00  0.00     0.009 A 
ATOM     69  C   UNL     1     -11.616   7.426  -3.761  1.00  0.00     0.009 A 
ATOM     70  C   UNL     1     -12.722   6.951  -1.242  1.00  0.00     0.001 A 
ATOM     71  C   UNL     1     -12.419   6.304  -3.550  1.00  0.00     0.001 A 
ATOM     72  C   UNL     1     -12.963   6.063  -2.289  1.00  0.00     0.000 A 
ENDBRANCH  53  67
BRANCH  54  73
ATOM     73  C   UNL     1      -5.156  15.961  -4.342  1.00  0.00    -0.014 A 
ATOM     74  C   UNL     1      -5.404  17.229  -3.793  1.00  0.00     0.009 A 
ATOM     75  C   UNL     1      -4.025  15.782  -5.154  1.00  0.00     0.009 A 
ATOM     76  C   UNL     1      -4.551  18.300  -4.072  1.00  0.00     0.001 A 
ATOM     77  C   UNL     1      -3.161  16.849  -5.411  1.00  0.00     0.001 A 
ATOM     78  C   UNL     1      -3.429  18.108  -4.876  1.00  0.00     0.000 A 
ENDBRANCH  54  73
BRANCH  66  79
ATOM     79  C   UNL     1     -11.637  14.510  -6.412  1.00  0.00    -0.014 A 
ATOM     80  C   UNL     1     -11.476  14.544  -7.805  1.00  0.00     0.009 A 
ATOM     81  C   UNL     1     -12.753  15.137  -5.836  1.00  0.00     0.009 A 
ATOM     82  C   UNL     1     -12.404  15.214  -8.604  1.00  0.00     0.001 A 
ATOM     83  C   UNL     1     -13.692  15.784  -6.640  1.00  0.00     0.001 A 
ATOM     84  C   UNL     1     -13.513  15.828  -8.022  1.00  0.00     0.000 A 
ENDBRANCH  66  79
ENDBRANCH  40  41
ENDBRANCH  32  35
ENDBRANCH  30  31
ENDBRANCH  29  30
ENDBRANCH  28  29
ENDBRANCH   1  28
TORSDOF 15
