REMARK SMILES C[C@@H]1[C@@H](C(=O)NCCCCNC(=O)c2ccc(-c3c4nc(c(-c5ccccc5)c5ccc([nH]5)c(-c5ccccc5)c5nc(c(-c6ccccc6)c6ccc3[nH]6)C=C5)C=C4)cc2)CCN1C(=O)Nc1nccs1
REMARK SMILES IDX 8 1 7 2 6 3 4 4 5 5 3 7 1 8 2 9 64 10 62 11 63 12 65 13
REMARK SMILES IDX 66 14 67 15 68 17 69 18 72 19 70 20 71 21 9 22 10 23 11 24
REMARK SMILES IDX 12 25 13 27 14 28 15 29 61 30 16 31 60 32 17 33 18 34 19 35
REMARK SMILES IDX 54 36 20 37 59 38 53 39 55 40 21 41 58 42 52 43 51 44 22 46
REMARK SMILES IDX 44 47 29 48 43 49 30 50 33 51 42 52 56 53 31 54 32 55 41 57
REMARK SMILES IDX 57 58 34 59 23 60 24 61 28 62 25 63 27 64 26 65 45 66 46 67
REMARK SMILES IDX 50 68 47 69 49 70 48 71 35 72 36 73 40 74 37 75 39 76 38 77
REMARK H PARENT 6 6 67 16 11 26 55 45 33 56
REMARK Flexibility Score: inf
ROOT
ATOM      1  C   UNL     1      -2.858   4.388  -1.158  1.00  0.00     0.023 C 
ENDROOT
BRANCH   1   2
ATOM      2  C   UNL     1      -2.545   2.956  -0.749  1.00  0.00     0.116 C 
BRANCH   2   3
ATOM      3  N   UNL     1      -1.817   2.219  -1.762  1.00  0.00    -0.356 N 
ATOM      4  C   UNL     1      -0.842   1.277  -1.587  1.00  0.00     0.225 C 
ATOM      5  O   UNL     1      -0.387   0.732  -2.592  1.00  0.00    -0.275 OA
ATOM      6  H   UNL     1      -2.056   2.422  -2.695  1.00  0.00     0.163 HD
BRANCH   4   7
ATOM      7  C   UNL     1      -0.336   1.008  -0.174  1.00  0.00     0.102 C 
ATOM      8  C   UNL     1       1.714   0.246   1.061  1.00  0.00     0.032 C 
ATOM      9  C   UNL     1       0.807  -0.022  -0.151  1.00  0.00     0.096 C 
ATOM     10  N   UNL     1       0.132  -1.320  -0.018  1.00  0.00    -0.321 N 
ATOM     11  C   UNL     1      -1.383   0.353   0.730  1.00  0.00     0.037 C 
ATOM     12  C   UNL     1      -1.232  -1.130   0.443  1.00  0.00     0.122 C 
BRANCH  10  13
ATOM     13  C   UNL     1       0.466  -2.562  -0.476  1.00  0.00     0.323 C 
ATOM     14  O   UNL     1      -0.315  -3.511  -0.311  1.00  0.00    -0.248 OA
ATOM     15  N   UNL     1       1.534  -2.824  -1.250  1.00  0.00    -0.283 N 
ATOM     16  H   UNL     1       1.463  -3.670  -1.748  1.00  0.00     0.174 HD
BRANCH  15  17
ATOM     17  C   UNL     1       2.692  -2.153  -1.479  1.00  0.00     0.190 A 
ATOM     18  N   UNL     1       3.298  -1.237  -0.771  1.00  0.00    -0.228 NA
ATOM     19  S   UNL     1       3.479  -2.617  -2.926  1.00  0.00    -0.105 S 
ATOM     20  C   UNL     1       4.395  -0.766  -1.461  1.00  0.00     0.125 A 
ATOM     21  C   UNL     1       4.625  -1.363  -2.680  1.00  0.00     0.088 A 
ENDBRANCH  15  17
ENDBRANCH  10  13
ENDBRANCH   4   7
ENDBRANCH   2   3
ENDBRANCH   1   2
BRANCH   1  22
ATOM     22  C   UNL     1      -3.716   4.535  -2.412  1.00  0.00     0.023 C 
BRANCH  22  23
ATOM     23  C   UNL     1      -4.986   3.692  -2.436  1.00  0.00     0.116 C 
BRANCH  23  24
ATOM     24  N   UNL     1      -5.888   3.991  -1.335  1.00  0.00    -0.352 N 
ATOM     25  C   UNL     1      -7.187   4.446  -1.359  1.00  0.00     0.251 C 
ATOM     26  H   UNL     1      -5.513   3.846  -0.436  1.00  0.00     0.163 HD
ATOM     27  O   UNL     1      -7.742   4.781  -0.322  1.00  0.00    -0.269 OA
BRANCH  25  28
ATOM     28  C   UNL     1      -7.899   4.559  -2.650  1.00  0.00     0.039 A 
ATOM     29  C   UNL     1      -8.622   5.722  -2.924  1.00  0.00     0.014 A 
ATOM     30  C   UNL     1      -7.840   3.530  -3.593  1.00  0.00     0.014 A 
ATOM     31  C   UNL     1      -9.222   5.884  -4.175  1.00  0.00     0.010 A 
ATOM     32  C   UNL     1      -8.354   3.733  -4.868  1.00  0.00     0.010 A 
ATOM     33  C   UNL     1      -9.058   4.909  -5.172  1.00  0.00    -0.014 A 
BRANCH  33  34
ATOM     34  C   UNL     1      -9.627   5.087  -6.532  1.00  0.00     0.031 A 
ATOM     35  C   UNL     1     -10.658   4.121  -7.049  1.00  0.00     0.074 A 
ATOM     36  C   UNL     1      -9.172   6.075  -7.327  1.00  0.00     0.049 A 
ATOM     37  N   UNL     1     -11.225   4.070  -8.228  1.00  0.00    -0.248 NA
ATOM     38  C   UNL     1     -11.087   3.054  -6.130  1.00  0.00     0.031 C 
ATOM     39  C   UNL     1      -8.148   7.058  -6.963  1.00  0.00     0.029 A 
ATOM     40  N   UNL     1      -9.512   6.414  -8.614  1.00  0.00    -0.354 N 
ATOM     41  C   UNL     1     -12.059   2.959  -8.196  1.00  0.00     0.074 A 
ATOM     42  C   UNL     1     -11.879   2.330  -6.907  1.00  0.00     0.031 C 
ATOM     43  C   UNL     1      -7.969   7.907  -7.988  1.00  0.00     0.029 A 
ATOM     44  C   UNL     1      -8.829   7.504  -9.096  1.00  0.00     0.049 A 
ATOM     45  H   UNL     1     -10.183   5.922  -9.140  1.00  0.00     0.167 HD
ATOM     46  C   UNL     1     -12.917   2.512  -9.144  1.00  0.00     0.031 A 
ATOM     47  C   UNL     1      -8.884   8.108 -10.298  1.00  0.00     0.031 A 
ATOM     48  C   UNL     1     -13.102   3.139 -10.425  1.00  0.00     0.049 A 
ATOM     49  C   UNL     1      -9.827   7.580 -11.344  1.00  0.00     0.074 A 
ATOM     50  C   UNL     1     -13.982   2.793 -11.435  1.00  0.00     0.029 A 
ATOM     51  N   UNL     1     -12.392   4.242 -10.873  1.00  0.00    -0.354 N 
ATOM     52  N   UNL     1     -10.656   6.567 -11.275  1.00  0.00    -0.248 NA
ATOM     53  C   UNL     1      -9.851   8.291 -12.630  1.00  0.00     0.031 C 
ATOM     54  C   UNL     1     -13.764   3.652 -12.517  1.00  0.00     0.029 A 
ATOM     55  C   UNL     1     -12.798   4.576 -12.154  1.00  0.00     0.049 A 
ATOM     56  H   UNL     1     -11.702   4.718 -10.356  1.00  0.00     0.167 HD
ATOM     57  C   UNL     1     -11.326   6.541 -12.492  1.00  0.00     0.074 A 
ATOM     58  C   UNL     1     -10.814   7.647 -13.274  1.00  0.00     0.031 C 
ATOM     59  C   UNL     1     -12.282   5.682 -12.920  1.00  0.00     0.031 A 
BRANCH  46  60
ATOM     60  C   UNL     1     -13.712   1.274  -8.827  1.00  0.00    -0.014 A 
ATOM     61  C   UNL     1     -14.709   1.280  -7.838  1.00  0.00     0.009 A 
ATOM     62  C   UNL     1     -13.474   0.089  -9.541  1.00  0.00     0.009 A 
ATOM     63  C   UNL     1     -15.418   0.115  -7.539  1.00  0.00     0.001 A 
ATOM     64  C   UNL     1     -14.209  -1.065  -9.264  1.00  0.00     0.001 A 
ATOM     65  C   UNL     1     -15.171  -1.055  -8.255  1.00  0.00     0.000 A 
ENDBRANCH  46  60
BRANCH  47  66
ATOM     66  C   UNL     1      -8.036   9.299 -10.575  1.00  0.00    -0.014 A 
ATOM     67  C   UNL     1      -8.617  10.568 -10.720  1.00  0.00     0.009 A 
ATOM     68  C   UNL     1      -6.644   9.172 -10.706  1.00  0.00     0.009 A 
ATOM     69  C   UNL     1      -7.826  11.680 -11.020  1.00  0.00     0.001 A 
ATOM     70  C   UNL     1      -5.852  10.291 -10.973  1.00  0.00     0.001 A 
ATOM     71  C   UNL     1      -6.445  11.542 -11.141  1.00  0.00     0.000 A 
ENDBRANCH  47  66
BRANCH  59  72
ATOM     72  C   UNL     1     -12.878   5.933 -14.278  1.00  0.00    -0.014 A 
ATOM     73  C   UNL     1     -12.146   5.716 -15.455  1.00  0.00     0.009 A 
ATOM     74  C   UNL     1     -14.213   6.358 -14.377  1.00  0.00     0.009 A 
ATOM     75  C   UNL     1     -12.727   5.956 -16.702  1.00  0.00     0.001 A 
ATOM     76  C   UNL     1     -14.802   6.565 -15.625  1.00  0.00     0.001 A 
ATOM     77  C   UNL     1     -14.055   6.375 -16.786  1.00  0.00     0.000 A 
ENDBRANCH  59  72
ENDBRANCH  33  34
ENDBRANCH  25  28
ENDBRANCH  23  24
ENDBRANCH  22  23
ENDBRANCH   1  22
TORSDOF 13
