REMARK SMILES COc1cc(C=C2C(=O)N(C)C(=S)N(C)C2=O)c(Br)cc1OCC(=O)NCCCCNC(=O)c1ccc(-c2c3nc(c(-c4ccccc4)c4ccc([nH]4)c(-c4ccccc4)c4nc(c(-c5ccccc5)c5ccc2[nH]5)C=C4)C=C3)cc1
REMARK SMILES IDX 28 1 27 2 26 3 24 4 25 5 23 7 22 8 21 9 3 10 4 11 5 12 20 13
REMARK SMILES IDX 18 14 19 15 2 16 1 17 6 18 7 19 8 20 16 21 9 22 10 23 14 24
REMARK SMILES IDX 17 25 11 26 12 27 15 28 13 29 29 30 30 31 31 32 32 33 33 35
REMARK SMILES IDX 34 36 35 37 81 38 36 39 80 40 37 41 38 42 39 43 74 44 40 45
REMARK SMILES IDX 79 46 73 47 75 48 41 49 78 50 72 51 71 52 42 54 64 55 49 56
REMARK SMILES IDX 63 57 50 58 53 59 62 60 76 61 51 62 52 63 61 65 77 66 54 67
REMARK SMILES IDX 43 68 44 69 48 70 45 71 47 72 46 73 65 74 66 75 70 76 67 77
REMARK SMILES IDX 69 78 68 79 55 80 56 81 60 82 57 83 59 84 58 85
REMARK H PARENT 26 6 31 34 75 53 53 64
REMARK Flexibility Score: inf
ROOT
ATOM      1  C   UNL     1      -1.259  -0.529   5.689  1.00  0.00     0.023 C 
ENDROOT
BRANCH   1   2
ATOM      2  C   UNL     1      -2.336   0.038   4.768  1.00  0.00     0.116 C 
BRANCH   2   3
ATOM      3  N   UNL     1      -1.811   0.921   3.751  1.00  0.00    -0.353 N 
ATOM      4  C   UNL     1      -1.751   0.715   2.401  1.00  0.00     0.257 C 
ATOM      5  O   UNL     1      -1.508   1.688   1.681  1.00  0.00    -0.271 OA
ATOM      6  H   UNL     1      -1.450   1.780   4.071  1.00  0.00     0.163 HD
BRANCH   4   7
ATOM      7  C   UNL     1      -2.077  -0.671   1.817  1.00  0.00     0.329 C 
BRANCH   7   8
ATOM      8  O   UNL     1      -1.556  -1.828   2.451  1.00  0.00    -0.480 OA
BRANCH   8   9
ATOM      9  C   UNL     1      -0.241  -2.162   2.297  1.00  0.00     0.163 A 
ATOM     10  C   UNL     1       0.768  -1.433   1.683  1.00  0.00     0.161 A 
ATOM     11  C   UNL     1       2.093  -1.884   1.751  1.00  0.00     0.059 A 
ATOM     12  C   UNL     1       2.465  -3.126   2.284  1.00  0.00    -0.006 A 
ATOM     13  C   UNL     1       0.100  -3.391   2.876  1.00  0.00     0.066 A 
ATOM     14  C   UNL     1       1.421  -3.878   2.855  1.00  0.00     0.029 A 
ATOM     15  Br  UNL     1       1.690  -5.576   3.680  1.00  0.00    -0.050 Br
BRANCH  10  16
ATOM     16  O   UNL     1       0.524  -0.224   1.098  1.00  0.00    -0.493 OA
ATOM     17  C   UNL     1       0.986  -0.144  -0.254  1.00  0.00     0.278 C 
ENDBRANCH  10  16
BRANCH  12  18
ATOM     18  C   UNL     1       3.895  -3.548   2.328  1.00  0.00     0.029 C 
ATOM     19  C   UNL     1       4.995  -3.039   1.728  1.00  0.00     0.106 C 
ATOM     20  C   UNL     1       5.015  -1.901   0.809  1.00  0.00     0.265 C 
ATOM     21  C   UNL     1       6.318  -3.517   2.170  1.00  0.00     0.265 C 
ATOM     22  O   UNL     1       4.338  -1.863  -0.212  1.00  0.00    -0.268 OA
ATOM     23  N   UNL     1       5.839  -0.883   1.260  1.00  0.00    -0.288 N 
ATOM     24  N   UNL     1       7.292  -2.512   2.216  1.00  0.00    -0.288 N 
ATOM     25  O   UNL     1       6.487  -4.682   2.520  1.00  0.00    -0.268 OA
ATOM     26  C   UNL     1       5.342   0.462   0.957  1.00  0.00     0.156 C 
ATOM     27  C   UNL     1       7.070  -1.148   1.880  1.00  0.00     0.185 C 
ATOM     28  C   UNL     1       8.591  -2.934   2.745  1.00  0.00     0.156 C 
ATOM     29  S   UNL     1       8.215   0.063   2.185  1.00  0.00    -0.040 S 
ENDBRANCH  12  18
ENDBRANCH   8   9
ENDBRANCH   7   8
ENDBRANCH   4   7
ENDBRANCH   2   3
ENDBRANCH   1   2
BRANCH   1  30
ATOM     30  C   UNL     1      -0.421   0.503   6.447  1.00  0.00     0.023 C 
BRANCH  30  31
ATOM     31  C   UNL     1      -1.196   1.605   7.161  1.00  0.00     0.116 C 
BRANCH  31  32
ATOM     32  N   UNL     1      -2.173   1.106   8.113  1.00  0.00    -0.352 N 
ATOM     33  C   UNL     1      -2.495   1.581   9.361  1.00  0.00     0.251 C 
ATOM     34  H   UNL     1      -2.677   0.312   7.822  1.00  0.00     0.163 HD
ATOM     35  O   UNL     1      -3.303   0.972  10.058  1.00  0.00    -0.269 OA
BRANCH  33  36
ATOM     36  C   UNL     1      -1.847   2.803   9.887  1.00  0.00     0.039 A 
ATOM     37  C   UNL     1      -1.381   2.797  11.206  1.00  0.00     0.014 A 
ATOM     38  C   UNL     1      -1.703   3.949   9.101  1.00  0.00     0.014 A 
ATOM     39  C   UNL     1      -0.720   3.917  11.716  1.00  0.00     0.010 A 
ATOM     40  C   UNL     1      -0.984   5.039   9.588  1.00  0.00     0.010 A 
ATOM     41  C   UNL     1      -0.490   5.036  10.902  1.00  0.00    -0.014 A 
BRANCH  41  42
ATOM     42  C   UNL     1       0.245   6.221  11.412  1.00  0.00     0.031 A 
ATOM     43  C   UNL     1      -0.457   7.545  11.545  1.00  0.00     0.074 A 
ATOM     44  C   UNL     1       1.559   6.126  11.697  1.00  0.00     0.049 A 
ATOM     45  N   UNL     1       0.029   8.707  11.904  1.00  0.00    -0.248 NA
ATOM     46  C   UNL     1      -1.889   7.571  11.206  1.00  0.00     0.031 C 
ATOM     47  C   UNL     1       2.369   4.912  11.579  1.00  0.00     0.029 A 
ATOM     48  N   UNL     1       2.446   7.076  12.140  1.00  0.00    -0.354 N 
ATOM     49  C   UNL     1      -1.029   9.602  11.810  1.00  0.00     0.074 A 
ATOM     50  C   UNL     1      -2.170   8.861  11.320  1.00  0.00     0.031 C 
ATOM     51  C   UNL     1       3.627   5.185  11.963  1.00  0.00     0.029 A 
ATOM     52  C   UNL     1       3.721   6.598  12.319  1.00  0.00     0.049 A 
ATOM     53  H   UNL     1       2.192   8.011  12.314  1.00  0.00     0.167 HD
ATOM     54  C   UNL     1      -1.056  10.921  12.121  1.00  0.00     0.031 A 
ATOM     55  C   UNL     1       4.841   7.226  12.721  1.00  0.00     0.031 A 
ATOM     56  C   UNL     1       0.070  11.658  12.628  1.00  0.00     0.049 A 
ATOM     57  C   UNL     1       4.784   8.688  13.068  1.00  0.00     0.074 A 
ATOM     58  C   UNL     1       0.128  12.985  13.018  1.00  0.00     0.029 A 
ATOM     59  N   UNL     1       1.337  11.129  12.817  1.00  0.00    -0.354 N 
ATOM     60  N   UNL     1       3.763   9.508  13.026  1.00  0.00    -0.248 NA
ATOM     61  C   UNL     1       6.035   9.306  13.532  1.00  0.00     0.031 C 
ATOM     62  C   UNL     1       1.440  13.269  13.409  1.00  0.00     0.029 A 
ATOM     63  C   UNL     1       2.187  12.105  13.309  1.00  0.00     0.049 A 
ATOM     64  H   UNL     1       1.595  10.197  12.630  1.00  0.00     0.167 HD
ATOM     65  C   UNL     1       4.237  10.727  13.491  1.00  0.00     0.074 A 
ATOM     66  C   UNL     1       5.635  10.537  13.818  1.00  0.00     0.031 C 
ATOM     67  C   UNL     1       3.572  11.899  13.638  1.00  0.00     0.031 A 
BRANCH  54  68
ATOM     68  C   UNL     1      -2.354  11.650  11.914  1.00  0.00    -0.014 A 
ATOM     69  C   UNL     1      -3.462  11.413  12.743  1.00  0.00     0.009 A 
ATOM     70  C   UNL     1      -2.463  12.605  10.892  1.00  0.00     0.009 A 
ATOM     71  C   UNL     1      -4.665  12.088  12.526  1.00  0.00     0.001 A 
ATOM     72  C   UNL     1      -3.658  13.300  10.696  1.00  0.00     0.001 A 
ATOM     73  C   UNL     1      -4.761  13.033  11.506  1.00  0.00     0.000 A 
ENDBRANCH  54  68
BRANCH  55  74
ATOM     74  C   UNL     1       6.114   6.471  12.847  1.00  0.00    -0.014 A 
ATOM     75  C   UNL     1       6.641   6.175  14.114  1.00  0.00     0.009 A 
ATOM     76  C   UNL     1       6.814   6.051  11.706  1.00  0.00     0.009 A 
ATOM     77  C   UNL     1       7.857   5.498  14.235  1.00  0.00     0.001 A 
ATOM     78  C   UNL     1       8.016   5.352  11.830  1.00  0.00     0.001 A 
ATOM     79  C   UNL     1       8.542   5.084  13.093  1.00  0.00     0.000 A 
ENDBRANCH  55  74
BRANCH  67  80
ATOM     80  C   UNL     1       4.335  13.053  14.225  1.00  0.00    -0.014 A 
ATOM     81  C   UNL     1       5.312  13.736  13.486  1.00  0.00     0.009 A 
ATOM     82  C   UNL     1       4.041  13.483  15.529  1.00  0.00     0.009 A 
ATOM     83  C   UNL     1       6.004  14.807  14.055  1.00  0.00     0.001 A 
ATOM     84  C   UNL     1       4.715  14.570  16.085  1.00  0.00     0.001 A 
ATOM     85  C   UNL     1       5.703  15.226  15.351  1.00  0.00     0.000 A 
ENDBRANCH  67  80
ENDBRANCH  41  42
ENDBRANCH  33  36
ENDBRANCH  31  32
ENDBRANCH  30  31
ENDBRANCH   1  30
TORSDOF 15
