REMARK SMILES NS(=O)(=O)c1ccc(-n2nc(NC(=O)NCCCCCCCCCCC(=O)NCCCCNC(=O)c3ccc(-c4c5nc(c(-c6ccccc6)c6ccc([nH]6)c(-c6ccccc6)c6nc(c(-c7ccccc7)c7ccc4[nH]7)C=C6)C=C5)cc3)cc2-c2ccccc2)cc1
REMARK SMILES IDX 22 1 21 2 20 3 19 4 18 5 17 6 16 7 15 8 12 9 13 10 14 12
REMARK SMILES IDX 11 14 9 15 10 16 85 17 84 18 8 19 5 20 6 21 93 22 7 23 92 24
REMARK SMILES IDX 2 25 3 26 4 27 1 28 86 31 87 32 91 33 88 34 90 35 89 36
REMARK SMILES IDX 23 37 24 38 25 39 26 40 27 41 28 42 29 44 30 45 31 46 32 47
REMARK SMILES IDX 33 48 34 49 35 51 36 52 37 53 83 54 38 55 82 56 39 57 40 58
REMARK SMILES IDX 41 59 76 60 42 61 81 62 75 63 77 64 43 65 80 66 74 67 73 68
REMARK SMILES IDX 44 70 66 71 51 72 65 73 52 74 55 75 64 76 78 77 53 78 54 79
REMARK SMILES IDX 63 81 79 82 56 83 45 84 46 85 50 86 47 87 49 88 48 89 67 90
REMARK SMILES IDX 68 91 72 92 69 93 71 94 70 95 57 96 58 97 62 98 59 99 61 100
REMARK SMILES IDX 60 101
REMARK H PARENT 12 11 15 13 1 29 1 30 28 43 33 50 77 69 55 80
REMARK Flexibility Score: inf
ROOT
ATOM      1  C   UNL     1      -3.576   3.365   3.264  1.00  0.00     0.000 C 
ENDROOT
BRANCH   1   2
ATOM      2  C   UNL     1      -2.255   2.979   3.892  1.00  0.00     0.000 C 
BRANCH   2   3
ATOM      3  C   UNL     1      -1.558   4.138   4.595  1.00  0.00     0.000 C 
BRANCH   3   4
ATOM      4  C   UNL     1      -2.342   4.834   5.712  1.00  0.00     0.000 C 
BRANCH   4   5
ATOM      5  C   UNL     1      -2.827   3.935   6.854  1.00  0.00     0.002 C 
BRANCH   5   6
ATOM      6  C   UNL     1      -1.803   2.957   7.426  1.00  0.00     0.021 C 
BRANCH   6   7
ATOM      7  C   UNL     1      -0.419   3.520   7.697  1.00  0.00     0.117 C 
BRANCH   7   8
ATOM      8  N   UNL     1      -0.268   4.328   8.878  1.00  0.00    -0.338 N 
ATOM      9  N   UNL     1       2.025   3.907   9.377  1.00  0.00    -0.291 N 
ATOM     10  C   UNL     1       0.835   4.497   9.644  1.00  0.00     0.320 C 
ATOM     11  H   UNL     1       2.612   3.820  10.163  1.00  0.00     0.173 HD
ATOM     12  O   UNL     1       0.711   5.122  10.701  1.00  0.00    -0.248 OA
ATOM     13  H   UNL     1      -1.070   4.821   9.166  1.00  0.00     0.165 HD
BRANCH   9  14
ATOM     14  C   UNL     1       2.573   3.405   8.215  1.00  0.00     0.157 A 
ATOM     15  N   UNL     1       2.740   2.786   6.195  1.00  0.00    -0.231 N 
ATOM     16  N   UNL     1       2.241   3.769   6.973  1.00  0.00    -0.149 NA
ATOM     17  C   UNL     1       3.753   2.098   6.847  1.00  0.00     0.076 A 
ATOM     18  C   UNL     1       3.617   2.449   8.178  1.00  0.00     0.078 A 
BRANCH  15  19
ATOM     19  C   UNL     1       2.186   2.520   4.911  1.00  0.00     0.065 A 
ATOM     20  C   UNL     1       1.173   1.993   2.366  1.00  0.00     0.082 A 
ATOM     21  C   UNL     1       1.490   0.929   3.211  1.00  0.00     0.024 A 
ATOM     22  C   UNL     1       1.336   3.317   2.793  1.00  0.00     0.024 A 
ATOM     23  C   UNL     1       2.008   1.193   4.482  1.00  0.00     0.030 A 
ATOM     24  C   UNL     1       1.819   3.582   4.080  1.00  0.00     0.030 A 
BRANCH  20  25
ATOM     25  S   UNL     1       0.600   1.689   0.720  1.00  0.00     0.238 S 
ATOM     26  O   UNL     1       1.158   2.702  -0.155  1.00  0.00    -0.207 OA
ATOM     27  O   UNL     1      -0.803   1.384   0.768  1.00  0.00    -0.207 OA
BRANCH  25  28
ATOM     28  N   UNL     1       1.373   0.264   0.274  1.00  0.00    -0.225 NA
ATOM     29  H   UNL     1       1.097   0.009  -0.674  1.00  0.00     0.137 HD
ATOM     30  H   UNL     1       1.108  -0.482   0.917  1.00  0.00     0.137 HD
ENDBRANCH  25  28
ENDBRANCH  20  25
ENDBRANCH  15  19
BRANCH  17  31
ATOM     31  C   UNL     1       4.720   1.255   6.151  1.00  0.00     0.000 A 
ATOM     32  C   UNL     1       5.348   1.753   4.996  1.00  0.00     0.010 A 
ATOM     33  C   UNL     1       4.985  -0.052   6.562  1.00  0.00     0.010 A 
ATOM     34  C   UNL     1       6.187   0.945   4.236  1.00  0.00     0.001 A 
ATOM     35  C   UNL     1       5.836  -0.860   5.802  1.00  0.00     0.001 A 
ATOM     36  C   UNL     1       6.427  -0.365   4.638  1.00  0.00     0.000 A 
ENDBRANCH  17  31
ENDBRANCH   9  14
ENDBRANCH   7   8
ENDBRANCH   6   7
ENDBRANCH   5   6
ENDBRANCH   4   5
ENDBRANCH   3   4
ENDBRANCH   2   3
ENDBRANCH   1   2
BRANCH   1  37
ATOM     37  C   UNL     1      -3.418   4.352   2.104  1.00  0.00     0.001 C 
BRANCH  37  38
ATOM     38  C   UNL     1      -3.711   3.778   0.725  1.00  0.00     0.010 C 
BRANCH  38  39
ATOM     39  C   UNL     1      -5.060   3.080   0.553  1.00  0.00     0.100 C 
BRANCH  39  40
ATOM     40  C   UNL     1      -6.236   3.998   0.275  1.00  0.00     0.219 C 
ATOM     41  O   UNL     1      -6.624   4.176  -0.883  1.00  0.00    -0.275 OA
ATOM     42  N   UNL     1      -6.931   4.624   1.266  1.00  0.00    -0.356 N 
ATOM     43  H   UNL     1      -7.666   5.194   0.944  1.00  0.00     0.163 HD
BRANCH  42  44
ATOM     44  C   UNL     1      -6.784   4.606   2.711  1.00  0.00     0.116 C 
BRANCH  44  45
ATOM     45  C   UNL     1      -6.285   5.950   3.269  1.00  0.00     0.023 C 
BRANCH  45  46
ATOM     46  C   UNL     1      -7.330   7.049   3.472  1.00  0.00     0.023 C 
BRANCH  46  47
ATOM     47  C   UNL     1      -8.344   6.774   4.569  1.00  0.00     0.116 C 
BRANCH  47  48
ATOM     48  N   UNL     1      -7.761   6.732   5.910  1.00  0.00    -0.352 N 
ATOM     49  C   UNL     1      -8.409   6.354   7.073  1.00  0.00     0.251 C 
ATOM     50  H   UNL     1      -6.816   6.997   5.994  1.00  0.00     0.163 HD
ATOM     51  O   UNL     1      -8.036   6.735   8.174  1.00  0.00    -0.269 OA
BRANCH  49  52
ATOM     52  C   UNL     1      -9.566   5.455   6.942  1.00  0.00     0.039 A 
ATOM     53  C   UNL     1     -10.777   5.725   7.580  1.00  0.00     0.014 A 
ATOM     54  C   UNL     1      -9.431   4.374   6.071  1.00  0.00     0.014 A 
ATOM     55  C   UNL     1     -11.884   4.947   7.254  1.00  0.00     0.010 A 
ATOM     56  C   UNL     1     -10.550   3.701   5.647  1.00  0.00     0.010 A 
ATOM     57  C   UNL     1     -11.772   3.958   6.258  1.00  0.00    -0.014 A 
BRANCH  57  58
ATOM     58  C   UNL     1     -12.967   3.308   5.728  1.00  0.00     0.031 A 
ATOM     59  C   UNL     1     -14.033   4.257   5.309  1.00  0.00     0.074 A 
ATOM     60  C   UNL     1     -13.061   1.987   5.463  1.00  0.00     0.049 A 
ATOM     61  N   UNL     1     -15.149   4.469   5.919  1.00  0.00    -0.248 NA
ATOM     62  C   UNL     1     -13.777   5.187   4.196  1.00  0.00     0.031 C 
ATOM     63  C   UNL     1     -12.018   0.960   5.549  1.00  0.00     0.029 A 
ATOM     64  N   UNL     1     -14.115   1.291   4.954  1.00  0.00    -0.354 N 
ATOM     65  C   UNL     1     -15.843   5.391   5.146  1.00  0.00     0.074 A 
ATOM     66  C   UNL     1     -14.884   5.934   4.217  1.00  0.00     0.031 C 
ATOM     67  C   UNL     1     -12.415  -0.147   4.881  1.00  0.00     0.029 A 
ATOM     68  C   UNL     1     -13.796   0.027   4.469  1.00  0.00     0.049 A 
ATOM     69  H   UNL     1     -15.030   1.655   4.930  1.00  0.00     0.167 HD
ATOM     70  C   UNL     1     -17.205   5.416   5.160  1.00  0.00     0.031 A 
ATOM     71  C   UNL     1     -14.603  -0.808   3.764  1.00  0.00     0.031 A 
ATOM     72  C   UNL     1     -17.733   4.666   6.277  1.00  0.00     0.049 A 
ATOM     73  C   UNL     1     -16.000  -0.397   4.031  1.00  0.00     0.074 A 
ATOM     74  C   UNL     1     -17.556   4.712   7.647  1.00  0.00     0.029 A 
ATOM     75  N   UNL     1     -18.240   3.416   6.006  1.00  0.00    -0.354 N 
ATOM     76  N   UNL     1     -16.569  -0.541   5.194  1.00  0.00    -0.248 NA
ATOM     77  C   UNL     1     -16.594   0.608   3.163  1.00  0.00     0.031 C 
ATOM     78  C   UNL     1     -17.476   3.345   8.048  1.00  0.00     0.029 A 
ATOM     79  C   UNL     1     -17.712   2.549   6.927  1.00  0.00     0.049 A 
ATOM     80  H   UNL     1     -18.867   3.186   5.284  1.00  0.00     0.167 HD
ATOM     81  C   UNL     1     -17.250   0.651   5.392  1.00  0.00     0.074 A 
ATOM     82  C   UNL     1     -17.312   1.277   4.070  1.00  0.00     0.031 C 
ATOM     83  C   UNL     1     -17.432   1.159   6.647  1.00  0.00     0.031 A 
BRANCH  70  84
ATOM     84  C   UNL     1     -18.044   5.694   3.934  1.00  0.00    -0.014 A 
ATOM     85  C   UNL     1     -19.445   5.636   4.060  1.00  0.00     0.009 A 
ATOM     86  C   UNL     1     -17.528   5.692   2.625  1.00  0.00     0.009 A 
ATOM     87  C   UNL     1     -20.271   5.466   2.944  1.00  0.00     0.001 A 
ATOM     88  C   UNL     1     -18.354   5.566   1.505  1.00  0.00     0.001 A 
ATOM     89  C   UNL     1     -19.723   5.416   1.667  1.00  0.00     0.000 A 
ENDBRANCH  70  84
BRANCH  71  90
ATOM     90  C   UNL     1     -14.259  -1.777   2.697  1.00  0.00    -0.014 A 
ATOM     91  C   UNL     1     -15.203  -2.716   2.244  1.00  0.00     0.009 A 
ATOM     92  C   UNL     1     -13.100  -1.598   1.921  1.00  0.00     0.009 A 
ATOM     93  C   UNL     1     -15.016  -3.409   1.038  1.00  0.00     0.001 A 
ATOM     94  C   UNL     1     -12.911  -2.292   0.719  1.00  0.00     0.001 A 
ATOM     95  C   UNL     1     -13.878  -3.184   0.269  1.00  0.00     0.000 A 
ENDBRANCH  71  90
BRANCH  83  96
ATOM     96  C   UNL     1     -17.088   0.292   7.835  1.00  0.00    -0.014 A 
ATOM     97  C   UNL     1     -15.810  -0.248   8.062  1.00  0.00     0.009 A 
ATOM     98  C   UNL     1     -18.055   0.149   8.841  1.00  0.00     0.009 A 
ATOM     99  C   UNL     1     -15.522  -0.935   9.248  1.00  0.00     0.001 A 
ATOM    100  C   UNL     1     -17.762  -0.515  10.033  1.00  0.00     0.001 A 
ATOM    101  C   UNL     1     -16.497  -1.063  10.234  1.00  0.00     0.000 A 
ENDBRANCH  83  96
ENDBRANCH  57  58
ENDBRANCH  49  52
ENDBRANCH  47  48
ENDBRANCH  46  47
ENDBRANCH  45  46
ENDBRANCH  44  45
ENDBRANCH  42  44
ENDBRANCH  39  40
ENDBRANCH  38  39
ENDBRANCH  37  38
ENDBRANCH   1  37
TORSDOF 26
