REMARK SMILES COc1ccc(C(=O)Nc2ccccc2C(=O)N[C@@H](C(=O)NCCCCNC(=O)c2ccc(-c3c4nc(c(-c5ccccc5)c5ccc([nH]5)c(-c5ccccc5)c5nc(c(-c6ccccc6)c6ccc3[nH]6)C=C5)C=C4)cc2)C(C)C)cc1
REMARK SMILES IDX 23 1 22 2 20 3 21 4 19 6 18 7 16 8 17 9 15 11 10 12 11 13
REMARK SMILES IDX 12 14 14 15 13 16 9 17 7 18 8 19 6 21 3 22 4 23 82 24 5 25
REMARK SMILES IDX 81 26 2 27 1 28 78 29 79 30 80 31 24 32 25 33 26 34 27 35
REMARK SMILES IDX 28 36 29 38 30 39 31 40 77 41 32 42 76 43 33 44 34 45 35 46
REMARK SMILES IDX 70 47 36 48 75 49 69 50 71 51 37 52 74 53 68 54 67 55 38 57
REMARK SMILES IDX 60 58 45 59 59 60 46 61 49 62 58 63 72 64 47 65 48 66 57 68
REMARK SMILES IDX 73 69 50 70 39 71 40 72 44 73 41 74 43 75 42 76 61 77 62 78
REMARK SMILES IDX 66 79 63 80 65 81 64 82 51 83 52 84 56 85 53 86 55 87 54 88
REMARK H PARENT 22 5 18 10 9 20 27 37 71 56 49 67
REMARK Flexibility Score: inf
ROOT
ATOM      1  C   UNL     1       4.468  -7.298   4.251  1.00  0.00     0.116 C 
ENDROOT
BRANCH   1   2
ATOM      2  N   UNL     1       3.229  -7.977   4.517  1.00  0.00    -0.354 N 
ATOM      3  C   UNL     1       1.989  -7.707   4.037  1.00  0.00     0.242 C 
ATOM      4  O   UNL     1       1.059  -8.182   4.698  1.00  0.00    -0.273 OA
ATOM      5  H   UNL     1       3.288  -8.743   5.133  1.00  0.00     0.163 HD
BRANCH   3   6
ATOM      6  C   UNL     1       1.764  -6.854   2.735  1.00  0.00     0.174 C 
BRANCH   6   7
ATOM      7  N   UNL     1       2.010  -5.440   3.101  1.00  0.00    -0.340 N 
ATOM      8  C   UNL     1       3.049  -4.524   2.981  1.00  0.00     0.254 C 
ATOM      9  O   UNL     1       2.991  -3.584   3.784  1.00  0.00    -0.269 OA
ATOM     10  H   UNL     1       1.228  -5.042   3.549  1.00  0.00     0.164 HD
BRANCH   8  11
ATOM     11  C   UNL     1       4.243  -4.536   2.044  1.00  0.00     0.063 A 
ATOM     12  C   UNL     1       4.433  -5.316   0.896  1.00  0.00     0.054 A 
ATOM     13  C   UNL     1       5.688  -5.371   0.249  1.00  0.00     0.027 A 
ATOM     14  C   UNL     1       6.696  -4.473   0.581  1.00  0.00     0.002 A 
ATOM     15  C   UNL     1       5.283  -3.620   2.343  1.00  0.00     0.016 A 
ATOM     16  C   UNL     1       6.472  -3.558   1.597  1.00  0.00     0.001 A 
BRANCH  12  17
ATOM     17  N   UNL     1       3.401  -5.882   0.143  1.00  0.00    -0.321 N 
ATOM     18  C   UNL     1       2.323  -5.186  -0.367  1.00  0.00     0.255 C 
ATOM     19  O   UNL     1       1.612  -5.718  -1.215  1.00  0.00    -0.269 OA
ATOM     20  H   UNL     1       3.446  -6.849  -0.038  1.00  0.00     0.170 HD
BRANCH  18  21
ATOM     21  C   UNL     1       2.069  -3.776   0.015  1.00  0.00     0.040 A 
ATOM     22  C   UNL     1       1.456  -1.147   0.707  1.00  0.00     0.118 A 
ATOM     23  C   UNL     1       0.750  -2.180   1.290  1.00  0.00     0.047 A 
ATOM     24  C   UNL     1       2.517  -1.418  -0.166  1.00  0.00     0.047 A 
ATOM     25  C   UNL     1       1.051  -3.481   0.920  1.00  0.00     0.017 A 
ATOM     26  C   UNL     1       2.823  -2.737  -0.522  1.00  0.00     0.017 A 
BRANCH  22  27
ATOM     27  O   UNL     1       1.061   0.115   1.045  1.00  0.00    -0.497 OA
ATOM     28  C   UNL     1       0.818   0.911  -0.111  1.00  0.00     0.278 C 
ENDBRANCH  22  27
ENDBRANCH  18  21
ENDBRANCH  12  17
ENDBRANCH   8  11
ENDBRANCH   6   7
BRANCH   6  29
ATOM     29  C   UNL     1       0.284  -7.235   2.279  1.00  0.00     0.015 C 
ATOM     30  C   UNL     1      -0.546  -6.380   1.324  1.00  0.00     0.010 C 
ATOM     31  C   UNL     1       0.313  -8.647   1.664  1.00  0.00     0.010 C 
ENDBRANCH   6  29
ENDBRANCH   3   6
ENDBRANCH   1   2
BRANCH   1  32
ATOM     32  C   UNL     1       4.738  -6.258   5.340  1.00  0.00     0.023 C 
BRANCH  32  33
ATOM     33  C   UNL     1       5.129  -6.869   6.688  1.00  0.00     0.023 C 
BRANCH  33  34
ATOM     34  C   UNL     1       6.416  -7.678   6.652  1.00  0.00     0.116 C 
BRANCH  34  35
ATOM     35  N   UNL     1       7.582  -6.878   6.321  1.00  0.00    -0.352 N 
ATOM     36  C   UNL     1       8.876  -7.043   6.771  1.00  0.00     0.251 C 
ATOM     37  H   UNL     1       7.432  -6.128   5.701  1.00  0.00     0.163 HD
ATOM     38  O   UNL     1       9.739  -6.229   6.517  1.00  0.00    -0.269 OA
BRANCH  36  39
ATOM     39  C   UNL     1       9.173  -8.222   7.616  1.00  0.00     0.039 A 
ATOM     40  C   UNL     1       9.809  -8.025   8.842  1.00  0.00     0.014 A 
ATOM     41  C   UNL     1       8.761  -9.498   7.224  1.00  0.00     0.014 A 
ATOM     42  C   UNL     1       9.978  -9.109   9.705  1.00  0.00     0.010 A 
ATOM     43  C   UNL     1       8.852 -10.556   8.121  1.00  0.00     0.010 A 
ATOM     44  C   UNL     1       9.469 -10.375   9.368  1.00  0.00    -0.014 A 
BRANCH  44  45
ATOM     45  C   UNL     1       9.584 -11.520  10.306  1.00  0.00     0.031 A 
ATOM     46  C   UNL     1      10.388 -12.733   9.921  1.00  0.00     0.074 A 
ATOM     47  C   UNL     1       8.939 -11.484  11.489  1.00  0.00     0.049 A 
ATOM     48  N   UNL     1      10.598 -13.832  10.601  1.00  0.00    -0.248 NA
ATOM     49  C   UNL     1      11.019 -12.721   8.591  1.00  0.00     0.031 C 
ATOM     50  C   UNL     1       8.091 -10.387  11.964  1.00  0.00     0.029 A 
ATOM     51  N   UNL     1       8.901 -12.397  12.513  1.00  0.00    -0.354 N 
ATOM     52  C   UNL     1      11.378 -14.638   9.781  1.00  0.00     0.074 A 
ATOM     53  C   UNL     1      11.548 -13.934   8.530  1.00  0.00     0.031 C 
ATOM     54  C   UNL     1       7.654 -10.672  13.201  1.00  0.00     0.029 A 
ATOM     55  C   UNL     1       8.156 -11.985  13.592  1.00  0.00     0.049 A 
ATOM     56  H   UNL     1       9.364 -13.265  12.478  1.00  0.00     0.167 HD
ATOM     57  C   UNL     1      11.931 -15.844  10.052  1.00  0.00     0.031 A 
ATOM     58  C   UNL     1       7.909 -12.597  14.766  1.00  0.00     0.031 A 
ATOM     59  C   UNL     1      11.770 -16.546  11.297  1.00  0.00     0.049 A 
ATOM     60  C   UNL     1       8.519 -13.946  15.032  1.00  0.00     0.074 A 
ATOM     61  C   UNL     1      12.315 -17.759  11.680  1.00  0.00     0.029 A 
ATOM     62  N   UNL     1      11.008 -16.094  12.363  1.00  0.00    -0.354 N 
ATOM     63  N   UNL     1       9.306 -14.665  14.268  1.00  0.00    -0.248 NA
ATOM     64  C   UNL     1       8.221 -14.557  16.334  1.00  0.00     0.031 C 
ATOM     65  C   UNL     1      11.846 -18.063  12.962  1.00  0.00     0.029 A 
ATOM     66  C   UNL     1      11.061 -17.009  13.401  1.00  0.00     0.049 A 
ATOM     67  H   UNL     1      10.505 -15.248  12.380  1.00  0.00     0.167 HD
ATOM     68  C   UNL     1       9.631 -15.791  15.015  1.00  0.00     0.074 A 
ATOM     69  C   UNL     1       8.970 -15.649  16.296  1.00  0.00     0.031 C 
ATOM     70  C   UNL     1      10.408 -16.847  14.673  1.00  0.00     0.031 A 
BRANCH  57  71
ATOM     71  C   UNL     1      12.776 -16.476   8.980  1.00  0.00    -0.014 A 
ATOM     72  C   UNL     1      14.025 -15.937   8.632  1.00  0.00     0.009 A 
ATOM     73  C   UNL     1      12.340 -17.646   8.340  1.00  0.00     0.009 A 
ATOM     74  C   UNL     1      14.807 -16.539   7.644  1.00  0.00     0.001 A 
ATOM     75  C   UNL     1      13.138 -18.264   7.375  1.00  0.00     0.001 A 
ATOM     76  C   UNL     1      14.365 -17.706   7.021  1.00  0.00     0.000 A 
ENDBRANCH  57  71
BRANCH  58  77
ATOM     77  C   UNL     1       7.065 -11.938  15.800  1.00  0.00    -0.014 A 
ATOM     78  C   UNL     1       7.628 -11.512  17.014  1.00  0.00     0.009 A 
ATOM     79  C   UNL     1       5.686 -11.774  15.600  1.00  0.00     0.009 A 
ATOM     80  C   UNL     1       6.821 -10.979  18.022  1.00  0.00     0.001 A 
ATOM     81  C   UNL     1       4.887 -11.208  16.596  1.00  0.00     0.001 A 
ATOM     82  C   UNL     1       5.452 -10.826  17.811  1.00  0.00     0.000 A 
ENDBRANCH  58  77
BRANCH  70  83
ATOM     83  C   UNL     1      10.638 -17.898  15.724  1.00  0.00    -0.014 A 
ATOM     84  C   UNL     1       9.611 -18.758  16.144  1.00  0.00     0.009 A 
ATOM     85  C   UNL     1      11.915 -18.036  16.292  1.00  0.00     0.009 A 
ATOM     86  C   UNL     1       9.847 -19.701  17.147  1.00  0.00     0.001 A 
ATOM     87  C   UNL     1      12.156 -19.003  17.268  1.00  0.00     0.001 A 
ATOM     88  C   UNL     1      11.119 -19.824  17.705  1.00  0.00     0.000 A 
ENDBRANCH  70  83
ENDBRANCH  44  45
ENDBRANCH  36  39
ENDBRANCH  34  35
ENDBRANCH  33  34
ENDBRANCH  32  33
ENDBRANCH   1  32
TORSDOF 17
