REMARK SMILES COC(=O)c1ccccc1N1C(=O)/C(=C\c2ccc(-c3ccc(Cl)c(C(=O)NCCCCNC(=O)c4ccc(-c5c6nc(c(-c7ccccc7)c7ccc([nH]7)c(-c7ccccc7)c7nc(c(-c8ccccc8)c8ccc5[nH]8)C=C7)C=C6)cc4)c3)o2)SC1=S
REMARK SMILES IDX 29 1 28 2 26 3 27 4 25 6 20 7 21 8 84 9 22 10 23 11 24 12
REMARK SMILES IDX 19 13 16 14 17 15 85 16 18 17 15 18 11 19 12 20 87 21 13 22
REMARK SMILES IDX 14 23 86 24 88 25 10 26 5 27 6 28 7 29 9 30 8 31 3 32 4 33
REMARK SMILES IDX 2 34 1 35 30 36 31 37 32 38 33 39 34 40 35 42 36 43 37 44
REMARK SMILES IDX 83 45 38 46 82 47 39 48 40 49 41 50 76 51 42 52 81 53 75 54
REMARK SMILES IDX 77 55 43 56 80 57 74 58 73 59 44 61 66 62 51 63 65 64 52 65
REMARK SMILES IDX 55 66 64 67 78 68 53 69 54 70 63 72 79 73 56 74 45 75 46 76
REMARK SMILES IDX 50 77 47 78 49 79 48 80 67 81 68 82 72 83 69 84 71 85 70 86
REMARK SMILES IDX 57 87 58 88 62 89 59 90 61 91 60 92
REMARK H PARENT 28 5 33 41 77 60 55 71
REMARK Flexibility Score: inf
ROOT
ATOM      1  C   UNL     1      -4.657   1.085   9.978  1.00  0.00     0.116 C 
ENDROOT
BRANCH   1   2
ATOM      2  N   UNL     1      -5.448   0.361  10.968  1.00  0.00    -0.352 N 
ATOM      3  C   UNL     1      -6.055  -0.886  10.938  1.00  0.00     0.252 C 
ATOM      4  O   UNL     1      -6.563  -1.297  11.978  1.00  0.00    -0.269 OA
ATOM      5  H   UNL     1      -5.574   0.848  11.814  1.00  0.00     0.163 HD
BRANCH   3   6
ATOM      6  C   UNL     1      -6.112  -1.701   9.690  1.00  0.00     0.059 A 
ATOM      7  C   UNL     1      -5.135  -2.053   7.489  1.00  0.00     0.018 A 
ATOM      8  C   UNL     1      -6.277  -2.744   7.088  1.00  0.00     0.013 A 
ATOM      9  C   UNL     1      -5.012  -1.679   8.830  1.00  0.00     0.027 A 
ATOM     10  C   UNL     1      -7.303  -2.982   8.009  1.00  0.00     0.022 A 
ATOM     11  C   UNL     1      -7.246  -2.423   9.296  1.00  0.00     0.053 A 
ATOM     12  Cl  UNL     1      -8.642  -2.637  10.290  1.00  0.00    -0.083 Cl
BRANCH   7  13
ATOM     13  C   UNL     1      -4.146  -1.540   6.552  1.00  0.00     0.134 A 
ATOM     14  C   UNL     1      -3.587  -0.576   4.632  1.00  0.00     0.128 A 
ATOM     15  C   UNL     1      -2.491  -0.496   5.482  1.00  0.00     0.051 A 
ATOM     16  O   UNL     1      -4.610  -1.188   5.319  1.00  0.00    -0.457 OA
ATOM     17  C   UNL     1      -2.833  -1.149   6.685  1.00  0.00     0.051 A 
BRANCH  14  18
ATOM     18  C   UNL     1      -3.694  -0.166   3.278  1.00  0.00     0.068 C 
ATOM     19  N   UNL     1      -1.758  -2.484   1.227  1.00  0.00    -0.260 N 
ATOM     20  C   UNL     1      -2.225  -2.051   2.460  1.00  0.00     0.270 C 
ATOM     21  C   UNL     1      -2.173  -1.773   0.117  1.00  0.00     0.152 C 
ATOM     22  O   UNL     1      -1.980  -2.582   3.535  1.00  0.00    -0.268 OA
ATOM     23  C   UNL     1      -3.063  -0.829   2.299  1.00  0.00     0.084 C 
ATOM     24  S   UNL     1      -3.137  -0.385   0.636  1.00  0.00    -0.054 SA
ATOM     25  S   UNL     1      -1.954  -2.129  -1.501  1.00  0.00    -0.051 S 
BRANCH  19  26
ATOM     26  C   UNL     1      -0.905  -3.625   1.211  1.00  0.00     0.065 A 
ATOM     27  C   UNL     1       0.432  -3.603   0.771  1.00  0.00     0.084 A 
ATOM     28  C   UNL     1       1.210  -4.772   0.884  1.00  0.00     0.018 A 
ATOM     29  C   UNL     1       0.682  -5.938   1.442  1.00  0.00     0.001 A 
ATOM     30  C   UNL     1      -1.418  -4.813   1.773  1.00  0.00     0.028 A 
ATOM     31  C   UNL     1      -0.633  -5.959   1.887  1.00  0.00     0.002 A 
BRANCH  27  32
ATOM     32  C   UNL     1       1.150  -2.409   0.246  1.00  0.00     0.339 C 
ATOM     33  O   UNL     1       2.090  -2.484  -0.521  1.00  0.00    -0.246 OA
BRANCH  32  34
ATOM     34  O   UNL     1       0.649  -1.262   0.775  1.00  0.00    -0.465 OA
ATOM     35  C   UNL     1       1.242  -0.077   0.237  1.00  0.00     0.282 C 
ENDBRANCH  32  34
ENDBRANCH  27  32
ENDBRANCH  19  26
ENDBRANCH  14  18
ENDBRANCH   7  13
ENDBRANCH   3   6
ENDBRANCH   1   2
BRANCH   1  36
ATOM     36  C   UNL     1      -4.978   2.567   9.839  1.00  0.00     0.023 C 
BRANCH  36  37
ATOM     37  C   UNL     1      -4.722   3.440  11.059  1.00  0.00     0.023 C 
BRANCH  37  38
ATOM     38  C   UNL     1      -3.336   3.333  11.683  1.00  0.00     0.116 C 
BRANCH  38  39
ATOM     39  N   UNL     1      -2.245   3.624  10.763  1.00  0.00    -0.352 N 
ATOM     40  C   UNL     1      -1.192   4.500  10.897  1.00  0.00     0.251 C 
ATOM     41  H   UNL     1      -2.264   3.119   9.918  1.00  0.00     0.163 HD
ATOM     42  O   UNL     1      -0.409   4.667   9.967  1.00  0.00    -0.269 OA
BRANCH  40  43
ATOM     43  C   UNL     1      -1.027   5.276  12.146  1.00  0.00     0.039 A 
ATOM     44  C   UNL     1      -0.783   6.649  12.060  1.00  0.00     0.014 A 
ATOM     45  C   UNL     1      -1.149   4.663  13.395  1.00  0.00     0.014 A 
ATOM     46  C   UNL     1      -0.755   7.421  13.224  1.00  0.00     0.010 A 
ATOM     47  C   UNL     1      -1.212   5.446  14.545  1.00  0.00     0.010 A 
ATOM     48  C   UNL     1      -1.022   6.834  14.472  1.00  0.00    -0.014 A 
BRANCH  48  49
ATOM     49  C   UNL     1      -1.124   7.659  15.704  1.00  0.00     0.031 A 
ATOM     50  C   UNL     1      -0.169   7.444  16.846  1.00  0.00     0.074 A 
ATOM     51  C   UNL     1      -2.117   8.563  15.819  1.00  0.00     0.049 A 
ATOM     52  N   UNL     1      -0.126   8.044  18.009  1.00  0.00    -0.248 NA
ATOM     53  C   UNL     1       0.857   6.403  16.670  1.00  0.00     0.031 C 
ATOM     54  C   UNL     1      -3.140   8.836  14.807  1.00  0.00     0.029 A 
ATOM     55  N   UNL     1      -2.432   9.421  16.844  1.00  0.00    -0.354 N 
ATOM     56  C   UNL     1       0.918   7.446  18.704  1.00  0.00     0.074 A 
ATOM     57  C   UNL     1       1.444   6.399  17.857  1.00  0.00     0.031 C 
ATOM     58  C   UNL     1      -3.944   9.818  15.245  1.00  0.00     0.029 A 
ATOM     59  C   UNL     1      -3.523  10.215  16.584  1.00  0.00     0.049 A 
ATOM     60  H   UNL     1      -1.923   9.464  17.686  1.00  0.00     0.167 HD
ATOM     61  C   UNL     1       1.411   7.754  19.927  1.00  0.00     0.031 A 
ATOM     62  C   UNL     1      -4.123  11.155  17.340  1.00  0.00     0.031 A 
ATOM     63  C   UNL     1       0.892   8.798  20.770  1.00  0.00     0.049 A 
ATOM     64  C   UNL     1      -3.569  11.463  18.704  1.00  0.00     0.074 A 
ATOM     65  C   UNL     1       1.357   9.223  22.002  1.00  0.00     0.029 A 
ATOM     66  N   UNL     1      -0.215   9.577  20.470  1.00  0.00    -0.354 N 
ATOM     67  N   UNL     1      -2.531  10.941  19.312  1.00  0.00    -0.248 NA
ATOM     68  C   UNL     1      -4.263  12.500  19.480  1.00  0.00     0.031 C 
ATOM     69  C   UNL     1       0.497  10.219  22.475  1.00  0.00     0.029 A 
ATOM     70  C   UNL     1      -0.464  10.461  21.507  1.00  0.00     0.049 A 
ATOM     71  H   UNL     1      -0.745   9.512  19.643  1.00  0.00     0.167 HD
ATOM     72  C   UNL     1      -2.431  11.606  20.528  1.00  0.00     0.074 A 
ATOM     73  C   UNL     1      -3.500  12.583  20.560  1.00  0.00     0.031 C 
ATOM     74  C   UNL     1      -1.534  11.425  21.528  1.00  0.00     0.031 A 
BRANCH  61  75
ATOM     75  C   UNL     1       2.574   6.942  20.430  1.00  0.00    -0.014 A 
ATOM     76  C   UNL     1       3.845   7.046  19.841  1.00  0.00     0.009 A 
ATOM     77  C   UNL     1       2.407   6.090  21.532  1.00  0.00     0.009 A 
ATOM     78  C   UNL     1       4.913   6.285  20.320  1.00  0.00     0.001 A 
ATOM     79  C   UNL     1       3.485   5.354  22.030  1.00  0.00     0.001 A 
ATOM     80  C   UNL     1       4.733   5.445  21.418  1.00  0.00     0.000 A 
ENDBRANCH  61  75
BRANCH  62  81
ATOM     81  C   UNL     1      -5.311  11.887  16.824  1.00  0.00    -0.014 A 
ATOM     82  C   UNL     1      -5.228  13.253  16.514  1.00  0.00     0.009 A 
ATOM     83  C   UNL     1      -6.539  11.229  16.657  1.00  0.00     0.009 A 
ATOM     84  C   UNL     1      -6.357  13.951  16.078  1.00  0.00     0.001 A 
ATOM     85  C   UNL     1      -7.658  11.922  16.189  1.00  0.00     0.001 A 
ATOM     86  C   UNL     1      -7.569  13.284  15.912  1.00  0.00     0.000 A 
ENDBRANCH  62  81
BRANCH  74  87
ATOM     87  C   UNL     1      -1.649  12.326  22.726  1.00  0.00    -0.014 A 
ATOM     88  C   UNL     1      -2.712  12.206  23.634  1.00  0.00     0.009 A 
ATOM     89  C   UNL     1      -0.658  13.291  22.965  1.00  0.00     0.009 A 
ATOM     90  C   UNL     1      -2.801  13.060  24.735  1.00  0.00     0.001 A 
ATOM     91  C   UNL     1      -0.730  14.121  24.084  1.00  0.00     0.001 A 
ATOM     92  C   UNL     1      -1.808  14.013  24.962  1.00  0.00     0.000 A 
ENDBRANCH  74  87
ENDBRANCH  48  49
ENDBRANCH  40  43
ENDBRANCH  38  39
ENDBRANCH  37  38
ENDBRANCH  36  37
ENDBRANCH   1  36
TORSDOF 16
