REMARK SMILES COc1ccc(-c2cccc(/C=C\C(=O)NCCCCNC(=O)c3ccc(-c4c5nc(c(-c6ccccc6)c6ccc([nH]6)c(-c6ccccc6)c6nc(c(-c7ccccc7)c7ccc4[nH]7)C=C6)C=C5)cc3)c2)c(Cl)c1OC
REMARK SMILES IDX 18 1 17 2 16 3 14 4 15 5 13 7 12 8 11 9 7 10 8 11 72 12 9 13
REMARK SMILES IDX 10 14 6 15 3 16 4 17 75 18 5 19 73 20 74 21 2 22 1 23 76 24
REMARK SMILES IDX 77 25 19 26 20 27 21 28 22 29 23 31 24 32 25 33 71 34 26 35
REMARK SMILES IDX 70 36 27 37 28 38 29 39 64 40 30 41 69 42 63 43 65 44 31 45
REMARK SMILES IDX 68 46 62 47 61 48 32 50 54 51 39 52 53 53 40 54 43 55 52 56
REMARK SMILES IDX 66 57 41 58 42 59 51 61 67 62 44 63 33 64 34 65 38 66 35 67
REMARK SMILES IDX 37 68 36 69 55 70 56 71 60 72 57 73 59 74 58 75 45 76 46 77
REMARK SMILES IDX 50 78 47 79 49 80 48 81
REMARK H PARENT 16 6 21 30 65 49 43 60
REMARK Flexibility Score: inf
ROOT
ATOM      1  C   UNL     1       2.448  -2.845   9.982  1.00  0.00     0.023 C 
ENDROOT
BRANCH   1   2
ATOM      2  C   UNL     1       2.471  -3.994   8.984  1.00  0.00     0.116 C 
BRANCH   2   3
ATOM      3  N   UNL     1       2.978  -5.248   9.497  1.00  0.00    -0.353 N 
ATOM      4  C   UNL     1       2.723  -6.518   9.078  1.00  0.00     0.243 C 
ATOM      5  O   UNL     1       3.284  -7.456   9.646  1.00  0.00    -0.270 OA
ATOM      6  H   UNL     1       3.597  -5.172  10.259  1.00  0.00     0.163 HD
BRANCH   4   7
ATOM      7  C   UNL     1       1.714  -6.834   8.027  1.00  0.00     0.072 C 
ATOM      8  C   UNL     1       1.505  -6.344   6.792  1.00  0.00     0.014 C 
BRANCH   8   9
ATOM      9  C   UNL     1       2.232  -5.261   6.122  1.00  0.00    -0.025 A 
ATOM     10  C   UNL     1       2.163  -3.091   4.977  1.00  0.00    -0.016 A 
ATOM     11  C   UNL     1       3.553  -2.999   5.210  1.00  0.00     0.009 A 
ATOM     12  C   UNL     1       1.515  -4.240   5.463  1.00  0.00     0.017 A 
ATOM     13  C   UNL     1       4.285  -4.060   5.742  1.00  0.00     0.001 A 
ATOM     14  C   UNL     1       3.628  -5.207   6.166  1.00  0.00     0.008 A 
BRANCH  10  15
ATOM     15  C   UNL     1       1.499  -2.063   4.120  1.00  0.00     0.004 A 
ATOM     16  C   UNL     1       0.474  -0.210   2.229  1.00  0.00     0.162 A 
ATOM     17  C   UNL     1       1.750  -0.732   2.072  1.00  0.00     0.051 A 
ATOM     18  C   UNL     1      -0.294  -0.539   3.369  1.00  0.00     0.180 A 
ATOM     19  C   UNL     1       2.232  -1.659   2.982  1.00  0.00     0.014 A 
ATOM     20  C   UNL     1       0.229  -1.454   4.324  1.00  0.00     0.094 A 
ATOM     21  Cl  UNL     1      -0.608  -1.751   5.820  1.00  0.00    -0.079 Cl
BRANCH  16  22
ATOM     22  O   UNL     1      -0.063   0.661   1.309  1.00  0.00    -0.493 OA
ATOM     23  C   UNL     1       0.324   0.405  -0.042  1.00  0.00     0.278 C 
ENDBRANCH  16  22
BRANCH  18  24
ATOM     24  O   UNL     1      -1.458   0.188   3.466  1.00  0.00    -0.491 OA
ATOM     25  C   UNL     1      -2.640  -0.445   3.930  1.00  0.00     0.278 C 
ENDBRANCH  18  24
ENDBRANCH  10  15
ENDBRANCH   8   9
ENDBRANCH   4   7
ENDBRANCH   2   3
ENDBRANCH   1   2
BRANCH   1  26
ATOM     26  C   UNL     1       3.808  -2.270  10.386  1.00  0.00     0.023 C 
BRANCH  26  27
ATOM     27  C   UNL     1       4.801  -1.933   9.273  1.00  0.00     0.116 C 
BRANCH  27  28
ATOM     28  N   UNL     1       4.281  -1.078   8.215  1.00  0.00    -0.352 N 
ATOM     29  C   UNL     1       4.816   0.062   7.653  1.00  0.00     0.251 C 
ATOM     30  H   UNL     1       3.412  -1.357   7.845  1.00  0.00     0.163 HD
ATOM     31  O   UNL     1       4.244   0.631   6.735  1.00  0.00    -0.269 OA
BRANCH  29  32
ATOM     32  C   UNL     1       6.070   0.627   8.196  1.00  0.00     0.039 A 
ATOM     33  C   UNL     1       6.081   1.964   8.605  1.00  0.00     0.014 A 
ATOM     34  C   UNL     1       7.208  -0.166   8.353  1.00  0.00     0.014 A 
ATOM     35  C   UNL     1       7.193   2.471   9.283  1.00  0.00     0.010 A 
ATOM     36  C   UNL     1       8.286   0.319   9.089  1.00  0.00     0.010 A 
ATOM     37  C   UNL     1       8.277   1.632   9.587  1.00  0.00    -0.014 A 
BRANCH  37  38
ATOM     38  C   UNL     1       9.381   2.081  10.475  1.00  0.00     0.031 A 
ATOM     39  C   UNL     1      10.790   2.160   9.960  1.00  0.00     0.074 A 
ATOM     40  C   UNL     1       9.128   2.318  11.778  1.00  0.00     0.049 A 
ATOM     41  N   UNL     1      11.895   2.424  10.612  1.00  0.00    -0.248 NA
ATOM     42  C   UNL     1      10.987   1.874   8.531  1.00  0.00     0.031 C 
ATOM     43  C   UNL     1       7.813   2.229  12.418  1.00  0.00     0.029 A 
ATOM     44  N   UNL     1       9.970   2.670  12.804  1.00  0.00    -0.354 N 
ATOM     45  C   UNL     1      12.918   2.310   9.680  1.00  0.00     0.074 A 
ATOM     46  C   UNL     1      12.307   1.913   8.429  1.00  0.00     0.031 C 
ATOM     47  C   UNL     1       7.933   2.543  13.718  1.00  0.00     0.029 A 
ATOM     48  C   UNL     1       9.335   2.815  14.014  1.00  0.00     0.049 A 
ATOM     49  H   UNL     1      10.938   2.805  12.684  1.00  0.00     0.167 HD
ATOM     50  C   UNL     1      14.245   2.531   9.844  1.00  0.00     0.031 A 
ATOM     51  C   UNL     1       9.826   3.126  15.228  1.00  0.00     0.031 A 
ATOM     52  C   UNL     1      14.851   2.939  11.083  1.00  0.00     0.049 A 
ATOM     53  C   UNL     1      11.300   3.373  15.385  1.00  0.00     0.074 A 
ATOM     54  C   UNL     1      16.177   3.244  11.336  1.00  0.00     0.029 A 
ATOM     55  N   UNL     1      14.168   3.099  12.279  1.00  0.00    -0.354 N 
ATOM     56  N   UNL     1      12.245   3.321  14.479  1.00  0.00    -0.248 NA
ATOM     57  C   UNL     1      11.771   3.729  16.731  1.00  0.00     0.031 C 
ATOM     58  C   UNL     1      16.303   3.552  12.696  1.00  0.00     0.029 A 
ATOM     59  C   UNL     1      15.048   3.483  13.277  1.00  0.00     0.049 A 
ATOM     60  H   UNL     1      13.201   2.960  12.401  1.00  0.00     0.167 HD
ATOM     61  C   UNL     1      13.418   3.663  15.137  1.00  0.00     0.074 A 
ATOM     62  C   UNL     1      13.063   3.933  16.516  1.00  0.00     0.031 C 
ATOM     63  C   UNL     1      14.678   3.747  14.644  1.00  0.00     0.031 A 
BRANCH  50  64
ATOM     64  C   UNL     1      15.128   2.324   8.645  1.00  0.00    -0.014 A 
ATOM     65  C   UNL     1      15.086   3.204   7.551  1.00  0.00     0.009 A 
ATOM     66  C   UNL     1      16.024   1.245   8.613  1.00  0.00     0.009 A 
ATOM     67  C   UNL     1      15.889   2.980   6.431  1.00  0.00     0.001 A 
ATOM     68  C   UNL     1      16.847   1.040   7.504  1.00  0.00     0.001 A 
ATOM     69  C   UNL     1      16.770   1.900   6.409  1.00  0.00     0.000 A 
ENDBRANCH  50  64
BRANCH  51  70
ATOM     70  C   UNL     1       8.909   3.249  16.392  1.00  0.00    -0.014 A 
ATOM     71  C   UNL     1       8.609   4.513  16.923  1.00  0.00     0.009 A 
ATOM     72  C   UNL     1       8.329   2.112  16.974  1.00  0.00     0.009 A 
ATOM     73  C   UNL     1       7.762   4.634  18.027  1.00  0.00     0.001 A 
ATOM     74  C   UNL     1       7.462   2.239  18.063  1.00  0.00     0.001 A 
ATOM     75  C   UNL     1       7.186   3.498  18.593  1.00  0.00     0.000 A 
ENDBRANCH  51  70
BRANCH  63  76
ATOM     76  C   UNL     1      15.758   4.177  15.594  1.00  0.00    -0.014 A 
ATOM     77  C   UNL     1      16.247   3.308  16.581  1.00  0.00     0.009 A 
ATOM     78  C   UNL     1      16.318   5.458  15.475  1.00  0.00     0.009 A 
ATOM     79  C   UNL     1      17.258   3.725  17.449  1.00  0.00     0.001 A 
ATOM     80  C   UNL     1      17.346   5.863  16.327  1.00  0.00     0.001 A 
ATOM     81  C   UNL     1      17.809   4.999  17.318  1.00  0.00     0.000 A 
ENDBRANCH  63  76
ENDBRANCH  37  38
ENDBRANCH  29  32
ENDBRANCH  27  28
ENDBRANCH  26  27
ENDBRANCH   1  26
TORSDOF 15
