REMARK SMILES CC(C)(C)OC(=O)N[C@@H](C(=O)NCCCCNC(=O)c1ccc(-c2c3nc(c(-c4ccccc4)c4ccc([nH]4)c(-c4ccccc4)c4nc(c(-c5ccccc5)c5ccc2[nH]5)C=C4)C=C3)cc1)c1ccc([N+](=O)[O-])cc1
REMARK SMILES IDX 14 1 13 2 12 3 10 4 11 5 9 7 8 8 6 9 7 10 5 12 2 13 1 14
REMARK SMILES IDX 3 15 4 16 68 17 69 18 76 19 70 20 75 21 71 22 72 23 73 24
REMARK SMILES IDX 74 25 15 26 16 27 17 28 18 29 19 31 20 32 21 33 67 34 22 35
REMARK SMILES IDX 66 36 23 37 24 38 25 39 60 40 26 41 65 42 59 43 61 44 27 45
REMARK SMILES IDX 64 46 58 47 57 48 28 50 50 51 35 52 49 53 36 54 39 55 48 56
REMARK SMILES IDX 62 57 37 58 38 59 47 61 63 62 40 63 29 64 30 65 34 66 31 67
REMARK SMILES IDX 33 68 32 69 51 70 52 71 56 72 53 73 55 74 54 75 41 76 42 77
REMARK SMILES IDX 46 78 43 79 45 80 44 81
REMARK H PARENT 12 6 8 11 17 30 61 49 39 60
REMARK Flexibility Score: inf
ROOT
ATOM      1  C   UNL     1       3.559  -2.288  -4.152  1.00  0.00     0.023 C 
ENDROOT
BRANCH   1   2
ATOM      2  C   UNL     1       3.839  -0.847  -3.730  1.00  0.00     0.116 C 
BRANCH   2   3
ATOM      3  N   UNL     1       4.056  -0.000  -4.882  1.00  0.00    -0.354 N 
ATOM      4  C   UNL     1       3.206   0.897  -5.469  1.00  0.00     0.247 C 
ATOM      5  O   UNL     1       3.619   1.460  -6.486  1.00  0.00    -0.272 OA
ATOM      6  H   UNL     1       4.941  -0.081  -5.304  1.00  0.00     0.163 HD
BRANCH   4   7
ATOM      7  C   UNL     1       1.824   1.217  -4.816  1.00  0.00     0.205 C 
BRANCH   7   8
ATOM      8  N   UNL     1       0.987   0.022  -4.835  1.00  0.00    -0.306 N 
ATOM      9  C   UNL     1       0.412  -0.612  -3.779  1.00  0.00     0.408 C 
ATOM     10  O   UNL     1      -0.254  -1.624  -3.949  1.00  0.00    -0.225 OA
ATOM     11  H   UNL     1       0.819  -0.374  -5.721  1.00  0.00     0.168 HD
BRANCH   9  12
ATOM     12  O   UNL     1       0.711  -0.051  -2.584  1.00  0.00    -0.444 OA
BRANCH  12  13
ATOM     13  C   UNL     1       0.313  -0.690  -1.340  1.00  0.00     0.106 C 
ATOM     14  C   UNL     1       0.918   0.188  -0.232  1.00  0.00     0.056 C 
ATOM     15  C   UNL     1       0.910  -2.098  -1.204  1.00  0.00     0.056 C 
ATOM     16  C   UNL     1      -1.210  -0.699  -1.188  1.00  0.00     0.056 C 
ENDBRANCH  12  13
ENDBRANCH   9  12
ENDBRANCH   7   8
BRANCH   7  17
ATOM     17  C   UNL     1       1.145   2.407  -5.500  1.00  0.00    -0.016 A 
ATOM     18  C   UNL     1       1.690   3.694  -5.323  1.00  0.00     0.013 A 
ATOM     19  C   UNL     1       0.033   2.264  -6.349  1.00  0.00     0.013 A 
ATOM     20  C   UNL     1       1.153   4.803  -5.983  1.00  0.00     0.086 A 
ATOM     21  C   UNL     1      -0.515   3.369  -7.010  1.00  0.00     0.086 A 
ATOM     22  C   UNL     1       0.052   4.635  -6.828  1.00  0.00     0.269 A 
BRANCH  22  23
ATOM     23  N   UNL     1      -0.509   5.791  -7.537  1.00  0.00     0.062 N 
ATOM     24  O   UNL     1       0.013   6.898  -7.339  1.00  0.00    -0.258 OA
ATOM     25  O   UNL     1      -1.474   5.595  -8.289  1.00  0.00    -0.258 OA
ENDBRANCH  22  23
ENDBRANCH   7  17
ENDBRANCH   4   7
ENDBRANCH   2   3
ENDBRANCH   1   2
BRANCH   1  26
ATOM     26  C   UNL     1       4.781  -3.014  -4.721  1.00  0.00     0.023 C 
BRANCH  26  27
ATOM     27  C   UNL     1       5.991  -3.050  -3.795  1.00  0.00     0.116 C 
BRANCH  27  28
ATOM     28  N   UNL     1       5.711  -3.685  -2.516  1.00  0.00    -0.352 N 
ATOM     29  C   UNL     1       6.492  -4.566  -1.808  1.00  0.00     0.251 C 
ATOM     30  H   UNL     1       4.848  -3.452  -2.104  1.00  0.00     0.163 HD
ATOM     31  O   UNL     1       6.055  -5.120  -0.806  1.00  0.00    -0.269 OA
BRANCH  29  32
ATOM     32  C   UNL     1       7.854  -4.867  -2.291  1.00  0.00     0.039 A 
ATOM     33  C   UNL     1       8.251  -6.201  -2.403  1.00  0.00     0.014 A 
ATOM     34  C   UNL     1       8.717  -3.836  -2.671  1.00  0.00     0.014 A 
ATOM     35  C   UNL     1       9.493  -6.503  -2.962  1.00  0.00     0.010 A 
ATOM     36  C   UNL     1       9.918  -4.142  -3.302  1.00  0.00     0.010 A 
ATOM     37  C   UNL     1      10.319  -5.478  -3.452  1.00  0.00    -0.014 A 
BRANCH  37  38
ATOM     38  C   UNL     1      11.599  -5.785  -4.137  1.00  0.00     0.031 A 
ATOM     39  C   UNL     1      12.903  -5.312  -3.559  1.00  0.00     0.074 A 
ATOM     40  C   UNL     1      11.583  -6.430  -5.320  1.00  0.00     0.049 A 
ATOM     41  N   UNL     1      14.114  -5.444  -4.036  1.00  0.00    -0.248 NA
ATOM     42  C   UNL     1      12.833  -4.566  -2.293  1.00  0.00     0.031 C 
ATOM     43  C   UNL     1      10.381  -6.899  -6.013  1.00  0.00     0.029 A 
ATOM     44  N   UNL     1      12.611  -6.796  -6.153  1.00  0.00    -0.354 N 
ATOM     45  C   UNL     1      14.946  -4.783  -3.142  1.00  0.00     0.074 A 
ATOM     46  C   UNL     1      14.096  -4.204  -2.125  1.00  0.00     0.031 C 
ATOM     47  C   UNL     1      10.742  -7.513  -7.151  1.00  0.00     0.029 A 
ATOM     48  C   UNL     1      12.193  -7.442  -7.290  1.00  0.00     0.049 A 
ATOM     49  H   UNL     1      13.557  -6.612  -5.953  1.00  0.00     0.167 HD
ATOM     50  C   UNL     1      16.296  -4.681  -3.155  1.00  0.00     0.031 A 
ATOM     51  C   UNL     1      12.896  -7.916  -8.336  1.00  0.00     0.031 A 
ATOM     52  C   UNL     1      17.139  -5.256  -4.169  1.00  0.00     0.049 A 
ATOM     53  C   UNL     1      14.392  -7.780  -8.339  1.00  0.00     0.074 A 
ATOM     54  C   UNL     1      18.521  -5.268  -4.236  1.00  0.00     0.029 A 
ATOM     55  N   UNL     1      16.678  -5.909  -5.303  1.00  0.00    -0.354 N 
ATOM     56  N   UNL     1      15.172  -7.229  -7.441  1.00  0.00    -0.248 NA
ATOM     57  C   UNL     1      15.105  -8.343  -9.493  1.00  0.00     0.031 C 
ATOM     58  C   UNL     1      18.894  -5.864  -5.445  1.00  0.00     0.029 A 
ATOM     59  C   UNL     1      17.748  -6.292  -6.096  1.00  0.00     0.049 A 
ATOM     60  H   UNL     1      15.731  -6.075  -5.513  1.00  0.00     0.167 HD
ATOM     61  C   UNL     1      16.469  -7.399  -7.909  1.00  0.00     0.074 A 
ATOM     62  C   UNL     1      16.369  -8.120  -9.162  1.00  0.00     0.031 C 
ATOM     63  C   UNL     1      17.636  -6.996  -7.349  1.00  0.00     0.031 A 
BRANCH  50  64
ATOM     64  C   UNL     1      16.938  -3.889  -2.047  1.00  0.00    -0.014 A 
ATOM     65  C   UNL     1      16.907  -4.330  -0.713  1.00  0.00     0.009 A 
ATOM     66  C   UNL     1      17.593  -2.683  -2.344  1.00  0.00     0.009 A 
ATOM     67  C   UNL     1      17.470  -3.555   0.304  1.00  0.00     0.001 A 
ATOM     68  C   UNL     1      18.187  -1.929  -1.330  1.00  0.00     0.001 A 
ATOM     69  C   UNL     1      18.112  -2.358  -0.006  1.00  0.00     0.000 A 
ENDBRANCH  50  64
BRANCH  51  70
ATOM     70  C   UNL     1      12.182  -8.573  -9.463  1.00  0.00    -0.014 A 
ATOM     71  C   UNL     1      12.281  -9.958  -9.662  1.00  0.00     0.009 A 
ATOM     72  C   UNL     1      11.374  -7.820 -10.329  1.00  0.00     0.009 A 
ATOM     73  C   UNL     1      11.599 -10.572 -10.716  1.00  0.00     0.001 A 
ATOM     74  C   UNL     1      10.669  -8.440 -11.362  1.00  0.00     0.001 A 
ATOM     75  C   UNL     1      10.788  -9.814 -11.559  1.00  0.00     0.000 A 
ENDBRANCH  51  70
BRANCH  63  76
ATOM     76  C   UNL     1      18.907  -7.348  -8.073  1.00  0.00    -0.014 A 
ATOM     77  C   UNL     1      19.258  -6.728  -9.283  1.00  0.00     0.009 A 
ATOM     78  C   UNL     1      19.789  -8.285  -7.510  1.00  0.00     0.009 A 
ATOM     79  C   UNL     1      20.449  -7.065  -9.930  1.00  0.00     0.001 A 
ATOM     80  C   UNL     1      20.994  -8.594  -8.142  1.00  0.00     0.001 A 
ATOM     81  C   UNL     1      21.319  -7.992  -9.356  1.00  0.00     0.000 A 
ENDBRANCH  63  76
ENDBRANCH  37  38
ENDBRANCH  29  32
ENDBRANCH  27  28
ENDBRANCH  26  27
ENDBRANCH   1  26
TORSDOF 16
