REMARK SMILES O=C(Cn1nc(-c2ccc(Br)cc2)ccc1=O)N[C@H](C(=O)NCCCCNC(=O)c1ccc(-c2c3nc(c(-c4ccccc4)c4ccc([nH]4)c(-c4ccccc4)c4nc(c(-c5ccccc5)c5ccc2[nH]5)C=C4)C=C3)cc1)c1ccccc1
REMARK SMILES IDX 23 1 22 2 20 3 21 4 19 6 18 7 1 8 2 9 3 11 4 12 5 13 16 14
REMARK SMILES IDX 6 15 15 16 17 17 14 18 7 19 8 20 13 21 9 22 12 23 10 24
REMARK SMILES IDX 11 25 78 26 79 27 83 28 80 29 82 30 81 31 24 32 25 33 26 34
REMARK SMILES IDX 27 35 28 36 29 38 30 39 31 40 77 41 32 42 76 43 33 44 34 45
REMARK SMILES IDX 35 46 70 47 36 48 75 49 69 50 71 51 37 52 74 53 68 54 67 55
REMARK SMILES IDX 38 57 60 58 45 59 59 60 46 61 49 62 58 63 72 64 47 65 48 66
REMARK SMILES IDX 57 68 73 69 50 70 39 71 40 72 44 73 41 74 43 75 42 76 61 77
REMARK SMILES IDX 62 78 66 79 63 80 65 81 64 82 51 83 52 84 56 85 53 86 55 87
REMARK SMILES IDX 54 88
REMARK H PARENT 22 5 18 10 27 37 71 56 49 67
REMARK Flexibility Score: inf
ROOT
ATOM      1  C   UNL     1       2.397   2.031   1.934  1.00  0.00     0.116 C 
ENDROOT
BRANCH   1   2
ATOM      2  N   UNL     1       2.880   1.023   1.013  1.00  0.00    -0.354 N 
ATOM      3  C   UNL     1       3.101   1.114  -0.345  1.00  0.00     0.247 C 
ATOM      4  O   UNL     1       3.506   0.074  -0.874  1.00  0.00    -0.272 OA
ATOM      5  H   UNL     1       3.080   0.147   1.415  1.00  0.00     0.163 HD
BRANCH   3   6
ATOM      6  C   UNL     1       2.618   2.381  -1.135  1.00  0.00     0.202 C 
BRANCH   6   7
ATOM      7  N   UNL     1       2.932   3.621  -0.422  1.00  0.00    -0.339 N 
ATOM      8  O   UNL     1       5.202   3.292  -0.262  1.00  0.00    -0.273 OA
ATOM      9  C   UNL     1       4.207   3.962  -0.010  1.00  0.00     0.242 C 
ATOM     10  H   UNL     1       2.197   4.246  -0.225  1.00  0.00     0.164 HD
BRANCH   9  11
ATOM     11  C   UNL     1       4.244   5.231   0.845  1.00  0.00     0.248 C 
BRANCH  11  12
ATOM     12  N   UNL     1       4.360   6.402  -0.002  1.00  0.00    -0.220 N 
ATOM     13  N   UNL     1       3.328   6.607  -0.890  1.00  0.00    -0.169 NA
ATOM     14  C   UNL     1       5.502   7.185   0.063  1.00  0.00     0.267 A 
ATOM     15  C   UNL     1       3.483   7.540  -1.775  1.00  0.00     0.091 A 
ATOM     16  C   UNL     1       5.592   8.276  -0.930  1.00  0.00     0.075 A 
ATOM     17  O   UNL     1       6.412   7.042   0.874  1.00  0.00    -0.268 OA
ATOM     18  C   UNL     1       4.636   8.457  -1.842  1.00  0.00     0.036 A 
BRANCH  15  19
ATOM     19  C   UNL     1       2.452   7.677  -2.825  1.00  0.00     0.002 A 
ATOM     20  C   UNL     1       1.103   7.708  -2.455  1.00  0.00     0.011 A 
ATOM     21  C   UNL     1       2.817   7.607  -4.174  1.00  0.00     0.011 A 
ATOM     22  C   UNL     1       0.114   7.675  -3.439  1.00  0.00     0.016 A 
ATOM     23  C   UNL     1       1.825   7.563  -5.155  1.00  0.00     0.016 A 
ATOM     24  C   UNL     1       0.480   7.592  -4.783  1.00  0.00     0.018 A 
ATOM     25  Br  UNL     1      -0.859   7.481  -6.112  1.00  0.00    -0.051 Br
ENDBRANCH  15  19
ENDBRANCH  11  12
ENDBRANCH   9  11
ENDBRANCH   6   7
BRANCH   6  26
ATOM     26  C   UNL     1       2.874   2.447  -2.645  1.00  0.00    -0.016 A 
ATOM     27  C   UNL     1       2.976   3.686  -3.309  1.00  0.00     0.006 A 
ATOM     28  C   UNL     1       2.856   1.297  -3.455  1.00  0.00     0.006 A 
ATOM     29  C   UNL     1       3.091   3.767  -4.702  1.00  0.00     0.000 A 
ATOM     30  C   UNL     1       2.984   1.375  -4.847  1.00  0.00     0.000 A 
ATOM     31  C   UNL     1       3.100   2.611  -5.471  1.00  0.00     0.000 A 
ENDBRANCH   6  26
ENDBRANCH   3   6
ENDBRANCH   1   2
BRANCH   1  32
ATOM     32  C   UNL     1       1.922   1.475   3.272  1.00  0.00     0.023 C 
BRANCH  32  33
ATOM     33  C   UNL     1       2.951   0.654   4.049  1.00  0.00     0.023 C 
BRANCH  33  34
ATOM     34  C   UNL     1       4.321   1.299   4.237  1.00  0.00     0.116 C 
BRANCH  34  35
ATOM     35  N   UNL     1       4.299   2.474   5.098  1.00  0.00    -0.352 N 
ATOM     36  C   UNL     1       5.011   2.730   6.251  1.00  0.00     0.251 C 
ATOM     37  H   UNL     1       3.686   3.191   4.816  1.00  0.00     0.163 HD
ATOM     38  O   UNL     1       4.783   3.744   6.904  1.00  0.00    -0.269 OA
BRANCH  36  39
ATOM     39  C   UNL     1       6.005   1.746   6.736  1.00  0.00     0.039 A 
ATOM     40  C   UNL     1       6.926   1.171   5.861  1.00  0.00     0.014 A 
ATOM     41  C   UNL     1       5.965   1.341   8.074  1.00  0.00     0.014 A 
ATOM     42  C   UNL     1       7.635   0.043   6.259  1.00  0.00     0.010 A 
ATOM     43  C   UNL     1       6.754   0.267   8.499  1.00  0.00     0.010 A 
ATOM     44  C   UNL     1       7.537  -0.443   7.575  1.00  0.00    -0.014 A 
BRANCH  44  45
ATOM     45  C   UNL     1       8.215  -1.719   7.932  1.00  0.00     0.031 A 
ATOM     46  C   UNL     1       7.413  -2.936   8.322  1.00  0.00     0.074 A 
ATOM     47  C   UNL     1       9.554  -1.815   7.813  1.00  0.00     0.049 A 
ATOM     48  N   UNL     1       7.834  -4.152   8.576  1.00  0.00    -0.248 NA
ATOM     49  C   UNL     1       5.955  -2.776   8.446  1.00  0.00     0.031 C 
ATOM     50  C   UNL     1      10.444  -0.719   7.426  1.00  0.00     0.029 A 
ATOM     51  N   UNL     1      10.393  -2.891   7.959  1.00  0.00    -0.354 N 
ATOM     52  C   UNL     1       6.702  -4.888   8.905  1.00  0.00     0.074 A 
ATOM     53  C   UNL     1       5.578  -3.981   8.850  1.00  0.00     0.031 C 
ATOM     54  C   UNL     1      11.690  -1.195   7.290  1.00  0.00     0.029 A 
ATOM     55  C   UNL     1      11.700  -2.613   7.638  1.00  0.00     0.049 A 
ATOM     56  H   UNL     1      10.089  -3.776   8.264  1.00  0.00     0.167 HD
ATOM     57  C   UNL     1       6.602  -6.204   9.212  1.00  0.00     0.031 A 
ATOM     58  C   UNL     1      12.790  -3.404   7.617  1.00  0.00     0.031 A 
ATOM     59  C   UNL     1       7.713  -7.117   9.247  1.00  0.00     0.049 A 
ATOM     60  C   UNL     1      12.657  -4.855   7.980  1.00  0.00     0.074 A 
ATOM     61  C   UNL     1       7.702  -8.470   9.539  1.00  0.00     0.029 A 
ATOM     62  N   UNL     1       9.027  -6.777   8.972  1.00  0.00    -0.354 N 
ATOM     63  N   UNL     1      11.577  -5.530   8.289  1.00  0.00    -0.248 NA
ATOM     64  C   UNL     1      13.891  -5.654   7.991  1.00  0.00     0.031 C 
ATOM     65  C   UNL     1       9.017  -8.939   9.487  1.00  0.00     0.029 A 
ATOM     66  C   UNL     1       9.838  -7.891   9.104  1.00  0.00     0.049 A 
ATOM     67  H   UNL     1       9.339  -5.877   8.721  1.00  0.00     0.167 HD
ATOM     68  C   UNL     1      11.998  -6.834   8.514  1.00  0.00     0.074 A 
ATOM     69  C   UNL     1      13.428  -6.861   8.291  1.00  0.00     0.031 C 
ATOM     70  C   UNL     1      11.259  -7.910   8.877  1.00  0.00     0.031 A 
BRANCH  57  71
ATOM     71  C   UNL     1       5.242  -6.750   9.546  1.00  0.00    -0.014 A 
ATOM     72  C   UNL     1       4.955  -7.149  10.862  1.00  0.00     0.009 A 
ATOM     73  C   UNL     1       4.278  -6.960   8.548  1.00  0.00     0.009 A 
ATOM     74  C   UNL     1       3.736  -7.755  11.170  1.00  0.00     0.001 A 
ATOM     75  C   UNL     1       3.048  -7.542   8.865  1.00  0.00     0.001 A 
ATOM     76  C   UNL     1       2.782  -7.947  10.173  1.00  0.00     0.000 A 
ENDBRANCH  57  71
BRANCH  58  77
ATOM     77  C   UNL     1      14.098  -2.829   7.211  1.00  0.00    -0.014 A 
ATOM     78  C   UNL     1      14.751  -1.894   8.031  1.00  0.00     0.009 A 
ATOM     79  C   UNL     1      14.674  -3.170   5.979  1.00  0.00     0.009 A 
ATOM     80  C   UNL     1      15.939  -1.292   7.613  1.00  0.00     0.001 A 
ATOM     81  C   UNL     1      15.879  -2.588   5.576  1.00  0.00     0.001 A 
ATOM     82  C   UNL     1      16.504  -1.642   6.388  1.00  0.00     0.000 A 
ENDBRANCH  58  77
BRANCH  70  83
ATOM     83  C   UNL     1      11.965  -9.226   9.041  1.00  0.00    -0.014 A 
ATOM     84  C   UNL     1      11.737 -10.257   8.116  1.00  0.00     0.009 A 
ATOM     85  C   UNL     1      12.769  -9.480  10.162  1.00  0.00     0.009 A 
ATOM     86  C   UNL     1      12.289 -11.523   8.317  1.00  0.00     0.001 A 
ATOM     87  C   UNL     1      13.341 -10.741  10.347  1.00  0.00     0.001 A 
ATOM     88  C   UNL     1      13.093 -11.763   9.430  1.00  0.00     0.000 A 
ENDBRANCH  70  83
ENDBRANCH  44  45
ENDBRANCH  36  39
ENDBRANCH  34  35
ENDBRANCH  33  34
ENDBRANCH  32  33
ENDBRANCH   1  32
TORSDOF 16
