REMARK SMILES COc1cccc(-c2cc(OCC(=O)NCCCCNC(=O)c3ccc(-c4c5nc(c(-c6ccccc6)c6ccc([nH]6)c(-c6ccccc6)c6nc(c(-c7ccccc7)c7ccc4[nH]7)C=C6)C=C5)cc3)nc(Nc3ccccc3Br)n2)c1
REMARK SMILES IDX 16 1 15 2 13 3 14 4 12 6 11 7 10 8 8 9 9 10 81 11 72 12
REMARK SMILES IDX 71 13 7 14 3 15 4 16 82 17 5 18 6 19 2 20 1 21 73 22 74 24
REMARK SMILES IDX 75 25 79 26 76 27 78 28 80 29 77 30 17 31 18 32 19 33 20 34
REMARK SMILES IDX 21 35 22 37 23 38 24 39 70 40 25 41 69 42 26 43 27 44 28 45
REMARK SMILES IDX 63 46 29 47 68 48 62 49 64 50 30 51 67 52 61 53 60 54 31 56
REMARK SMILES IDX 53 57 38 58 52 59 39 60 42 61 51 62 65 63 40 64 41 65 50 67
REMARK SMILES IDX 66 68 43 69 32 70 33 71 37 72 34 73 36 74 35 75 54 76 55 77
REMARK SMILES IDX 59 78 56 79 58 80 57 81 44 82 45 83 49 84 46 85 48 86 47 87
REMARK H PARENT 15 5 73 23 20 36 64 55 42 66
REMARK Flexibility Score: inf
ROOT
ATOM      1  C   UNL     1       8.399  -0.762   1.195  1.00  0.00     0.116 C 
ENDROOT
BRANCH   1   2
ATOM      2  N   UNL     1       7.117  -0.341   1.724  1.00  0.00    -0.353 N 
ATOM      3  C   UNL     1       6.363  -0.940   2.688  1.00  0.00     0.258 C 
ATOM      4  O   UNL     1       5.292  -0.420   3.008  1.00  0.00    -0.271 OA
ATOM      5  H   UNL     1       6.743   0.483   1.337  1.00  0.00     0.163 HD
BRANCH   3   6
ATOM      6  C   UNL     1       6.860  -2.227   3.360  1.00  0.00     0.331 C 
BRANCH   6   7
ATOM      7  O   UNL     1       7.088  -3.341   2.513  1.00  0.00    -0.467 OA
BRANCH   7   8
ATOM      8  C   UNL     1       6.015  -3.877   1.857  1.00  0.00     0.219 A 
ATOM      9  C   UNL     1       3.776  -4.112   1.246  1.00  0.00     0.080 A 
ATOM     10  C   UNL     1       4.708  -3.514   2.061  1.00  0.00     0.097 A 
ATOM     11  N   UNL     1       4.108  -5.039   0.337  1.00  0.00    -0.212 NA
ATOM     12  C   UNL     1       5.405  -5.348   0.205  1.00  0.00     0.231 A 
ATOM     13  N   UNL     1       6.375  -4.803   0.952  1.00  0.00    -0.177 NA
BRANCH   9  14
ATOM     14  C   UNL     1       2.362  -3.739   1.303  1.00  0.00     0.004 A 
ATOM     15  C   UNL     1       0.630  -2.030   1.154  1.00  0.00     0.119 A 
ATOM     16  C   UNL     1      -0.324  -2.970   1.543  1.00  0.00     0.046 A 
ATOM     17  C   UNL     1       1.967  -2.411   1.051  1.00  0.00     0.056 A 
ATOM     18  C   UNL     1       0.045  -4.295   1.772  1.00  0.00     0.005 A 
ATOM     19  C   UNL     1       1.379  -4.680   1.640  1.00  0.00     0.010 A 
BRANCH  15  20
ATOM     20  O   UNL     1       0.162  -0.760   0.950  1.00  0.00    -0.497 OA
ATOM     21  C   UNL     1       0.867  -0.004  -0.030  1.00  0.00     0.278 C 
ENDBRANCH  15  20
ENDBRANCH   9  14
BRANCH  12  22
ATOM     22  N   UNL     1       5.790  -6.311  -0.723  1.00  0.00    -0.323 N 
ATOM     23  H   UNL     1       6.742  -6.564  -0.718  1.00  0.00     0.170 HD
BRANCH  22  24
ATOM     24  C   UNL     1       4.983  -6.964  -1.663  1.00  0.00     0.055 A 
ATOM     25  C   UNL     1       4.861  -8.361  -1.576  1.00  0.00     0.027 A 
ATOM     26  C   UNL     1       4.206  -6.292  -2.628  1.00  0.00     0.041 A 
ATOM     27  C   UNL     1       3.971  -9.061  -2.396  1.00  0.00     0.002 A 
ATOM     28  C   UNL     1       3.317  -6.995  -3.450  1.00  0.00     0.018 A 
ATOM     29  Br  UNL     1       4.394  -4.426  -2.969  1.00  0.00    -0.049 Br
ATOM     30  C   UNL     1       3.192  -8.377  -3.326  1.00  0.00     0.001 A 
ENDBRANCH  22  24
ENDBRANCH  12  22
ENDBRANCH   7   8
ENDBRANCH   6   7
ENDBRANCH   3   6
ENDBRANCH   1   2
BRANCH   1  31
ATOM     31  C   UNL     1       8.298  -1.252  -0.247  1.00  0.00     0.023 C 
BRANCH  31  32
ATOM     32  C   UNL     1       7.797  -0.214  -1.257  1.00  0.00     0.023 C 
BRANCH  32  33
ATOM     33  C   UNL     1       8.527   1.127  -1.257  1.00  0.00     0.116 C 
BRANCH  33  34
ATOM     34  N   UNL     1       9.954   1.006  -1.513  1.00  0.00    -0.352 N 
ATOM     35  C   UNL     1      10.748   1.689  -2.403  1.00  0.00     0.251 C 
ATOM     36  H   UNL     1      10.422   0.334  -0.967  1.00  0.00     0.163 HD
ATOM     37  O   UNL     1      11.925   1.370  -2.548  1.00  0.00    -0.269 OA
BRANCH  35  38
ATOM     38  C   UNL     1      10.179   2.782  -3.222  1.00  0.00     0.039 A 
ATOM     39  C   UNL     1      10.426   2.784  -4.598  1.00  0.00     0.014 A 
ATOM     40  C   UNL     1       9.391   3.783  -2.649  1.00  0.00     0.014 A 
ATOM     41  C   UNL     1       9.804   3.732  -5.413  1.00  0.00     0.010 A 
ATOM     42  C   UNL     1       8.722   4.690  -3.470  1.00  0.00     0.010 A 
ATOM     43  C   UNL     1       8.903   4.657  -4.861  1.00  0.00    -0.014 A 
BRANCH  43  44
ATOM     44  C   UNL     1       8.082   5.541  -5.729  1.00  0.00     0.031 A 
ATOM     45  C   UNL     1       8.236   7.033  -5.676  1.00  0.00     0.074 A 
ATOM     46  C   UNL     1       7.122   4.992  -6.500  1.00  0.00     0.049 A 
ATOM     47  N   UNL     1       7.546   7.954  -6.301  1.00  0.00    -0.248 NA
ATOM     48  C   UNL     1       9.286   7.561  -4.792  1.00  0.00     0.031 C 
ATOM     49  C   UNL     1       6.837   3.559  -6.605  1.00  0.00     0.029 A 
ATOM     50  N   UNL     1       6.195   5.576  -7.327  1.00  0.00    -0.354 N 
ATOM     51  C   UNL     1       8.064   9.169  -5.873  1.00  0.00     0.074 A 
ATOM     52  C   UNL     1       9.101   8.869  -4.909  1.00  0.00     0.031 C 
ATOM     53  C   UNL     1       5.814   3.375  -7.454  1.00  0.00     0.029 A 
ATOM     54  C   UNL     1       5.343   4.676  -7.919  1.00  0.00     0.049 A 
ATOM     55  H   UNL     1       6.146   6.547  -7.481  1.00  0.00     0.167 HD
ATOM     56  C   UNL     1       7.713  10.421  -6.255  1.00  0.00     0.031 A 
ATOM     57  C   UNL     1       4.285   4.869  -8.728  1.00  0.00     0.031 A 
ATOM     58  C   UNL     1       6.682  10.720  -7.214  1.00  0.00     0.049 A 
ATOM     59  C   UNL     1       3.901   6.267  -9.119  1.00  0.00     0.074 A 
ATOM     60  C   UNL     1       6.312  11.953  -7.725  1.00  0.00     0.029 A 
ATOM     61  N   UNL     1       5.845   9.780  -7.795  1.00  0.00    -0.354 N 
ATOM     62  N   UNL     1       4.461   7.402  -8.776  1.00  0.00    -0.248 NA
ATOM     63  C   UNL     1       2.743   6.411 -10.012  1.00  0.00     0.031 C 
ATOM     64  C   UNL     1       5.210  11.765  -8.566  1.00  0.00     0.029 A 
ATOM     65  C   UNL     1       4.931  10.410  -8.624  1.00  0.00     0.049 A 
ATOM     66  H   UNL     1       5.893   8.809  -7.641  1.00  0.00     0.167 HD
ATOM     67  C   UNL     1       3.732   8.393  -9.419  1.00  0.00     0.074 A 
ATOM     68  C   UNL     1       2.704   7.725 -10.191  1.00  0.00     0.031 C 
ATOM     69  C   UNL     1       3.899   9.737  -9.371  1.00  0.00     0.031 A 
BRANCH  56  70
ATOM     70  C   UNL     1       8.441  11.571  -5.614  1.00  0.00    -0.014 A 
ATOM     71  C   UNL     1       9.787  11.839  -5.907  1.00  0.00     0.009 A 
ATOM     72  C   UNL     1       7.756  12.422  -4.732  1.00  0.00     0.009 A 
ATOM     73  C   UNL     1      10.443  12.912  -5.301  1.00  0.00     0.001 A 
ATOM     74  C   UNL     1       8.407  13.511  -4.150  1.00  0.00     0.001 A 
ATOM     75  C   UNL     1       9.752  13.750  -4.426  1.00  0.00     0.000 A 
ENDBRANCH  56  70
BRANCH  57  76
ATOM     76  C   UNL     1       3.504   3.701  -9.212  1.00  0.00    -0.014 A 
ATOM     77  C   UNL     1       3.580   3.297 -10.553  1.00  0.00     0.009 A 
ATOM     78  C   UNL     1       2.691   2.974  -8.328  1.00  0.00     0.009 A 
ATOM     79  C   UNL     1       2.844   2.198 -11.002  1.00  0.00     0.001 A 
ATOM     80  C   UNL     1       1.978   1.860  -8.774  1.00  0.00     0.001 A 
ATOM     81  C   UNL     1       2.050   1.477 -10.112  1.00  0.00     0.000 A 
ENDBRANCH  57  76
BRANCH  69  82
ATOM     82  C   UNL     1       2.951  10.576 -10.180  1.00  0.00    -0.014 A 
ATOM     83  C   UNL     1       1.615  10.746  -9.783  1.00  0.00     0.009 A 
ATOM     84  C   UNL     1       3.408  11.238 -11.329  1.00  0.00     0.009 A 
ATOM     85  C   UNL     1       0.750  11.541 -10.537  1.00  0.00     0.001 A 
ATOM     86  C   UNL     1       2.548  12.055 -12.066  1.00  0.00     0.001 A 
ATOM     87  C   UNL     1       1.218  12.199 -11.674  1.00  0.00     0.000 A 
ENDBRANCH  69  82
ENDBRANCH  43  44
ENDBRANCH  35  38
ENDBRANCH  33  34
ENDBRANCH  32  33
ENDBRANCH  31  32
ENDBRANCH   1  31
TORSDOF 17
