REMARK SMILES C/C(=N\Nc1ccncc1[N+](=O)[O-])C(=O)NCCCCNC(=O)c1ccc(-c2c3nc(c(-c4ccccc4)c4ccc([nH]4)c(-c4ccccc4)c4nc(c(-c5ccccc5)c5ccc2[nH]5)C=C4)C=C3)cc1
REMARK SMILES IDX 18 1 17 2 16 3 14 4 15 5 2 7 1 8 3 9 4 10 5 12 6 13 10 14
REMARK SMILES IDX 7 15 9 16 8 17 11 18 12 19 13 20 19 21 20 22 21 23 22 24
REMARK SMILES IDX 23 26 24 27 25 28 71 29 26 30 70 31 27 32 28 33 29 34 64 35
REMARK SMILES IDX 30 36 69 37 63 38 65 39 31 40 68 41 62 42 61 43 32 45 54 46
REMARK SMILES IDX 39 47 53 48 40 49 43 50 52 51 66 52 41 53 42 54 51 56 67 57
REMARK SMILES IDX 44 58 33 59 34 60 38 61 35 62 37 63 36 64 55 65 56 66 60 67
REMARK SMILES IDX 57 68 59 69 58 70 45 71 46 72 50 73 47 74 49 75 48 76
REMARK H PARENT 16 6 4 11 21 25 65 44 43 55
REMARK Flexibility Score: inf
ROOT
ATOM      1  C   UNL     1      -1.758   4.479   0.314  1.00  0.00     0.023 C 
ENDROOT
BRANCH   1   2
ATOM      2  C   UNL     1      -0.336   4.147  -0.141  1.00  0.00     0.116 C 
BRANCH   2   3
ATOM      3  N   UNL     1       0.412   3.558   0.956  1.00  0.00    -0.351 N 
ATOM      4  C   UNL     1       0.732   2.239   1.180  1.00  0.00     0.267 C 
ATOM      5  O   UNL     1       1.204   1.878   2.246  1.00  0.00    -0.268 OA
ATOM      6  H   UNL     1       0.737   4.193   1.634  1.00  0.00     0.163 HD
BRANCH   4   7
ATOM      7  C   UNL     1       0.642   1.238   0.037  1.00  0.00     0.122 C 
ATOM      8  C   UNL     1       1.857   0.353  -0.085  1.00  0.00     0.075 C 
ATOM      9  N   UNL     1      -0.435   1.215  -0.699  1.00  0.00    -0.175 NA
BRANCH   9  10
ATOM     10  N   UNL     1      -0.432   0.528  -1.865  1.00  0.00    -0.271 N 
ATOM     11  H   UNL     1      -0.555   1.051  -2.690  1.00  0.00     0.190 HD
BRANCH  10  12
ATOM     12  C   UNL     1      -0.270  -0.862  -2.012  1.00  0.00     0.137 A 
ATOM     13  C   UNL     1      -0.482  -1.728  -0.934  1.00  0.00     0.055 A 
ATOM     14  C   UNL     1       0.272  -1.415  -3.187  1.00  0.00     0.312 A 
ATOM     15  C   UNL     1      -0.117  -3.060  -1.051  1.00  0.00     0.113 A 
ATOM     16  C   UNL     1       0.625  -2.756  -3.212  1.00  0.00     0.198 A 
ATOM     17  N   UNL     1       0.444  -3.589  -2.160  1.00  0.00    -0.257 NA
BRANCH  14  18
ATOM     18  N   UNL     1       0.518  -0.613  -4.378  1.00  0.00     0.066 N 
ATOM     19  O   UNL     1       1.316  -1.054  -5.216  1.00  0.00    -0.258 OA
ATOM     20  O   UNL     1      -0.096   0.460  -4.494  1.00  0.00    -0.258 OA
ENDBRANCH  14  18
ENDBRANCH  10  12
ENDBRANCH   9  10
ENDBRANCH   4   7
ENDBRANCH   2   3
ENDBRANCH   1   2
BRANCH   1  21
ATOM     21  C   UNL     1      -1.827   5.590   1.369  1.00  0.00     0.023 C 
BRANCH  21  22
ATOM     22  C   UNL     1      -1.190   6.911   0.953  1.00  0.00     0.116 C 
BRANCH  22  23
ATOM     23  N   UNL     1      -1.791   7.470  -0.246  1.00  0.00    -0.352 N 
ATOM     24  C   UNL     1      -2.120   8.772  -0.526  1.00  0.00     0.251 C 
ATOM     25  H   UNL     1      -1.990   6.822  -0.959  1.00  0.00     0.163 HD
ATOM     26  O   UNL     1      -2.763   9.037  -1.535  1.00  0.00    -0.269 OA
BRANCH  24  27
ATOM     27  C   UNL     1      -1.721   9.856   0.399  1.00  0.00     0.039 A 
ATOM     28  C   UNL     1      -2.637  10.877   0.664  1.00  0.00     0.014 A 
ATOM     29  C   UNL     1      -0.448   9.891   0.975  1.00  0.00     0.014 A 
ATOM     30  C   UNL     1      -2.285  11.916   1.526  1.00  0.00     0.010 A 
ATOM     31  C   UNL     1      -0.129  10.883   1.899  1.00  0.00     0.010 A 
ATOM     32  C   UNL     1      -1.033  11.921   2.163  1.00  0.00    -0.014 A 
BRANCH  32  33
ATOM     33  C   UNL     1      -0.648  13.035   3.067  1.00  0.00     0.031 A 
ATOM     34  C   UNL     1       0.495  13.944   2.702  1.00  0.00     0.074 A 
ATOM     35  C   UNL     1      -1.315  13.222   4.222  1.00  0.00     0.049 A 
ATOM     36  N   UNL     1       0.963  14.984   3.348  1.00  0.00    -0.248 NA
ATOM     37  C   UNL     1       1.226  13.633   1.462  1.00  0.00     0.031 C 
ATOM     38  C   UNL     1      -2.413  12.386   4.714  1.00  0.00     0.029 A 
ATOM     39  N   UNL     1      -1.171  14.184   5.190  1.00  0.00    -0.354 N 
ATOM     40  C   UNL     1       2.043  15.438   2.601  1.00  0.00     0.074 A 
ATOM     41  C   UNL     1       2.202  14.528   1.489  1.00  0.00     0.031 C 
ATOM     42  C   UNL     1      -2.869  12.895   5.870  1.00  0.00     0.029 A 
ATOM     43  C   UNL     1      -2.077  14.071   6.217  1.00  0.00     0.049 A 
ATOM     44  H   UNL     1      -0.484  14.888   5.151  1.00  0.00     0.167 HD
ATOM     45  C   UNL     1       2.818  16.530   2.804  1.00  0.00     0.031 A 
ATOM     46  C   UNL     1      -2.254  14.834   7.311  1.00  0.00     0.031 A 
ATOM     47  C   UNL     1       2.655  17.444   3.902  1.00  0.00     0.049 A 
ATOM     48  C   UNL     1      -1.380  16.042   7.513  1.00  0.00     0.074 A 
ATOM     49  C   UNL     1       3.357  18.607   4.169  1.00  0.00     0.029 A 
ATOM     50  N   UNL     1       1.724  17.296   4.918  1.00  0.00    -0.354 N 
ATOM     51  N   UNL     1      -0.411  16.500   6.757  1.00  0.00    -0.248 NA
ATOM     52  C   UNL     1      -1.643  16.851   8.711  1.00  0.00     0.031 C 
ATOM     53  C   UNL     1       2.885  19.134   5.375  1.00  0.00     0.029 A 
ATOM     54  C   UNL     1       1.845  18.336   5.824  1.00  0.00     0.049 A 
ATOM     55  H   UNL     1       1.072  16.561   4.985  1.00  0.00     0.167 HD
ATOM     56  C   UNL     1       0.026  17.668   7.369  1.00  0.00     0.074 A 
ATOM     57  C   UNL     1      -0.798  17.858   8.545  1.00  0.00     0.031 C 
ATOM     58  C   UNL     1       1.019  18.510   6.991  1.00  0.00     0.031 A 
BRANCH  45  59
ATOM     59  C   UNL     1       3.920  16.791   1.812  1.00  0.00    -0.014 A 
ATOM     60  C   UNL     1       3.636  17.180   0.492  1.00  0.00     0.009 A 
ATOM     61  C   UNL     1       5.261  16.677   2.209  1.00  0.00     0.009 A 
ATOM     62  C   UNL     1       4.670  17.409  -0.418  1.00  0.00     0.001 A 
ATOM     63  C   UNL     1       6.293  16.938   1.306  1.00  0.00     0.001 A 
ATOM     64  C   UNL     1       5.997  17.294  -0.009  1.00  0.00     0.000 A 
ENDBRANCH  45  59
BRANCH  46  65
ATOM     65  C   UNL     1      -3.321  14.502   8.292  1.00  0.00    -0.014 A 
ATOM     66  C   UNL     1      -4.444  15.333   8.437  1.00  0.00     0.009 A 
ATOM     67  C   UNL     1      -3.212  13.364   9.107  1.00  0.00     0.009 A 
ATOM     68  C   UNL     1      -5.414  15.053   9.402  1.00  0.00     0.001 A 
ATOM     69  C   UNL     1      -4.200  13.069  10.048  1.00  0.00     0.001 A 
ATOM     70  C   UNL     1      -5.293  13.919  10.204  1.00  0.00     0.000 A 
ENDBRANCH  46  65
BRANCH  58  71
ATOM     71  C   UNL     1       1.234  19.737   7.835  1.00  0.00    -0.014 A 
ATOM     72  C   UNL     1       1.750  19.652   9.138  1.00  0.00     0.009 A 
ATOM     73  C   UNL     1       0.923  21.001   7.309  1.00  0.00     0.009 A 
ATOM     74  C   UNL     1       1.901  20.804   9.913  1.00  0.00     0.001 A 
ATOM     75  C   UNL     1       1.109  22.153   8.073  1.00  0.00     0.001 A 
ATOM     76  C   UNL     1       1.583  22.052   9.380  1.00  0.00     0.000 A 
ENDBRANCH  58  71
ENDBRANCH  32  33
ENDBRANCH  24  27
ENDBRANCH  22  23
ENDBRANCH  21  22
ENDBRANCH   1  21
TORSDOF 14
