REMARK SMILES O=C(NCCCCNC(=O)[C@H](NC(=O)[C@H]1CC[C@@H](CNC(=O)[C@@H]2Cc3ccccc3C[NH2+]2)CC1)c1ccccc1)c1ccc(-c2c3nc(c(-c4ccccc4)c4ccc([nH]4)c(-c4ccccc4)c4nc(c(-c5ccccc5)c5ccc2[nH]5)C=C4)C=C3)cc1
REMARK SMILES IDX 7 1 6 2 5 3 4 4 3 5 1 6 2 7 41 9 42 10 88 11 43 12 87 13
REMARK SMILES IDX 44 14 45 15 46 16 81 17 47 18 86 19 80 20 82 21 48 22 85 23
REMARK SMILES IDX 79 24 78 25 49 27 71 28 56 29 70 30 57 31 60 32 69 33 83 34
REMARK SMILES IDX 58 35 59 36 68 38 84 39 61 40 50 41 51 42 55 43 52 44 54 45
REMARK SMILES IDX 53 46 72 47 73 48 77 49 74 50 76 51 75 52 62 53 63 54 67 55
REMARK SMILES IDX 64 56 66 57 65 58 8 59 9 60 10 62 11 63 35 64 36 65 40 66
REMARK SMILES IDX 37 67 39 68 38 69 12 70 13 71 14 73 15 74 34 75 16 76 33 77
REMARK SMILES IDX 17 78 18 79 19 80 20 81 21 82 22 84 23 85 24 86 32 87 25 88
REMARK SMILES IDX 31 89 26 92 30 93 27 94 29 95 28 96
REMARK H PARENT 3 8 82 26 60 37 8 61 12 72 20 83 32 90 32 91
REMARK Flexibility Score: inf
ROOT
ATOM      1  C   UNL     1       8.315   8.945   5.356  1.00  0.00     0.116 C 
ENDROOT
BRANCH   1   2
ATOM      2  C   UNL     1       7.928  10.036   6.354  1.00  0.00     0.023 C 
BRANCH   2   3
ATOM      3  C   UNL     1       8.206   9.655   7.808  1.00  0.00     0.023 C 
BRANCH   3   4
ATOM      4  C   UNL     1       9.675   9.400   8.104  1.00  0.00     0.116 C 
BRANCH   4   5
ATOM      5  N   UNL     1      10.458  10.627   8.071  1.00  0.00    -0.352 N 
ATOM      6  O   UNL     1      11.692  12.292   8.982  1.00  0.00    -0.269 OA
ATOM      7  C   UNL     1      11.247  11.151   9.066  1.00  0.00     0.251 C 
ATOM      8  H   UNL     1      10.418  11.143   7.233  1.00  0.00     0.163 HD
BRANCH   7   9
ATOM      9  C   UNL     1      11.531  10.321  10.253  1.00  0.00     0.039 A 
ATOM     10  C   UNL     1      11.920   8.991  10.085  1.00  0.00     0.014 A 
ATOM     11  C   UNL     1      11.354  10.854  11.531  1.00  0.00     0.014 A 
ATOM     12  C   UNL     1      11.978   8.152  11.188  1.00  0.00     0.010 A 
ATOM     13  C   UNL     1      11.522  10.031  12.648  1.00  0.00     0.010 A 
ATOM     14  C   UNL     1      11.810   8.667  12.484  1.00  0.00    -0.014 A 
BRANCH  14  15
ATOM     15  C   UNL     1      12.027   7.764  13.642  1.00  0.00     0.031 A 
ATOM     16  C   UNL     1      10.924   7.441  14.611  1.00  0.00     0.074 A 
ATOM     17  C   UNL     1      13.241   7.196  13.782  1.00  0.00     0.049 A 
ATOM     18  N   UNL     1      10.954   6.641  15.648  1.00  0.00    -0.248 NA
ATOM     19  C   UNL     1       9.625   8.099  14.399  1.00  0.00     0.031 C 
ATOM     20  C   UNL     1      14.392   7.439  12.906  1.00  0.00     0.029 A 
ATOM     21  N   UNL     1      13.705   6.279  14.688  1.00  0.00    -0.354 N 
ATOM     22  C   UNL     1       9.687   6.704  16.215  1.00  0.00     0.074 A 
ATOM     23  C   UNL     1       8.921   7.648  15.429  1.00  0.00     0.031 C 
ATOM     24  C   UNL     1      15.406   6.649  13.280  1.00  0.00     0.029 A 
ATOM     25  C   UNL     1      15.008   5.905  14.467  1.00  0.00     0.049 A 
ATOM     26  H   UNL     1      13.158   5.923  15.425  1.00  0.00     0.167 HD
ATOM     27  C   UNL     1       9.205   6.028  17.287  1.00  0.00     0.031 A 
ATOM     28  C   UNL     1      15.809   5.074  15.157  1.00  0.00     0.031 A 
ATOM     29  C   UNL     1       9.977   5.102  18.076  1.00  0.00     0.049 A 
ATOM     30  C   UNL     1      15.262   4.384  16.370  1.00  0.00     0.074 A 
ATOM     31  C   UNL     1       9.578   4.366  19.180  1.00  0.00     0.029 A 
ATOM     32  N   UNL     1      11.308   4.785  17.848  1.00  0.00    -0.354 N 
ATOM     33  N   UNL     1      14.054   4.437  16.876  1.00  0.00    -0.248 NA
ATOM     34  C   UNL     1      16.190   3.517  17.106  1.00  0.00     0.031 C 
ATOM     35  C   UNL     1      10.682   3.647  19.651  1.00  0.00     0.029 A 
ATOM     36  C   UNL     1      11.751   3.881  18.802  1.00  0.00     0.049 A 
ATOM     37  H   UNL     1      11.858   5.148  17.117  1.00  0.00     0.167 HD
ATOM     38  C   UNL     1      14.071   3.594  17.977  1.00  0.00     0.074 A 
ATOM     39  C   UNL     1      15.399   3.020  18.045  1.00  0.00     0.031 C 
ATOM     40  C   UNL     1      13.077   3.323  18.858  1.00  0.00     0.031 A 
BRANCH  27  41
ATOM     41  C   UNL     1       7.775   6.278  17.685  1.00  0.00    -0.014 A 
ATOM     42  C   UNL     1       6.709   5.811  16.899  1.00  0.00     0.009 A 
ATOM     43  C   UNL     1       7.487   6.936  18.892  1.00  0.00     0.009 A 
ATOM     44  C   UNL     1       5.387   6.024  17.298  1.00  0.00     0.001 A 
ATOM     45  C   UNL     1       6.165   7.122  19.303  1.00  0.00     0.001 A 
ATOM     46  C   UNL     1       5.116   6.674  18.502  1.00  0.00     0.000 A 
ENDBRANCH  27  41
BRANCH  28  47
ATOM     47  C   UNL     1      17.222   4.882  14.735  1.00  0.00    -0.014 A 
ATOM     48  C   UNL     1      17.671   3.639  14.265  1.00  0.00     0.009 A 
ATOM     49  C   UNL     1      18.134   5.947  14.814  1.00  0.00     0.009 A 
ATOM     50  C   UNL     1      19.012   3.459  13.918  1.00  0.00     0.001 A 
ATOM     51  C   UNL     1      19.463   5.775  14.429  1.00  0.00     0.001 A 
ATOM     52  C   UNL     1      19.905   4.527  13.995  1.00  0.00     0.000 A 
ENDBRANCH  28  47
BRANCH  40  53
ATOM     53  C   UNL     1      13.387   2.332  19.945  1.00  0.00    -0.014 A 
ATOM     54  C   UNL     1      14.273   2.644  20.989  1.00  0.00     0.009 A 
ATOM     55  C   UNL     1      12.778   1.068  19.925  1.00  0.00     0.009 A 
ATOM     56  C   UNL     1      14.576   1.693  21.965  1.00  0.00     0.001 A 
ATOM     57  C   UNL     1      13.057   0.132  20.921  1.00  0.00     0.001 A 
ATOM     58  C   UNL     1      13.966   0.440  21.932  1.00  0.00     0.000 A 
ENDBRANCH  40  53
ENDBRANCH  14  15
ENDBRANCH   7   9
ENDBRANCH   4   5
ENDBRANCH   3   4
ENDBRANCH   2   3
ENDBRANCH   1   2
BRANCH   1  59
ATOM     59  N   UNL     1       7.521   7.758   5.606  1.00  0.00    -0.354 N 
ATOM     60  C   UNL     1       6.460   7.289   4.875  1.00  0.00     0.247 C 
ATOM     61  H   UNL     1       7.774   7.225   6.394  1.00  0.00     0.163 HD
ATOM     62  O   UNL     1       5.657   6.532   5.423  1.00  0.00    -0.272 OA
BRANCH  60  63
ATOM     63  C   UNL     1       6.417   7.602   3.346  1.00  0.00     0.202 C 
BRANCH  63  64
ATOM     64  C   UNL     1       7.502   6.772   2.714  1.00  0.00    -0.016 A 
ATOM     65  C   UNL     1       8.541   7.408   2.035  1.00  0.00     0.006 A 
ATOM     66  C   UNL     1       7.496   5.367   2.812  1.00  0.00     0.006 A 
ATOM     67  C   UNL     1       9.499   6.651   1.383  1.00  0.00     0.000 A 
ATOM     68  C   UNL     1       8.439   4.613   2.117  1.00  0.00     0.000 A 
ATOM     69  C   UNL     1       9.423   5.259   1.377  1.00  0.00     0.000 A 
ENDBRANCH  63  64
BRANCH  63  70
ATOM     70  N   UNL     1       5.088   7.365   2.781  1.00  0.00    -0.340 N 
ATOM     71  C   UNL     1       4.529   7.622   1.571  1.00  0.00     0.224 C 
ATOM     72  H   UNL     1       4.470   6.928   3.410  1.00  0.00     0.164 HD
ATOM     73  O   UNL     1       3.317   7.882   1.599  1.00  0.00    -0.275 OA
BRANCH  71  74
ATOM     74  C   UNL     1       5.230   7.576   0.193  1.00  0.00     0.078 C 
ATOM     75  C   UNL     1       6.069   8.788  -0.182  1.00  0.00     0.014 C 
ATOM     76  C   UNL     1       5.890   6.243  -0.152  1.00  0.00     0.014 C 
ATOM     77  C   UNL     1       6.479   8.700  -1.659  1.00  0.00     0.006 C 
ATOM     78  C   UNL     1       6.810   6.181  -1.382  1.00  0.00     0.006 C 
ATOM     79  C   UNL     1       7.364   7.479  -1.984  1.00  0.00     0.008 C 
BRANCH  79  80
ATOM     80  C   UNL     1       8.845   7.892  -1.782  1.00  0.00     0.119 C 
BRANCH  80  81
ATOM     81  N   UNL     1       9.908   6.909  -1.771  1.00  0.00    -0.351 N 
ATOM     82  C   UNL     1      11.262   7.141  -1.613  1.00  0.00     0.278 C 
ATOM     83  H   UNL     1       9.636   5.970  -1.888  1.00  0.00     0.163 HD
ATOM     84  O   UNL     1      11.918   6.244  -1.070  1.00  0.00    -0.268 OA
BRANCH  82  85
ATOM     85  C   UNL     1      11.978   8.448  -2.080  1.00  0.00     0.277 C 
ATOM     86  C   UNL     1      12.289   9.466  -0.945  1.00  0.00     0.111 C 
ATOM     87  N   UNL     1      11.364   9.001  -3.308  1.00  0.00    -0.332 N 
ATOM     88  C   UNL     1      12.546  10.860  -1.502  1.00  0.00    -0.033 A 
ATOM     89  C   UNL     1      10.732  10.297  -3.100  1.00  0.00     0.298 C 
ATOM     90  H   UNL     1      10.657   8.346  -3.641  1.00  0.00     0.347 HD
ATOM     91  H   UNL     1      12.113   9.135  -3.988  1.00  0.00     0.347 HD
ATOM     92  C   UNL     1      13.518  11.735  -1.013  1.00  0.00     0.004 A 
ATOM     93  C   UNL     1      11.736  11.275  -2.575  1.00  0.00     0.010 A 
ATOM     94  C   UNL     1      13.677  12.999  -1.598  1.00  0.00     0.000 A 
ATOM     95  C   UNL     1      11.868  12.551  -3.127  1.00  0.00     0.010 A 
ATOM     96  C   UNL     1      12.848  13.409  -2.644  1.00  0.00     0.001 A 
ENDBRANCH  82  85
ENDBRANCH  80  81
ENDBRANCH  79  80
ENDBRANCH  71  74
ENDBRANCH  63  70
ENDBRANCH  60  63
ENDBRANCH   1  59
TORSDOF 17
