REMARK SMILES NC(=O)C1CC[NH+](CC[C@H]2CN(C(=O)c3ccccc3)CC[C@H]2CC(=O)NCCCCNC(=O)c2ccc(-c3c4nc(c(-c5ccccc5)c5ccc([nH]5)c(-c5ccccc5)c5nc(c(-c6ccccc6)c6ccc3[nH]6)C=C5)C=C4)cc2)CC1
REMARK SMILES IDX 28 1 27 2 25 3 26 4 24 6 23 7 10 8 11 9 12 10 22 11 21 12
REMARK SMILES IDX 9 13 8 14 7 15 4 16 5 17 84 18 6 19 83 20 2 22 1 23 3 26
REMARK SMILES IDX 13 27 14 28 15 29 16 30 20 31 17 32 19 33 18 34 29 35 30 36
REMARK SMILES IDX 31 37 32 38 33 39 34 41 35 42 36 43 82 44 37 45 81 46 38 47
REMARK SMILES IDX 39 48 40 49 75 50 41 51 80 52 74 53 76 54 42 55 79 56 73 57
REMARK SMILES IDX 72 58 43 60 65 61 50 62 64 63 51 64 54 65 63 66 77 67 52 68
REMARK SMILES IDX 53 69 62 71 78 72 55 73 44 74 45 75 49 76 46 77 48 78 47 79
REMARK SMILES IDX 66 80 67 81 71 82 68 83 70 84 69 85 56 86 57 87 61 88 58 89
REMARK SMILES IDX 60 90 59 91
REMARK H PARENT 27 5 7 21 1 24 1 25 32 40 76 59 54 70
REMARK Flexibility Score: inf
ROOT
ATOM      1  C   UNL     1       1.484   6.380   2.200  1.00  0.00     0.116 C 
ENDROOT
BRANCH   1   2
ATOM      2  N   UNL     1       2.076   5.438   1.060  1.00  0.00    -0.356 N 
ATOM      3  C   UNL     1       1.670   4.294   0.124  1.00  0.00     0.220 C 
ATOM      4  O   UNL     1       2.729   4.209  -0.561  1.00  0.00    -0.275 OA
ATOM      5  H   UNL     1       3.021   5.667   0.905  1.00  0.00     0.163 HD
BRANCH   3   6
ATOM      6  C   UNL     1      -0.112   3.161  -0.049  1.00  0.00     0.104 C 
BRANCH   6   7
ATOM      7  C   UNL     1      -1.402   2.684   1.098  1.00  0.00     0.005 C 
ATOM      8  C   UNL     1      -2.071   3.745   2.082  1.00  0.00     0.018 C 
ATOM      9  C   UNL     1      -3.040   3.076   3.034  1.00  0.00     0.124 C 
ATOM     10  N   UNL     1      -4.045   2.424   2.254  1.00  0.00    -0.338 N 
ATOM     11  C   UNL     1      -2.525   1.917   0.361  1.00  0.00     0.026 C 
ATOM     12  C   UNL     1      -3.530   1.359   1.381  1.00  0.00     0.120 C 
BRANCH   8  13
ATOM     13  C   UNL     1      -2.628   4.925   1.330  1.00  0.00     0.067 C 
BRANCH  13  14
ATOM     14  C   UNL     1      -1.470   5.735   0.814  1.00  0.00     0.262 C 
BRANCH  14  15
ATOM     15  N   UNL     1      -0.189   5.048   0.647  1.00  0.00    -0.335 N 
ATOM     16  C   UNL     1       1.784   2.159  -0.939  1.00  0.00     0.089 C 
ATOM     17  C   UNL     1       1.650   2.279   0.944  1.00  0.00     0.075 C 
ATOM     18  C   UNL     1       1.015   3.540  -1.975  1.00  0.00     0.075 C 
ATOM     19  C   UNL     1       0.627   3.700   1.759  1.00  0.00     0.263 C 
ATOM     20  C   UNL     1       0.185   5.054  -1.168  1.00  0.00     0.263 C 
ATOM     21  H   UNL     1       0.386   5.566   1.310  1.00  0.00     0.348 HD
BRANCH  16  22
ATOM     22  C   UNL     1       1.208   0.793  -1.400  1.00  0.00     0.220 C 
ATOM     23  N   UNL     1       1.498  -0.277  -0.606  1.00  0.00    -0.369 N 
ATOM     24  H   UNL     1       1.162  -1.171  -0.843  1.00  0.00     0.159 HD
ATOM     25  H   UNL     1       2.042  -0.154   0.205  1.00  0.00     0.159 HD
ATOM     26  O   UNL     1       0.482   0.645  -2.377  1.00  0.00    -0.275 OA
ENDBRANCH  16  22
ENDBRANCH  14  15
ENDBRANCH  13  14
ENDBRANCH   8  13
BRANCH  10  27
ATOM     27  C   UNL     1      -5.247   3.108   2.123  1.00  0.00     0.253 C 
ATOM     28  O   UNL     1      -5.494   4.191   2.647  1.00  0.00    -0.269 OA
BRANCH  27  29
ATOM     29  C   UNL     1      -6.267   2.517   1.264  1.00  0.00     0.040 A 
ATOM     30  C   UNL     1      -6.774   3.270   0.206  1.00  0.00     0.014 A 
ATOM     31  C   UNL     1      -6.676   1.204   1.499  1.00  0.00     0.014 A 
ATOM     32  C   UNL     1      -7.665   2.667  -0.672  1.00  0.00     0.001 A 
ATOM     33  C   UNL     1      -7.543   0.601   0.603  1.00  0.00     0.001 A 
ATOM     34  C   UNL     1      -8.032   1.331  -0.482  1.00  0.00     0.000 A 
ENDBRANCH  27  29
ENDBRANCH  10  27
ENDBRANCH   6   7
ENDBRANCH   3   6
ENDBRANCH   1   2
BRANCH   1  35
ATOM     35  C   UNL     1       0.939   5.803   3.578  1.00  0.00     0.023 C 
BRANCH  35  36
ATOM     36  C   UNL     1       1.057   6.617   4.856  1.00  0.00     0.023 C 
BRANCH  36  37
ATOM     37  C   UNL     1       0.619   8.050   4.766  1.00  0.00     0.116 C 
BRANCH  37  38
ATOM     38  N   UNL     1      -0.814   8.292   4.809  1.00  0.00    -0.352 N 
ATOM     39  C   UNL     1      -1.427   9.390   5.395  1.00  0.00     0.251 C 
ATOM     40  H   UNL     1      -1.398   7.621   4.388  1.00  0.00     0.163 HD
ATOM     41  O   UNL     1      -2.643   9.520   5.421  1.00  0.00    -0.269 OA
BRANCH  39  42
ATOM     42  C   UNL     1      -0.549  10.385   6.056  1.00  0.00     0.039 A 
ATOM     43  C   UNL     1      -0.720  10.653   7.414  1.00  0.00     0.014 A 
ATOM     44  C   UNL     1       0.570  10.866   5.371  1.00  0.00     0.014 A 
ATOM     45  C   UNL     1       0.288  11.329   8.105  1.00  0.00     0.010 A 
ATOM     46  C   UNL     1       1.632  11.389   6.093  1.00  0.00     0.010 A 
ATOM     47  C   UNL     1       1.497  11.652   7.465  1.00  0.00    -0.014 A 
BRANCH  47  48
ATOM     48  C   UNL     1       2.615  12.309   8.191  1.00  0.00     0.031 A 
ATOM     49  C   UNL     1       3.126  13.642   7.709  1.00  0.00     0.074 A 
ATOM     50  C   UNL     1       3.196  11.707   9.249  1.00  0.00     0.049 A 
ATOM     51  N   UNL     1       4.109  14.369   8.177  1.00  0.00    -0.248 NA
ATOM     52  C   UNL     1       2.469  14.223   6.524  1.00  0.00     0.031 C 
ATOM     53  C   UNL     1       2.833  10.394   9.789  1.00  0.00     0.029 A 
ATOM     54  N   UNL     1       4.217  12.127  10.066  1.00  0.00    -0.354 N 
ATOM     55  C   UNL     1       4.184  15.478   7.343  1.00  0.00     0.074 A 
ATOM     56  C   UNL     1       3.217  15.287   6.289  1.00  0.00     0.031 C 
ATOM     57  C   UNL     1       3.587  10.139  10.871  1.00  0.00     0.029 A 
ATOM     58  C   UNL     1       4.522  11.242  11.073  1.00  0.00     0.049 A 
ATOM     59  H   UNL     1       4.688  12.983   9.942  1.00  0.00     0.167 HD
ATOM     60  C   UNL     1       4.956  16.582   7.462  1.00  0.00     0.031 A 
ATOM     61  C   UNL     1       5.454  11.307  12.044  1.00  0.00     0.031 A 
ATOM     62  C   UNL     1       5.919  16.777   8.509  1.00  0.00     0.049 A 
ATOM     63  C   UNL     1       6.335  12.525  12.129  1.00  0.00     0.074 A 
ATOM     64  C   UNL     1       6.733  17.872   8.737  1.00  0.00     0.029 A 
ATOM     65  N   UNL     1       6.201  15.851   9.502  1.00  0.00    -0.354 N 
ATOM     66  N   UNL     1       6.348  13.593  11.368  1.00  0.00    -0.248 NA
ATOM     67  C   UNL     1       7.321  12.553  13.219  1.00  0.00     0.031 C 
ATOM     68  C   UNL     1       7.557  17.580   9.826  1.00  0.00     0.029 A 
ATOM     69  C   UNL     1       7.195  16.341  10.331  1.00  0.00     0.049 A 
ATOM     70  H   UNL     1       5.760  14.977   9.602  1.00  0.00     0.167 HD
ATOM     71  C   UNL     1       7.311  14.435  11.911  1.00  0.00     0.074 A 
ATOM     72  C   UNL     1       7.847  13.760  13.075  1.00  0.00     0.031 C 
ATOM     73  C   UNL     1       7.715  15.659  11.488  1.00  0.00     0.031 A 
BRANCH  60  74
ATOM     74  C   UNL     1       4.781  17.662   6.429  1.00  0.00    -0.014 A 
ATOM     75  C   UNL     1       3.586  18.398   6.339  1.00  0.00     0.009 A 
ATOM     76  C   UNL     1       5.830  17.966   5.550  1.00  0.00     0.009 A 
ATOM     77  C   UNL     1       3.433  19.385   5.364  1.00  0.00     0.001 A 
ATOM     78  C   UNL     1       5.689  18.981   4.602  1.00  0.00     0.001 A 
ATOM     79  C   UNL     1       4.488  19.681   4.502  1.00  0.00     0.000 A 
ENDBRANCH  60  74
BRANCH  61  80
ATOM     80  C   UNL     1       5.613  10.187  13.014  1.00  0.00    -0.014 A 
ATOM     81  C   UNL     1       5.341  10.365  14.380  1.00  0.00     0.009 A 
ATOM     82  C   UNL     1       6.076   8.934  12.579  1.00  0.00     0.009 A 
ATOM     83  C   UNL     1       5.570   9.331  15.291  1.00  0.00     0.001 A 
ATOM     84  C   UNL     1       6.265   7.889  13.486  1.00  0.00     0.001 A 
ATOM     85  C   UNL     1       6.028   8.093  14.843  1.00  0.00     0.000 A 
ENDBRANCH  61  80
BRANCH  73  86
ATOM     86  C   UNL     1       8.741  16.377  12.321  1.00  0.00    -0.014 A 
ATOM     87  C   UNL     1      10.066  15.926  12.418  1.00  0.00     0.009 A 
ATOM     88  C   UNL     1       8.376  17.555  12.993  1.00  0.00     0.009 A 
ATOM     89  C   UNL     1      10.989  16.612  13.210  1.00  0.00     0.001 A 
ATOM     90  C   UNL     1       9.310  18.263  13.749  1.00  0.00     0.001 A 
ATOM     91  C   UNL     1      10.612  17.782  13.869  1.00  0.00     0.000 A 
ENDBRANCH  73  86
ENDBRANCH  47  48
ENDBRANCH  39  42
ENDBRANCH  37  38
ENDBRANCH  36  37
ENDBRANCH  35  36
ENDBRANCH   1  35
TORSDOF 18
