REMARK SMILES O=C(NCCCCNC(=O)[C@H]1CC(=O)N(Cc2ccc3cc[nH]c3c2)C1)c1ccc(-c2c3nc(c(-c4ccccc4)c4ccc([nH]4)c(-c4ccccc4)c4nc(c(-c5ccccc5)c5ccc2[nH]5)C=C4)C=C3)cc1
REMARK SMILES IDX 5 1 4 2 3 3 1 4 2 5 27 7 28 8 74 9 29 10 73 11 30 12 31 13
REMARK SMILES IDX 32 14 67 15 33 16 72 17 66 18 68 19 34 20 71 21 65 22 64 23
REMARK SMILES IDX 35 25 57 26 42 27 56 28 43 29 46 30 55 31 69 32 44 33 45 34
REMARK SMILES IDX 54 36 70 37 47 38 36 39 37 40 41 41 38 42 40 43 39 44 58 45
REMARK SMILES IDX 59 46 63 47 60 48 62 49 61 50 48 51 49 52 53 53 50 54 52 55
REMARK SMILES IDX 51 56 6 57 7 58 8 59 9 60 10 62 11 63 12 64 26 65 13 66
REMARK SMILES IDX 15 67 14 68 16 69 17 70 18 71 25 72 19 73 24 74 20 75 23 76
REMARK SMILES IDX 21 77 22 78
REMARK H PARENT 3 6 68 24 46 35 8 61 23 79
REMARK Flexibility Score: inf
ROOT
ATOM      1  C   UNL     1      10.412  -3.112   7.694  1.00  0.00     0.023 C 
ENDROOT
BRANCH   1   2
ATOM      2  C   UNL     1      10.731  -4.228   8.681  1.00  0.00     0.116 C 
BRANCH   2   3
ATOM      3  N   UNL     1      11.893  -5.008   8.285  1.00  0.00    -0.352 N 
ATOM      4  O   UNL     1      14.037  -5.704   8.335  1.00  0.00    -0.269 OA
ATOM      5  C   UNL     1      13.110  -5.140   8.906  1.00  0.00     0.251 C 
ATOM      6  H   UNL     1      11.791  -5.517   7.449  1.00  0.00     0.163 HD
BRANCH   5   7
ATOM      7  C   UNL     1      13.307  -4.575  10.256  1.00  0.00     0.039 A 
ATOM      8  C   UNL     1      12.359  -4.780  11.262  1.00  0.00     0.014 A 
ATOM      9  C   UNL     1      14.461  -3.834  10.513  1.00  0.00     0.014 A 
ATOM     10  C   UNL     1      12.492  -4.125  12.480  1.00  0.00     0.010 A 
ATOM     11  C   UNL     1      14.636  -3.248  11.767  1.00  0.00     0.010 A 
ATOM     12  C   UNL     1      13.639  -3.364  12.749  1.00  0.00    -0.014 A 
BRANCH  12  13
ATOM     13  C   UNL     1      13.824  -2.734  14.078  1.00  0.00     0.031 A 
ATOM     14  C   UNL     1      13.908  -1.242  14.214  1.00  0.00     0.074 A 
ATOM     15  C   UNL     1      13.964  -3.522  15.160  1.00  0.00     0.049 A 
ATOM     16  N   UNL     1      14.174  -0.524  15.276  1.00  0.00    -0.248 NA
ATOM     17  C   UNL     1      13.672  -0.452  12.996  1.00  0.00     0.031 C 
ATOM     18  C   UNL     1      13.892  -4.984  15.153  1.00  0.00     0.029 A 
ATOM     19  N   UNL     1      14.213  -3.204  16.470  1.00  0.00    -0.354 N 
ATOM     20  C   UNL     1      14.170   0.798  14.851  1.00  0.00     0.074 A 
ATOM     21  C   UNL     1      13.896   0.781  13.429  1.00  0.00     0.031 C 
ATOM     22  C   UNL     1      14.086  -5.437  16.400  1.00  0.00     0.029 A 
ATOM     23  C   UNL     1      14.366  -4.305  17.275  1.00  0.00     0.049 A 
ATOM     24  H   UNL     1      14.275  -2.279  16.800  1.00  0.00     0.167 HD
ATOM     25  C   UNL     1      14.379   1.921  15.580  1.00  0.00     0.031 A 
ATOM     26  C   UNL     1      14.736  -4.403  18.565  1.00  0.00     0.031 A 
ATOM     27  C   UNL     1      14.670   1.923  16.990  1.00  0.00     0.049 A 
ATOM     28  C   UNL     1      15.025  -3.152  19.340  1.00  0.00     0.074 A 
ATOM     29  C   UNL     1      14.864   3.008  17.828  1.00  0.00     0.029 A 
ATOM     30  N   UNL     1      14.828   0.784  17.767  1.00  0.00    -0.354 N 
ATOM     31  N   UNL     1      14.981  -1.905  18.936  1.00  0.00    -0.248 NA
ATOM     32  C   UNL     1      15.408  -3.318  20.748  1.00  0.00     0.031 C 
ATOM     33  C   UNL     1      15.210   2.524  19.094  1.00  0.00     0.029 A 
ATOM     34  C   UNL     1      15.152   1.139  19.066  1.00  0.00     0.049 A 
ATOM     35  H   UNL     1      14.725  -0.139  17.443  1.00  0.00     0.167 HD
ATOM     36  C   UNL     1      15.300  -1.135  20.047  1.00  0.00     0.074 A 
ATOM     37  C   UNL     1      15.533  -2.057  21.141  1.00  0.00     0.031 C 
ATOM     38  C   UNL     1      15.379   0.213  20.148  1.00  0.00     0.031 A 
BRANCH  25  39
ATOM     39  C   UNL     1      14.357   3.235  14.845  1.00  0.00    -0.014 A 
ATOM     40  C   UNL     1      13.177   3.749  14.284  1.00  0.00     0.009 A 
ATOM     41  C   UNL     1      15.542   3.978  14.720  1.00  0.00     0.009 A 
ATOM     42  C   UNL     1      13.197   4.947  13.565  1.00  0.00     0.001 A 
ATOM     43  C   UNL     1      15.553   5.192  14.032  1.00  0.00     0.001 A 
ATOM     44  C   UNL     1      14.384   5.668  13.441  1.00  0.00     0.000 A 
ENDBRANCH  25  39
BRANCH  26  45
ATOM     45  C   UNL     1      14.872  -5.749  19.178  1.00  0.00    -0.014 A 
ATOM     46  C   UNL     1      13.939  -6.204  20.119  1.00  0.00     0.009 A 
ATOM     47  C   UNL     1      15.906  -6.610  18.773  1.00  0.00     0.009 A 
ATOM     48  C   UNL     1      14.045  -7.492  20.650  1.00  0.00     0.001 A 
ATOM     49  C   UNL     1      15.991  -7.906  19.282  1.00  0.00     0.001 A 
ATOM     50  C   UNL     1      15.063  -8.344  20.224  1.00  0.00     0.000 A 
ENDBRANCH  26  45
BRANCH  38  51
ATOM     51  C   UNL     1      15.680   0.793  21.502  1.00  0.00    -0.014 A 
ATOM     52  C   UNL     1      16.962   0.720  22.067  1.00  0.00     0.009 A 
ATOM     53  C   UNL     1      14.675   1.497  22.185  1.00  0.00     0.009 A 
ATOM     54  C   UNL     1      17.226   1.329  23.296  1.00  0.00     0.001 A 
ATOM     55  C   UNL     1      14.949   2.130  23.398  1.00  0.00     0.001 A 
ATOM     56  C   UNL     1      16.223   2.041  23.955  1.00  0.00     0.000 A 
ENDBRANCH  38  51
ENDBRANCH  12  13
ENDBRANCH   5   7
ENDBRANCH   2   3
ENDBRANCH   1   2
BRANCH   1  57
ATOM     57  C   UNL     1      10.117  -3.580   6.272  1.00  0.00     0.023 C 
BRANCH  57  58
ATOM     58  C   UNL     1       9.060  -4.672   6.164  1.00  0.00     0.116 C 
BRANCH  58  59
ATOM     59  N   UNL     1       7.756  -4.230   6.621  1.00  0.00    -0.356 N 
ATOM     60  C   UNL     1       6.548  -4.390   6.005  1.00  0.00     0.225 C 
ATOM     61  H   UNL     1       7.740  -3.755   7.483  1.00  0.00     0.163 HD
ATOM     62  O   UNL     1       5.546  -3.917   6.535  1.00  0.00    -0.275 OA
BRANCH  60  63
ATOM     63  C   UNL     1       6.519  -5.117   4.682  1.00  0.00     0.107 C 
ATOM     64  C   UNL     1       6.812  -6.613   4.817  1.00  0.00     0.115 C 
ATOM     65  C   UNL     1       5.142  -5.104   4.048  1.00  0.00     0.133 C 
ATOM     66  C   UNL     1       6.091  -7.203   3.633  1.00  0.00     0.223 C 
ATOM     67  N   UNL     1       5.169  -6.271   3.199  1.00  0.00    -0.338 N 
ATOM     68  O   UNL     1       6.295  -8.313   3.168  1.00  0.00    -0.275 OA
BRANCH  67  69
ATOM     69  C   UNL     1       4.213  -6.497   2.132  1.00  0.00     0.155 C 
BRANCH  69  70
ATOM     70  C   UNL     1       2.821  -6.749   2.656  1.00  0.00    -0.026 A 
ATOM     71  C   UNL     1       2.049  -5.685   3.144  1.00  0.00     0.006 A 
ATOM     72  C   UNL     1       2.309  -8.057   2.689  1.00  0.00     0.032 A 
ATOM     73  C   UNL     1       0.783  -5.897   3.700  1.00  0.00     0.010 A 
ATOM     74  C   UNL     1       1.027  -8.246   3.220  1.00  0.00     0.046 A 
ATOM     75  C   UNL     1       0.261  -7.201   3.735  1.00  0.00    -0.001 A 
ATOM     76  N   UNL     1       0.282  -9.396   3.356  1.00  0.00    -0.361 N 
ATOM     77  C   UNL     1      -0.954  -7.764   4.210  1.00  0.00     0.028 A 
ATOM     78  C   UNL     1      -0.917  -9.116   3.955  1.00  0.00     0.083 A 
ATOM     79  H   UNL     1       0.570 -10.291   3.064  1.00  0.00     0.166 HD
ENDBRANCH  69  70
ENDBRANCH  67  69
ENDBRANCH  60  63
ENDBRANCH  58  59
ENDBRANCH  57  58
ENDBRANCH   1  57
TORSDOF 13
