REMARK SMILES N#CCCn1cc(C(=O)NCCCCNC(=O)c2ccc(-c3c4nc(c(-c5ccccc5)c5ccc([nH]5)c(-c5ccccc5)c5nc(c(-c6ccccc6)c6ccc3[nH]6)C=C5)C=C4)cc2)c(-c2cccc([N+](=O)[O-])c2)n1
REMARK SMILES IDX 12 1 11 2 10 3 8 4 9 5 7 7 5 8 6 9 76 10 66 11 4 12 3 13
REMARK SMILES IDX 2 14 1 15 67 16 68 17 75 18 69 19 71 20 70 21 72 22 73 23
REMARK SMILES IDX 74 24 13 25 14 26 15 27 16 28 17 30 18 31 19 32 65 33 20 34
REMARK SMILES IDX 64 35 21 36 22 37 23 38 58 39 24 40 63 41 57 42 59 43 25 44
REMARK SMILES IDX 62 45 56 46 55 47 26 49 48 50 33 51 47 52 34 53 37 54 46 55
REMARK SMILES IDX 60 56 35 57 36 58 45 60 61 61 38 62 27 63 28 64 32 65 29 66
REMARK SMILES IDX 31 67 30 68 49 69 50 70 54 71 51 72 53 73 52 74 39 75 40 76
REMARK SMILES IDX 44 77 41 78 43 79 42 80
REMARK H PARENT 10 6 15 29 59 48 37 59
REMARK Flexibility Score: inf
ROOT
ATOM      1  C   UNL     1       4.544  -6.679   2.430  1.00  0.00     0.023 C 
ENDROOT
BRANCH   1   2
ATOM      2  C   UNL     1       5.320  -6.460   1.130  1.00  0.00     0.116 C 
BRANCH   2   3
ATOM      3  N   UNL     1       4.542  -6.848  -0.025  1.00  0.00    -0.352 N 
ATOM      4  C   UNL     1       3.763  -6.129  -0.890  1.00  0.00     0.255 C 
ATOM      5  O   UNL     1       3.255  -6.779  -1.813  1.00  0.00    -0.269 OA
ATOM      6  H   UNL     1       4.580  -7.810  -0.227  1.00  0.00     0.163 HD
BRANCH   4   7
ATOM      7  C   UNL     1       3.611  -4.687  -0.774  1.00  0.00     0.085 A 
ATOM      8  N   UNL     1       3.826  -2.582  -0.173  1.00  0.00    -0.270 N 
ATOM      9  C   UNL     1       3.896  -3.857   0.293  1.00  0.00     0.123 A 
ATOM     10  N   UNL     1       3.349  -2.500  -1.421  1.00  0.00    -0.172 NA
ATOM     11  C   UNL     1       3.094  -3.777  -1.762  1.00  0.00     0.105 A 
BRANCH   8  12
ATOM     12  C   UNL     1       4.271  -1.413   0.565  1.00  0.00     0.159 C 
BRANCH  12  13
ATOM     13  C   UNL     1       3.761  -0.084   0.051  1.00  0.00     0.144 C 
BRANCH  13  14
ATOM     14  C   UNL     1       2.241  -0.084   0.051  1.00  0.00     0.064 C 
ATOM     15  N   UNL     1       0.980  -0.084   0.051  1.00  0.00    -0.198 NA
ENDBRANCH  13  14
ENDBRANCH  12  13
ENDBRANCH   8  12
BRANCH  11  16
ATOM     16  C   UNL     1       2.400  -4.096  -3.011  1.00  0.00     0.010 A 
ATOM     17  C   UNL     1       1.288  -4.956  -2.994  1.00  0.00     0.011 A 
ATOM     18  C   UNL     1       2.830  -3.561  -4.230  1.00  0.00     0.096 A 
ATOM     19  C   UNL     1       0.650  -5.334  -4.178  1.00  0.00     0.008 A 
ATOM     20  C   UNL     1       2.186  -3.945  -5.416  1.00  0.00     0.270 A 
ATOM     21  C   UNL     1       1.103  -4.837  -5.396  1.00  0.00     0.085 A 
BRANCH  20  22
ATOM     22  N   UNL     1       2.666  -3.428  -6.702  1.00  0.00     0.062 N 
ATOM     23  O   UNL     1       2.095  -3.818  -7.731  1.00  0.00    -0.258 OA
ATOM     24  O   UNL     1       3.623  -2.640  -6.689  1.00  0.00    -0.258 OA
ENDBRANCH  20  22
ENDBRANCH  11  16
ENDBRANCH   4   7
ENDBRANCH   2   3
ENDBRANCH   1   2
BRANCH   1  25
ATOM     25  C   UNL     1       4.367  -8.153   2.830  1.00  0.00     0.023 C 
BRANCH  25  26
ATOM     26  C   UNL     1       5.666  -8.909   3.090  1.00  0.00     0.116 C 
BRANCH  26  27
ATOM     27  N   UNL     1       6.467  -8.320   4.166  1.00  0.00    -0.352 N 
ATOM     28  C   UNL     1       7.783  -8.589   4.491  1.00  0.00     0.251 C 
ATOM     29  H   UNL     1       6.012  -7.650   4.726  1.00  0.00     0.163 HD
ATOM     30  O   UNL     1       8.222  -8.359   5.614  1.00  0.00    -0.269 OA
BRANCH  28  31
ATOM     31  C   UNL     1       8.666  -9.127   3.446  1.00  0.00     0.039 A 
ATOM     32  C   UNL     1       9.574 -10.159   3.685  1.00  0.00     0.014 A 
ATOM     33  C   UNL     1       8.528  -8.579   2.175  1.00  0.00     0.014 A 
ATOM     34  C   UNL     1      10.282 -10.681   2.605  1.00  0.00     0.010 A 
ATOM     35  C   UNL     1       9.075  -9.212   1.095  1.00  0.00     0.010 A 
ATOM     36  C   UNL     1      10.011 -10.211   1.308  1.00  0.00    -0.014 A 
BRANCH  36  37
ATOM     37  C   UNL     1      10.622 -10.817   0.136  1.00  0.00     0.031 A 
ATOM     38  C   UNL     1      10.423 -12.283   0.029  1.00  0.00     0.074 A 
ATOM     39  C   UNL     1      11.146 -10.099  -0.881  1.00  0.00     0.049 A 
ATOM     40  N   UNL     1      11.316 -13.197   0.197  1.00  0.00    -0.248 NA
ATOM     41  C   UNL     1       9.057 -12.805  -0.139  1.00  0.00     0.031 C 
ATOM     42  C   UNL     1      11.136  -8.646  -1.091  1.00  0.00     0.029 A 
ATOM     43  N   UNL     1      11.717 -10.555  -2.025  1.00  0.00    -0.354 N 
ATOM     44  C   UNL     1      10.681 -14.408  -0.046  1.00  0.00     0.074 A 
ATOM     45  C   UNL     1       9.267 -14.122  -0.068  1.00  0.00     0.031 C 
ATOM     46  C   UNL     1      11.445  -8.371  -2.379  1.00  0.00     0.029 A 
ATOM     47  C   UNL     1      11.848  -9.604  -3.029  1.00  0.00     0.049 A 
ATOM     48  H   UNL     1      12.016 -11.486  -2.134  1.00  0.00     0.167 HD
ATOM     49  C   UNL     1      11.385 -15.499  -0.456  1.00  0.00     0.031 A 
ATOM     50  C   UNL     1      12.237  -9.829  -4.309  1.00  0.00     0.031 A 
ATOM     51  C   UNL     1      12.805 -15.309  -0.278  1.00  0.00     0.049 A 
ATOM     52  C   UNL     1      12.964 -11.121  -4.322  1.00  0.00     0.074 A 
ATOM     53  C   UNL     1      13.613 -15.027   0.807  1.00  0.00     0.029 A 
ATOM     54  N   UNL     1      13.536 -14.959  -1.391  1.00  0.00    -0.354 N 
ATOM     55  N   UNL     1      14.110 -11.295  -3.727  1.00  0.00    -0.248 NA
ATOM     56  C   UNL     1      12.194 -12.333  -4.563  1.00  0.00     0.031 C 
ATOM     57  C   UNL     1      14.541 -14.058   0.322  1.00  0.00     0.029 A 
ATOM     58  C   UNL     1      14.313 -13.883  -1.044  1.00  0.00     0.049 A 
ATOM     59  H   UNL     1      13.507 -15.400  -2.271  1.00  0.00     0.167 HD
ATOM     60  C   UNL     1      14.001 -12.535  -3.113  1.00  0.00     0.074 A 
ATOM     61  C   UNL     1      12.838 -13.167  -3.740  1.00  0.00     0.031 C 
ATOM     62  C   UNL     1      14.671 -12.818  -1.956  1.00  0.00     0.031 A 
BRANCH  49  63
ATOM     63  C   UNL     1      10.837 -16.546  -1.391  1.00  0.00    -0.014 A 
ATOM     64  C   UNL     1      11.644 -17.653  -1.709  1.00  0.00     0.009 A 
ATOM     65  C   UNL     1       9.691 -16.349  -2.183  1.00  0.00     0.009 A 
ATOM     66  C   UNL     1      11.360 -18.467  -2.812  1.00  0.00     0.001 A 
ATOM     67  C   UNL     1       9.382 -17.184  -3.259  1.00  0.00     0.001 A 
ATOM     68  C   UNL     1      10.233 -18.226  -3.591  1.00  0.00     0.000 A 
ENDBRANCH  49  63
BRANCH  50  69
ATOM     69  C   UNL     1      11.787  -9.155  -5.547  1.00  0.00    -0.014 A 
ATOM     70  C   UNL     1      12.495  -9.305  -6.751  1.00  0.00     0.009 A 
ATOM     71  C   UNL     1      10.500  -8.589  -5.615  1.00  0.00     0.009 A 
ATOM     72  C   UNL     1      11.919  -8.940  -7.977  1.00  0.00     0.001 A 
ATOM     73  C   UNL     1       9.926  -8.224  -6.838  1.00  0.00     0.001 A 
ATOM     74  C   UNL     1      10.630  -8.415  -8.022  1.00  0.00     0.000 A 
ENDBRANCH  50  69
BRANCH  62  75
ATOM     75  C   UNL     1      15.692 -11.821  -1.456  1.00  0.00    -0.014 A 
ATOM     76  C   UNL     1      15.383 -10.485  -1.137  1.00  0.00     0.009 A 
ATOM     77  C   UNL     1      16.975 -12.292  -1.139  1.00  0.00     0.009 A 
ATOM     78  C   UNL     1      16.337  -9.646  -0.549  1.00  0.00     0.001 A 
ATOM     79  C   UNL     1      17.920 -11.462  -0.533  1.00  0.00     0.001 A 
ATOM     80  C   UNL     1      17.604 -10.137  -0.243  1.00  0.00     0.000 A 
ENDBRANCH  62  75
ENDBRANCH  36  37
ENDBRANCH  28  31
ENDBRANCH  26  27
ENDBRANCH  25  26
ENDBRANCH   1  25
TORSDOF 16
