REMARK SMILES Cc1cc(C(=O)NCCCCNC(=O)c2ccc(-c3c4nc(c(-c5ccccc5)c5ccc([nH]5)c(-c5ccccc5)c5nc(c(-c6ccccc6)c6ccc3[nH]6)C=C5)C=C4)cc2)nn1[C@H]1CCS(=O)(=O)C1
REMARK SMILES IDX 10 1 9 2 8 3 7 4 5 5 6 6 4 8 1 9 2 10 3 11 64 12 63 13 65 14
REMARK SMILES IDX 66 15 71 16 67 17 68 18 69 19 70 20 11 21 12 22 13 23 14 25
REMARK SMILES IDX 15 26 16 27 62 28 17 29 61 30 18 31 19 32 20 33 55 34 21 35
REMARK SMILES IDX 60 36 54 37 56 38 22 39 59 40 53 41 52 42 23 44 45 45 30 46
REMARK SMILES IDX 44 47 31 48 34 49 43 50 57 51 32 52 33 53 42 55 58 56 35 57
REMARK SMILES IDX 24 58 25 59 29 60 26 61 28 62 27 63 46 64 47 65 51 66 48 67
REMARK SMILES IDX 50 68 49 69 36 70 37 71 41 72 38 73 40 74 39 75
REMARK H PARENT 7 7 12 24 56 43 34 54
REMARK Flexibility Score: inf
ROOT
ATOM      1  C   UNL     1      -1.479   9.763  -3.477  1.00  0.00     0.023 C 
ENDROOT
BRANCH   1   2
ATOM      2  C   UNL     1      -0.275   9.104  -2.778  1.00  0.00     0.023 C 
BRANCH   2   3
ATOM      3  C   UNL     1      -0.462   8.792  -1.293  1.00  0.00     0.116 C 
BRANCH   3   4
ATOM      4  N   UNL     1      -1.383   7.705  -1.077  1.00  0.00    -0.351 N 
ATOM      5  C   UNL     1      -1.190   6.378  -0.786  1.00  0.00     0.271 C 
ATOM      6  O   UNL     1      -2.226   5.729  -0.606  1.00  0.00    -0.267 OA
ATOM      7  H   UNL     1      -2.330   7.963  -1.152  1.00  0.00     0.163 HD
BRANCH   5   8
ATOM      8  C   UNL     1       0.150   5.758  -0.711  1.00  0.00     0.150 A 
ATOM      9  C   UNL     1       3.794   5.119  -0.940  1.00  0.00     0.066 C 
ATOM     10  C   UNL     1       2.317   5.151  -0.827  1.00  0.00     0.036 A 
ATOM     11  C   UNL     1       1.448   6.200  -1.075  1.00  0.00     0.059 A 
ATOM     12  N   UNL     1       1.501   4.104  -0.493  1.00  0.00    -0.265 N 
ATOM     13  N   UNL     1       0.245   4.503  -0.238  1.00  0.00    -0.167 NA
BRANCH  12  14
ATOM     14  C   UNL     1       1.651   2.670  -0.632  1.00  0.00     0.123 C 
ATOM     15  C   UNL     1       0.994   2.204  -1.947  1.00  0.00     0.044 C 
ATOM     16  C   UNL     1       3.039   2.053  -0.645  1.00  0.00     0.164 C 
ATOM     17  C   UNL     1       1.177   0.699  -2.011  1.00  0.00     0.139 C 
ATOM     18  S   UNL     1       2.729   0.380  -1.188  1.00  0.00     0.152 S 
ATOM     19  O   UNL     1       2.464  -0.433  -0.013  1.00  0.00    -0.229 OA
ATOM     20  O   UNL     1       3.722   0.021  -2.169  1.00  0.00    -0.229 OA
ENDBRANCH  12  14
ENDBRANCH   5   8
ENDBRANCH   3   4
ENDBRANCH   2   3
ENDBRANCH   1   2
BRANCH   1  21
ATOM     21  C   UNL     1      -1.899  11.118  -2.916  1.00  0.00     0.116 C 
BRANCH  21  22
ATOM     22  N   UNL     1      -0.825  12.120  -2.942  1.00  0.00    -0.352 N 
ATOM     23  C   UNL     1      -0.768  13.349  -2.300  1.00  0.00     0.251 C 
ATOM     24  H   UNL     1      -0.040  11.888  -3.488  1.00  0.00     0.163 HD
ATOM     25  O   UNL     1      -0.009  14.231  -2.679  1.00  0.00    -0.269 OA
BRANCH  23  26
ATOM     26  C   UNL     1      -1.618  13.558  -1.118  1.00  0.00     0.039 A 
ATOM     27  C   UNL     1      -2.284  14.754  -0.834  1.00  0.00     0.014 A 
ATOM     28  C   UNL     1      -1.754  12.461  -0.284  1.00  0.00     0.014 A 
ATOM     29  C   UNL     1      -3.138  14.796   0.270  1.00  0.00     0.010 A 
ATOM     30  C   UNL     1      -2.776  12.418   0.610  1.00  0.00     0.010 A 
ATOM     31  C   UNL     1      -3.373  13.614   0.981  1.00  0.00    -0.014 A 
BRANCH  31  32
ATOM     32  C   UNL     1      -4.233  13.521   2.147  1.00  0.00     0.031 A 
ATOM     33  C   UNL     1      -5.683  13.700   1.892  1.00  0.00     0.074 A 
ATOM     34  C   UNL     1      -3.753  12.965   3.284  1.00  0.00     0.049 A 
ATOM     35  N   UNL     1      -6.458  14.600   2.394  1.00  0.00    -0.248 NA
ATOM     36  C   UNL     1      -6.337  12.848   0.884  1.00  0.00     0.031 C 
ATOM     37  C   UNL     1      -2.409  12.415   3.536  1.00  0.00     0.029 A 
ATOM     38  N   UNL     1      -4.426  12.603   4.403  1.00  0.00    -0.354 N 
ATOM     39  C   UNL     1      -7.734  14.338   1.902  1.00  0.00     0.074 A 
ATOM     40  C   UNL     1      -7.568  13.364   0.855  1.00  0.00     0.031 C 
ATOM     41  C   UNL     1      -2.454  11.578   4.595  1.00  0.00     0.029 A 
ATOM     42  C   UNL     1      -3.773  11.663   5.191  1.00  0.00     0.049 A 
ATOM     43  H   UNL     1      -5.306  12.976   4.639  1.00  0.00     0.167 HD
ATOM     44  C   UNL     1      -8.849  14.786   2.545  1.00  0.00     0.031 A 
ATOM     45  C   UNL     1      -4.300  10.971   6.231  1.00  0.00     0.031 A 
ATOM     46  C   UNL     1      -8.509  15.708   3.599  1.00  0.00     0.049 A 
ATOM     47  C   UNL     1      -5.517  11.702   6.663  1.00  0.00     0.074 A 
ATOM     48  C   UNL     1      -7.900  16.945   3.643  1.00  0.00     0.029 A 
ATOM     49  N   UNL     1      -8.421  15.189   4.871  1.00  0.00    -0.354 N 
ATOM     50  N   UNL     1      -5.478  12.893   7.192  1.00  0.00    -0.248 NA
ATOM     51  C   UNL     1      -6.788  11.337   6.052  1.00  0.00     0.031 C 
ATOM     52  C   UNL     1      -7.056  16.890   4.789  1.00  0.00     0.029 A 
ATOM     53  C   UNL     1      -7.262  15.664   5.428  1.00  0.00     0.049 A 
ATOM     54  H   UNL     1      -9.071  14.588   5.301  1.00  0.00     0.167 HD
ATOM     55  C   UNL     1      -6.525  13.581   6.594  1.00  0.00     0.074 A 
ATOM     56  C   UNL     1      -7.361  12.544   5.986  1.00  0.00     0.031 C 
ATOM     57  C   UNL     1      -6.455  14.930   6.380  1.00  0.00     0.031 A 
BRANCH  44  58
ATOM     58  C   UNL     1     -10.204  14.130   2.498  1.00  0.00    -0.014 A 
ATOM     59  C   UNL     1     -11.270  14.752   3.178  1.00  0.00     0.009 A 
ATOM     60  C   UNL     1     -10.419  12.814   2.055  1.00  0.00     0.009 A 
ATOM     61  C   UNL     1     -12.450  14.061   3.473  1.00  0.00     0.001 A 
ATOM     62  C   UNL     1     -11.613  12.134   2.312  1.00  0.00     0.001 A 
ATOM     63  C   UNL     1     -12.617  12.748   3.049  1.00  0.00     0.000 A 
ENDBRANCH  44  58
BRANCH  45  64
ATOM     64  C   UNL     1      -3.962   9.608   6.702  1.00  0.00    -0.014 A 
ATOM     65  C   UNL     1      -4.333   9.165   7.981  1.00  0.00     0.009 A 
ATOM     66  C   UNL     1      -3.479   8.645   5.795  1.00  0.00     0.009 A 
ATOM     67  C   UNL     1      -4.254   7.806   8.325  1.00  0.00     0.001 A 
ATOM     68  C   UNL     1      -3.398   7.290   6.138  1.00  0.00     0.001 A 
ATOM     69  C   UNL     1      -3.799   6.868   7.400  1.00  0.00     0.000 A 
ENDBRANCH  45  64
BRANCH  57  70
ATOM     70  C   UNL     1      -5.282  15.684   6.963  1.00  0.00    -0.014 A 
ATOM     71  C   UNL     1      -3.949  15.436   6.585  1.00  0.00     0.009 A 
ATOM     72  C   UNL     1      -5.544  16.811   7.754  1.00  0.00     0.009 A 
ATOM     73  C   UNL     1      -2.912  16.279   7.000  1.00  0.00     0.001 A 
ATOM     74  C   UNL     1      -4.513  17.665   8.151  1.00  0.00     0.001 A 
ATOM     75  C   UNL     1      -3.197  17.398   7.777  1.00  0.00     0.000 A 
ENDBRANCH  57  70
ENDBRANCH  31  32
ENDBRANCH  23  26
ENDBRANCH  21  22
ENDBRANCH   1  21
TORSDOF 12
