REMARK SMILES CCOc1cc(/C=C/C(=O)NCCCCNC(=O)c2ccc(-c3c4nc(c(-c5ccccc5)c5ccc([nH]5)c(-c5ccccc5)c5nc(c(-c6ccccc6)c6ccc3[nH]6)C=C5)C=C4)cc2)c(Br)cc1OCC#N
REMARK SMILES IDX 12 1 11 2 9 3 10 4 8 6 7 7 6 8 4 9 5 10 70 11 69 12 67 13
REMARK SMILES IDX 68 14 3 15 2 16 1 17 71 18 72 19 73 20 74 21 13 22 14 23
REMARK SMILES IDX 15 24 16 25 17 26 18 28 19 29 20 30 66 31 21 32 65 33 22 34
REMARK SMILES IDX 23 35 24 36 59 37 25 38 64 39 58 40 60 41 26 42 63 43 57 44
REMARK SMILES IDX 56 45 27 47 49 48 34 49 48 50 35 51 38 52 47 53 61 54 36 55
REMARK SMILES IDX 37 56 46 58 62 59 39 60 28 61 29 62 33 63 30 64 32 65 31 66
REMARK SMILES IDX 50 67 51 68 55 69 52 70 54 71 53 72 40 73 41 74 45 75 42 76
REMARK SMILES IDX 44 77 43 78
REMARK H PARENT 11 5 16 27 60 46 38 57
REMARK Flexibility Score: inf
ROOT
ATOM      1  C   UNL     1       8.075   1.762  -1.240  1.00  0.00     0.116 C 
ENDROOT
BRANCH   1   2
ATOM      2  N   UNL     1       7.257   1.200  -2.296  1.00  0.00    -0.353 N 
ATOM      3  C   UNL     1       5.918   0.962  -2.309  1.00  0.00     0.243 C 
ATOM      4  O   UNL     1       5.369   0.550  -3.327  1.00  0.00    -0.270 OA
ATOM      5  H   UNL     1       7.738   0.957  -3.120  1.00  0.00     0.163 HD
BRANCH   3   6
ATOM      6  C   UNL     1       5.103   1.271  -1.115  1.00  0.00     0.072 C 
ATOM      7  C   UNL     1       5.391   0.807   0.111  1.00  0.00     0.015 C 
BRANCH   7   8
ATOM      8  C   UNL     1       4.537   1.035   1.280  1.00  0.00    -0.007 A 
ATOM      9  C   UNL     1       2.299   0.812   2.234  1.00  0.00     0.161 A 
ATOM     10  C   UNL     1       3.184   0.699   1.163  1.00  0.00     0.059 A 
ATOM     11  C   UNL     1       2.763   1.344   3.446  1.00  0.00     0.163 A 
ATOM     12  C   UNL     1       4.123   1.657   3.581  1.00  0.00     0.066 A 
ATOM     13  C   UNL     1       5.009   1.495   2.514  1.00  0.00     0.029 A 
ATOM     14  Br  UNL     1       6.829   1.955   2.804  1.00  0.00    -0.050 Br
BRANCH   9  15
ATOM     15  O   UNL     1       0.979   0.501   2.074  1.00  0.00    -0.490 OA
BRANCH  15  16
ATOM     16  C   UNL     1       0.653  -0.695   1.360  1.00  0.00     0.226 C 
ATOM     17  C   UNL     1       0.395  -0.454  -0.122  1.00  0.00     0.049 C 
ENDBRANCH  15  16
ENDBRANCH   9  15
BRANCH  11  18
ATOM     18  O   UNL     1       2.054   1.623   4.585  1.00  0.00    -0.475 OA
BRANCH  18  19
ATOM     19  C   UNL     1       0.625   1.576   4.561  1.00  0.00     0.349 C 
BRANCH  19  20
ATOM     20  C   UNL     1       0.015   2.547   3.563  1.00  0.00     0.104 C 
ATOM     21  N   UNL     1      -0.491   3.353   2.736  1.00  0.00    -0.195 NA
ENDBRANCH  19  20
ENDBRANCH  18  19
ENDBRANCH  11  18
ENDBRANCH   7   8
ENDBRANCH   3   6
ENDBRANCH   1   2
BRANCH   1  22
ATOM     22  C   UNL     1       8.847   0.668  -0.501  1.00  0.00     0.023 C 
BRANCH  22  23
ATOM     23  C   UNL     1      10.073   0.147  -1.246  1.00  0.00     0.023 C 
BRANCH  23  24
ATOM     24  C   UNL     1      11.120   1.205  -1.556  1.00  0.00     0.116 C 
BRANCH  24  25
ATOM     25  N   UNL     1      11.578   1.930  -0.381  1.00  0.00    -0.352 N 
ATOM     26  C   UNL     1      12.789   2.554  -0.199  1.00  0.00     0.251 C 
ATOM     27  H   UNL     1      10.946   1.980   0.372  1.00  0.00     0.163 HD
ATOM     28  O   UNL     1      13.090   3.051   0.877  1.00  0.00    -0.269 OA
BRANCH  26  29
ATOM     29  C   UNL     1      13.744   2.562  -1.323  1.00  0.00     0.039 A 
ATOM     30  C   UNL     1      15.022   2.040  -1.120  1.00  0.00     0.014 A 
ATOM     31  C   UNL     1      13.342   3.008  -2.584  1.00  0.00     0.014 A 
ATOM     32  C   UNL     1      15.883   1.902  -2.208  1.00  0.00     0.010 A 
ATOM     33  C   UNL     1      14.174   2.806  -3.677  1.00  0.00     0.010 A 
ATOM     34  C   UNL     1      15.450   2.250  -3.498  1.00  0.00    -0.014 A 
BRANCH  34  35
ATOM     35  C   UNL     1      16.319   2.040  -4.679  1.00  0.00     0.031 A 
ATOM     36  C   UNL     1      16.818   3.221  -5.460  1.00  0.00     0.074 A 
ATOM     37  C   UNL     1      16.597   0.787  -5.087  1.00  0.00     0.049 A 
ATOM     38  N   UNL     1      17.536   3.242  -6.554  1.00  0.00    -0.248 NA
ATOM     39  C   UNL     1      16.439   4.553  -4.961  1.00  0.00     0.031 C 
ATOM     40  C   UNL     1      16.131  -0.441  -4.439  1.00  0.00     0.029 A 
ATOM     41  N   UNL     1      17.336   0.341  -6.153  1.00  0.00    -0.354 N 
ATOM     42  C   UNL     1      17.675   4.584  -6.884  1.00  0.00     0.074 A 
ATOM     43  C   UNL     1      16.931   5.343  -5.904  1.00  0.00     0.031 C 
ATOM     44  C   UNL     1      16.617  -1.501  -5.106  1.00  0.00     0.029 A 
ATOM     45  C   UNL     1      17.398  -1.028  -6.245  1.00  0.00     0.049 A 
ATOM     46  H   UNL     1      17.780   0.945  -6.791  1.00  0.00     0.167 HD
ATOM     47  C   UNL     1      18.376   5.136  -7.902  1.00  0.00     0.031 A 
ATOM     48  C   UNL     1      18.014  -1.813  -7.148  1.00  0.00     0.031 A 
ATOM     49  C   UNL     1      19.131   4.381  -8.865  1.00  0.00     0.049 A 
ATOM     50  C   UNL     1      18.790  -1.175  -8.265  1.00  0.00     0.074 A 
ATOM     51  C   UNL     1      19.925   4.850  -9.896  1.00  0.00     0.029 A 
ATOM     52  N   UNL     1      19.183   2.997  -8.913  1.00  0.00    -0.354 N 
ATOM     53  N   UNL     1      18.971   0.097  -8.524  1.00  0.00    -0.248 NA
ATOM     54  C   UNL     1      19.457  -2.084  -9.209  1.00  0.00     0.031 C 
ATOM     55  C   UNL     1      20.428   3.747 -10.594  1.00  0.00     0.029 A 
ATOM     56  C   UNL     1      19.982   2.593  -9.969  1.00  0.00     0.049 A 
ATOM     57  H   UNL     1      18.721   2.392  -8.290  1.00  0.00     0.167 HD
ATOM     58  C   UNL     1      19.791   0.142  -9.643  1.00  0.00     0.074 A 
ATOM     59  C   UNL     1      20.084  -1.230 -10.005  1.00  0.00     0.031 C 
ATOM     60  C   UNL     1      20.261   1.223 -10.311  1.00  0.00     0.031 A 
BRANCH  47  61
ATOM     61  C   UNL     1      18.352   6.633  -8.020  1.00  0.00    -0.014 A 
ATOM     62  C   UNL     1      19.029   7.445  -7.096  1.00  0.00     0.009 A 
ATOM     63  C   UNL     1      17.662   7.239  -9.081  1.00  0.00     0.009 A 
ATOM     64  C   UNL     1      18.984   8.836  -7.211  1.00  0.00     0.001 A 
ATOM     65  C   UNL     1      17.641   8.629  -9.209  1.00  0.00     0.001 A 
ATOM     66  C   UNL     1      18.294   9.426  -8.269  1.00  0.00     0.000 A 
ENDBRANCH  47  61
BRANCH  48  67
ATOM     67  C   UNL     1      17.944  -3.291  -7.020  1.00  0.00    -0.014 A 
ATOM     68  C   UNL     1      19.071  -4.021  -6.613  1.00  0.00     0.009 A 
ATOM     69  C   UNL     1      16.755  -3.979  -7.307  1.00  0.00     0.009 A 
ATOM     70  C   UNL     1      19.016  -5.413  -6.520  1.00  0.00     0.001 A 
ATOM     71  C   UNL     1      16.697  -5.369  -7.189  1.00  0.00     0.001 A 
ATOM     72  C   UNL     1      17.829  -6.086  -6.804  1.00  0.00     0.000 A 
ENDBRANCH  48  67
BRANCH  60  73
ATOM     73  C   UNL     1      21.166   0.965 -11.480  1.00  0.00    -0.014 A 
ATOM     74  C   UNL     1      20.660   0.489 -12.699  1.00  0.00     0.009 A 
ATOM     75  C   UNL     1      22.538   1.242 -11.371  1.00  0.00     0.009 A 
ATOM     76  C   UNL     1      21.517   0.269 -13.779  1.00  0.00     0.001 A 
ATOM     77  C   UNL     1      23.387   1.046 -12.460  1.00  0.00     0.001 A 
ATOM     78  C   UNL     1      22.878   0.552 -13.660  1.00  0.00     0.000 A 
ENDBRANCH  60  73
ENDBRANCH  34  35
ENDBRANCH  26  29
ENDBRANCH  24  25
ENDBRANCH  23  24
ENDBRANCH  22  23
ENDBRANCH   1  22
TORSDOF 17
