REMARK SMILES C=Cc1cncc(-c2ccc([C@@H](C)C(=O)NCCCCNC(=O)c3ccc(-c4c5nc(c(-c6ccccc6)c6ccc([nH]6)c(-c6ccccc6)c6nc(c(-c7ccccc7)c7ccc4[nH]7)C=C6)C=C5)cc3)cc2)c1
REMARK SMILES IDX 18 1 17 2 16 3 14 4 15 5 12 7 13 8 11 9 8 10 9 11 73 12
REMARK SMILES IDX 10 13 72 14 7 15 3 16 4 17 74 18 5 19 6 20 2 21 1 22 19 23
REMARK SMILES IDX 20 24 21 25 22 26 23 28 24 29 25 30 71 31 26 32 70 33 27 34
REMARK SMILES IDX 28 35 29 36 64 37 30 38 69 39 63 40 65 41 31 42 68 43 62 44
REMARK SMILES IDX 61 45 32 47 54 48 39 49 53 50 40 51 43 52 52 53 66 54 41 55
REMARK SMILES IDX 42 56 51 58 67 59 44 60 33 61 34 62 38 63 35 64 37 65 36 66
REMARK SMILES IDX 55 67 56 68 60 69 57 70 59 71 58 72 45 73 46 74 50 75 47 76
REMARK SMILES IDX 49 77 48 78
REMARK H PARENT 16 6 21 27 65 46 43 57
REMARK Flexibility Score: inf
ROOT
ATOM      1  C   UNL     1      -6.438  -2.597  -3.122  1.00  0.00     0.023 C 
ENDROOT
BRANCH   1   2
ATOM      2  C   UNL     1      -7.386  -3.763  -2.846  1.00  0.00     0.116 C 
BRANCH   2   3
ATOM      3  N   UNL     1      -6.678  -5.008  -2.635  1.00  0.00    -0.356 N 
ATOM      4  C   UNL     1      -6.276  -5.628  -1.491  1.00  0.00     0.227 C 
ATOM      5  O   UNL     1      -5.613  -6.663  -1.631  1.00  0.00    -0.274 OA
ATOM      6  H   UNL     1      -6.446  -5.489  -3.462  1.00  0.00     0.163 HD
BRANCH   4   7
ATOM      7  C   UNL     1      -6.610  -5.116  -0.080  1.00  0.00     0.105 C 
ATOM      8  C   UNL     1      -8.108  -5.078   0.226  1.00  0.00     0.023 C 
BRANCH   7   9
ATOM      9  C   UNL     1      -5.804  -3.889   0.318  1.00  0.00    -0.036 A 
ATOM     10  C   UNL     1      -4.131  -1.643   0.908  1.00  0.00    -0.017 A 
ATOM     11  C   UNL     1      -5.448  -1.484   0.444  1.00  0.00     0.009 A 
ATOM     12  C   UNL     1      -3.690  -2.959   1.112  1.00  0.00     0.009 A 
ATOM     13  C   UNL     1      -6.278  -2.583   0.184  1.00  0.00     0.005 A 
ATOM     14  C   UNL     1      -4.501  -4.060   0.805  1.00  0.00     0.005 A 
BRANCH  10  15
ATOM     15  C   UNL     1      -3.252  -0.477   1.155  1.00  0.00     0.001 A 
ATOM     16  C   UNL     1      -1.050   0.593   1.179  1.00  0.00    -0.007 A 
ATOM     17  C   UNL     1      -1.680   1.752   1.619  1.00  0.00     0.119 A 
ATOM     18  C   UNL     1      -1.861  -0.527   0.952  1.00  0.00     0.020 A 
ATOM     19  N   UNL     1      -3.010   1.863   1.828  1.00  0.00    -0.263 NA
ATOM     20  C   UNL     1      -3.751   0.752   1.597  1.00  0.00     0.119 A 
BRANCH  16  21
ATOM     21  C   UNL     1       0.410   0.564   1.037  1.00  0.00     0.002 C 
ATOM     22  C   UNL     1       1.062  -0.086   0.065  1.00  0.00     0.009 C 
ENDBRANCH  16  21
ENDBRANCH  10  15
ENDBRANCH   7   9
ENDBRANCH   4   7
ENDBRANCH   2   3
ENDBRANCH   1   2
BRANCH   1  23
ATOM     23  C   UNL     1      -6.010  -2.444  -4.580  1.00  0.00     0.023 C 
BRANCH  23  24
ATOM     24  C   UNL     1      -7.139  -2.171  -5.569  1.00  0.00     0.116 C 
BRANCH  24  25
ATOM     25  N   UNL     1      -7.928  -0.990  -5.259  1.00  0.00    -0.352 N 
ATOM     26  C   UNL     1      -8.544  -0.122  -6.139  1.00  0.00     0.251 C 
ATOM     27  H   UNL     1      -8.037  -0.783  -4.303  1.00  0.00     0.163 HD
ATOM     28  O   UNL     1      -9.130   0.873  -5.735  1.00  0.00    -0.269 OA
BRANCH  26  29
ATOM     29  C   UNL     1      -8.436  -0.390  -7.587  1.00  0.00     0.039 A 
ATOM     30  C   UNL     1      -7.922   0.607  -8.419  1.00  0.00     0.014 A 
ATOM     31  C   UNL     1      -8.757  -1.649  -8.098  1.00  0.00     0.014 A 
ATOM     32  C   UNL     1      -7.635   0.308  -9.752  1.00  0.00     0.010 A 
ATOM     33  C   UNL     1      -8.410  -1.964  -9.407  1.00  0.00     0.010 A 
ATOM     34  C   UNL     1      -7.827  -0.995 -10.239  1.00  0.00    -0.014 A 
BRANCH  34  35
ATOM     35  C   UNL     1      -7.396  -1.386 -11.603  1.00  0.00     0.031 A 
ATOM     36  C   UNL     1      -8.413  -1.827 -12.616  1.00  0.00     0.074 A 
ATOM     37  C   UNL     1      -6.082  -1.443 -11.895  1.00  0.00     0.049 A 
ATOM     38  N   UNL     1      -8.224  -2.325 -13.811  1.00  0.00    -0.248 NA
ATOM     39  C   UNL     1      -9.827  -1.722 -12.221  1.00  0.00     0.031 C 
ATOM     40  C   UNL     1      -4.991  -1.083 -10.985  1.00  0.00     0.029 A 
ATOM     41  N   UNL     1      -5.439  -1.845 -13.039  1.00  0.00    -0.354 N 
ATOM     42  C   UNL     1      -9.490  -2.619 -14.299  1.00  0.00     0.074 A 
ATOM     43  C   UNL     1     -10.436  -2.277 -13.258  1.00  0.00     0.031 C 
ATOM     44  C   UNL     1      -3.818  -1.263 -11.613  1.00  0.00     0.029 A 
ATOM     45  C   UNL     1      -4.070  -1.789 -12.951  1.00  0.00     0.049 A 
ATOM     46  H   UNL     1      -5.915  -2.145 -13.847  1.00  0.00     0.167 HD
ATOM     47  C   UNL     1      -9.836  -3.115 -15.509  1.00  0.00     0.031 A 
ATOM     48  C   UNL     1      -3.122  -2.135 -13.841  1.00  0.00     0.031 A 
ATOM     49  C   UNL     1      -8.900  -3.431 -16.553  1.00  0.00     0.049 A 
ATOM     50  C   UNL     1      -3.531  -2.685 -15.177  1.00  0.00     0.074 A 
ATOM     51  C   UNL     1      -9.160  -3.868 -17.841  1.00  0.00     0.029 A 
ATOM     52  N   UNL     1      -7.523  -3.344 -16.429  1.00  0.00    -0.354 N 
ATOM     53  N   UNL     1      -4.736  -2.898 -15.646  1.00  0.00    -0.248 NA
ATOM     54  C   UNL     1      -2.449  -3.043 -16.106  1.00  0.00     0.031 C 
ATOM     55  C   UNL     1      -7.936  -4.082 -18.484  1.00  0.00     0.029 A 
ATOM     56  C   UNL     1      -6.918  -3.740 -17.609  1.00  0.00     0.049 A 
ATOM     57  H   UNL     1      -7.046  -3.044 -15.621  1.00  0.00     0.167 HD
ATOM     58  C   UNL     1      -4.559  -3.396 -16.930  1.00  0.00     0.074 A 
ATOM     59  C   UNL     1      -3.131  -3.442 -17.171  1.00  0.00     0.031 C 
ATOM     60  C   UNL     1      -5.496  -3.781 -17.829  1.00  0.00     0.031 A 
BRANCH  47  61
ATOM     61  C   UNL     1     -11.297  -3.349 -15.764  1.00  0.00    -0.014 A 
ATOM     62  C   UNL     1     -12.179  -2.276 -15.963  1.00  0.00     0.009 A 
ATOM     63  C   UNL     1     -11.792  -4.660 -15.831  1.00  0.00     0.009 A 
ATOM     64  C   UNL     1     -13.537  -2.510 -16.188  1.00  0.00     0.001 A 
ATOM     65  C   UNL     1     -13.146  -4.892 -16.081  1.00  0.00     0.001 A 
ATOM     66  C   UNL     1     -14.018  -3.818 -16.249  1.00  0.00     0.000 A 
ENDBRANCH  47  61
BRANCH  48  67
ATOM     67  C   UNL     1      -1.686  -1.964 -13.503  1.00  0.00    -0.014 A 
ATOM     68  C   UNL     1      -0.939  -0.933 -14.091  1.00  0.00     0.009 A 
ATOM     69  C   UNL     1      -1.056  -2.829 -12.595  1.00  0.00     0.009 A 
ATOM     70  C   UNL     1       0.417  -0.783 -13.793  1.00  0.00     0.001 A 
ATOM     71  C   UNL     1       0.295  -2.663 -12.281  1.00  0.00     0.001 A 
ATOM     72  C   UNL     1       1.032  -1.646 -12.886  1.00  0.00     0.000 A 
ENDBRANCH  48  67
BRANCH  60  73
ATOM     73  C   UNL     1      -5.009  -4.265 -19.163  1.00  0.00    -0.014 A 
ATOM     74  C   UNL     1      -4.460  -5.548 -19.308  1.00  0.00     0.009 A 
ATOM     75  C   UNL     1      -5.150  -3.448 -20.294  1.00  0.00     0.009 A 
ATOM     76  C   UNL     1      -4.041  -5.995 -20.563  1.00  0.00     0.001 A 
ATOM     77  C   UNL     1      -4.750  -3.906 -21.550  1.00  0.00     0.001 A 
ATOM     78  C   UNL     1      -4.191  -5.176 -21.682  1.00  0.00     0.000 A 
ENDBRANCH  60  73
ENDBRANCH  34  35
ENDBRANCH  26  29
ENDBRANCH  24  25
ENDBRANCH  23  24
ENDBRANCH   1  23
TORSDOF 14
