REMARK SMILES O=C1C[C@@H](c2cccc(O)c2)c2c(c(C(=O)NCCCCNC(=O)c3ccc(-c4c5nc(c(-c6ccccc6)c6ccc([nH]6)c(-c6ccccc6)c6nc(c(-c7ccccc7)c7ccc4[nH]7)C=C6)C=C5)cc3)cn2-c2cccc(C(F)(F)F)c2)N1
REMARK SMILES IDX 19 1 18 2 17 3 15 4 16 5 14 7 1 8 2 9 3 10 85 11 4 12 13 13
REMARK SMILES IDX 12 15 74 16 73 17 5 18 6 19 11 20 7 21 9 22 8 23 10 24 75 26
REMARK SMILES IDX 76 27 84 28 77 29 79 30 78 31 80 32 81 33 82 34 83 35 20 36
REMARK SMILES IDX 21 37 22 38 23 39 24 41 25 42 26 43 72 44 27 45 71 46 28 47
REMARK SMILES IDX 29 48 30 49 65 50 31 51 70 52 64 53 66 54 32 55 69 56 63 57
REMARK SMILES IDX 62 58 33 60 55 61 40 62 54 63 41 64 44 65 53 66 67 67 42 68
REMARK SMILES IDX 43 69 52 71 68 72 45 73 34 74 35 75 39 76 36 77 38 78 37 79
REMARK SMILES IDX 56 80 57 81 61 82 58 83 60 84 59 85 46 86 47 87 51 88 48 89
REMARK SMILES IDX 50 90 49 91
REMARK H PARENT 17 6 85 14 10 25 22 40 66 59 44 70
REMARK Flexibility Score: inf
ROOT
ATOM      1  C   UNL     1       6.332  -3.927   5.056  1.00  0.00     0.023 C 
ENDROOT
BRANCH   1   2
ATOM      2  C   UNL     1       6.875  -3.734   3.639  1.00  0.00     0.116 C 
BRANCH   2   3
ATOM      3  N   UNL     1       5.875  -3.962   2.616  1.00  0.00    -0.352 N 
ATOM      4  C   UNL     1       5.079  -3.137   1.863  1.00  0.00     0.254 C 
ATOM      5  O   UNL     1       4.314  -3.699   1.074  1.00  0.00    -0.269 OA
ATOM      6  H   UNL     1       5.737  -4.917   2.418  1.00  0.00     0.163 HD
BRANCH   4   7
ATOM      7  C   UNL     1       5.090  -1.679   1.964  1.00  0.00     0.081 A 
ATOM      8  O   UNL     1       1.598  -0.420  -1.075  1.00  0.00    -0.275 OA
ATOM      9  C   UNL     1       2.554  -0.130  -0.356  1.00  0.00     0.225 C 
ATOM     10  C   UNL     1       3.124   1.283  -0.311  1.00  0.00     0.115 C 
ATOM     11  N   UNL     1       3.233  -1.098   0.343  1.00  0.00    -0.324 N 
ATOM     12  C   UNL     1       3.730   1.684   1.048  1.00  0.00     0.078 C 
ATOM     13  C   UNL     1       4.220  -0.800   1.255  1.00  0.00     0.076 A 
ATOM     14  H   UNL     1       3.004  -2.043   0.186  1.00  0.00     0.170 HD
ATOM     15  C   UNL     1       4.455   0.504   1.631  1.00  0.00     0.055 A 
ATOM     16  N   UNL     1       5.485   0.490   2.543  1.00  0.00    -0.317 N 
ATOM     17  C   UNL     1       5.894  -0.826   2.696  1.00  0.00     0.107 A 
BRANCH  12  18
ATOM     18  C   UNL     1       2.671   2.254   1.977  1.00  0.00    -0.035 A 
ATOM     19  C   UNL     1       1.640   1.464   2.511  1.00  0.00     0.005 A 
ATOM     20  C   UNL     1       2.758   3.599   2.373  1.00  0.00     0.050 A 
ATOM     21  C   UNL     1       0.754   1.991   3.452  1.00  0.00     0.004 A 
ATOM     22  C   UNL     1       1.892   4.102   3.337  1.00  0.00     0.115 A 
ATOM     23  C   UNL     1       0.889   3.310   3.881  1.00  0.00     0.046 A 
BRANCH  22  24
ATOM     24  O   UNL     1       2.100   5.380   3.764  1.00  0.00    -0.508 OA
ATOM     25  H   UNL     1       1.537   5.754   4.413  1.00  0.00     0.293 HD
ENDBRANCH  22  24
ENDBRANCH  12  18
BRANCH  16  26
ATOM     26  C   UNL     1       6.028   1.529   3.335  1.00  0.00     0.046 A 
ATOM     27  C   UNL     1       7.419   1.655   3.434  1.00  0.00     0.026 A 
ATOM     28  C   UNL     1       5.195   2.272   4.174  1.00  0.00     0.039 A 
ATOM     29  C   UNL     1       7.971   2.562   4.339  1.00  0.00     0.003 A 
ATOM     30  C   UNL     1       5.742   3.179   5.095  1.00  0.00     0.058 A 
ATOM     31  C   UNL     1       7.138   3.322   5.160  1.00  0.00     0.013 A 
BRANCH  30  32
ATOM     32  C   UNL     1       4.859   3.965   6.035  1.00  0.00     0.416 C 
ATOM     33  F   UNL     1       5.253   3.840   7.334  1.00  0.00    -0.166 F 
ATOM     34  F   UNL     1       4.871   5.300   5.772  1.00  0.00    -0.166 F 
ATOM     35  F   UNL     1       3.551   3.587   6.015  1.00  0.00    -0.166 F 
ENDBRANCH  30  32
ENDBRANCH  16  26
ENDBRANCH   4   7
ENDBRANCH   2   3
ENDBRANCH   1   2
BRANCH   1  36
ATOM     36  C   UNL     1       6.199  -5.391   5.508  1.00  0.00     0.023 C 
BRANCH  36  37
ATOM     37  C   UNL     1       7.502  -6.186   5.531  1.00  0.00     0.116 C 
BRANCH  37  38
ATOM     38  N   UNL     1       8.517  -5.622   6.425  1.00  0.00    -0.352 N 
ATOM     39  C   UNL     1       9.849  -5.979   6.520  1.00  0.00     0.251 C 
ATOM     40  H   UNL     1       8.215  -4.905   7.028  1.00  0.00     0.163 HD
ATOM     41  O   UNL     1      10.502  -5.755   7.540  1.00  0.00    -0.269 OA
BRANCH  39  42
ATOM     42  C   UNL     1      10.491  -6.605   5.356  1.00  0.00     0.039 A 
ATOM     43  C   UNL     1      11.349  -7.702   5.466  1.00  0.00     0.014 A 
ATOM     44  C   UNL     1      10.165  -6.075   4.112  1.00  0.00     0.014 A 
ATOM     45  C   UNL     1      11.811  -8.306   4.298  1.00  0.00     0.010 A 
ATOM     46  C   UNL     1      10.464  -6.774   2.978  1.00  0.00     0.010 A 
ATOM     47  C   UNL     1      11.347  -7.842   3.056  1.00  0.00    -0.014 A 
BRANCH  47  48
ATOM     48  C   UNL     1      11.679  -8.523   1.814  1.00  0.00     0.031 A 
ATOM     49  C   UNL     1      11.300  -9.960   1.779  1.00  0.00     0.074 A 
ATOM     50  C   UNL     1      12.065  -7.859   0.702  1.00  0.00     0.049 A 
ATOM     51  N   UNL     1      12.093 -10.975   1.722  1.00  0.00    -0.248 NA
ATOM     52  C   UNL     1       9.882 -10.318   1.959  1.00  0.00     0.031 C 
ATOM     53  C   UNL     1      12.158  -6.409   0.485  1.00  0.00     0.029 A 
ATOM     54  N   UNL     1      12.334  -8.354  -0.533  1.00  0.00    -0.354 N 
ATOM     55  C   UNL     1      11.277 -12.099   1.660  1.00  0.00     0.074 A 
ATOM     56  C   UNL     1       9.947 -11.651   1.989  1.00  0.00     0.031 C 
ATOM     57  C   UNL     1      12.203  -6.151  -0.842  1.00  0.00     0.029 A 
ATOM     58  C   UNL     1      12.321  -7.411  -1.553  1.00  0.00     0.049 A 
ATOM     59  H   UNL     1      12.523  -9.307  -0.693  1.00  0.00     0.167 HD
ATOM     60  C   UNL     1      11.713 -13.262   1.102  1.00  0.00     0.031 A 
ATOM     61  C   UNL     1      12.367  -7.657  -2.886  1.00  0.00     0.031 A 
ATOM     62  C   UNL     1      13.144 -13.267   0.933  1.00  0.00     0.049 A 
ATOM     63  C   UNL     1      12.903  -9.029  -3.057  1.00  0.00     0.074 A 
ATOM     64  C   UNL     1      14.215 -13.125   1.794  1.00  0.00     0.029 A 
ATOM     65  N   UNL     1      13.634 -12.984  -0.322  1.00  0.00    -0.354 N 
ATOM     66  N   UNL     1      14.123  -9.360  -2.740  1.00  0.00    -0.248 NA
ATOM     67  C   UNL     1      11.949 -10.127  -3.104  1.00  0.00     0.031 C 
ATOM     68  C   UNL     1      15.124 -12.270   1.102  1.00  0.00     0.029 A 
ATOM     69  C   UNL     1      14.606 -12.026  -0.172  1.00  0.00     0.049 A 
ATOM     70  H   UNL     1      13.342 -13.393  -1.169  1.00  0.00     0.167 HD
ATOM     71  C   UNL     1      14.000 -10.592  -2.113  1.00  0.00     0.074 A 
ATOM     72  C   UNL     1      12.651 -11.054  -2.446  1.00  0.00     0.031 C 
ATOM     73  C   UNL     1      14.877 -10.987  -1.142  1.00  0.00     0.031 A 
BRANCH  60  74
ATOM     74  C   UNL     1      10.815 -14.209   0.351  1.00  0.00    -0.014 A 
ATOM     75  C   UNL     1      11.338 -15.433  -0.099  1.00  0.00     0.009 A 
ATOM     76  C   UNL     1       9.559 -13.829  -0.163  1.00  0.00     0.009 A 
ATOM     77  C   UNL     1      10.664 -16.204  -1.054  1.00  0.00     0.001 A 
ATOM     78  C   UNL     1       8.865 -14.615  -1.084  1.00  0.00     0.001 A 
ATOM     79  C   UNL     1       9.430 -15.793  -1.549  1.00  0.00     0.000 A 
ENDBRANCH  60  74
BRANCH  61  80
ATOM     80  C   UNL     1      11.714  -6.914  -3.988  1.00  0.00    -0.014 A 
ATOM     81  C   UNL     1      12.091  -7.122  -5.325  1.00  0.00     0.009 A 
ATOM     82  C   UNL     1      10.525  -6.198  -3.752  1.00  0.00     0.009 A 
ATOM     83  C   UNL     1      11.288  -6.665  -6.382  1.00  0.00     0.001 A 
ATOM     84  C   UNL     1       9.725  -5.741  -4.806  1.00  0.00     0.001 A 
ATOM     85  C   UNL     1      10.099  -5.988  -6.122  1.00  0.00     0.000 A 
ENDBRANCH  61  80
BRANCH  73  86
ATOM     86  C   UNL     1      16.102 -10.135  -0.890  1.00  0.00    -0.014 A 
ATOM     87  C   UNL     1      16.041  -8.784  -0.502  1.00  0.00     0.009 A 
ATOM     88  C   UNL     1      17.354 -10.766  -0.882  1.00  0.00     0.009 A 
ATOM     89  C   UNL     1      17.201  -8.084  -0.145  1.00  0.00     0.001 A 
ATOM     90  C   UNL     1      18.508 -10.075  -0.505  1.00  0.00     0.001 A 
ATOM     91  C   UNL     1      18.433  -8.733  -0.142  1.00  0.00     0.000 A 
ENDBRANCH  73  86
ENDBRANCH  47  48
ENDBRANCH  39  42
ENDBRANCH  37  38
ENDBRANCH  36  37
ENDBRANCH   1  36
TORSDOF 15
