REMARK SMILES CC[C@](C)(NC(=O)CCOc1ccc(Cl)c(Cl)c1)C(=O)NCCCCNC(=O)c1ccc(-c2c3nc(c(-c4ccccc4)c4ccc([nH]4)c(-c4ccccc4)c4nc(c(-c5ccccc5)c5ccc2[nH]5)C=C4)C=C3)cc1
REMARK SMILES IDX 22 1 21 2 19 3 20 4 3 6 4 7 2 8 1 9 5 10 6 11 7 13 8 14 9 15
REMARK SMILES IDX 10 16 11 17 12 18 18 19 13 20 16 21 14 22 17 23 15 24 23 25
REMARK SMILES IDX 24 26 25 27 26 28 27 29 28 31 29 32 30 33 76 34 31 35 75 36
REMARK SMILES IDX 32 37 33 38 34 39 69 40 35 41 74 42 68 43 70 44 36 45 73 46
REMARK SMILES IDX 67 47 66 48 37 50 59 51 44 52 58 53 45 54 48 55 57 56 71 57
REMARK SMILES IDX 46 58 47 59 56 61 72 62 49 63 38 64 39 65 43 66 40 67 42 68
REMARK SMILES IDX 41 69 60 70 61 71 65 72 62 73 64 74 63 75 50 76 51 77 55 78
REMARK SMILES IDX 52 79 54 80 53 81
REMARK H PARENT 21 5 5 12 26 30 70 49 48 60
REMARK Flexibility Score: inf
ROOT
ATOM      1  C   UNL     1       2.370  -2.667  -4.796  1.00  0.00     0.116 C 
ENDROOT
BRANCH   1   2
ATOM      2  N   UNL     1       3.125  -2.312  -3.610  1.00  0.00    -0.354 N 
ATOM      3  C   UNL     1       2.751  -1.702  -2.453  1.00  0.00     0.245 C 
ATOM      4  O   UNL     1       3.594  -1.688  -1.550  1.00  0.00    -0.272 OA
ATOM      5  H   UNL     1       4.077  -2.557  -3.649  1.00  0.00     0.163 HD
BRANCH   3   6
ATOM      6  C   UNL     1       1.308  -1.164  -2.234  1.00  0.00     0.116 C 
ATOM      7  C   UNL     1       1.299  -0.272  -0.988  1.00  0.00     0.045 C 
BRANCH   6   8
ATOM      8  C   UNL     1       0.398  -2.411  -1.993  1.00  0.00     0.035 C 
ATOM      9  C   UNL     1      -0.920  -2.144  -1.274  1.00  0.00     0.007 C 
ENDBRANCH   6   8
BRANCH   6  10
ATOM     10  N   UNL     1       0.829  -0.439  -3.432  1.00  0.00    -0.342 N 
ATOM     11  C   UNL     1       1.350   0.608  -4.129  1.00  0.00     0.224 C 
ATOM     12  H   UNL     1      -0.024  -0.775  -3.790  1.00  0.00     0.164 HD
ATOM     13  O   UNL     1       0.752   0.959  -5.152  1.00  0.00    -0.275 OA
BRANCH  11  14
ATOM     14  C   UNL     1       2.652   1.270  -3.741  1.00  0.00     0.141 C 
BRANCH  14  15
ATOM     15  C   UNL     1       2.511   2.749  -3.372  1.00  0.00     0.239 C 
BRANCH  15  16
ATOM     16  O   UNL     1       1.839   3.010  -2.133  1.00  0.00    -0.493 OA
BRANCH  16  17
ATOM     17  C   UNL     1       0.475   2.926  -2.091  1.00  0.00     0.120 A 
ATOM     18  C   UNL     1      -0.368   2.853  -3.195  1.00  0.00     0.048 A 
ATOM     19  C   UNL     1      -0.075   2.818  -0.812  1.00  0.00     0.068 A 
ATOM     20  C   UNL     1      -1.696   2.449  -3.042  1.00  0.00     0.026 A 
ATOM     21  C   UNL     1      -1.419   2.463  -0.648  1.00  0.00     0.063 A 
ATOM     22  C   UNL     1      -2.217   2.223  -1.770  1.00  0.00     0.059 A 
ATOM     23  Cl  UNL     1      -2.007   2.257   0.963  1.00  0.00    -0.083 Cl
ATOM     24  Cl  UNL     1      -3.827   1.611  -1.658  1.00  0.00    -0.083 Cl
ENDBRANCH  16  17
ENDBRANCH  15  16
ENDBRANCH  14  15
ENDBRANCH  11  14
ENDBRANCH   6  10
ENDBRANCH   3   6
ENDBRANCH   1   2
BRANCH   1  25
ATOM     25  C   UNL     1       2.731  -1.834  -6.024  1.00  0.00     0.023 C 
BRANCH  25  26
ATOM     26  C   UNL     1       4.221  -1.739  -6.332  1.00  0.00     0.023 C 
BRANCH  26  27
ATOM     27  C   UNL     1       4.935  -3.077  -6.351  1.00  0.00     0.116 C 
BRANCH  27  28
ATOM     28  N   UNL     1       4.276  -4.055  -7.203  1.00  0.00    -0.352 N 
ATOM     29  C   UNL     1       4.848  -4.957  -8.059  1.00  0.00     0.251 C 
ATOM     30  H   UNL     1       3.292  -4.071  -7.157  1.00  0.00     0.163 HD
ATOM     31  O   UNL     1       4.161  -5.640  -8.810  1.00  0.00    -0.269 OA
BRANCH  29  32
ATOM     32  C   UNL     1       6.315  -5.058  -8.081  1.00  0.00     0.039 A 
ATOM     33  C   UNL     1       6.978  -4.951  -9.303  1.00  0.00     0.014 A 
ATOM     34  C   UNL     1       7.023  -5.168  -6.881  1.00  0.00     0.014 A 
ATOM     35  C   UNL     1       8.369  -4.905  -9.316  1.00  0.00     0.010 A 
ATOM     36  C   UNL     1       8.401  -5.020  -6.890  1.00  0.00     0.010 A 
ATOM     37  C   UNL     1       9.086  -4.908  -8.108  1.00  0.00    -0.014 A 
BRANCH  37  38
ATOM     38  C   UNL     1      10.563  -4.829  -8.097  1.00  0.00     0.031 A 
ATOM     39  C   UNL     1      11.361  -5.978  -7.546  1.00  0.00     0.074 A 
ATOM     40  C   UNL     1      11.175  -3.710  -8.529  1.00  0.00     0.049 A 
ATOM     41  N   UNL     1      12.657  -6.091  -7.410  1.00  0.00    -0.248 NA
ATOM     42  C   UNL     1      10.602  -7.141  -7.055  1.00  0.00     0.031 C 
ATOM     43  C   UNL     1      10.499  -2.515  -9.042  1.00  0.00     0.029 A 
ATOM     44  N   UNL     1      12.507  -3.397  -8.606  1.00  0.00    -0.354 N 
ATOM     45  C   UNL     1      12.861  -7.322  -6.800  1.00  0.00     0.074 A 
ATOM     46  C   UNL     1      11.560  -7.890  -6.535  1.00  0.00     0.031 C 
ATOM     47  C   UNL     1      11.423  -1.617  -9.419  1.00  0.00     0.029 A 
ATOM     48  C   UNL     1      12.749  -2.152  -9.134  1.00  0.00     0.049 A 
ATOM     49  H   UNL     1      13.222  -4.005  -8.310  1.00  0.00     0.167 HD
ATOM     50  C   UNL     1      14.031  -7.936  -6.508  1.00  0.00     0.031 A 
ATOM     51  C   UNL     1      13.914  -1.518  -9.362  1.00  0.00     0.031 A 
ATOM     52  C   UNL     1      15.322  -7.370  -6.791  1.00  0.00     0.049 A 
ATOM     53  C   UNL     1      15.200  -2.218  -9.020  1.00  0.00     0.074 A 
ATOM     54  C   UNL     1      16.570  -7.932  -6.596  1.00  0.00     0.029 A 
ATOM     55  N   UNL     1      15.526  -6.108  -7.328  1.00  0.00    -0.354 N 
ATOM     56  N   UNL     1      15.381  -3.414  -8.514  1.00  0.00    -0.248 NA
ATOM     57  C   UNL     1      16.442  -1.483  -9.291  1.00  0.00     0.031 C 
ATOM     58  C   UNL     1      17.532  -6.986  -6.961  1.00  0.00     0.029 A 
ATOM     59  C   UNL     1      16.882  -5.861  -7.445  1.00  0.00     0.049 A 
ATOM     60  H   UNL     1      14.812  -5.481  -7.588  1.00  0.00     0.167 HD
ATOM     61  C   UNL     1      16.756  -3.588  -8.436  1.00  0.00     0.074 A 
ATOM     62  C   UNL     1      17.360  -2.380  -8.962  1.00  0.00     0.031 C 
ATOM     63  C   UNL     1      17.459  -4.651  -7.972  1.00  0.00     0.031 A 
BRANCH  50  64
ATOM     64  C   UNL     1      13.960  -9.282  -5.843  1.00  0.00    -0.014 A 
ATOM     65  C   UNL     1      13.474 -10.410  -6.525  1.00  0.00     0.009 A 
ATOM     66  C   UNL     1      14.406  -9.430  -4.521  1.00  0.00     0.009 A 
ATOM     67  C   UNL     1      13.398 -11.648  -5.883  1.00  0.00     0.001 A 
ATOM     68  C   UNL     1      14.360 -10.676  -3.893  1.00  0.00     0.001 A 
ATOM     69  C   UNL     1      13.846 -11.781  -4.570  1.00  0.00     0.000 A 
ENDBRANCH  50  64
BRANCH  51  70
ATOM     70  C   UNL     1      13.921  -0.158  -9.964  1.00  0.00    -0.014 A 
ATOM     71  C   UNL     1      14.401   0.040 -11.268  1.00  0.00     0.009 A 
ATOM     72  C   UNL     1      13.455   0.949  -9.239  1.00  0.00     0.009 A 
ATOM     73  C   UNL     1      14.443   1.322 -11.821  1.00  0.00     0.001 A 
ATOM     74  C   UNL     1      13.469   2.226  -9.806  1.00  0.00     0.001 A 
ATOM     75  C   UNL     1      13.973   2.413 -11.092  1.00  0.00     0.000 A 
ENDBRANCH  51  70
BRANCH  63  76
ATOM     76  C   UNL     1      18.957  -4.568  -8.049  1.00  0.00    -0.014 A 
ATOM     77  C   UNL     1      19.687  -3.715  -7.207  1.00  0.00     0.009 A 
ATOM     78  C   UNL     1      19.649  -5.394  -8.949  1.00  0.00     0.009 A 
ATOM     79  C   UNL     1      21.079  -3.665  -7.292  1.00  0.00     0.001 A 
ATOM     80  C   UNL     1      21.042  -5.366  -9.008  1.00  0.00     0.001 A 
ATOM     81  C   UNL     1      21.755  -4.494  -8.187  1.00  0.00     0.000 A 
ENDBRANCH  63  76
ENDBRANCH  37  38
ENDBRANCH  29  32
ENDBRANCH  27  28
ENDBRANCH  26  27
ENDBRANCH  25  26
ENDBRANCH   1  25
TORSDOF 17
