REMARK SMILES C=CC[N@H+](CC(=O)NCCCCNC(=O)c1ccc(-c2c3nc(c(-c4ccccc4)c4ccc([nH]4)c(-c4ccccc4)c4nc(c(-c5ccccc5)c5ccc2[nH]5)C=C4)C=C3)cc1)[C@H]1CC(=O)N(c2ccccc2)C1=O
REMARK SMILES IDX 10 1 9 2 8 3 6 4 7 5 5 7 4 8 3 10 2 11 1 12 64 13 65 14
REMARK SMILES IDX 75 15 66 16 68 17 76 18 67 19 69 20 70 21 74 22 71 23 73 24
REMARK SMILES IDX 72 25 11 26 12 27 13 28 14 29 15 31 16 32 17 33 63 34 18 35
REMARK SMILES IDX 62 36 19 37 20 38 21 39 56 40 22 41 61 42 55 43 57 44 23 45
REMARK SMILES IDX 60 46 54 47 53 48 24 50 46 51 31 52 45 53 32 54 35 55 44 56
REMARK SMILES IDX 58 57 33 58 34 59 43 61 59 62 36 63 25 64 26 65 30 66 27 67
REMARK SMILES IDX 29 68 28 69 47 70 48 71 52 72 49 73 51 74 50 75 37 76 38 77
REMARK SMILES IDX 42 78 39 79 41 80 40 81
REMARK H PARENT 8 6 4 9 13 30 57 49 35 60
REMARK Flexibility Score: inf
ROOT
ATOM      1  C   UNL     1      -3.224   0.775   6.760  1.00  0.00     0.023 C 
ENDROOT
BRANCH   1   2
ATOM      2  C   UNL     1      -1.766   1.206   6.566  1.00  0.00     0.116 C 
BRANCH   2   3
ATOM      3  N   UNL     1      -0.862   0.072   6.639  1.00  0.00    -0.351 N 
ATOM      4  C   UNL     1      -0.262  -0.663   5.654  1.00  0.00     0.275 C 
ATOM      5  O   UNL     1       0.399  -1.644   6.007  1.00  0.00    -0.269 OA
ATOM      6  H   UNL     1      -0.643  -0.217   7.554  1.00  0.00     0.163 HD
BRANCH   4   7
ATOM      7  C   UNL     1      -0.371  -0.275   4.160  1.00  0.00     0.364 C 
BRANCH   7   8
ATOM      8  N   UNL     1      -1.392  -1.095   3.421  1.00  0.00    -0.313 N 
ATOM      9  H   UNL     1      -1.227  -2.091   3.571  1.00  0.00     0.349 HD
BRANCH   8  10
ATOM     10  C   UNL     1      -2.700  -0.705   3.973  1.00  0.00     0.291 C 
BRANCH  10  11
ATOM     11  C   UNL     1      -4.029  -0.939   3.335  1.00  0.00     0.025 C 
ATOM     12  C   UNL     1      -5.063  -1.527   3.954  1.00  0.00     0.010 C 
ENDBRANCH  10  11
ENDBRANCH   8  10
BRANCH   8  13
ATOM     13  C   UNL     1      -1.293  -1.022   1.939  1.00  0.00     0.285 C 
ATOM     14  C   UNL     1       0.104  -1.125   1.329  1.00  0.00     0.176 C 
ATOM     15  C   UNL     1      -1.986  -2.227   1.272  1.00  0.00     0.292 C 
ATOM     16  C   UNL     1       0.173  -2.463   0.664  1.00  0.00     0.240 C 
ATOM     17  N   UNL     1      -1.047  -3.078   0.740  1.00  0.00    -0.245 N 
ATOM     18  O   UNL     1      -3.202  -2.356   1.204  1.00  0.00    -0.267 OA
ATOM     19  O   UNL     1       1.183  -2.825   0.072  1.00  0.00    -0.274 OA
BRANCH  17  20
ATOM     20  C   UNL     1      -1.323  -4.391   0.246  1.00  0.00     0.052 A 
ATOM     21  C   UNL     1      -2.626  -4.812  -0.069  1.00  0.00     0.027 A 
ATOM     22  C   UNL     1      -0.297  -5.342   0.121  1.00  0.00     0.027 A 
ATOM     23  C   UNL     1      -2.898  -6.126  -0.466  1.00  0.00     0.002 A 
ATOM     24  C   UNL     1      -0.568  -6.661  -0.265  1.00  0.00     0.002 A 
ATOM     25  C   UNL     1      -1.870  -7.054  -0.553  1.00  0.00     0.000 A 
ENDBRANCH  17  20
ENDBRANCH   8  13
ENDBRANCH   7   8
ENDBRANCH   4   7
ENDBRANCH   2   3
ENDBRANCH   1   2
BRANCH   1  26
ATOM     26  C   UNL     1      -3.716   0.754   8.194  1.00  0.00     0.023 C 
BRANCH  26  27
ATOM     27  C   UNL     1      -3.885   2.129   8.802  1.00  0.00     0.116 C 
BRANCH  27  28
ATOM     28  N   UNL     1      -4.869   2.960   8.114  1.00  0.00    -0.352 N 
ATOM     29  C   UNL     1      -5.831   3.770   8.678  1.00  0.00     0.251 C 
ATOM     30  H   UNL     1      -4.842   2.939   7.130  1.00  0.00     0.163 HD
ATOM     31  O   UNL     1      -6.643   4.374   7.996  1.00  0.00    -0.269 OA
BRANCH  29  32
ATOM     32  C   UNL     1      -5.876   3.839  10.151  1.00  0.00     0.039 A 
ATOM     33  C   UNL     1      -7.040   3.446  10.813  1.00  0.00     0.014 A 
ATOM     34  C   UNL     1      -4.700   4.108  10.853  1.00  0.00     0.014 A 
ATOM     35  C   UNL     1      -6.996   3.226  12.191  1.00  0.00     0.010 A 
ATOM     36  C   UNL     1      -4.633   3.781  12.196  1.00  0.00     0.010 A 
ATOM     37  C   UNL     1      -5.779   3.338  12.880  1.00  0.00    -0.014 A 
BRANCH  37  38
ATOM     38  C   UNL     1      -5.652   3.048  14.329  1.00  0.00     0.031 A 
ATOM     39  C   UNL     1      -5.155   4.139  15.236  1.00  0.00     0.074 A 
ATOM     40  C   UNL     1      -5.861   1.807  14.808  1.00  0.00     0.049 A 
ATOM     41  N   UNL     1      -4.729   4.062  16.469  1.00  0.00    -0.248 NA
ATOM     42  C   UNL     1      -5.075   5.490  14.653  1.00  0.00     0.031 C 
ATOM     43  C   UNL     1      -6.319   0.651  14.033  1.00  0.00     0.029 A 
ATOM     44  N   UNL     1      -5.694   1.308  16.076  1.00  0.00    -0.354 N 
ATOM     45  C   UNL     1      -4.275   5.336  16.784  1.00  0.00     0.074 A 
ATOM     46  C   UNL     1      -4.436   6.154  15.602  1.00  0.00     0.031 C 
ATOM     47  C   UNL     1      -6.425  -0.412  14.849  1.00  0.00     0.029 A 
ATOM     48  C   UNL     1      -5.993  -0.028  16.189  1.00  0.00     0.049 A 
ATOM     49  H   UNL     1      -5.389   1.857  16.835  1.00  0.00     0.167 HD
ATOM     50  C   UNL     1      -3.784   5.793  17.958  1.00  0.00     0.031 A 
ATOM     51  C   UNL     1      -5.913  -0.850  17.252  1.00  0.00     0.031 A 
ATOM     52  C   UNL     1      -3.686   4.998  19.148  1.00  0.00     0.049 A 
ATOM     53  C   UNL     1      -5.408  -0.308  18.562  1.00  0.00     0.074 A 
ATOM     54  C   UNL     1      -3.251   5.375  20.406  1.00  0.00     0.029 A 
ATOM     55  N   UNL     1      -4.060   3.666  19.231  1.00  0.00    -0.354 N 
ATOM     56  N   UNL     1      -4.989   0.900  18.848  1.00  0.00    -0.248 NA
ATOM     57  C   UNL     1      -5.369  -1.244  19.695  1.00  0.00     0.031 C 
ATOM     58  C   UNL     1      -3.351   4.264  21.250  1.00  0.00     0.029 A 
ATOM     59  C   UNL     1      -3.878   3.208  20.523  1.00  0.00     0.049 A 
ATOM     60  H   UNL     1      -4.403   3.127  18.483  1.00  0.00     0.167 HD
ATOM     61  C   UNL     1      -4.671   0.880  20.200  1.00  0.00     0.074 A 
ATOM     62  C   UNL     1      -4.948  -0.459  20.677  1.00  0.00     0.031 C 
ATOM     63  C   UNL     1      -4.193   1.881  20.977  1.00  0.00     0.031 A 
BRANCH  50  64
ATOM     64  C   UNL     1      -3.329   7.223  18.000  1.00  0.00    -0.014 A 
ATOM     65  C   UNL     1      -4.253   8.279  17.950  1.00  0.00     0.009 A 
ATOM     66  C   UNL     1      -1.961   7.518  18.090  1.00  0.00     0.009 A 
ATOM     67  C   UNL     1      -3.812   9.603  17.942  1.00  0.00     0.001 A 
ATOM     68  C   UNL     1      -1.524   8.844  18.113  1.00  0.00     0.001 A 
ATOM     69  C   UNL     1      -2.449   9.884  18.028  1.00  0.00     0.000 A 
ENDBRANCH  50  64
BRANCH  51  70
ATOM     70  C   UNL     1      -6.343  -2.268  17.142  1.00  0.00    -0.014 A 
ATOM     71  C   UNL     1      -7.539  -2.689  17.745  1.00  0.00     0.009 A 
ATOM     72  C   UNL     1      -5.560  -3.209  16.457  1.00  0.00     0.009 A 
ATOM     73  C   UNL     1      -7.927  -4.030  17.690  1.00  0.00     0.001 A 
ATOM     74  C   UNL     1      -5.964  -4.545  16.383  1.00  0.00     0.001 A 
ATOM     75  C   UNL     1      -7.141  -4.956  17.008  1.00  0.00     0.000 A 
ENDBRANCH  51  70
BRANCH  63  76
ATOM     76  C   UNL     1      -4.006   1.591  22.436  1.00  0.00    -0.014 A 
ATOM     77  C   UNL     1      -2.901   0.860  22.897  1.00  0.00     0.009 A 
ATOM     78  C   UNL     1      -4.913   2.123  23.365  1.00  0.00     0.009 A 
ATOM     79  C   UNL     1      -2.720   0.651  24.265  1.00  0.00     0.001 A 
ATOM     80  C   UNL     1      -4.718   1.930  24.732  1.00  0.00     0.001 A 
ATOM     81  C   UNL     1      -3.624   1.191  25.181  1.00  0.00     0.000 A 
ENDBRANCH  63  76
ENDBRANCH  37  38
ENDBRANCH  29  32
ENDBRANCH  27  28
ENDBRANCH  26  27
ENDBRANCH   1  26
TORSDOF 16
