REMARK SMILES O=C(NCCCCNC(=O)c1ccc2c(=O)n3cc(C(=O)c4cc(F)ccc4O)cc(Cl)c3nc2c1)c1ccc(-c2c3nc(c(-c4ccccc4)c4ccc([nH]4)c(-c4ccccc4)c4nc(c(-c5ccccc5)c5ccc2[nH]5)C=C4)C=C3)cc1
REMARK SMILES IDX 6 1 5 2 4 3 3 4 1 5 2 6 37 8 38 9 84 10 39 11 83 12 40 13
REMARK SMILES IDX 41 14 42 15 77 16 43 17 82 18 76 19 78 20 44 21 81 22 75 23
REMARK SMILES IDX 74 24 45 26 67 27 52 28 66 29 53 30 56 31 65 32 79 33 54 34
REMARK SMILES IDX 55 35 64 37 80 38 57 39 46 40 47 41 51 42 48 43 50 44 49 45
REMARK SMILES IDX 68 46 69 47 73 48 70 49 72 50 71 51 58 52 59 53 63 54 60 55
REMARK SMILES IDX 62 56 61 57 7 58 8 59 9 60 10 62 11 63 12 64 36 65 13 66
REMARK SMILES IDX 35 67 14 68 34 69 15 70 33 71 16 72 17 73 31 74 18 75 30 76
REMARK SMILES IDX 32 77 19 78 20 79 21 80 22 81 23 82 28 83 24 84 27 85 25 86
REMARK SMILES IDX 26 87 29 88
REMARK H PARENT 3 7 78 25 56 36 8 61 29 89
REMARK Flexibility Score: inf
ROOT
ATOM      1  C   UNL     1       4.545   1.767  -3.365  1.00  0.00     0.023 C 
ENDROOT
BRANCH   1   2
ATOM      2  C   UNL     1       5.009   0.550  -2.567  1.00  0.00     0.023 C 
BRANCH   2   3
ATOM      3  C   UNL     1       4.659   0.567  -1.085  1.00  0.00     0.116 C 
BRANCH   3   4
ATOM      4  N   UNL     1       3.232   0.662  -0.828  1.00  0.00    -0.352 N 
ATOM      5  O   UNL     1       1.247   0.123   0.092  1.00  0.00    -0.269 OA
ATOM      6  C   UNL     1       2.466  -0.020   0.087  1.00  0.00     0.251 C 
ATOM      7  H   UNL     1       2.744   1.308  -1.388  1.00  0.00     0.163 HD
BRANCH   6   8
ATOM      8  C   UNL     1       3.102  -0.955   1.042  1.00  0.00     0.039 A 
ATOM      9  C   UNL     1       2.491  -2.190   1.275  1.00  0.00     0.014 A 
ATOM     10  C   UNL     1       4.286  -0.625   1.706  1.00  0.00     0.014 A 
ATOM     11  C   UNL     1       3.095  -3.111   2.134  1.00  0.00     0.010 A 
ATOM     12  C   UNL     1       4.931  -1.576   2.493  1.00  0.00     0.010 A 
ATOM     13  C   UNL     1       4.334  -2.822   2.730  1.00  0.00    -0.014 A 
BRANCH  13  14
ATOM     14  C   UNL     1       4.995  -3.803   3.626  1.00  0.00     0.031 A 
ATOM     15  C   UNL     1       5.207  -3.480   5.080  1.00  0.00     0.074 A 
ATOM     16  C   UNL     1       5.428  -4.978   3.130  1.00  0.00     0.049 A 
ATOM     17  N   UNL     1       5.753  -4.214   6.016  1.00  0.00    -0.248 NA
ATOM     18  C   UNL     1       4.771  -2.151   5.538  1.00  0.00     0.031 C 
ATOM     19  C   UNL     1       5.330  -5.394   1.730  1.00  0.00     0.029 A 
ATOM     20  N   UNL     1       6.028  -6.044   3.753  1.00  0.00    -0.354 N 
ATOM     21  C   UNL     1       5.730  -3.435   7.166  1.00  0.00     0.074 A 
ATOM     22  C   UNL     1       5.183  -2.149   6.796  1.00  0.00     0.031 C 
ATOM     23  C   UNL     1       5.806  -6.643   1.610  1.00  0.00     0.029 A 
ATOM     24  C   UNL     1       6.271  -7.104   2.915  1.00  0.00     0.049 A 
ATOM     25  H   UNL     1       6.262  -6.048   4.710  1.00  0.00     0.167 HD
ATOM     26  C   UNL     1       6.099  -3.768   8.425  1.00  0.00     0.031 A 
ATOM     27  C   UNL     1       6.795  -8.319   3.167  1.00  0.00     0.031 A 
ATOM     28  C   UNL     1       6.633  -5.050   8.798  1.00  0.00     0.049 A 
ATOM     29  C   UNL     1       7.192  -8.673   4.572  1.00  0.00     0.074 A 
ATOM     30  C   UNL     1       7.001  -5.495  10.056  1.00  0.00     0.029 A 
ATOM     31  N   UNL     1       6.870  -6.093   7.917  1.00  0.00    -0.354 N 
ATOM     32  N   UNL     1       7.118  -7.942   5.658  1.00  0.00    -0.248 NA
ATOM     33  C   UNL     1       7.730 -10.024   4.790  1.00  0.00     0.031 C 
ATOM     34  C   UNL     1       7.504  -6.793   9.928  1.00  0.00     0.029 A 
ATOM     35  C   UNL     1       7.395  -7.177   8.600  1.00  0.00     0.049 A 
ATOM     36  H   UNL     1       6.691  -6.067   6.949  1.00  0.00     0.167 HD
ATOM     37  C   UNL     1       7.593  -8.743   6.689  1.00  0.00     0.074 A 
ATOM     38  C   UNL     1       7.925 -10.026   6.102  1.00  0.00     0.031 C 
ATOM     39  C   UNL     1       7.743  -8.440   8.001  1.00  0.00     0.031 A 
BRANCH  26  40
ATOM     40  C   UNL     1       5.919  -2.728   9.496  1.00  0.00    -0.014 A 
ATOM     41  C   UNL     1       7.038  -2.152  10.116  1.00  0.00     0.009 A 
ATOM     42  C   UNL     1       4.636  -2.347   9.923  1.00  0.00     0.009 A 
ATOM     43  C   UNL     1       6.877  -1.214  11.138  1.00  0.00     0.001 A 
ATOM     44  C   UNL     1       4.477  -1.385  10.922  1.00  0.00     0.001 A 
ATOM     45  C   UNL     1       5.598  -0.825  11.534  1.00  0.00     0.000 A 
ENDBRANCH  26  40
BRANCH  27  46
ATOM     46  C   UNL     1       6.917  -9.302   2.060  1.00  0.00    -0.014 A 
ATOM     47  C   UNL     1       7.871  -9.124   1.045  1.00  0.00     0.009 A 
ATOM     48  C   UNL     1       6.036 -10.391   1.980  1.00  0.00     0.009 A 
ATOM     49  C   UNL     1       7.925 -10.003  -0.038  1.00  0.00     0.001 A 
ATOM     50  C   UNL     1       6.109 -11.283   0.908  1.00  0.00     0.001 A 
ATOM     51  C   UNL     1       7.046 -11.083  -0.105  1.00  0.00     0.000 A 
ENDBRANCH  27  46
BRANCH  39  52
ATOM     52  C   UNL     1       8.303  -9.505   8.902  1.00  0.00    -0.014 A 
ATOM     53  C   UNL     1       7.486 -10.101   9.875  1.00  0.00     0.009 A 
ATOM     54  C   UNL     1       9.660  -9.859   8.843  1.00  0.00     0.009 A 
ATOM     55  C   UNL     1       8.017 -11.025  10.777  1.00  0.00     0.001 A 
ATOM     56  C   UNL     1      10.182 -10.805   9.727  1.00  0.00     0.001 A 
ATOM     57  C   UNL     1       9.363 -11.381  10.698  1.00  0.00     0.000 A 
ENDBRANCH  39  52
ENDBRANCH  13  14
ENDBRANCH   6   8
ENDBRANCH   3   4
ENDBRANCH   2   3
ENDBRANCH   1   2
BRANCH   1  58
ATOM     58  C   UNL     1       4.930   3.118  -2.770  1.00  0.00     0.116 C 
BRANCH  58  59
ATOM     59  N   UNL     1       6.371   3.302  -2.680  1.00  0.00    -0.352 N 
ATOM     60  C   UNL     1       7.168   4.215  -3.326  1.00  0.00     0.251 C 
ATOM     61  H   UNL     1       6.840   2.686  -2.071  1.00  0.00     0.163 HD
ATOM     62  O   UNL     1       8.389   4.159  -3.243  1.00  0.00    -0.269 OA
BRANCH  60  63
ATOM     63  C   UNL     1       6.531   5.261  -4.145  1.00  0.00     0.041 A 
ATOM     64  C   UNL     1       5.587   6.118  -3.571  1.00  0.00     0.015 A 
ATOM     65  C   UNL     1       6.849   5.345  -5.505  1.00  0.00     0.043 A 
ATOM     66  C   UNL     1       4.864   6.977  -4.388  1.00  0.00     0.017 A 
ATOM     67  C   UNL     1       6.149   6.228  -6.325  1.00  0.00     0.079 A 
ATOM     68  C   UNL     1       5.134   7.000  -5.762  1.00  0.00     0.066 A 
ATOM     69  N   UNL     1       6.480   6.307  -7.681  1.00  0.00    -0.228 NA
ATOM     70  C   UNL     1       4.317   7.819  -6.663  1.00  0.00     0.265 A 
ATOM     71  C   UNL     1       5.780   7.076  -8.460  1.00  0.00     0.159 A 
ATOM     72  O   UNL     1       3.370   8.453  -6.198  1.00  0.00    -0.268 OA
ATOM     73  N   UNL     1       4.679   7.812  -8.011  1.00  0.00    -0.266 N 
ATOM     74  C   UNL     1       6.113   7.228  -9.918  1.00  0.00     0.085 A 
ATOM     75  C   UNL     1       3.903   8.561  -8.888  1.00  0.00     0.109 A 
ATOM     76  C   UNL     1       5.366   8.016 -10.704  1.00  0.00     0.038 A 
ATOM     77  Cl  UNL     1       7.475   6.384 -10.547  1.00  0.00    -0.080 Cl
ATOM     78  C   UNL     1       4.205   8.713 -10.186  1.00  0.00     0.041 A 
BRANCH  78  79
ATOM     79  C   UNL     1       3.335   9.501 -11.124  1.00  0.00     0.198 C 
ATOM     80  O   UNL     1       3.445   9.385 -12.344  1.00  0.00    -0.288 OA
BRANCH  79  81
ATOM     81  C   UNL     1       2.225  10.333 -10.609  1.00  0.00     0.067 A 
ATOM     82  C   UNL     1       2.416  11.257  -9.576  1.00  0.00     0.055 A 
ATOM     83  C   UNL     1       0.946  10.154 -11.154  1.00  0.00     0.126 A 
ATOM     84  C   UNL     1       1.311  11.915  -9.045  1.00  0.00     0.124 A 
ATOM     85  C   UNL     1      -0.153  10.813 -10.609  1.00  0.00     0.050 A 
ATOM     86  F   UNL     1       1.483  12.766  -8.027  1.00  0.00    -0.207 F 
ATOM     87  C   UNL     1       0.029  11.690  -9.539  1.00  0.00     0.043 A 
BRANCH  83  88
ATOM     88  O   UNL     1       0.708   9.330 -12.219  1.00  0.00    -0.507 OA
ATOM     89  H   UNL     1       1.417   8.865 -12.619  1.00  0.00     0.293 HD
ENDBRANCH  83  88
ENDBRANCH  79  81
ENDBRANCH  78  79
ENDBRANCH  60  63
ENDBRANCH  58  59
ENDBRANCH   1  58
TORSDOF 14
