REMARK SMILES [NH3+][C@H](CS[C@@H]1CC(=O)N(c2ccc3ccccc3c2)C1=O)C(=O)NCCCCNC(=O)c1ccc(-c2c3nc(c(-c4ccccc4)c4ccc([nH]4)c(-c4ccccc4)c4nc(c(-c5ccccc5)c5ccc2[nH]5)C=C4)C=C3)cc1
REMARK SMILES IDX 25 1 24 2 22 3 23 4 2 6 1 7 3 11 4 12 5 13 6 14 20 15 7 16
REMARK SMILES IDX 9 17 21 18 8 19 10 20 11 21 19 22 12 23 18 24 13 25 17 26
REMARK SMILES IDX 14 27 16 28 15 29 26 30 27 31 28 32 29 33 30 34 31 36 32 37
REMARK SMILES IDX 33 38 79 39 34 40 78 41 35 42 36 43 37 44 72 45 38 46 77 47
REMARK SMILES IDX 71 48 73 49 39 50 76 51 70 52 69 53 40 55 62 56 47 57 61 58
REMARK SMILES IDX 48 59 51 60 60 61 74 62 49 63 50 64 59 66 75 67 52 68 41 69
REMARK SMILES IDX 42 70 46 71 43 72 45 73 44 74 63 75 64 76 68 77 65 78 67 79
REMARK SMILES IDX 66 80 53 81 54 82 58 83 55 84 57 85 56 86
REMARK H PARENT 24 5 1 8 1 9 1 10 29 35 73 54 51 65
REMARK Flexibility Score: inf
ROOT
ATOM      1  C   UNL     1      -0.499  -2.909   0.349  1.00  0.00     0.116 C 
ENDROOT
BRANCH   1   2
ATOM      2  N   UNL     1      -1.200  -2.139  -0.663  1.00  0.00    -0.351 N 
ATOM      3  C   UNL     1      -0.776  -1.216  -1.569  1.00  0.00     0.279 C 
ATOM      4  O   UNL     1      -1.646  -0.732  -2.303  1.00  0.00    -0.268 OA
ATOM      5  H   UNL     1      -2.167  -2.319  -0.702  1.00  0.00     0.163 HD
BRANCH   3   6
ATOM      6  C   UNL     1       0.672  -0.724  -1.661  1.00  0.00     0.280 C 
BRANCH   6   7
ATOM      7  N   UNL     1       1.603  -1.837  -1.950  1.00  0.00    -0.347 N 
ATOM      8  H   UNL     1       1.188  -2.455  -2.647  1.00  0.00     0.345 HD
ATOM      9  H   UNL     1       1.782  -2.362  -1.093  1.00  0.00     0.345 HD
ATOM     10  H   UNL     1       2.482  -1.462  -2.308  1.00  0.00     0.345 HD
ENDBRANCH   6   7
BRANCH   6  11
ATOM     11  C   UNL     1       1.157   0.306  -0.618  1.00  0.00     0.145 C 
BRANCH  11  12
ATOM     12  S   UNL     1       0.487   0.510   1.061  1.00  0.00    -0.141 SA
BRANCH  12  13
ATOM     13  C   UNL     1      -1.328   0.758   0.841  1.00  0.00     0.146 C 
ATOM     14  C   UNL     1      -1.839   1.593  -0.314  1.00  0.00     0.125 C 
ATOM     15  C   UNL     1      -1.825   1.484   2.068  1.00  0.00     0.247 C 
ATOM     16  C   UNL     1      -2.410   2.822   0.318  1.00  0.00     0.235 C 
ATOM     17  N   UNL     1      -2.310   2.707   1.679  1.00  0.00    -0.250 N 
ATOM     18  O   UNL     1      -1.810   1.011   3.199  1.00  0.00    -0.273 OA
ATOM     19  O   UNL     1      -2.857   3.751  -0.342  1.00  0.00    -0.274 OA
BRANCH  17  20
ATOM     20  C   UNL     1      -2.577   3.761   2.572  1.00  0.00     0.052 A 
ATOM     21  C   UNL     1      -3.649   4.633   2.373  1.00  0.00     0.027 A 
ATOM     22  C   UNL     1      -1.666   4.015   3.606  1.00  0.00     0.035 A 
ATOM     23  C   UNL     1      -3.804   5.753   3.191  1.00  0.00     0.011 A 
ATOM     24  C   UNL     1      -1.761   5.181   4.374  1.00  0.00    -0.016 A 
ATOM     25  C   UNL     1      -2.850   6.057   4.173  1.00  0.00    -0.018 A 
ATOM     26  C   UNL     1      -0.765   5.511   5.304  1.00  0.00     0.009 A 
ATOM     27  C   UNL     1      -2.931   7.230   4.937  1.00  0.00     0.009 A 
ATOM     28  C   UNL     1      -0.842   6.698   6.030  1.00  0.00     0.001 A 
ATOM     29  C   UNL     1      -1.927   7.551   5.854  1.00  0.00     0.001 A 
ENDBRANCH  17  20
ENDBRANCH  12  13
ENDBRANCH  11  12
ENDBRANCH   6  11
ENDBRANCH   3   6
ENDBRANCH   1   2
BRANCH   1  30
ATOM     30  C   UNL     1      -1.048  -2.738   1.769  1.00  0.00     0.023 C 
BRANCH  30  31
ATOM     31  C   UNL     1      -2.565  -2.793   1.925  1.00  0.00     0.023 C 
BRANCH  31  32
ATOM     32  C   UNL     1      -3.207  -4.058   1.388  1.00  0.00     0.116 C 
BRANCH  32  33
ATOM     33  N   UNL     1      -2.679  -5.251   2.026  1.00  0.00    -0.352 N 
ATOM     34  C   UNL     1      -3.327  -6.192   2.784  1.00  0.00     0.251 C 
ATOM     35  H   UNL     1      -1.715  -5.406   1.896  1.00  0.00     0.163 HD
ATOM     36  O   UNL     1      -2.683  -7.010   3.432  1.00  0.00    -0.269 OA
BRANCH  34  37
ATOM     37  C   UNL     1      -4.803  -6.210   2.822  1.00  0.00     0.039 A 
ATOM     38  C   UNL     1      -5.449  -6.431   4.040  1.00  0.00     0.014 A 
ATOM     39  C   UNL     1      -5.546  -6.015   1.655  1.00  0.00     0.014 A 
ATOM     40  C   UNL     1      -6.843  -6.408   4.093  1.00  0.00     0.010 A 
ATOM     41  C   UNL     1      -6.926  -5.889   1.728  1.00  0.00     0.010 A 
ATOM     42  C   UNL     1      -7.590  -6.107   2.943  1.00  0.00    -0.014 A 
BRANCH  42  43
ATOM     43  C   UNL     1      -9.072  -6.050   2.974  1.00  0.00     0.031 A 
ATOM     44  C   UNL     1      -9.873  -7.010   2.136  1.00  0.00     0.074 A 
ATOM     45  C   UNL     1      -9.689  -5.099   3.700  1.00  0.00     0.049 A 
ATOM     46  N   UNL     1     -11.170  -7.079   1.972  1.00  0.00    -0.248 NA
ATOM     47  C   UNL     1      -9.117  -8.002   1.353  1.00  0.00     0.031 C 
ATOM     48  C   UNL     1      -9.020  -4.085   4.519  1.00  0.00     0.029 A 
ATOM     49  N   UNL     1     -11.024  -4.828   3.863  1.00  0.00    -0.354 N 
ATOM     50  C   UNL     1     -11.378  -8.098   1.051  1.00  0.00     0.074 A 
ATOM     51  C   UNL     1     -10.077  -8.580   0.648  1.00  0.00     0.031 C 
ATOM     52  C   UNL     1      -9.948  -3.328   5.126  1.00  0.00     0.029 A 
ATOM     53  C   UNL     1     -11.272  -3.772   4.706  1.00  0.00     0.049 A 
ATOM     54  H   UNL     1     -11.736  -5.342   3.418  1.00  0.00     0.167 HD
ATOM     55  C   UNL     1     -12.549  -8.603   0.597  1.00  0.00     0.031 A 
ATOM     56  C   UNL     1     -12.439  -3.224   5.094  1.00  0.00     0.031 A 
ATOM     57  C   UNL     1     -13.841  -8.136   1.019  1.00  0.00     0.049 A 
ATOM     58  C   UNL     1     -13.725  -3.802   4.573  1.00  0.00     0.074 A 
ATOM     59  C   UNL     1     -15.089  -8.624   0.674  1.00  0.00     0.029 A 
ATOM     60  N   UNL     1     -14.050  -7.071   1.882  1.00  0.00    -0.354 N 
ATOM     61  N   UNL     1     -13.907  -4.814   3.759  1.00  0.00    -0.248 NA
ATOM     62  C   UNL     1     -14.967  -3.167   5.034  1.00  0.00     0.031 C 
ATOM     63  C   UNL     1     -16.055  -7.819   1.286  1.00  0.00     0.029 A 
ATOM     64  C   UNL     1     -15.407  -6.869   2.060  1.00  0.00     0.049 A 
ATOM     65  H   UNL     1     -13.338  -6.538   2.304  1.00  0.00     0.167 HD
ATOM     66  C   UNL     1     -15.283  -4.957   3.636  1.00  0.00     0.074 A 
ATOM     67  C   UNL     1     -15.886  -3.939   4.471  1.00  0.00     0.031 C 
ATOM     68  C   UNL     1     -15.986  -5.851   2.898  1.00  0.00     0.031 A 
BRANCH  55  69
ATOM     69  C   UNL     1     -12.481  -9.716  -0.413  1.00  0.00    -0.014 A 
ATOM     70  C   UNL     1     -12.013 -10.993  -0.063  1.00  0.00     0.009 A 
ATOM     71  C   UNL     1     -12.918  -9.492  -1.728  1.00  0.00     0.009 A 
ATOM     72  C   UNL     1     -11.946 -12.010  -1.018  1.00  0.00     0.001 A 
ATOM     73  C   UNL     1     -12.880 -10.519  -2.673  1.00  0.00     0.001 A 
ATOM     74  C   UNL     1     -12.385 -11.774  -2.320  1.00  0.00     0.000 A 
ENDBRANCH  55  69
BRANCH  56  75
ATOM     75  C   UNL     1     -12.448  -2.079   6.043  1.00  0.00    -0.014 A 
ATOM     76  C   UNL     1     -12.924  -2.246   7.353  1.00  0.00     0.009 A 
ATOM     77  C   UNL     1     -11.991  -0.813   5.645  1.00  0.00     0.009 A 
ATOM     78  C   UNL     1     -12.971  -1.163   8.234  1.00  0.00     0.001 A 
ATOM     79  C   UNL     1     -12.010   0.261   6.538  1.00  0.00     0.001 A 
ATOM     80  C   UNL     1     -12.510   0.088   7.827  1.00  0.00     0.000 A 
ENDBRANCH  56  75
BRANCH  68  81
ATOM     81  C   UNL     1     -17.484  -5.793   2.993  1.00  0.00    -0.014 A 
ATOM     82  C   UNL     1     -18.213  -4.746   2.409  1.00  0.00     0.009 A 
ATOM     83  C   UNL     1     -18.176  -6.828   3.642  1.00  0.00     0.009 A 
ATOM     84  C   UNL     1     -19.606  -4.720   2.504  1.00  0.00     0.001 A 
ATOM     85  C   UNL     1     -19.570  -6.816   3.707  1.00  0.00     0.001 A 
ATOM     86  C   UNL     1     -20.282  -5.757   3.147  1.00  0.00     0.000 A 
ENDBRANCH  68  81
ENDBRANCH  42  43
ENDBRANCH  34  37
ENDBRANCH  32  33
ENDBRANCH  31  32
ENDBRANCH  30  31
ENDBRANCH   1  30
TORSDOF 16
