REMARK SMILES O=C(NCCCCNC(=O)[C@@H](c1ccccc1)N1C(=O)/C(=C\c2ccc(-c3ccc(F)cc3)o2)SC1=S)c1ccc(-c2c3nc(c(-c4ccccc4)c4ccc([nH]4)c(-c4ccccc4)c4nc(c(-c5ccccc5)c5ccc2[nH]5)C=C4)C=C3)cc1
REMARK SMILES IDX 6 1 5 2 4 3 3 4 1 5 2 6 38 8 39 9 85 10 40 11 84 12 41 13
REMARK SMILES IDX 42 14 43 15 78 16 44 17 83 18 77 19 79 20 45 21 82 22 76 23
REMARK SMILES IDX 75 24 46 26 68 27 53 28 67 29 54 30 57 31 66 32 80 33 55 34
REMARK SMILES IDX 56 35 65 37 81 38 58 39 47 40 48 41 52 42 49 43 51 44 50 45
REMARK SMILES IDX 69 46 70 47 74 48 71 49 73 50 72 51 59 52 60 53 64 54 61 55
REMARK SMILES IDX 63 56 62 57 7 58 8 59 9 60 10 62 11 63 12 64 13 65 17 66
REMARK SMILES IDX 14 67 16 68 15 69 18 70 19 71 36 72 20 73 21 74 35 75 37 76
REMARK SMILES IDX 22 77 23 78 24 79 34 80 25 81 26 82 27 83 28 84 33 85 29 86
REMARK SMILES IDX 32 87 30 88 31 89
REMARK H PARENT 3 7 79 25 57 36 8 61
REMARK Flexibility Score: inf
ROOT
ATOM      1  C   UNL     1       4.784   0.599  -3.809  1.00  0.00     0.023 C 
ENDROOT
BRANCH   1   2
ATOM      2  C   UNL     1       5.260  -0.281  -2.668  1.00  0.00     0.023 C 
BRANCH   2   3
ATOM      3  C   UNL     1       4.724   0.080  -1.294  1.00  0.00     0.116 C 
BRANCH   3   4
ATOM      4  N   UNL     1       3.271   0.116  -1.191  1.00  0.00    -0.352 N 
ATOM      5  O   UNL     1       1.248  -0.305  -0.247  1.00  0.00    -0.269 OA
ATOM      6  C   UNL     1       2.465  -0.411  -0.203  1.00  0.00     0.251 C 
ATOM      7  H   UNL     1       2.802   0.577  -1.923  1.00  0.00     0.163 HD
BRANCH   6   8
ATOM      8  C   UNL     1       3.100  -1.145   0.909  1.00  0.00     0.039 A 
ATOM      9  C   UNL     1       4.190  -0.588   1.575  1.00  0.00     0.014 A 
ATOM     10  C   UNL     1       2.671  -2.442   1.204  1.00  0.00     0.014 A 
ATOM     11  C   UNL     1       4.985  -1.404   2.364  1.00  0.00     0.010 A 
ATOM     12  C   UNL     1       3.409  -3.224   2.096  1.00  0.00     0.010 A 
ATOM     13  C   UNL     1       4.607  -2.732   2.634  1.00  0.00    -0.014 A 
BRANCH  13  14
ATOM     14  C   UNL     1       5.490  -3.559   3.495  1.00  0.00     0.031 A 
ATOM     15  C   UNL     1       6.174  -4.791   2.966  1.00  0.00     0.074 A 
ATOM     16  C   UNL     1       5.742  -3.128   4.746  1.00  0.00     0.049 A 
ATOM     17  N   UNL     1       7.028  -5.578   3.573  1.00  0.00    -0.248 NA
ATOM     18  C   UNL     1       5.860  -5.203   1.588  1.00  0.00     0.031 C 
ATOM     19  C   UNL     1       5.136  -1.947   5.367  1.00  0.00     0.029 A 
ATOM     20  N   UNL     1       6.606  -3.598   5.699  1.00  0.00    -0.354 N 
ATOM     21  C   UNL     1       7.330  -6.587   2.667  1.00  0.00     0.074 A 
ATOM     22  C   UNL     1       6.558  -6.325   1.472  1.00  0.00     0.031 C 
ATOM     23  C   UNL     1       5.706  -1.737   6.561  1.00  0.00     0.029 A 
ATOM     24  C   UNL     1       6.660  -2.807   6.821  1.00  0.00     0.049 A 
ATOM     25  H   UNL     1       7.136  -4.420   5.591  1.00  0.00     0.167 HD
ATOM     26  C   UNL     1       8.175  -7.636   2.817  1.00  0.00     0.031 A 
ATOM     27  C   UNL     1       7.391  -2.930   7.943  1.00  0.00     0.031 A 
ATOM     28  C   UNL     1       8.952  -7.889   4.003  1.00  0.00     0.049 A 
ATOM     29  C   UNL     1       8.326  -4.091   8.075  1.00  0.00     0.074 A 
ATOM     30  C   UNL     1       9.831  -8.928   4.256  1.00  0.00     0.029 A 
ATOM     31  N   UNL     1       8.949  -7.086   5.133  1.00  0.00    -0.354 N 
ATOM     32  N   UNL     1       8.584  -5.042   7.211  1.00  0.00    -0.248 NA
ATOM     33  C   UNL     1       9.066  -4.199   9.339  1.00  0.00     0.031 C 
ATOM     34  C   UNL     1      10.337  -8.771   5.551  1.00  0.00     0.029 A 
ATOM     35  C   UNL     1       9.805  -7.610   6.088  1.00  0.00     0.049 A 
ATOM     36  H   UNL     1       8.417  -6.264   5.241  1.00  0.00     0.167 HD
ATOM     37  C   UNL     1       9.509  -5.869   7.830  1.00  0.00     0.074 A 
ATOM     38  C   UNL     1       9.797  -5.283   9.124  1.00  0.00     0.031 C 
ATOM     39  C   UNL     1      10.060  -7.020   7.375  1.00  0.00     0.031 A 
BRANCH  26  40
ATOM     40  C   UNL     1       8.289  -8.610   1.677  1.00  0.00    -0.014 A 
ATOM     41  C   UNL     1       9.006  -8.288   0.514  1.00  0.00     0.009 A 
ATOM     42  C   UNL     1       7.720  -9.888   1.792  1.00  0.00     0.009 A 
ATOM     43  C   UNL     1       9.130  -9.220  -0.520  1.00  0.00     0.001 A 
ATOM     44  C   UNL     1       7.864 -10.825   0.767  1.00  0.00     0.001 A 
ATOM     45  C   UNL     1       8.565 -10.489  -0.390  1.00  0.00     0.000 A 
ENDBRANCH  26  40
BRANCH  27  46
ATOM     46  C   UNL     1       7.237  -1.932   9.031  1.00  0.00    -0.014 A 
ATOM     47  C   UNL     1       8.260  -1.018   9.316  1.00  0.00     0.009 A 
ATOM     48  C   UNL     1       6.044  -1.873   9.770  1.00  0.00     0.009 A 
ATOM     49  C   UNL     1       8.097  -0.072  10.331  1.00  0.00     0.001 A 
ATOM     50  C   UNL     1       5.872  -0.908  10.762  1.00  0.00     0.001 A 
ATOM     51  C   UNL     1       6.902  -0.014  11.048  1.00  0.00     0.000 A 
ENDBRANCH  27  46
BRANCH  39  52
ATOM     52  C   UNL     1      11.024  -7.708   8.295  1.00  0.00    -0.014 A 
ATOM     53  C   UNL     1      10.567  -8.405   9.425  1.00  0.00     0.009 A 
ATOM     54  C   UNL     1      12.401  -7.657   8.032  1.00  0.00     0.009 A 
ATOM     55  C   UNL     1      11.476  -9.005  10.297  1.00  0.00     0.001 A 
ATOM     56  C   UNL     1      13.305  -8.278   8.894  1.00  0.00     0.001 A 
ATOM     57  C   UNL     1      12.843  -8.941  10.031  1.00  0.00     0.000 A 
ENDBRANCH  39  52
ENDBRANCH  13  14
ENDBRANCH   6   8
ENDBRANCH   3   4
ENDBRANCH   2   3
ENDBRANCH   1   2
BRANCH   1  58
ATOM     58  C   UNL     1       4.866   2.096  -3.563  1.00  0.00     0.116 C 
BRANCH  58  59
ATOM     59  N   UNL     1       6.213   2.619  -3.426  1.00  0.00    -0.354 N 
ATOM     60  C   UNL     1       6.787   3.706  -4.027  1.00  0.00     0.247 C 
ATOM     61  H   UNL     1       6.798   2.118  -2.812  1.00  0.00     0.163 HD
ATOM     62  O   UNL     1       7.862   4.087  -3.545  1.00  0.00    -0.272 OA
BRANCH  60  63
ATOM     63  C   UNL     1       6.100   4.527  -5.157  1.00  0.00     0.211 C 
BRANCH  63  64
ATOM     64  C   UNL     1       5.434   3.720  -6.269  1.00  0.00    -0.016 A 
ATOM     65  C   UNL     1       4.295   4.170  -6.950  1.00  0.00     0.006 A 
ATOM     66  C   UNL     1       5.987   2.482  -6.662  1.00  0.00     0.006 A 
ATOM     67  C   UNL     1       3.656   3.355  -7.889  1.00  0.00     0.000 A 
ATOM     68  C   UNL     1       5.342   1.664  -7.591  1.00  0.00     0.000 A 
ATOM     69  C   UNL     1       4.165   2.094  -8.191  1.00  0.00     0.000 A 
ENDBRANCH  63  64
BRANCH  63  70
ATOM     70  N   UNL     1       5.345   5.627  -4.499  1.00  0.00    -0.276 N 
ATOM     71  C   UNL     1       4.133   5.390  -3.876  1.00  0.00     0.267 C 
ATOM     72  C   UNL     1       5.828   6.917  -4.367  1.00  0.00     0.149 C 
ATOM     73  O   UNL     1       3.394   4.433  -4.040  1.00  0.00    -0.268 OA
ATOM     74  C   UNL     1       3.749   6.526  -3.004  1.00  0.00     0.084 C 
ATOM     75  S   UNL     1       4.701   7.893  -3.417  1.00  0.00    -0.054 SA
ATOM     76  S   UNL     1       7.234   7.584  -4.969  1.00  0.00    -0.052 S 
ATOM     77  C   UNL     1       2.873   6.498  -1.990  1.00  0.00     0.068 C 
BRANCH  77  78
ATOM     78  C   UNL     1       2.314   5.289  -1.488  1.00  0.00     0.128 A 
ATOM     79  C   UNL     1       2.904   4.383  -0.614  1.00  0.00     0.051 A 
ATOM     80  O   UNL     1       1.037   4.845  -1.754  1.00  0.00    -0.457 OA
ATOM     81  C   UNL     1       1.955   3.379  -0.326  1.00  0.00     0.051 A 
ATOM     82  C   UNL     1       0.826   3.692  -1.049  1.00  0.00     0.134 A 
BRANCH  82  83
ATOM     83  C   UNL     1      -0.489   3.071  -1.157  1.00  0.00     0.017 A 
ATOM     84  C   UNL     1      -1.221   3.110  -2.352  1.00  0.00     0.015 A 
ATOM     85  C   UNL     1      -1.033   2.387  -0.055  1.00  0.00     0.015 A 
ATOM     86  C   UNL     1      -2.467   2.479  -2.443  1.00  0.00     0.040 A 
ATOM     87  C   UNL     1      -2.282   1.767  -0.142  1.00  0.00     0.040 A 
ATOM     88  C   UNL     1      -2.986   1.817  -1.336  1.00  0.00     0.123 A 
ATOM     89  F   UNL     1      -4.180   1.216  -1.424  1.00  0.00    -0.207 F 
ENDBRANCH  82  83
ENDBRANCH  77  78
ENDBRANCH  63  70
ENDBRANCH  60  63
ENDBRANCH  58  59
ENDBRANCH   1  58
TORSDOF 15
