REMARK SMILES CC[C@H](NC(=O)Cc1c(C)c2cc(Cl)c(OC)cc2oc1=O)C(=O)NCCCCNC(=O)c1ccc(-c2c3nc(c(-c4ccccc4)c4ccc([nH]4)c(-c4ccccc4)c4nc(c(-c5ccccc5)c5ccc2[nH]5)C=C4)C=C3)cc1
REMARK SMILES IDX 26 1 25 2 23 3 24 4 3 6 2 7 1 8 4 9 5 10 6 12 7 13 8 14 9 15
REMARK SMILES IDX 21 16 10 17 11 18 20 19 22 20 12 21 19 22 13 23 18 24 14 25
REMARK SMILES IDX 15 26 16 27 17 28 27 29 28 30 29 31 30 32 31 33 32 35 33 36
REMARK SMILES IDX 34 37 80 38 35 39 79 40 36 41 37 42 38 43 73 44 39 45 78 46
REMARK SMILES IDX 72 47 74 48 40 49 77 50 71 51 70 52 41 54 63 55 48 56 62 57
REMARK SMILES IDX 49 58 52 59 61 60 75 61 50 62 51 63 60 65 76 66 53 67 42 68
REMARK SMILES IDX 43 69 47 70 44 71 46 72 45 73 64 74 65 75 69 76 66 77 68 78
REMARK SMILES IDX 67 79 54 80 55 81 59 82 56 83 58 84 57 85
REMARK H PARENT 25 5 4 11 30 34 74 53 52 64
REMARK Flexibility Score: inf
ROOT
ATOM      1  C   UNL     1      -2.370   1.082   2.346  1.00  0.00     0.116 C 
ENDROOT
BRANCH   1   2
ATOM      2  N   UNL     1      -1.522   1.529   3.431  1.00  0.00    -0.354 N 
ATOM      3  C   UNL     1      -0.204   1.877   3.406  1.00  0.00     0.242 C 
ATOM      4  O   UNL     1       0.189   2.609   4.316  1.00  0.00    -0.273 OA
ATOM      5  H   UNL     1      -1.959   1.591   4.311  1.00  0.00     0.163 HD
BRANCH   3   6
ATOM      6  C   UNL     1       0.683   1.527   2.193  1.00  0.00     0.171 C 
BRANCH   6   7
ATOM      7  C   UNL     1       0.451   2.623   1.122  1.00  0.00     0.031 C 
ATOM      8  C   UNL     1       0.460   2.185  -0.334  1.00  0.00     0.006 C 
ENDBRANCH   6   7
BRANCH   6   9
ATOM      9  N   UNL     1       0.503   0.145   1.724  1.00  0.00    -0.344 N 
ATOM     10  C   UNL     1       0.894  -1.026   2.307  1.00  0.00     0.225 C 
ATOM     11  H   UNL     1       0.032   0.051   0.865  1.00  0.00     0.164 HD
ATOM     12  O   UNL     1       0.882  -2.040   1.603  1.00  0.00    -0.275 OA
BRANCH  10  13
ATOM     13  C   UNL     1       1.294  -1.105   3.774  1.00  0.00     0.143 C 
BRANCH  13  14
ATOM     14  C   UNL     1       2.790  -1.115   3.931  1.00  0.00     0.051 A 
ATOM     15  C   UNL     1       3.614  -2.181   4.048  1.00  0.00    -0.029 A 
ATOM     16  C   UNL     1       3.387   0.236   4.086  1.00  0.00     0.340 A 
ATOM     17  C   UNL     1       3.176  -3.617   3.989  1.00  0.00     0.046 C 
ATOM     18  C   UNL     1       5.050  -1.894   4.264  1.00  0.00     0.023 A 
ATOM     19  O   UNL     1       4.629   0.382   3.522  1.00  0.00    -0.422 OA
ATOM     20  O   UNL     1       2.773   1.179   4.561  1.00  0.00    -0.246 OA
ATOM     21  C   UNL     1       5.987  -2.805   4.756  1.00  0.00     0.036 A 
ATOM     22  C   UNL     1       5.501  -0.604   3.974  1.00  0.00     0.142 A 
ATOM     23  C   UNL     1       7.317  -2.405   4.979  1.00  0.00     0.083 A 
ATOM     24  C   UNL     1       6.822  -0.202   4.157  1.00  0.00     0.095 A 
ATOM     25  Cl  UNL     1       8.407  -3.571   5.647  1.00  0.00    -0.080 Cl
ATOM     26  C   UNL     1       7.740  -1.094   4.701  1.00  0.00     0.141 A 
BRANCH  26  27
ATOM     27  O   UNL     1       9.041  -0.764   4.980  1.00  0.00    -0.495 OA
ATOM     28  C   UNL     1       9.336   0.628   5.075  1.00  0.00     0.278 C 
ENDBRANCH  26  27
ENDBRANCH  13  14
ENDBRANCH  10  13
ENDBRANCH   6   9
ENDBRANCH   3   6
ENDBRANCH   1   2
BRANCH   1  29
ATOM     29  C   UNL     1      -2.926  -0.321   2.552  1.00  0.00     0.023 C 
BRANCH  29  30
ATOM     30  C   UNL     1      -3.666  -0.553   3.868  1.00  0.00     0.023 C 
BRANCH  30  31
ATOM     31  C   UNL     1      -4.644   0.534   4.292  1.00  0.00     0.116 C 
BRANCH  31  32
ATOM     32  N   UNL     1      -5.661   0.853   3.303  1.00  0.00    -0.352 N 
ATOM     33  C   UNL     1      -6.967   1.231   3.523  1.00  0.00     0.251 C 
ATOM     34  H   UNL     1      -5.382   0.791   2.361  1.00  0.00     0.163 HD
ATOM     35  O   UNL     1      -7.724   1.453   2.586  1.00  0.00    -0.269 OA
BRANCH  33  36
ATOM     36  C   UNL     1      -7.461   1.296   4.914  1.00  0.00     0.039 A 
ATOM     37  C   UNL     1      -6.754   2.007   5.886  1.00  0.00     0.014 A 
ATOM     38  C   UNL     1      -8.581   0.538   5.263  1.00  0.00     0.014 A 
ATOM     39  C   UNL     1      -7.057   1.810   7.228  1.00  0.00     0.010 A 
ATOM     40  C   UNL     1      -8.934   0.408   6.608  1.00  0.00     0.010 A 
ATOM     41  C   UNL     1      -8.137   0.992   7.604  1.00  0.00    -0.014 A 
BRANCH  41  42
ATOM     42  C   UNL     1      -8.395   0.745   9.046  1.00  0.00     0.031 A 
ATOM     43  C   UNL     1      -8.220  -0.629   9.637  1.00  0.00     0.074 A 
ATOM     44  C   UNL     1      -8.719   1.782   9.840  1.00  0.00     0.049 A 
ATOM     45  N   UNL     1      -8.353  -1.010  10.883  1.00  0.00    -0.248 NA
ATOM     46  C   UNL     1      -7.850  -1.718   8.717  1.00  0.00     0.031 C 
ATOM     47  C   UNL     1      -8.894   3.164   9.388  1.00  0.00     0.029 A 
ATOM     48  N   UNL     1      -8.919   1.846  11.195  1.00  0.00    -0.354 N 
ATOM     49  C   UNL     1      -8.104  -2.377  10.894  1.00  0.00     0.074 A 
ATOM     50  C   UNL     1      -7.834  -2.768   9.528  1.00  0.00     0.031 C 
ATOM     51  C   UNL     1      -9.107   3.949  10.454  1.00  0.00     0.029 A 
ATOM     52  C   UNL     1      -9.146   3.120  11.655  1.00  0.00     0.049 A 
ATOM     53  H   UNL     1      -8.902   1.055  11.781  1.00  0.00     0.167 HD
ATOM     54  C   UNL     1      -8.092  -3.227  11.948  1.00  0.00     0.031 A 
ATOM     55  C   UNL     1      -9.362   3.576  12.902  1.00  0.00     0.031 A 
ATOM     56  C   UNL     1      -8.346  -2.837  13.310  1.00  0.00     0.049 A 
ATOM     57  C   UNL     1      -9.374   2.609  14.048  1.00  0.00     0.074 A 
ATOM     58  C   UNL     1      -8.347  -3.630  14.444  1.00  0.00     0.029 A 
ATOM     59  N   UNL     1      -8.636  -1.546  13.722  1.00  0.00    -0.354 N 
ATOM     60  N   UNL     1      -9.145   1.319  14.037  1.00  0.00    -0.248 NA
ATOM     61  C   UNL     1      -9.678   3.158  15.377  1.00  0.00     0.031 C 
ATOM     62  C   UNL     1      -8.684  -2.827  15.538  1.00  0.00     0.029 A 
ATOM     63  C   UNL     1      -8.836  -1.524  15.092  1.00  0.00     0.049 A 
ATOM     64  H   UNL     1      -8.692  -0.762  13.129  1.00  0.00     0.167 HD
ATOM     65  C   UNL     1      -9.268   0.901  15.354  1.00  0.00     0.074 A 
ATOM     66  C   UNL     1      -9.571   2.079  16.142  1.00  0.00     0.031 C 
ATOM     67  C   UNL     1      -9.145  -0.348  15.862  1.00  0.00     0.031 A 
BRANCH  54  68
ATOM     68  C   UNL     1      -7.806  -4.679  11.681  1.00  0.00    -0.014 A 
ATOM     69  C   UNL     1      -8.834  -5.627  11.814  1.00  0.00     0.009 A 
ATOM     70  C   UNL     1      -6.507  -5.122  11.387  1.00  0.00     0.009 A 
ATOM     71  C   UNL     1      -8.565  -6.989  11.669  1.00  0.00     0.001 A 
ATOM     72  C   UNL     1      -6.247  -6.484  11.218  1.00  0.00     0.001 A 
ATOM     73  C   UNL     1      -7.273  -7.416  11.367  1.00  0.00     0.000 A 
ENDBRANCH  54  68
BRANCH  55  74
ATOM     74  C   UNL     1      -9.570   5.031  13.116  1.00  0.00    -0.014 A 
ATOM     75  C   UNL     1     -10.737   5.661  12.654  1.00  0.00     0.009 A 
ATOM     76  C   UNL     1      -8.576   5.807  13.729  1.00  0.00     0.009 A 
ATOM     77  C   UNL     1     -10.893   7.042  12.776  1.00  0.00     0.001 A 
ATOM     78  C   UNL     1      -8.748   7.186  13.876  1.00  0.00     0.001 A 
ATOM     79  C   UNL     1      -9.900   7.803  13.390  1.00  0.00     0.000 A 
ENDBRANCH  55  74
BRANCH  67  80
ATOM     80  C   UNL     1      -9.329  -0.519  17.343  1.00  0.00    -0.014 A 
ATOM     81  C   UNL     1      -8.221  -0.815  18.153  1.00  0.00     0.009 A 
ATOM     82  C   UNL     1     -10.606  -0.473  17.921  1.00  0.00     0.009 A 
ATOM     83  C   UNL     1      -8.390  -1.071  19.515  1.00  0.00     0.001 A 
ATOM     84  C   UNL     1     -10.768  -0.705  19.288  1.00  0.00     0.001 A 
ATOM     85  C   UNL     1      -9.662  -1.011  20.082  1.00  0.00     0.000 A 
ENDBRANCH  67  80
ENDBRANCH  41  42
ENDBRANCH  33  36
ENDBRANCH  31  32
ENDBRANCH  30  31
ENDBRANCH  29  30
ENDBRANCH   1  29
TORSDOF 16
