REMARK SMILES O=C(NCCCCNC(=O)[C@@H]1CCCC[C@H]1C(=O)Nc1cccc(-c2nnc(-c3ccccc3)o2)c1)c1ccc(-c2c3nc(c(-c4ccccc4)c4ccc([nH]4)c(-c4ccccc4)c4nc(c(-c5ccccc5)c5ccc2[nH]5)C=C4)C=C3)cc1
REMARK SMILES IDX 6 1 5 2 4 3 3 4 1 5 2 6 37 8 38 9 84 10 39 11 83 12 40 13
REMARK SMILES IDX 41 14 42 15 77 16 43 17 82 18 76 19 78 20 44 21 81 22 75 23
REMARK SMILES IDX 74 24 45 26 67 27 52 28 66 29 53 30 56 31 65 32 79 33 54 34
REMARK SMILES IDX 55 35 64 37 80 38 57 39 46 40 47 41 51 42 48 43 50 44 49 45
REMARK SMILES IDX 68 46 69 47 73 48 70 49 72 50 71 51 58 52 59 53 63 54 60 55
REMARK SMILES IDX 62 56 61 57 7 58 8 59 9 60 10 62 11 63 12 64 16 65 13 66
REMARK SMILES IDX 15 67 14 68 17 69 18 70 19 71 20 73 21 74 36 75 22 76 24 77
REMARK SMILES IDX 23 78 25 79 26 80 35 81 27 82 28 83 29 84 30 85 34 86 31 87
REMARK SMILES IDX 33 88 32 89
REMARK H PARENT 3 7 78 25 56 36 8 61 19 72
REMARK Flexibility Score: inf
ROOT
ATOM      1  C   UNL     1       4.168  -3.502  -1.319  1.00  0.00     0.023 C 
ENDROOT
BRANCH   1   2
ATOM      2  C   UNL     1       4.620  -2.717  -0.085  1.00  0.00     0.023 C 
BRANCH   2   3
ATOM      3  C   UNL     1       4.329  -1.224  -0.131  1.00  0.00     0.116 C 
BRANCH   3   4
ATOM      4  N   UNL     1       2.945  -0.907  -0.452  1.00  0.00    -0.352 N 
ATOM      5  O   UNL     1       1.036   0.309  -0.364  1.00  0.00    -0.269 OA
ATOM      6  C   UNL     1       2.221   0.198  -0.073  1.00  0.00     0.251 C 
ATOM      7  H   UNL     1       2.468  -1.565  -1.007  1.00  0.00     0.163 HD
BRANCH   6   8
ATOM      8  C   UNL     1       2.895   1.229   0.736  1.00  0.00     0.039 A 
ATOM      9  C   UNL     1       4.112   1.764   0.311  1.00  0.00     0.014 A 
ATOM     10  C   UNL     1       2.346   1.588   1.969  1.00  0.00     0.014 A 
ATOM     11  C   UNL     1       4.858   2.537   1.188  1.00  0.00     0.010 A 
ATOM     12  C   UNL     1       3.064   2.432   2.818  1.00  0.00     0.010 A 
ATOM     13  C   UNL     1       4.345   2.873   2.453  1.00  0.00    -0.014 A 
BRANCH  13  14
ATOM     14  C   UNL     1       5.171   3.698   3.366  1.00  0.00     0.031 A 
ATOM     15  C   UNL     1       5.706   3.132   4.652  1.00  0.00     0.074 A 
ATOM     16  C   UNL     1       5.483   4.954   2.995  1.00  0.00     0.049 A 
ATOM     17  N   UNL     1       6.491   3.699   5.535  1.00  0.00    -0.248 NA
ATOM     18  C   UNL     1       5.308   1.759   5.000  1.00  0.00     0.031 C 
ATOM     19  C   UNL     1       5.023   5.609   1.768  1.00  0.00     0.029 A 
ATOM     20  N   UNL     1       6.287   5.889   3.592  1.00  0.00    -0.354 N 
ATOM     21  C   UNL     1       6.654   2.768   6.553  1.00  0.00     0.074 A 
ATOM     22  C   UNL     1       5.877   1.603   6.188  1.00  0.00     0.031 C 
ATOM     23  C   UNL     1       5.605   6.813   1.671  1.00  0.00     0.029 A 
ATOM     24  C   UNL     1       6.429   7.037   2.853  1.00  0.00     0.049 A 
ATOM     25  H   UNL     1       6.720   5.751   4.465  1.00  0.00     0.167 HD
ATOM     26  C   UNL     1       7.385   2.874   7.689  1.00  0.00     0.031 A 
ATOM     27  C   UNL     1       7.144   8.149   3.097  1.00  0.00     0.031 A 
ATOM     28  C   UNL     1       8.173   4.026   8.041  1.00  0.00     0.049 A 
ATOM     29  C   UNL     1       7.948   8.237   4.359  1.00  0.00     0.074 A 
ATOM     30  C   UNL     1       8.972   4.217   9.156  1.00  0.00     0.029 A 
ATOM     31  N   UNL     1       8.264   5.182   7.282  1.00  0.00    -0.354 N 
ATOM     32  N   UNL     1       8.105   7.339   5.301  1.00  0.00    -0.248 NA
ATOM     33  C   UNL     1       8.675   9.492   4.589  1.00  0.00     0.031 C 
ATOM     34  C   UNL     1       9.517   5.504   9.089  1.00  0.00     0.029 A 
ATOM     35  C   UNL     1       9.092   6.097   7.911  1.00  0.00     0.049 A 
ATOM     36  H   UNL     1       7.806   5.332   6.423  1.00  0.00     0.167 HD
ATOM     37  C   UNL     1       8.960   7.914   6.229  1.00  0.00     0.074 A 
ATOM     38  C   UNL     1       9.304   9.229   5.726  1.00  0.00     0.031 C 
ATOM     39  C   UNL     1       9.419   7.400   7.396  1.00  0.00     0.031 A 
BRANCH  26  40
ATOM     40  C   UNL     1       7.342   1.722   8.653  1.00  0.00    -0.014 A 
ATOM     41  C   UNL     1       8.019   0.522   8.391  1.00  0.00     0.009 A 
ATOM     42  C   UNL     1       6.645   1.859   9.864  1.00  0.00     0.009 A 
ATOM     43  C   UNL     1       7.974  -0.530   9.311  1.00  0.00     0.001 A 
ATOM     44  C   UNL     1       6.621   0.815  10.791  1.00  0.00     0.001 A 
ATOM     45  C   UNL     1       7.280  -0.381  10.511  1.00  0.00     0.000 A 
ENDBRANCH  26  40
BRANCH  27  46
ATOM     46  C   UNL     1       7.133   9.260   2.115  1.00  0.00    -0.014 A 
ATOM     47  C   UNL     1       8.266   9.530   1.333  1.00  0.00     0.009 A 
ATOM     48  C   UNL     1       5.980  10.041   1.937  1.00  0.00     0.009 A 
ATOM     49  C   UNL     1       8.249  10.571   0.403  1.00  0.00     0.001 A 
ATOM     50  C   UNL     1       5.958  11.064   0.988  1.00  0.00     0.001 A 
ATOM     51  C   UNL     1       7.095  11.332   0.227  1.00  0.00     0.000 A 
ENDBRANCH  27  46
BRANCH  39  52
ATOM     52  C   UNL     1      10.364   8.257   8.186  1.00  0.00    -0.014 A 
ATOM     53  C   UNL     1       9.907   9.374   8.902  1.00  0.00     0.009 A 
ATOM     54  C   UNL     1      11.729   7.933   8.222  1.00  0.00     0.009 A 
ATOM     55  C   UNL     1      10.807  10.172   9.610  1.00  0.00     0.001 A 
ATOM     56  C   UNL     1      12.622   8.719   8.951  1.00  0.00     0.001 A 
ATOM     57  C   UNL     1      12.162   9.843   9.636  1.00  0.00     0.000 A 
ENDBRANCH  39  52
ENDBRANCH  13  14
ENDBRANCH   6   8
ENDBRANCH   3   4
ENDBRANCH   2   3
ENDBRANCH   1   2
BRANCH   1  58
ATOM     58  C   UNL     1       4.755  -2.998  -2.638  1.00  0.00     0.116 C 
BRANCH  58  59
ATOM     59  N   UNL     1       6.134  -3.400  -2.772  1.00  0.00    -0.356 N 
ATOM     60  C   UNL     1       6.726  -4.536  -3.206  1.00  0.00     0.223 C 
ATOM     61  H   UNL     1       6.774  -2.707  -2.490  1.00  0.00     0.163 HD
ATOM     62  O   UNL     1       7.956  -4.531  -3.088  1.00  0.00    -0.275 OA
BRANCH  60  63
ATOM     63  C   UNL     1       6.005  -5.685  -3.942  1.00  0.00     0.091 C 
ATOM     64  C   UNL     1       4.568  -6.029  -3.522  1.00  0.00     0.014 C 
ATOM     65  C   UNL     1       6.905  -6.955  -3.910  1.00  0.00     0.091 C 
ATOM     66  C   UNL     1       3.997  -7.210  -4.301  1.00  0.00     0.001 C 
ATOM     67  C   UNL     1       6.260  -8.210  -4.530  1.00  0.00     0.014 C 
ATOM     68  C   UNL     1       4.834  -8.447  -4.056  1.00  0.00     0.001 C 
BRANCH  65  69
ATOM     69  C   UNL     1       8.376  -6.878  -4.398  1.00  0.00     0.228 C 
ATOM     70  O   UNL     1       9.279  -7.218  -3.620  1.00  0.00    -0.274 OA
ATOM     71  N   UNL     1       8.752  -6.675  -5.701  1.00  0.00    -0.326 N 
ATOM     72  H   UNL     1       9.719  -6.746  -5.870  1.00  0.00     0.169 HD
BRANCH  71  73
ATOM     73  C   UNL     1       7.978  -6.382  -6.824  1.00  0.00     0.041 A 
ATOM     74  C   UNL     1       7.978  -7.281  -7.890  1.00  0.00     0.026 A 
ATOM     75  C   UNL     1       7.184  -5.243  -6.881  1.00  0.00     0.040 A 
ATOM     76  C   UNL     1       7.050  -7.130  -8.920  1.00  0.00     0.003 A 
ATOM     77  C   UNL     1       6.179  -5.135  -7.848  1.00  0.00     0.041 A 
ATOM     78  C   UNL     1       6.120  -6.088  -8.872  1.00  0.00     0.014 A 
BRANCH  77  79
ATOM     79  C   UNL     1       5.081  -4.206  -7.646  1.00  0.00     0.248 A 
ATOM     80  N   UNL     1       3.800  -4.486  -7.526  1.00  0.00    -0.107 NA
ATOM     81  O   UNL     1       5.370  -2.892  -7.379  1.00  0.00    -0.416 OA
ATOM     82  N   UNL     1       3.183  -3.323  -7.128  1.00  0.00    -0.107 NA
ATOM     83  C   UNL     1       4.121  -2.400  -7.083  1.00  0.00     0.248 A 
BRANCH  83  84
ATOM     84  C   UNL     1       4.002  -0.992  -6.746  1.00  0.00     0.039 A 
ATOM     85  C   UNL     1       3.098  -0.590  -5.750  1.00  0.00     0.014 A 
ATOM     86  C   UNL     1       4.715  -0.012  -7.449  1.00  0.00     0.014 A 
ATOM     87  C   UNL     1       2.909   0.764  -5.464  1.00  0.00     0.001 A 
ATOM     88  C   UNL     1       4.510   1.343  -7.175  1.00  0.00     0.001 A 
ATOM     89  C   UNL     1       3.609   1.730  -6.184  1.00  0.00     0.000 A 
ENDBRANCH  83  84
ENDBRANCH  77  79
ENDBRANCH  71  73
ENDBRANCH  65  69
ENDBRANCH  60  63
ENDBRANCH  58  59
ENDBRANCH   1  58
TORSDOF 15
