REMARK SMILES COc1ccccc1[C@@H]1C[N@@H+](Cc2cn3cc(C)ccc3n2)C[C@H]1C(=O)NCCCCNC(=O)c1ccc(-c2c3nc(c(-c4ccccc4)c4ccc([nH]4)c(-c4ccccc4)c4nc(c(-c5ccccc5)c5ccc2[nH]5)C=C4)C=C3)cc1
REMARK SMILES IDX 29 1 28 2 27 3 25 4 26 5 24 7 9 8 10 9 11 10 23 11 8 13 3 14
REMARK SMILES IDX 4 15 5 16 7 17 6 18 2 19 1 20 12 21 13 22 14 23 22 24 15 25
REMARK SMILES IDX 21 26 16 27 20 28 17 29 19 30 18 31 30 32 31 33 32 34 33 35
REMARK SMILES IDX 34 37 35 38 36 39 82 40 37 41 81 42 38 43 39 44 40 45 75 46
REMARK SMILES IDX 41 47 80 48 74 49 76 50 42 51 79 52 73 53 72 54 43 56 65 57
REMARK SMILES IDX 50 58 64 59 51 60 54 61 63 62 77 63 52 64 53 65 62 67 78 68
REMARK SMILES IDX 55 69 44 70 45 71 49 72 46 73 48 74 47 75 66 76 67 77 71 78
REMARK SMILES IDX 68 79 70 80 69 81 56 82 57 83 61 84 58 85 60 86 59 87
REMARK H PARENT 27 6 11 12 32 36 76 55 54 66
REMARK Flexibility Score: inf
ROOT
ATOM      1  C   UNL     1       7.055   2.280  -1.761  1.00  0.00     0.023 C 
ENDROOT
BRANCH   1   2
ATOM      2  C   UNL     1       5.731   2.639  -1.048  1.00  0.00     0.116 C 
BRANCH   2   3
ATOM      3  N   UNL     1       4.489   2.516  -1.803  1.00  0.00    -0.356 N 
ATOM      4  C   UNL     1       3.335   1.796  -1.760  1.00  0.00     0.229 C 
ATOM      5  O   UNL     1       2.533   2.117  -2.656  1.00  0.00    -0.275 OA
ATOM      6  H   UNL     1       4.484   3.135  -2.568  1.00  0.00     0.163 HD
BRANCH   4   7
ATOM      7  C   UNL     1       2.878   0.713  -0.758  1.00  0.00     0.146 C 
ATOM      8  C   UNL     1       2.579  -0.675  -1.405  1.00  0.00     0.096 C 
ATOM      9  C   UNL     1       3.027  -1.709  -0.363  1.00  0.00     0.272 C 
ATOM     10  N   UNL     1       4.144  -1.066   0.342  1.00  0.00    -0.329 N 
ATOM     11  C   UNL     1       3.740   0.344   0.448  1.00  0.00     0.276 C 
ATOM     12  H   UNL     1       4.287  -1.479   1.264  1.00  0.00     0.348 HD
BRANCH   8  13
ATOM     13  C   UNL     1       1.355  -1.006  -2.234  1.00  0.00     0.004 A 
ATOM     14  C   UNL     1       0.097  -1.389  -1.766  1.00  0.00     0.122 A 
ATOM     15  C   UNL     1      -0.870  -1.878  -2.663  1.00  0.00     0.047 A 
ATOM     16  C   UNL     1      -0.603  -1.994  -4.029  1.00  0.00     0.004 A 
ATOM     17  C   UNL     1       1.582  -1.108  -3.634  1.00  0.00     0.008 A 
ATOM     18  C   UNL     1       0.632  -1.610  -4.518  1.00  0.00     0.001 A 
BRANCH  14  19
ATOM     19  O   UNL     1      -0.235  -1.476  -0.444  1.00  0.00    -0.496 OA
ATOM     20  C   UNL     1      -0.329  -0.206   0.192  1.00  0.00     0.278 C 
ENDBRANCH  14  19
ENDBRANCH   8  13
BRANCH  10  21
ATOM     21  C   UNL     1       5.507  -1.330  -0.192  1.00  0.00     0.321 C 
BRANCH  21  22
ATOM     22  C   UNL     1       5.783  -1.136  -1.668  1.00  0.00     0.114 A 
ATOM     23  C   UNL     1       6.672  -1.774  -2.524  1.00  0.00     0.122 A 
ATOM     24  N   UNL     1       5.186  -0.120  -2.361  1.00  0.00    -0.228 NA
ATOM     25  N   UNL     1       6.580  -1.118  -3.740  1.00  0.00    -0.306 N 
ATOM     26  C   UNL     1       5.527  -0.235  -3.618  1.00  0.00     0.137 A 
ATOM     27  C   UNL     1       7.388  -1.151  -4.877  1.00  0.00     0.096 A 
ATOM     28  C   UNL     1       5.107   0.490  -4.764  1.00  0.00     0.048 A 
ATOM     29  C   UNL     1       7.102  -0.333  -5.915  1.00  0.00    -0.034 A 
ATOM     30  C   UNL     1       5.864   0.449  -5.874  1.00  0.00     0.009 A 
ATOM     31  C   UNL     1       8.009  -0.096  -7.080  1.00  0.00     0.046 C 
ENDBRANCH  21  22
ENDBRANCH  10  21
ENDBRANCH   4   7
ENDBRANCH   2   3
ENDBRANCH   1   2
BRANCH   1  32
ATOM     32  C   UNL     1       7.254   2.817  -3.181  1.00  0.00     0.023 C 
BRANCH  32  33
ATOM     33  C   UNL     1       8.669   3.295  -3.514  1.00  0.00     0.116 C 
BRANCH  33  34
ATOM     34  N   UNL     1       9.714   2.262  -3.467  1.00  0.00    -0.352 N 
ATOM     35  C   UNL     1      10.992   2.396  -2.961  1.00  0.00     0.251 C 
ATOM     36  H   UNL     1       9.478   1.380  -3.837  1.00  0.00     0.163 HD
ATOM     37  O   UNL     1      11.899   1.616  -3.222  1.00  0.00    -0.269 OA
BRANCH  35  38
ATOM     38  C   UNL     1      11.209   3.522  -2.038  1.00  0.00     0.039 A 
ATOM     39  C   UNL     1      11.841   4.686  -2.474  1.00  0.00     0.014 A 
ATOM     40  C   UNL     1      10.415   3.503  -0.896  1.00  0.00     0.014 A 
ATOM     41  C   UNL     1      11.533   5.885  -1.835  1.00  0.00     0.010 A 
ATOM     42  C   UNL     1      10.014   4.709  -0.361  1.00  0.00     0.010 A 
ATOM     43  C   UNL     1      10.551   5.914  -0.828  1.00  0.00    -0.014 A 
BRANCH  43  44
ATOM     44  C   UNL     1       9.983   7.201  -0.398  1.00  0.00     0.031 A 
ATOM     45  C   UNL     1       9.710   8.223  -1.460  1.00  0.00     0.074 A 
ATOM     46  C   UNL     1       9.506   7.469   0.836  1.00  0.00     0.049 A 
ATOM     47  N   UNL     1      10.327   9.345  -1.649  1.00  0.00    -0.248 NA
ATOM     48  C   UNL     1       8.655   7.959  -2.450  1.00  0.00     0.031 C 
ATOM     49  C   UNL     1       9.360   6.579   1.992  1.00  0.00     0.029 A 
ATOM     50  N   UNL     1       8.944   8.630   1.280  1.00  0.00    -0.354 N 
ATOM     51  C   UNL     1       9.650  10.014  -2.669  1.00  0.00     0.074 A 
ATOM     52  C   UNL     1       8.703   9.063  -3.201  1.00  0.00     0.031 C 
ATOM     53  C   UNL     1       8.541   7.146   2.903  1.00  0.00     0.029 A 
ATOM     54  C   UNL     1       8.293   8.514   2.495  1.00  0.00     0.049 A 
ATOM     55  H   UNL     1       8.998   9.476   0.780  1.00  0.00     0.167 HD
ATOM     56  C   UNL     1       9.794  11.356  -2.874  1.00  0.00     0.031 A 
ATOM     57  C   UNL     1       7.622   9.478   3.161  1.00  0.00     0.031 A 
ATOM     58  C   UNL     1      10.905  11.896  -2.132  1.00  0.00     0.049 A 
ATOM     59  C   UNL     1       8.143  10.781   2.700  1.00  0.00     0.074 A 
ATOM     60  C   UNL     1      12.265  11.668  -2.086  1.00  0.00     0.029 A 
ATOM     61  N   UNL     1      10.610  12.597  -0.987  1.00  0.00    -0.354 N 
ATOM     62  N   UNL     1       9.362  11.181   2.927  1.00  0.00    -0.248 NA
ATOM     63  C   UNL     1       7.442  11.491   1.645  1.00  0.00     0.031 C 
ATOM     64  C   UNL     1      12.604  11.781  -0.702  1.00  0.00     0.029 A 
ATOM     65  C   UNL     1      11.441  12.123  -0.007  1.00  0.00     0.049 A 
ATOM     66  H   UNL     1       9.932  13.305  -0.890  1.00  0.00     0.167 HD
ATOM     67  C   UNL     1       9.729  11.870   1.781  1.00  0.00     0.074 A 
ATOM     68  C   UNL     1       8.469  12.147   1.096  1.00  0.00     0.031 C 
ATOM     69  C   UNL     1      11.030  11.905   1.363  1.00  0.00     0.031 A 
BRANCH  56  70
ATOM     70  C   UNL     1       8.733  12.274  -3.443  1.00  0.00    -0.014 A 
ATOM     71  C   UNL     1       9.042  13.639  -3.623  1.00  0.00     0.009 A 
ATOM     72  C   UNL     1       7.375  11.922  -3.541  1.00  0.00     0.009 A 
ATOM     73  C   UNL     1       8.043  14.605  -3.799  1.00  0.00     0.001 A 
ATOM     74  C   UNL     1       6.377  12.880  -3.761  1.00  0.00     0.001 A 
ATOM     75  C   UNL     1       6.708  14.224  -3.858  1.00  0.00     0.000 A 
ENDBRANCH  56  70
BRANCH  57  76
ATOM     76  C   UNL     1       6.465   9.325   4.057  1.00  0.00    -0.014 A 
ATOM     77  C   UNL     1       6.151  10.299   5.012  1.00  0.00     0.009 A 
ATOM     78  C   UNL     1       5.517   8.316   3.801  1.00  0.00     0.009 A 
ATOM     79  C   UNL     1       4.910  10.285   5.662  1.00  0.00     0.001 A 
ATOM     80  C   UNL     1       4.280   8.301   4.450  1.00  0.00     0.001 A 
ATOM     81  C   UNL     1       3.971   9.297   5.370  1.00  0.00     0.000 A 
ENDBRANCH  57  76
BRANCH  69  82
ATOM     82  C   UNL     1      12.094  11.394   2.306  1.00  0.00    -0.014 A 
ATOM     83  C   UNL     1      12.119  10.071   2.782  1.00  0.00     0.009 A 
ATOM     84  C   UNL     1      13.189  12.222   2.596  1.00  0.00     0.009 A 
ATOM     85  C   UNL     1      13.187   9.602   3.553  1.00  0.00     0.001 A 
ATOM     86  C   UNL     1      14.267  11.748   3.349  1.00  0.00     0.001 A 
ATOM     87  C   UNL     1      14.263  10.441   3.832  1.00  0.00     0.000 A 
ENDBRANCH  69  82
ENDBRANCH  43  44
ENDBRANCH  35  38
ENDBRANCH  33  34
ENDBRANCH  32  33
ENDBRANCH   1  32
TORSDOF 15
