REMARK SMILES COCCN(CC(C)C)C(=O)N1CC[C@@H](C(=O)NCCCCNC(=O)c2ccc(-c3c4nc(c(-c5ccccc5)c5ccc([nH]5)c(-c5ccccc5)c5nc(c(-c6ccccc6)c6ccc3[nH]6)C=C5)C=C4)cc2)[C@H]1C
REMARK SMILES IDX 19 1 18 2 16 3 17 4 15 6 12 7 13 8 74 9 14 10 75 11 10 12
REMARK SMILES IDX 11 13 5 14 4 15 3 16 2 17 1 18 6 19 7 20 8 21 9 22 20 23
REMARK SMILES IDX 21 24 22 25 23 26 24 27 25 29 26 30 27 31 73 32 28 33 72 34
REMARK SMILES IDX 29 35 30 36 31 37 66 38 32 39 71 40 65 41 67 42 33 43 70 44
REMARK SMILES IDX 64 45 63 46 34 48 56 49 41 50 55 51 42 52 45 53 54 54 68 55
REMARK SMILES IDX 43 56 44 57 53 59 69 60 46 61 35 62 36 63 40 64 37 65 39 66
REMARK SMILES IDX 38 67 57 68 58 69 62 70 59 71 61 72 60 73 47 74 48 75 52 76
REMARK SMILES IDX 49 77 51 78 50 79
REMARK H PARENT 18 5 23 28 67 47 45 58
REMARK Flexibility Score: inf
ROOT
ATOM      1  C   UNL     1       4.244   3.389   4.362  1.00  0.00     0.116 C 
ENDROOT
BRANCH   1   2
ATOM      2  N   UNL     1       3.336   3.385   5.495  1.00  0.00    -0.356 N 
ATOM      3  C   UNL     1       2.191   2.702   5.766  1.00  0.00     0.225 C 
ATOM      4  O   UNL     1       1.677   2.933   6.868  1.00  0.00    -0.275 OA
ATOM      5  H   UNL     1       3.604   4.003   6.214  1.00  0.00     0.163 HD
BRANCH   3   6
ATOM      6  C   UNL     1       1.485   1.736   4.813  1.00  0.00     0.102 C 
ATOM      7  N   UNL     1       1.107   1.480   2.442  1.00  0.00    -0.321 N 
ATOM      8  C   UNL     1       1.609   0.221   2.978  1.00  0.00     0.122 C 
ATOM      9  C   UNL     1       0.741   2.329   3.594  1.00  0.00     0.096 C 
ATOM     10  C   UNL     1       2.301   0.565   4.281  1.00  0.00     0.037 C 
ATOM     11  C   UNL     1       0.993   3.796   3.373  1.00  0.00     0.032 C 
BRANCH   7  12
ATOM     12  C   UNL     1       0.248   1.334   1.352  1.00  0.00     0.320 C 
ATOM     13  O   UNL     1      -0.578   0.420   1.339  1.00  0.00    -0.248 OA
BRANCH  12  14
ATOM     14  N   UNL     1       0.474   2.136   0.236  1.00  0.00    -0.322 N 
BRANCH  14  15
ATOM     15  C   UNL     1      -0.160   1.728  -1.033  1.00  0.00     0.149 C 
BRANCH  15  16
ATOM     16  C   UNL     1       0.756   0.876  -1.936  1.00  0.00     0.181 C 
BRANCH  16  17
ATOM     17  O   UNL     1       0.662  -0.518  -1.649  1.00  0.00    -0.383 OA
ATOM     18  C   UNL     1       1.618  -0.977  -0.706  1.00  0.00     0.194 C 
ENDBRANCH  16  17
ENDBRANCH  15  16
ENDBRANCH  14  15
BRANCH  14  19
ATOM     19  C   UNL     1       1.345   3.308   0.164  1.00  0.00     0.124 C 
BRANCH  19  20
ATOM     20  C   UNL     1       0.613   4.660  -0.077  1.00  0.00     0.002 C 
ATOM     21  C   UNL     1      -0.768   4.830   0.580  1.00  0.00     0.009 C 
ATOM     22  C   UNL     1       1.525   5.833   0.305  1.00  0.00     0.009 C 
ENDBRANCH  19  20
ENDBRANCH  14  19
ENDBRANCH  12  14
ENDBRANCH   7  12
ENDBRANCH   3   6
ENDBRANCH   1   2
BRANCH   1  23
ATOM     23  C   UNL     1       4.239   4.700   3.571  1.00  0.00     0.023 C 
BRANCH  23  24
ATOM     24  C   UNL     1       5.054   5.859   4.110  1.00  0.00     0.023 C 
BRANCH  24  25
ATOM     25  C   UNL     1       6.532   5.593   4.275  1.00  0.00     0.116 C 
BRANCH  25  26
ATOM     26  N   UNL     1       7.207   5.117   3.077  1.00  0.00    -0.352 N 
ATOM     27  C   UNL     1       8.503   5.377   2.678  1.00  0.00     0.251 C 
ATOM     28  H   UNL     1       6.678   4.539   2.481  1.00  0.00     0.163 HD
ATOM     29  O   UNL     1       8.931   4.950   1.618  1.00  0.00    -0.269 OA
BRANCH  27  30
ATOM     30  C   UNL     1       9.345   6.235   3.541  1.00  0.00     0.039 A 
ATOM     31  C   UNL     1      10.058   7.290   2.969  1.00  0.00     0.014 A 
ATOM     32  C   UNL     1       9.347   6.049   4.924  1.00  0.00     0.014 A 
ATOM     33  C   UNL     1      10.719   8.198   3.799  1.00  0.00     0.010 A 
ATOM     34  C   UNL     1       9.879   7.027   5.746  1.00  0.00     0.010 A 
ATOM     35  C   UNL     1      10.606   8.090   5.194  1.00  0.00    -0.014 A 
BRANCH  35  36
ATOM     36  C   UNL     1      11.314   9.014   6.111  1.00  0.00     0.031 A 
ATOM     37  C   UNL     1      12.340   8.455   7.062  1.00  0.00     0.074 A 
ATOM     38  C   UNL     1      11.001  10.323   6.135  1.00  0.00     0.049 A 
ATOM     39  N   UNL     1      13.031   9.067   7.989  1.00  0.00    -0.248 NA
ATOM     40  C   UNL     1      12.586   7.003   6.995  1.00  0.00     0.031 C 
ATOM     41  C   UNL     1       9.986  10.975   5.305  1.00  0.00     0.029 A 
ATOM     42  N   UNL     1      11.520  11.344   6.888  1.00  0.00    -0.354 N 
ATOM     43  C   UNL     1      13.757   8.071   8.630  1.00  0.00     0.074 A 
ATOM     44  C   UNL     1      13.363   6.810   8.047  1.00  0.00     0.031 C 
ATOM     45  C   UNL     1       9.997  12.295   5.554  1.00  0.00     0.029 A 
ATOM     46  C   UNL     1      10.995  12.575   6.580  1.00  0.00     0.049 A 
ATOM     47  H   UNL     1      12.204  11.208   7.583  1.00  0.00     0.167 HD
ATOM     48  C   UNL     1      14.703   8.191   9.590  1.00  0.00     0.031 A 
ATOM     49  C   UNL     1      11.306  13.793   7.061  1.00  0.00     0.031 A 
ATOM     50  C   UNL     1      15.131   9.450  10.131  1.00  0.00     0.049 A 
ATOM     51  C   UNL     1      12.390  13.913   8.096  1.00  0.00     0.074 A 
ATOM     52  C   UNL     1      16.120   9.700  11.063  1.00  0.00     0.029 A 
ATOM     53  N   UNL     1      14.597  10.676   9.767  1.00  0.00    -0.354 N 
ATOM     54  N   UNL     1      13.110  12.968   8.652  1.00  0.00    -0.248 NA
ATOM     55  C   UNL     1      12.717  15.270   8.552  1.00  0.00     0.031 C 
ATOM     56  C   UNL     1      16.168  11.081  11.282  1.00  0.00     0.029 A 
ATOM     57  C   UNL     1      15.238  11.690  10.454  1.00  0.00     0.049 A 
ATOM     58  H   UNL     1      13.870  10.806   9.115  1.00  0.00     0.167 HD
ATOM     59  C   UNL     1      14.002  13.619   9.495  1.00  0.00     0.074 A 
ATOM     60  C   UNL     1      13.736  15.039   9.368  1.00  0.00     0.031 C 
ATOM     61  C   UNL     1      14.959  13.094  10.298  1.00  0.00     0.031 A 
BRANCH  48  62
ATOM     62  C   UNL     1      15.335   6.921  10.086  1.00  0.00    -0.014 A 
ATOM     63  C   UNL     1      16.170   6.152   9.256  1.00  0.00     0.009 A 
ATOM     64  C   UNL     1      15.074   6.469  11.387  1.00  0.00     0.009 A 
ATOM     65  C   UNL     1      16.680   4.931   9.698  1.00  0.00     0.001 A 
ATOM     66  C   UNL     1      15.614   5.264  11.840  1.00  0.00     0.001 A 
ATOM     67  C   UNL     1      16.404   4.489  10.991  1.00  0.00     0.000 A 
ENDBRANCH  48  62
BRANCH  49  68
ATOM     68  C   UNL     1      10.641  15.004   6.513  1.00  0.00    -0.014 A 
ATOM     69  C   UNL     1      11.349  15.872   5.666  1.00  0.00     0.009 A 
ATOM     70  C   UNL     1       9.307  15.302   6.828  1.00  0.00     0.009 A 
ATOM     71  C   UNL     1      10.743  17.027   5.167  1.00  0.00     0.001 A 
ATOM     72  C   UNL     1       8.696  16.445   6.307  1.00  0.00     0.001 A 
ATOM     73  C   UNL     1       9.416  17.311   5.485  1.00  0.00     0.000 A 
ENDBRANCH  49  68
BRANCH  61  74
ATOM     74  C   UNL     1      15.820  14.061  11.056  1.00  0.00    -0.014 A 
ATOM     75  C   UNL     1      15.327  14.763  12.166  1.00  0.00     0.009 A 
ATOM     76  C   UNL     1      17.159  14.239  10.673  1.00  0.00     0.009 A 
ATOM     77  C   UNL     1      16.151  15.653  12.856  1.00  0.00     0.001 A 
ATOM     78  C   UNL     1      17.987  15.108  11.381  1.00  0.00     0.001 A 
ATOM     79  C   UNL     1      17.480  15.822  12.466  1.00  0.00     0.000 A 
ENDBRANCH  61  74
ENDBRANCH  35  36
ENDBRANCH  27  30
ENDBRANCH  25  26
ENDBRANCH  24  25
ENDBRANCH  23  24
ENDBRANCH   1  23
TORSDOF 18
