REMARK SMILES Cc1cccc(/C=C(/C(=O)NCCCCNC(=O)c2ccc(-c3c4nc(c(-c5ccccc5)c5ccc([nH]5)c(-c5ccccc5)c5nc(c(-c6ccccc6)c6ccc3[nH]6)C=C5)C=C4)cc2)c2ccc(S(=O)(=O)N3CCCC3)s2)c1
REMARK SMILES IDX 13 1 12 2 11 3 9 4 10 5 8 7 7 8 6 9 1 10 2 11 3 12 80 13
REMARK SMILES IDX 4 14 5 15 67 16 68 17 79 18 69 19 70 20 71 21 72 22 73 23
REMARK SMILES IDX 74 24 75 25 78 26 76 27 77 28 14 29 15 30 16 31 17 32 18 34
REMARK SMILES IDX 19 35 20 36 66 37 21 38 65 39 22 40 23 41 24 42 59 43 25 44
REMARK SMILES IDX 64 45 58 46 60 47 26 48 63 49 57 50 56 51 27 53 49 54 34 55
REMARK SMILES IDX 48 56 35 57 38 58 47 59 61 60 36 61 37 62 46 64 62 65 39 66
REMARK SMILES IDX 28 67 29 68 33 69 30 70 32 71 31 72 50 73 51 74 55 75 52 76
REMARK SMILES IDX 54 77 53 78 40 79 41 80 45 81 42 82 44 83 43 84
REMARK H PARENT 11 6 16 33 60 52 38 63
REMARK Flexibility Score: inf
ROOT
ATOM      1  C   UNL     1      -0.853   5.496  -1.177  1.00  0.00     0.023 C 
ENDROOT
BRANCH   1   2
ATOM      2  C   UNL     1      -1.403   5.197   0.231  1.00  0.00     0.116 C 
BRANCH   2   3
ATOM      3  N   UNL     1      -2.829   4.921   0.215  1.00  0.00    -0.352 N 
ATOM      4  C   UNL     1      -3.619   3.814   0.248  1.00  0.00     0.252 C 
ATOM      5  O   UNL     1      -4.825   4.079   0.275  1.00  0.00    -0.269 OA
ATOM      6  H   UNL     1      -3.361   5.748   0.169  1.00  0.00     0.163 HD
BRANCH   4   7
ATOM      7  C   UNL     1      -3.114   2.370   0.279  1.00  0.00     0.057 C 
ATOM      8  C   UNL     1      -1.897   2.082  -0.234  1.00  0.00     0.023 C 
BRANCH   8   9
ATOM      9  C   UNL     1      -1.103   0.841  -0.332  1.00  0.00    -0.025 A 
ATOM     10  C   UNL     1       2.573  -0.028   0.250  1.00  0.00     0.044 C 
ATOM     11  C   UNL     1       1.115  -0.164  -0.073  1.00  0.00    -0.051 A 
ATOM     12  C   UNL     1       0.585  -1.403  -0.439  1.00  0.00     0.003 A 
ATOM     13  C   UNL     1       0.260   0.943  -0.002  1.00  0.00     0.011 A 
ATOM     14  C   UNL     1      -0.758  -1.513  -0.800  1.00  0.00     0.001 A 
ATOM     15  C   UNL     1      -1.588  -0.388  -0.785  1.00  0.00     0.008 A 
ENDBRANCH   8   9
BRANCH   7  16
ATOM     16  C   UNL     1      -4.017   1.298   0.631  1.00  0.00     0.041 A 
ATOM     17  C   UNL     1      -3.846   0.096   1.313  1.00  0.00     0.022 A 
ATOM     18  S   UNL     1      -5.652   1.337   0.094  1.00  0.00    -0.122 S 
ATOM     19  C   UNL     1      -4.844  -0.880   0.946  1.00  0.00     0.034 A 
ATOM     20  C   UNL     1      -5.792  -0.348   0.092  1.00  0.00     0.135 A 
BRANCH  20  21
ATOM     21  S   UNL     1      -7.092  -1.036  -0.913  1.00  0.00     0.252 S 
ATOM     22  O   UNL     1      -6.487  -2.235  -1.462  1.00  0.00    -0.206 OA
ATOM     23  O   UNL     1      -8.237  -1.108  -0.034  1.00  0.00    -0.206 OA
BRANCH  21  24
ATOM     24  N   UNL     1      -7.477  -0.025  -2.217  1.00  0.00    -0.197 NA
ATOM     25  C   UNL     1      -6.512   0.180  -3.308  1.00  0.00     0.102 C 
ATOM     26  C   UNL     1      -8.228   1.224  -1.984  1.00  0.00     0.102 C 
ATOM     27  C   UNL     1      -6.226   1.671  -3.310  1.00  0.00     0.018 C 
ATOM     28  C   UNL     1      -7.486   2.315  -2.755  1.00  0.00     0.018 C 
ENDBRANCH  21  24
ENDBRANCH  20  21
ENDBRANCH   7  16
ENDBRANCH   4   7
ENDBRANCH   2   3
ENDBRANCH   1   2
BRANCH   1  29
ATOM     29  C   UNL     1      -1.520   6.669  -1.908  1.00  0.00     0.023 C 
BRANCH  29  30
ATOM     30  C   UNL     1      -1.249   8.032  -1.287  1.00  0.00     0.116 C 
BRANCH  30  31
ATOM     31  N   UNL     1      -0.003   8.656  -1.714  1.00  0.00    -0.352 N 
ATOM     32  C   UNL     1       0.660   9.746  -1.179  1.00  0.00     0.251 C 
ATOM     33  H   UNL     1       0.429   8.242  -2.496  1.00  0.00     0.163 HD
ATOM     34  O   UNL     1       1.679  10.170  -1.716  1.00  0.00    -0.269 OA
BRANCH  32  35
ATOM     35  C   UNL     1       0.223  10.309   0.122  1.00  0.00     0.039 A 
ATOM     36  C   UNL     1       1.206  10.531   1.094  1.00  0.00     0.014 A 
ATOM     37  C   UNL     1      -1.125  10.391   0.462  1.00  0.00     0.014 A 
ATOM     38  C   UNL     1       0.844  10.549   2.437  1.00  0.00     0.010 A 
ATOM     39  C   UNL     1      -1.479  10.310   1.796  1.00  0.00     0.010 A 
ATOM     40  C   UNL     1      -0.484  10.291   2.777  1.00  0.00    -0.014 A 
BRANCH  40  41
ATOM     41  C   UNL     1      -0.876   9.805   4.096  1.00  0.00     0.031 A 
ATOM     42  C   UNL     1      -1.632  10.676   5.029  1.00  0.00     0.074 A 
ATOM     43  C   UNL     1      -0.581   8.528   4.449  1.00  0.00     0.049 A 
ATOM     44  N   UNL     1      -1.667  10.500   6.309  1.00  0.00    -0.248 NA
ATOM     45  C   UNL     1      -2.350  11.878   4.604  1.00  0.00     0.031 C 
ATOM     46  C   UNL     1      -1.093   7.804   5.613  1.00  0.00     0.029 A 
ATOM     47  N   UNL     1       0.397   7.661   3.943  1.00  0.00    -0.354 N 
ATOM     48  C   UNL     1      -2.638  11.330   6.816  1.00  0.00     0.074 A 
ATOM     49  C   UNL     1      -2.921  12.261   5.752  1.00  0.00     0.031 C 
ATOM     50  C   UNL     1      -0.234   6.817   5.915  1.00  0.00     0.029 A 
ATOM     51  C   UNL     1       0.926   6.992   5.058  1.00  0.00     0.049 A 
ATOM     52  H   UNL     1       0.659   7.545   3.001  1.00  0.00     0.167 HD
ATOM     53  C   UNL     1      -3.200  11.040   8.023  1.00  0.00     0.031 A 
ATOM     54  C   UNL     1       2.210   7.116   5.511  1.00  0.00     0.031 A 
ATOM     55  C   UNL     1      -2.455   9.999   8.732  1.00  0.00     0.049 A 
ATOM     56  C   UNL     1       2.308   7.542   6.968  1.00  0.00     0.074 A 
ATOM     57  C   UNL     1      -2.702   8.664   9.003  1.00  0.00     0.029 A 
ATOM     58  N   UNL     1      -1.125  10.230   9.066  1.00  0.00    -0.354 N 
ATOM     59  N   UNL     1       1.316   8.058   7.641  1.00  0.00    -0.248 NA
ATOM     60  C   UNL     1       3.540   7.493   7.757  1.00  0.00     0.031 C 
ATOM     61  C   UNL     1      -1.476   8.069   9.411  1.00  0.00     0.029 A 
ATOM     62  C   UNL     1      -0.502   9.053   9.431  1.00  0.00     0.049 A 
ATOM     63  H   UNL     1      -0.687  11.111   9.046  1.00  0.00     0.167 HD
ATOM     64  C   UNL     1       1.742   8.425   8.890  1.00  0.00     0.074 A 
ATOM     65  C   UNL     1       3.138   8.030   8.924  1.00  0.00     0.031 C 
ATOM     66  C   UNL     1       0.915   9.053   9.776  1.00  0.00     0.031 A 
BRANCH  53  67
ATOM     67  C   UNL     1      -4.558  11.536   8.484  1.00  0.00    -0.014 A 
ATOM     68  C   UNL     1      -5.106  11.043   9.684  1.00  0.00     0.009 A 
ATOM     69  C   UNL     1      -5.398  12.386   7.741  1.00  0.00     0.009 A 
ATOM     70  C   UNL     1      -6.411  11.357  10.096  1.00  0.00     0.001 A 
ATOM     71  C   UNL     1      -6.694  12.726   8.157  1.00  0.00     0.001 A 
ATOM     72  C   UNL     1      -7.206  12.201   9.332  1.00  0.00     0.000 A 
ENDBRANCH  53  67
BRANCH  54  73
ATOM     73  C   UNL     1       3.217   7.478   4.481  1.00  0.00    -0.014 A 
ATOM     74  C   UNL     1       3.549   6.530   3.495  1.00  0.00     0.009 A 
ATOM     75  C   UNL     1       3.595   8.813   4.281  1.00  0.00     0.009 A 
ATOM     76  C   UNL     1       4.141   6.926   2.293  1.00  0.00     0.001 A 
ATOM     77  C   UNL     1       4.193   9.205   3.077  1.00  0.00     0.001 A 
ATOM     78  C   UNL     1       4.433   8.269   2.072  1.00  0.00     0.000 A 
ENDBRANCH  54  73
BRANCH  66  79
ATOM     79  C   UNL     1       1.337   9.699  11.073  1.00  0.00    -0.014 A 
ATOM     80  C   UNL     1       2.630  10.175  11.335  1.00  0.00     0.009 A 
ATOM     81  C   UNL     1       0.352   9.979  12.047  1.00  0.00     0.009 A 
ATOM     82  C   UNL     1       2.933  10.850  12.527  1.00  0.00     0.001 A 
ATOM     83  C   UNL     1       0.640  10.689  13.216  1.00  0.00     0.001 A 
ATOM     84  C   UNL     1       1.937  11.115  13.462  1.00  0.00     0.000 A 
ENDBRANCH  66  79
ENDBRANCH  40  41
ENDBRANCH  32  35
ENDBRANCH  30  31
ENDBRANCH  29  30
ENDBRANCH   1  29
TORSDOF 15
