REMARK SMILES COc1cccc(NC(=O)/C(C#N)=C\c2ccc(O[C@@H](C)C(=O)NCCCCNC(=O)c3ccc(-c4c5nc(c(-c6ccccc6)c6ccc([nH]6)c(-c6ccccc6)c6nc(c(-c7ccccc7)c7ccc4[nH]7)C=C6)C=C5)cc3)cc2)c1
REMARK SMILES IDX 22 1 23 2 24 3 20 5 21 6 19 7 18 8 15 9 16 10 81 11 17 12
REMARK SMILES IDX 80 13 14 14 11 15 9 16 8 17 10 19 7 20 3 21 4 22 82 23 5 24
REMARK SMILES IDX 6 25 2 26 1 27 12 28 13 29 25 30 26 31 27 32 28 33 29 34
REMARK SMILES IDX 30 35 31 37 32 38 33 39 79 40 34 41 78 42 35 43 36 44 37 45
REMARK SMILES IDX 72 46 38 47 77 48 71 49 73 50 39 51 76 52 70 53 69 54 40 56
REMARK SMILES IDX 62 57 47 58 61 59 48 60 51 61 60 62 74 63 49 64 50 65 59 67
REMARK SMILES IDX 75 68 52 69 41 70 42 71 46 72 43 73 45 74 44 75 63 76 64 77
REMARK SMILES IDX 68 78 65 79 67 80 66 81 53 82 54 83 58 84 55 85 57 86 56 87
REMARK H PARENT 24 4 8 18 29 36 73 55 51 66
REMARK Flexibility Score: inf
ROOT
ATOM      1  C   UNL     1       9.925  -6.019  -8.163  1.00  0.00     0.260 C 
ATOM      2  O   UNL     1      10.749  -6.753  -8.728  1.00  0.00    -0.271 OA
ATOM      3  N   UNL     1       9.182  -6.630  -7.201  1.00  0.00    -0.353 N 
ATOM      4  H   UNL     1       9.499  -7.533  -6.966  1.00  0.00     0.163 HD
ENDROOT
BRANCH   1   5
ATOM      5  C   UNL     1       9.882  -4.495  -8.515  1.00  0.00     0.258 C 
ATOM      6  C   UNL     1      10.432  -3.633  -7.374  1.00  0.00     0.064 C 
BRANCH   5   7
ATOM      7  O   UNL     1       8.862  -3.902  -9.325  1.00  0.00    -0.481 OA
BRANCH   7   8
ATOM      8  C   UNL     1       7.618  -3.672  -8.837  1.00  0.00     0.120 A 
ATOM      9  C   UNL     1       4.970  -3.611  -7.831  1.00  0.00    -0.024 A 
ATOM     10  C   UNL     1       5.215  -3.913  -9.177  1.00  0.00     0.012 A 
ATOM     11  C   UNL     1       6.074  -3.212  -7.065  1.00  0.00     0.012 A 
ATOM     12  C   UNL     1       6.533  -3.956  -9.670  1.00  0.00     0.047 A 
ATOM     13  C   UNL     1       7.364  -3.157  -7.586  1.00  0.00     0.047 A 
BRANCH   9  14
ATOM     14  C   UNL     1       3.631  -3.868  -7.240  1.00  0.00     0.033 C 
ATOM     15  C   UNL     1       3.173  -3.438  -6.052  1.00  0.00     0.118 C 
BRANCH  15  16
ATOM     16  C   UNL     1       3.800  -2.248  -5.229  1.00  0.00     0.266 C 
ATOM     17  N   UNL     1       3.630  -2.161  -3.855  1.00  0.00    -0.321 N 
ATOM     18  H   UNL     1       4.420  -2.405  -3.322  1.00  0.00     0.170 HD
ATOM     19  O   UNL     1       4.493  -1.384  -5.769  1.00  0.00    -0.268 OA
BRANCH  17  20
ATOM     20  C   UNL     1       2.485  -1.773  -3.093  1.00  0.00     0.045 A 
ATOM     21  C   UNL     1       1.431  -1.529  -0.922  1.00  0.00     0.120 A 
ATOM     22  C   UNL     1       0.187  -1.335  -1.512  1.00  0.00     0.046 A 
ATOM     23  C   UNL     1       2.564  -1.815  -1.696  1.00  0.00     0.072 A 
ATOM     24  C   UNL     1       0.128  -1.183  -2.885  1.00  0.00     0.006 A 
ATOM     25  C   UNL     1       1.295  -1.302  -3.652  1.00  0.00     0.026 A 
BRANCH  21  26
ATOM     26  O   UNL     1       1.551  -1.415   0.438  1.00  0.00    -0.497 OA
ATOM     27  C   UNL     1       1.456  -0.028   0.796  1.00  0.00     0.278 C 
ENDBRANCH  21  26
ENDBRANCH  17  20
ENDBRANCH  15  16
BRANCH  15  28
ATOM     28  C   UNL     1       1.726  -3.446  -5.589  1.00  0.00     0.105 C 
ATOM     29  N   UNL     1       0.525  -3.453  -5.204  1.00  0.00    -0.192 NA
ENDBRANCH  15  28
ENDBRANCH   9  14
ENDBRANCH   7   8
ENDBRANCH   5   7
ENDBRANCH   1   5
BRANCH   3  30
ATOM     30  C   UNL     1       8.019  -6.207  -6.459  1.00  0.00     0.116 C 
BRANCH  30  31
ATOM     31  C   UNL     1       6.743  -6.553  -7.222  1.00  0.00     0.023 C 
BRANCH  31  32
ATOM     32  C   UNL     1       5.972  -7.778  -6.754  1.00  0.00     0.023 C 
BRANCH  32  33
ATOM     33  C   UNL     1       5.463  -7.713  -5.319  1.00  0.00     0.116 C 
BRANCH  33  34
ATOM     34  N   UNL     1       4.739  -6.495  -4.970  1.00  0.00    -0.352 N 
ATOM     35  C   UNL     1       3.742  -6.346  -4.035  1.00  0.00     0.251 C 
ATOM     36  H   UNL     1       4.995  -5.683  -5.463  1.00  0.00     0.163 HD
ATOM     37  O   UNL     1       3.255  -5.248  -3.796  1.00  0.00    -0.269 OA
BRANCH  35  38
ATOM     38  C   UNL     1       3.251  -7.532  -3.326  1.00  0.00     0.039 A 
ATOM     39  C   UNL     1       1.893  -7.857  -3.373  1.00  0.00     0.014 A 
ATOM     40  C   UNL     1       4.172  -8.354  -2.677  1.00  0.00     0.014 A 
ATOM     41  C   UNL     1       1.468  -9.062  -2.817  1.00  0.00     0.010 A 
ATOM     42  C   UNL     1       3.763  -9.590  -2.214  1.00  0.00     0.010 A 
ATOM     43  C   UNL     1       2.407  -9.947  -2.265  1.00  0.00    -0.014 A 
BRANCH  43  44
ATOM     44  C   UNL     1       2.008 -11.245  -1.683  1.00  0.00     0.031 A 
ATOM     45  C   UNL     1       2.238 -11.491  -0.220  1.00  0.00     0.074 A 
ATOM     46  C   UNL     1       1.553 -12.224  -2.486  1.00  0.00     0.049 A 
ATOM     47  N   UNL     1       2.079 -12.589   0.470  1.00  0.00    -0.248 NA
ATOM     48  C   UNL     1       2.769 -10.360   0.561  1.00  0.00     0.031 C 
ATOM     49  C   UNL     1       1.354 -12.116  -3.933  1.00  0.00     0.029 A 
ATOM     50  N   UNL     1       1.189 -13.512  -2.194  1.00  0.00    -0.354 N 
ATOM     51  C   UNL     1       2.525 -12.291   1.751  1.00  0.00     0.074 A 
ATOM     52  C   UNL     1       3.020 -10.934   1.726  1.00  0.00     0.031 C 
ATOM     53  C   UNL     1       0.875 -13.282  -4.397  1.00  0.00     0.029 A 
ATOM     54  C   UNL     1       0.767 -14.224  -3.289  1.00  0.00     0.049 A 
ATOM     55  H   UNL     1       1.227 -13.891  -1.286  1.00  0.00     0.167 HD
ATOM     56  C   UNL     1       2.502 -13.071   2.857  1.00  0.00     0.031 A 
ATOM     57  C   UNL     1       0.335 -15.495  -3.381  1.00  0.00     0.031 A 
ATOM     58  C   UNL     1       1.979 -14.409   2.874  1.00  0.00     0.049 A 
ATOM     59  C   UNL     1       0.262 -16.326  -2.131  1.00  0.00     0.074 A 
ATOM     60  C   UNL     1       1.837 -15.270   3.947  1.00  0.00     0.029 A 
ATOM     61  N   UNL     1       1.501 -15.077   1.756  1.00  0.00    -0.354 N 
ATOM     62  N   UNL     1       0.622 -16.013  -0.909  1.00  0.00    -0.248 NA
ATOM     63  C   UNL     1      -0.299 -17.675  -2.271  1.00  0.00     0.031 C 
ATOM     64  C   UNL     1       1.307 -16.474   3.470  1.00  0.00     0.029 A 
ATOM     65  C   UNL     1       1.072 -16.344   2.109  1.00  0.00     0.049 A 
ATOM     66  H   UNL     1       1.472 -14.705   0.845  1.00  0.00     0.167 HD
ATOM     67  C   UNL     1       0.307 -17.116  -0.127  1.00  0.00     0.074 A 
ATOM     68  C   UNL     1      -0.288 -18.097  -1.014  1.00  0.00     0.031 C 
ATOM     69  C   UNL     1       0.490 -17.302   1.204  1.00  0.00     0.031 A 
BRANCH  56  70
ATOM     70  C   UNL     1       3.069 -12.482   4.119  1.00  0.00    -0.014 A 
ATOM     71  C   UNL     1       2.445 -11.402   4.767  1.00  0.00     0.009 A 
ATOM     72  C   UNL     1       4.258 -12.997   4.657  1.00  0.00     0.009 A 
ATOM     73  C   UNL     1       3.031 -10.812   5.889  1.00  0.00     0.001 A 
ATOM     74  C   UNL     1       4.823 -12.428   5.800  1.00  0.00     0.001 A 
ATOM     75  C   UNL     1       4.218 -11.327   6.405  1.00  0.00     0.000 A 
ENDBRANCH  56  70
BRANCH  57  76
ATOM     76  C   UNL     1      -0.111 -16.029  -4.692  1.00  0.00    -0.014 A 
ATOM     77  C   UNL     1      -1.478 -16.216  -4.952  1.00  0.00     0.009 A 
ATOM     78  C   UNL     1       0.817 -16.325  -5.702  1.00  0.00     0.009 A 
ATOM     79  C   UNL     1      -1.904 -16.706  -6.188  1.00  0.00     0.001 A 
ATOM     80  C   UNL     1       0.386 -16.791  -6.946  1.00  0.00     0.001 A 
ATOM     81  C   UNL     1      -0.973 -16.988  -7.185  1.00  0.00     0.000 A 
ENDBRANCH  57  76
BRANCH  69  82
ATOM     82  C   UNL     1       0.009 -18.603   1.778  1.00  0.00    -0.014 A 
ATOM     83  C   UNL     1       0.682 -19.808   1.522  1.00  0.00     0.009 A 
ATOM     84  C   UNL     1      -1.122 -18.616   2.609  1.00  0.00     0.009 A 
ATOM     85  C   UNL     1       0.206 -21.007   2.055  1.00  0.00     0.001 A 
ATOM     86  C   UNL     1      -1.578 -19.812   3.164  1.00  0.00     0.001 A 
ATOM     87  C   UNL     1      -0.920 -21.007   2.878  1.00  0.00     0.000 A 
ENDBRANCH  69  82
ENDBRANCH  43  44
ENDBRANCH  35  38
ENDBRANCH  33  34
ENDBRANCH  32  33
ENDBRANCH  31  32
ENDBRANCH  30  31
ENDBRANCH   3  30
TORSDOF 18
