REMARK SMILES O=C(NCCCCNC(=O)c1cc(-c2ccc(F)c(C(F)(F)F)c2)cnc1O)c1ccc(-c2c3nc(c(-c4ccccc4)c4ccc([nH]4)c(-c4ccccc4)c4nc(c(-c5ccccc5)c5ccc2[nH]5)C=C4)C=C3)cc1
REMARK SMILES IDX 5 1 4 2 3 3 1 4 2 5 29 7 30 8 76 9 31 10 75 11 32 12 33 13
REMARK SMILES IDX 34 14 69 15 35 16 74 17 68 18 70 19 36 20 73 21 67 22 66 23
REMARK SMILES IDX 37 25 59 26 44 27 58 28 45 29 48 30 57 31 71 32 46 33 47 34
REMARK SMILES IDX 56 36 72 37 49 38 38 39 39 40 43 41 40 42 42 43 41 44 60 45
REMARK SMILES IDX 61 46 65 47 62 48 64 49 63 50 50 51 51 52 55 53 52 54 54 55
REMARK SMILES IDX 53 56 6 57 7 58 8 59 9 60 10 62 11 63 12 64 27 65 13 66
REMARK SMILES IDX 26 67 25 68 28 69 14 71 15 72 24 73 16 74 19 75 17 76 18 77
REMARK SMILES IDX 20 78 21 79 22 80 23 81
REMARK H PARENT 3 6 70 24 48 35 8 61 28 70
REMARK Flexibility Score: inf
ROOT
ATOM      1  C   UNL     1       5.039  -2.674   0.070  1.00  0.00     0.023 C 
ENDROOT
BRANCH   1   2
ATOM      2  C   UNL     1       4.742  -1.250  -0.385  1.00  0.00     0.116 C 
BRANCH   2   3
ATOM      3  N   UNL     1       3.321  -0.982  -0.514  1.00  0.00    -0.352 N 
ATOM      4  O   UNL     1       1.320  -0.071  -0.076  1.00  0.00    -0.269 OA
ATOM      5  C   UNL     1       2.539  -0.021   0.074  1.00  0.00     0.251 C 
ATOM      6  H   UNL     1       2.841  -1.589  -1.123  1.00  0.00     0.163 HD
BRANCH   5   7
ATOM      7  C   UNL     1       3.126   1.065   0.893  1.00  0.00     0.039 A 
ATOM      8  C   UNL     1       2.418   1.502   2.018  1.00  0.00     0.014 A 
ATOM      9  C   UNL     1       4.312   1.711   0.533  1.00  0.00     0.014 A 
ATOM     10  C   UNL     1       2.904   2.565   2.785  1.00  0.00     0.010 A 
ATOM     11  C   UNL     1       4.839   2.716   1.344  1.00  0.00     0.010 A 
ATOM     12  C   UNL     1       4.122   3.178   2.458  1.00  0.00    -0.014 A 
BRANCH  12  13
ATOM     13  C   UNL     1       4.607   4.364   3.212  1.00  0.00     0.031 A 
ATOM     14  C   UNL     1       4.689   5.702   2.524  1.00  0.00     0.074 A 
ATOM     15  C   UNL     1       4.973   4.249   4.503  1.00  0.00     0.049 A 
ATOM     16  N   UNL     1       5.096   6.852   3.000  1.00  0.00    -0.248 NA
ATOM     17  C   UNL     1       4.278   5.755   1.110  1.00  0.00     0.031 C 
ATOM     18  C   UNL     1       4.952   3.011   5.284  1.00  0.00     0.029 A 
ATOM     19  N   UNL     1       5.420   5.196   5.392  1.00  0.00    -0.354 N 
ATOM     20  C   UNL     1       5.011   7.750   1.943  1.00  0.00     0.074 A 
ATOM     21  C   UNL     1       4.561   7.008   0.788  1.00  0.00     0.031 C 
ATOM     22  C   UNL     1       5.323   3.283   6.546  1.00  0.00     0.029 A 
ATOM     23  C   UNL     1       5.639   4.705   6.657  1.00  0.00     0.049 A 
ATOM     24  H   UNL     1       5.571   6.137   5.146  1.00  0.00     0.167 HD
ATOM     25  C   UNL     1       5.258   9.080   1.939  1.00  0.00     0.031 A 
ATOM     26  C   UNL     1       6.034   5.331   7.783  1.00  0.00     0.031 A 
ATOM     27  C   UNL     1       5.663   9.832   3.094  1.00  0.00     0.049 A 
ATOM     28  C   UNL     1       6.289   6.814   7.755  1.00  0.00     0.074 A 
ATOM     29  C   UNL     1       5.903  11.191   3.193  1.00  0.00     0.029 A 
ATOM     30  N   UNL     1       5.865   9.293   4.353  1.00  0.00    -0.354 N 
ATOM     31  N   UNL     1       6.175   7.651   6.753  1.00  0.00    -0.248 NA
ATOM     32  C   UNL     1       6.709   7.441   9.018  1.00  0.00     0.031 C 
ATOM     33  C   UNL     1       6.285  11.470   4.507  1.00  0.00     0.029 A 
ATOM     34  C   UNL     1       6.229  10.293   5.236  1.00  0.00     0.049 A 
ATOM     35  H   UNL     1       5.765   8.341   4.585  1.00  0.00     0.167 HD
ATOM     36  C   UNL     1       6.469   8.906   7.272  1.00  0.00     0.074 A 
ATOM     37  C   UNL     1       6.763   8.723   8.678  1.00  0.00     0.031 C 
ATOM     38  C   UNL     1       6.488  10.102   6.638  1.00  0.00     0.031 A 
BRANCH  25  39
ATOM     39  C   UNL     1       5.080   9.825   0.646  1.00  0.00    -0.014 A 
ATOM     40  C   UNL     1       6.199  10.346  -0.021  1.00  0.00     0.009 A 
ATOM     41  C   UNL     1       3.800  10.082   0.132  1.00  0.00     0.009 A 
ATOM     42  C   UNL     1       6.040  11.120  -1.172  1.00  0.00     0.001 A 
ATOM     43  C   UNL     1       3.645  10.834  -1.035  1.00  0.00     0.001 A 
ATOM     44  C   UNL     1       4.764  11.359  -1.680  1.00  0.00     0.000 A 
ENDBRANCH  25  39
BRANCH  26  45
ATOM     45  C   UNL     1       6.151   4.567   9.053  1.00  0.00    -0.014 A 
ATOM     46  C   UNL     1       7.184   3.636   9.243  1.00  0.00     0.009 A 
ATOM     47  C   UNL     1       5.213   4.758  10.080  1.00  0.00     0.009 A 
ATOM     48  C   UNL     1       7.271   2.908  10.432  1.00  0.00     0.001 A 
ATOM     49  C   UNL     1       5.318   4.048  11.278  1.00  0.00     0.001 A 
ATOM     50  C   UNL     1       6.343   3.119  11.451  1.00  0.00     0.000 A 
ENDBRANCH  26  45
BRANCH  38  51
ATOM     51  C   UNL     1       6.782  11.331   7.450  1.00  0.00    -0.014 A 
ATOM     52  C   UNL     1       5.757  12.262   7.685  1.00  0.00     0.009 A 
ATOM     53  C   UNL     1       8.083  11.626   7.880  1.00  0.00     0.009 A 
ATOM     54  C   UNL     1       6.032  13.472   8.322  1.00  0.00     0.001 A 
ATOM     55  C   UNL     1       8.350  12.827   8.540  1.00  0.00     0.001 A 
ATOM     56  C   UNL     1       7.327  13.752   8.751  1.00  0.00     0.000 A 
ENDBRANCH  38  51
ENDBRANCH  12  13
ENDBRANCH   5   7
ENDBRANCH   2   3
ENDBRANCH   1   2
BRANCH   1  57
ATOM     57  C   UNL     1       4.521  -3.788  -0.842  1.00  0.00     0.023 C 
BRANCH  57  58
ATOM     58  C   UNL     1       4.864  -3.648  -2.323  1.00  0.00     0.116 C 
BRANCH  58  59
ATOM     59  N   UNL     1       6.299  -3.536  -2.556  1.00  0.00    -0.352 N 
ATOM     60  C   UNL     1       7.127  -4.349  -3.281  1.00  0.00     0.256 C 
ATOM     61  H   UNL     1       6.735  -2.764  -2.129  1.00  0.00     0.163 HD
ATOM     62  O   UNL     1       8.346  -4.190  -3.231  1.00  0.00    -0.269 OA
BRANCH  60  63
ATOM     63  C   UNL     1       6.573  -5.406  -4.134  1.00  0.00     0.102 A 
ATOM     64  C   UNL     1       7.049  -6.712  -3.973  1.00  0.00     0.029 A 
ATOM     65  C   UNL     1       5.638  -5.156  -5.130  1.00  0.00     0.223 A 
ATOM     66  C   UNL     1       6.545  -7.740  -4.776  1.00  0.00     0.001 A 
ATOM     67  N   UNL     1       5.103  -6.123  -5.897  1.00  0.00    -0.221 NA
ATOM     68  C   UNL     1       5.563  -7.382  -5.703  1.00  0.00     0.124 A 
BRANCH  65  69
ATOM     69  O   UNL     1       5.177  -3.907  -5.431  1.00  0.00    -0.493 OA
ATOM     70  H   UNL     1       5.489  -3.164  -4.953  1.00  0.00     0.295 HD
ENDBRANCH  65  69
BRANCH  66  71
ATOM     71  C   UNL     1       7.036  -9.117  -4.672  1.00  0.00    -0.016 A 
ATOM     72  C   UNL     1       7.626  -9.746  -5.781  1.00  0.00     0.012 A 
ATOM     73  C   UNL     1       6.929  -9.843  -3.471  1.00  0.00     0.025 A 
ATOM     74  C   UNL     1       8.088 -11.060  -5.697  1.00  0.00     0.040 A 
ATOM     75  C   UNL     1       7.389 -11.169  -3.379  1.00  0.00     0.092 A 
ATOM     76  C   UNL     1       7.962 -11.759  -4.502  1.00  0.00     0.135 A 
ATOM     77  F   UNL     1       8.401 -13.023  -4.445  1.00  0.00    -0.206 F 
BRANCH  75  78
ATOM     78  C   UNL     1       7.262 -11.971  -2.120  1.00  0.00     0.419 C 
ATOM     79  F   UNL     1       6.405 -13.021  -2.248  1.00  0.00    -0.166 F 
ATOM     80  F   UNL     1       8.444 -12.491  -1.692  1.00  0.00    -0.166 F 
ATOM     81  F   UNL     1       6.786 -11.239  -1.071  1.00  0.00    -0.166 F 
ENDBRANCH  75  78
ENDBRANCH  66  71
ENDBRANCH  60  63
ENDBRANCH  58  59
ENDBRANCH  57  58
ENDBRANCH   1  57
TORSDOF 14
