REMARK SMILES C[N@H+]1Cc2ccccc2C[C@@H]1C(=O)NCCC(=O)NCC(=O)NCCCCNC(=O)c1ccc(-c2c3nc(c(-c4ccccc4)c4ccc([nH]4)c(-c4ccccc4)c4nc(c(-c5ccccc5)c5ccc2[nH]5)C=C4)C=C3)cc1
REMARK SMILES IDX 24 1 23 2 21 3 22 4 20 6 19 7 17 8 18 9 16 11 15 12 14 13
REMARK SMILES IDX 12 14 13 15 11 17 1 18 2 19 3 20 4 22 10 23 5 24 9 25 6 26
REMARK SMILES IDX 8 27 7 28 25 29 26 30 27 31 28 32 29 33 30 35 31 36 32 37
REMARK SMILES IDX 78 38 33 39 77 40 34 41 35 42 36 43 71 44 37 45 76 46 70 47
REMARK SMILES IDX 72 48 38 49 75 50 69 51 68 52 39 54 61 55 46 56 60 57 47 58
REMARK SMILES IDX 50 59 59 60 73 61 48 62 49 63 58 65 74 66 51 67 40 68 41 69
REMARK SMILES IDX 45 70 42 71 44 72 43 73 62 74 63 75 67 76 64 77 66 78 65 79
REMARK SMILES IDX 52 80 53 81 57 82 54 83 56 84 55 85
REMARK H PARENT 23 5 19 10 14 16 2 21 28 34 72 53 50 64
REMARK Flexibility Score: inf
ROOT
ATOM      1  C   UNL     1      -4.848   4.285   2.438  1.00  0.00     0.116 C 
ENDROOT
BRANCH   1   2
ATOM      2  N   UNL     1      -5.915   3.677   1.664  1.00  0.00    -0.355 N 
ATOM      3  C   UNL     1      -6.349   3.839   0.382  1.00  0.00     0.239 C 
ATOM      4  O   UNL     1      -7.284   3.112   0.028  1.00  0.00    -0.273 OA
ATOM      5  H   UNL     1      -6.432   3.009   2.169  1.00  0.00     0.163 HD
BRANCH   3   6
ATOM      6  C   UNL     1      -5.639   4.727  -0.660  1.00  0.00     0.216 C 
BRANCH   6   7
ATOM      7  N   UNL     1      -4.942   5.904  -0.176  1.00  0.00    -0.347 N 
ATOM      8  C   UNL     1      -3.614   6.201  -0.176  1.00  0.00     0.222 C 
ATOM      9  O   UNL     1      -3.247   7.219   0.412  1.00  0.00    -0.275 OA
ATOM     10  H   UNL     1      -5.522   6.598   0.214  1.00  0.00     0.164 HD
BRANCH   8  11
ATOM     11  C   UNL     1      -2.607   5.277  -0.825  1.00  0.00     0.121 C 
BRANCH  11  12
ATOM     12  C   UNL     1      -2.031   4.258   0.161  1.00  0.00     0.126 C 
BRANCH  12  13
ATOM     13  N   UNL     1      -2.811   3.026   0.218  1.00  0.00    -0.350 N 
ATOM     14  C   UNL     1      -2.725   1.982  -0.656  1.00  0.00     0.278 C 
ATOM     15  O   UNL     1      -3.726   1.765  -1.349  1.00  0.00    -0.268 OA
ATOM     16  H   UNL     1      -3.459   2.941   0.955  1.00  0.00     0.163 HD
BRANCH  14  17
ATOM     17  C   UNL     1      -1.535   0.993  -0.634  1.00  0.00     0.278 C 
ATOM     18  C   UNL     1      -3.159  -0.773  -0.001  1.00  0.00     0.333 C 
ATOM     19  N   UNL     1      -1.827  -0.201   0.227  1.00  0.00    -0.323 N 
ATOM     20  C   UNL     1      -0.817  -1.247  -0.053  1.00  0.00     0.299 C 
ATOM     21  H   UNL     1      -1.795   0.117   1.195  1.00  0.00     0.348 HD
ATOM     22  C   UNL     1       0.613  -0.756   0.002  1.00  0.00     0.010 A 
ATOM     23  C   UNL     1      -0.214   1.615  -0.161  1.00  0.00     0.111 C 
ATOM     24  C   UNL     1       1.666  -1.679   0.060  1.00  0.00     0.010 A 
ATOM     25  C   UNL     1       0.907   0.613  -0.076  1.00  0.00    -0.033 A 
ATOM     26  C   UNL     1       2.991  -1.242   0.080  1.00  0.00     0.001 A 
ATOM     27  C   UNL     1       2.238   1.048  -0.029  1.00  0.00     0.004 A 
ATOM     28  C   UNL     1       3.276   0.121   0.044  1.00  0.00     0.000 A 
ENDBRANCH  14  17
ENDBRANCH  12  13
ENDBRANCH  11  12
ENDBRANCH   8  11
ENDBRANCH   6   7
ENDBRANCH   3   6
ENDBRANCH   1   2
BRANCH   1  29
ATOM     29  C   UNL     1      -5.340   4.933   3.724  1.00  0.00     0.023 C 
BRANCH  29  30
ATOM     30  C   UNL     1      -5.701   3.944   4.829  1.00  0.00     0.023 C 
BRANCH  30  31
ATOM     31  C   UNL     1      -4.596   2.967   5.223  1.00  0.00     0.116 C 
BRANCH  31  32
ATOM     32  N   UNL     1      -3.367   3.617   5.664  1.00  0.00    -0.352 N 
ATOM     33  C   UNL     1      -2.636   3.388   6.807  1.00  0.00     0.251 C 
ATOM     34  H   UNL     1      -3.014   4.312   5.063  1.00  0.00     0.163 HD
ATOM     35  O   UNL     1      -1.661   4.080   7.082  1.00  0.00    -0.269 OA
BRANCH  33  36
ATOM     36  C   UNL     1      -3.074   2.323   7.728  1.00  0.00     0.039 A 
ATOM     37  C   UNL     1      -3.344   2.648   9.059  1.00  0.00     0.014 A 
ATOM     38  C   UNL     1      -3.316   1.035   7.244  1.00  0.00     0.014 A 
ATOM     39  C   UNL     1      -3.961   1.705   9.883  1.00  0.00     0.010 A 
ATOM     40  C   UNL     1      -3.998   0.126   8.043  1.00  0.00     0.010 A 
ATOM     41  C   UNL     1      -4.344   0.459   9.363  1.00  0.00    -0.014 A 
BRANCH  41  42
ATOM     42  C   UNL     1      -5.138  -0.509  10.160  1.00  0.00     0.031 A 
ATOM     43  C   UNL     1      -4.569  -1.860  10.483  1.00  0.00     0.074 A 
ATOM     44  C   UNL     1      -6.408  -0.214  10.500  1.00  0.00     0.049 A 
ATOM     45  N   UNL     1      -5.151  -2.889  11.045  1.00  0.00    -0.248 NA
ATOM     46  C   UNL     1      -3.170  -2.094  10.093  1.00  0.00     0.031 C 
ATOM     47  C   UNL     1      -7.096   1.048  10.217  1.00  0.00     0.029 A 
ATOM     48  N   UNL     1      -7.353  -0.968  11.150  1.00  0.00    -0.354 N 
ATOM     49  C   UNL     1      -4.203  -3.903  11.040  1.00  0.00     0.074 A 
ATOM     50  C   UNL     1      -3.022  -3.376  10.389  1.00  0.00     0.031 C 
ATOM     51  C   UNL     1      -8.342   0.990  10.716  1.00  0.00     0.029 A 
ATOM     52  C   UNL     1      -8.555  -0.324  11.311  1.00  0.00     0.049 A 
ATOM     53  H   UNL     1      -7.185  -1.884  11.469  1.00  0.00     0.167 HD
ATOM     54  C   UNL     1      -4.299  -5.156  11.544  1.00  0.00     0.031 A 
ATOM     55  C   UNL     1      -9.705  -0.747  11.869  1.00  0.00     0.031 A 
ATOM     56  C   UNL     1      -5.461  -5.674  12.213  1.00  0.00     0.049 A 
ATOM     57  C   UNL     1      -9.790  -2.141  12.421  1.00  0.00     0.074 A 
ATOM     58  C   UNL     1      -5.631  -6.907  12.817  1.00  0.00     0.029 A 
ATOM     59  N   UNL     1      -6.653  -4.984  12.367  1.00  0.00    -0.354 N 
ATOM     60  N   UNL     1      -8.869  -3.073  12.453  1.00  0.00    -0.248 NA
ATOM     61  C   UNL     1     -11.073  -2.539  13.016  1.00  0.00     0.031 C 
ATOM     62  C   UNL     1      -6.941  -6.977  13.306  1.00  0.00     0.029 A 
ATOM     63  C   UNL     1      -7.571  -5.772  13.041  1.00  0.00     0.049 A 
ATOM     64  H   UNL     1      -6.823  -4.070  12.044  1.00  0.00     0.167 HD
ATOM     65  C   UNL     1      -9.451  -4.158  13.094  1.00  0.00     0.074 A 
ATOM     66  C   UNL     1     -10.803  -3.766  13.439  1.00  0.00     0.031 C 
ATOM     67  C   UNL     1      -8.912  -5.368  13.376  1.00  0.00     0.031 A 
BRANCH  54  68
ATOM     68  C   UNL     1      -3.107  -6.053  11.367  1.00  0.00    -0.014 A 
ATOM     69  C   UNL     1      -1.920  -5.835  12.084  1.00  0.00     0.009 A 
ATOM     70  C   UNL     1      -3.171  -7.125  10.465  1.00  0.00     0.009 A 
ATOM     71  C   UNL     1      -0.803  -6.644  11.864  1.00  0.00     0.001 A 
ATOM     72  C   UNL     1      -2.062  -7.950  10.268  1.00  0.00     0.001 A 
ATOM     73  C   UNL     1      -0.876  -7.701  10.958  1.00  0.00     0.000 A 
ENDBRANCH  54  68
BRANCH  55  74
ATOM     74  C   UNL     1     -10.864   0.175  11.962  1.00  0.00    -0.014 A 
ATOM     75  C   UNL     1     -11.200   0.758  13.193  1.00  0.00     0.009 A 
ATOM     76  C   UNL     1     -11.630   0.488  10.828  1.00  0.00     0.009 A 
ATOM     77  C   UNL     1     -12.290   1.625  13.291  1.00  0.00     0.001 A 
ATOM     78  C   UNL     1     -12.706   1.372  10.926  1.00  0.00     0.001 A 
ATOM     79  C   UNL     1     -13.039   1.936  12.157  1.00  0.00     0.000 A 
ENDBRANCH  55  74
BRANCH  67  80
ATOM     80  C   UNL     1      -9.772  -6.343  14.125  1.00  0.00    -0.014 A 
ATOM     81  C   UNL     1     -10.812  -7.035  13.486  1.00  0.00     0.009 A 
ATOM     82  C   UNL     1      -9.511  -6.601  15.479  1.00  0.00     0.009 A 
ATOM     83  C   UNL     1     -11.591  -7.949  14.199  1.00  0.00     0.001 A 
ATOM     84  C   UNL     1     -10.276  -7.531  16.183  1.00  0.00     0.001 A 
ATOM     85  C   UNL     1     -11.320  -8.199  15.544  1.00  0.00     0.000 A 
ENDBRANCH  67  80
ENDBRANCH  41  42
ENDBRANCH  33  36
ENDBRANCH  31  32
ENDBRANCH  30  31
ENDBRANCH  29  30
ENDBRANCH   1  29
TORSDOF 16
