REMARK SMILES C[C@@H](CC(=O)NCCCCNC(=O)c1ccc(-c2c3nc(c(-c4ccccc4)c4ccc([nH]4)c(-c4ccccc4)c4nc(c(-c5ccccc5)c5ccc2[nH]5)C=C4)C=C3)cc1)NC(=O)/C=C/c1cccnc1
REMARK SMILES IDX 7 1 6 2 4 3 5 4 3 6 2 7 1 8 62 9 63 10 64 12 65 13 66 14
REMARK SMILES IDX 67 15 68 16 72 17 69 18 71 19 70 20 8 21 9 22 10 23 11 24
REMARK SMILES IDX 12 25 13 27 14 28 15 29 61 30 16 31 60 32 17 33 18 34 19 35
REMARK SMILES IDX 54 36 20 37 59 38 53 39 55 40 21 41 58 42 52 43 51 44 22 46
REMARK SMILES IDX 44 47 29 48 43 49 30 50 33 51 42 52 56 53 31 54 32 55 41 57
REMARK SMILES IDX 57 58 34 59 23 60 24 61 28 62 25 63 27 64 26 65 45 66 46 67
REMARK SMILES IDX 50 68 47 69 49 70 48 71 35 72 36 73 40 74 37 75 39 76 38 77
REMARK H PARENT 6 5 62 11 11 26 55 45 33 56
REMARK Flexibility Score: inf
ROOT
ATOM      1  C   UNL     1       1.725  -0.282   2.441  1.00  0.00     0.116 C 
ENDROOT
BRANCH   1   2
ATOM      2  N   UNL     1       0.713  -1.308   2.583  1.00  0.00    -0.356 N 
ATOM      3  C   UNL     1       0.234  -2.189   1.663  1.00  0.00     0.222 C 
ATOM      4  O   UNL     1      -0.805  -2.796   1.929  1.00  0.00    -0.275 OA
ATOM      5  H   UNL     1       0.311  -1.378   3.479  1.00  0.00     0.163 HD
BRANCH   3   6
ATOM      6  C   UNL     1       0.979  -2.451   0.371  1.00  0.00     0.124 C 
BRANCH   6   7
ATOM      7  C   UNL     1       0.544  -1.642  -0.860  1.00  0.00     0.088 C 
ATOM      8  C   UNL     1       0.920  -0.167  -0.770  1.00  0.00     0.031 C 
BRANCH   7   9
ATOM      9  N   UNL     1      -0.879  -1.750  -1.163  1.00  0.00    -0.350 N 
ATOM     10  C   UNL     1      -1.547  -1.733  -2.351  1.00  0.00     0.244 C 
ATOM     11  H   UNL     1      -1.457  -1.853  -0.373  1.00  0.00     0.164 HD
ATOM     12  O   UNL     1      -2.777  -1.714  -2.351  1.00  0.00    -0.270 OA
BRANCH  10  13
ATOM     13  C   UNL     1      -0.837  -1.846  -3.653  1.00  0.00     0.072 C 
ATOM     14  C   UNL     1       0.314  -1.250  -3.983  1.00  0.00     0.015 C 
BRANCH  14  15
ATOM     15  C   UNL     1       1.026  -1.427  -5.240  1.00  0.00    -0.007 A 
ATOM     16  C   UNL     1       0.738  -0.645  -6.354  1.00  0.00     0.011 A 
ATOM     17  C   UNL     1       2.116  -2.290  -5.307  1.00  0.00     0.119 A 
ATOM     18  C   UNL     1       1.554  -0.744  -7.478  1.00  0.00     0.021 A 
ATOM     19  N   UNL     1       2.922  -2.408  -6.386  1.00  0.00    -0.264 NA
ATOM     20  C   UNL     1       2.624  -1.626  -7.445  1.00  0.00     0.111 A 
ENDBRANCH  14  15
ENDBRANCH  10  13
ENDBRANCH   7   9
ENDBRANCH   6   7
ENDBRANCH   3   6
ENDBRANCH   1   2
BRANCH   1  21
ATOM     21  C   UNL     1       1.066   1.097   2.341  1.00  0.00     0.023 C 
BRANCH  21  22
ATOM     22  C   UNL     1       0.609   1.688   3.664  1.00  0.00     0.023 C 
BRANCH  22  23
ATOM     23  C   UNL     1       1.730   1.953   4.646  1.00  0.00     0.116 C 
BRANCH  23  24
ATOM     24  N   UNL     1       2.742   2.867   4.135  1.00  0.00    -0.352 N 
ATOM     25  C   UNL     1       3.373   3.887   4.810  1.00  0.00     0.251 C 
ATOM     26  H   UNL     1       3.007   2.740   3.196  1.00  0.00     0.163 HD
ATOM     27  O   UNL     1       4.135   4.651   4.238  1.00  0.00    -0.269 OA
BRANCH  25  28
ATOM     28  C   UNL     1       3.063   4.059   6.243  1.00  0.00     0.039 A 
ATOM     29  C   UNL     1       2.612   5.299   6.694  1.00  0.00     0.014 A 
ATOM     30  C   UNL     1       3.100   2.953   7.096  1.00  0.00     0.014 A 
ATOM     31  C   UNL     1       2.123   5.412   7.995  1.00  0.00     0.010 A 
ATOM     32  C   UNL     1       2.517   3.043   8.350  1.00  0.00     0.010 A 
ATOM     33  C   UNL     1       2.032   4.275   8.816  1.00  0.00    -0.014 A 
BRANCH  33  34
ATOM     34  C   UNL     1       1.460   4.348  10.181  1.00  0.00     0.031 A 
ATOM     35  C   UNL     1       2.324   4.009  11.363  1.00  0.00     0.074 A 
ATOM     36  C   UNL     1       0.156   4.640  10.352  1.00  0.00     0.049 A 
ATOM     37  N   UNL     1       1.999   3.928  12.627  1.00  0.00    -0.248 NA
ATOM     38  C   UNL     1       3.732   3.678  11.082  1.00  0.00     0.031 C 
ATOM     39  C   UNL     1      -0.801   4.933   9.281  1.00  0.00     0.029 A 
ATOM     40  N   UNL     1      -0.591   4.732  11.498  1.00  0.00    -0.354 N 
ATOM     41  C   UNL     1       3.150   3.508  13.282  1.00  0.00     0.074 A 
ATOM     42  C   UNL     1       4.163   3.296  12.273  1.00  0.00     0.031 C 
ATOM     43  C   UNL     1      -1.998   5.208   9.825  1.00  0.00     0.029 A 
ATOM     44  C   UNL     1      -1.903   5.074  11.275  1.00  0.00     0.049 A 
ATOM     45  H   UNL     1      -0.223   4.568  12.396  1.00  0.00     0.167 HD
ATOM     46  C   UNL     1       3.357   3.341  14.609  1.00  0.00     0.031 A 
ATOM     47  C   UNL     1      -2.913   5.263  12.145  1.00  0.00     0.031 A 
ATOM     48  C   UNL     1       2.362   3.588  15.614  1.00  0.00     0.049 A 
ATOM     49  C   UNL     1      -2.653   5.096  13.616  1.00  0.00     0.074 A 
ATOM     50  C   UNL     1       2.489   3.516  16.989  1.00  0.00     0.029 A 
ATOM     51  N   UNL     1       1.055   3.963  15.348  1.00  0.00    -0.354 N 
ATOM     52  N   UNL     1      -1.540   4.764  14.225  1.00  0.00    -0.248 NA
ATOM     53  C   UNL     1      -3.786   5.341  14.519  1.00  0.00     0.031 C 
ATOM     54  C   UNL     1       1.246   3.815  17.556  1.00  0.00     0.029 A 
ATOM     55  C   UNL     1       0.359   4.114  16.534  1.00  0.00     0.049 A 
ATOM     56  H   UNL     1       0.678   4.101  14.449  1.00  0.00     0.167 HD
ATOM     57  C   UNL     1      -1.831   4.786  15.582  1.00  0.00     0.074 A 
ATOM     58  C   UNL     1      -3.221   5.178  15.707  1.00  0.00     0.031 C 
ATOM     59  C   UNL     1      -1.022   4.508  16.633  1.00  0.00     0.031 A 
BRANCH  46  60
ATOM     60  C   UNL     1       4.719   2.873  15.036  1.00  0.00    -0.014 A 
ATOM     61  C   UNL     1       5.841   3.711  14.932  1.00  0.00     0.009 A 
ATOM     62  C   UNL     1       4.882   1.580  15.556  1.00  0.00     0.009 A 
ATOM     63  C   UNL     1       7.106   3.248  15.299  1.00  0.00     0.001 A 
ATOM     64  C   UNL     1       6.144   1.130  15.950  1.00  0.00     0.001 A 
ATOM     65  C   UNL     1       7.256   1.960  15.811  1.00  0.00     0.000 A 
ENDBRANCH  46  60
BRANCH  47  66
ATOM     66  C   UNL     1      -4.255   5.665  11.653  1.00  0.00    -0.014 A 
ATOM     67  C   UNL     1      -4.721   6.974  11.858  1.00  0.00     0.009 A 
ATOM     68  C   UNL     1      -5.079   4.750  10.981  1.00  0.00     0.009 A 
ATOM     69  C   UNL     1      -5.994   7.349  11.424  1.00  0.00     0.001 A 
ATOM     70  C   UNL     1      -6.342   5.136  10.525  1.00  0.00     0.001 A 
ATOM     71  C   UNL     1      -6.801   6.432  10.754  1.00  0.00     0.000 A 
ENDBRANCH  47  66
BRANCH  59  72
ATOM     72  C   UNL     1      -1.610   4.651  18.006  1.00  0.00    -0.014 A 
ATOM     73  C   UNL     1      -2.514   3.705  18.512  1.00  0.00     0.009 A 
ATOM     74  C   UNL     1      -1.215   5.724  18.821  1.00  0.00     0.009 A 
ATOM     75  C   UNL     1      -3.035   3.849  19.799  1.00  0.00     0.001 A 
ATOM     76  C   UNL     1      -1.718   5.850  20.116  1.00  0.00     0.001 A 
ATOM     77  C   UNL     1      -2.634   4.917  20.601  1.00  0.00     0.000 A 
ENDBRANCH  59  72
ENDBRANCH  33  34
ENDBRANCH  25  28
ENDBRANCH  23  24
ENDBRANCH  22  23
ENDBRANCH  21  22
ENDBRANCH   1  21
TORSDOF 15
