REMARK SMILES CC[C@@H](C(=O)Nc1ccc(OC(C)=O)cc1C(=O)NCCCCNC(=O)c1ccc(-c2c3nc(c(-c4ccccc4)c4ccc([nH]4)c(-c4ccccc4)c4nc(c(-c5ccccc5)c5ccc2[nH]5)C=C4)C=C3)cc1)c1ccccc1
REMARK SMILES IDX 21 1 20 2 19 3 17 4 18 5 16 7 7 8 8 9 9 10 15 11 10 12 6 13
REMARK SMILES IDX 4 14 5 15 3 17 2 18 1 19 75 20 76 21 80 22 77 23 79 24 78 25
REMARK SMILES IDX 11 26 12 27 13 28 14 29 22 30 23 31 24 32 25 33 26 35 27 36
REMARK SMILES IDX 28 37 74 38 29 39 73 40 30 41 31 42 32 43 67 44 33 45 72 46
REMARK SMILES IDX 66 47 68 48 34 49 71 50 65 51 64 52 35 54 57 55 42 56 56 57
REMARK SMILES IDX 43 58 46 59 55 60 69 61 44 62 45 63 54 65 70 66 47 67 36 68
REMARK SMILES IDX 37 69 41 70 38 71 40 72 39 73 58 74 59 75 63 76 60 77 62 78
REMARK SMILES IDX 61 79 48 80 49 81 53 82 50 83 52 84 51 85
REMARK H PARENT 19 6 6 16 24 34 68 53 46 64
REMARK Flexibility Score: inf
ROOT
ATOM      1  C   UNL     1      -2.621  -3.172   1.255  1.00  0.00     0.023 C 
ENDROOT
BRANCH   1   2
ATOM      2  C   UNL     1      -1.287  -2.443   1.131  1.00  0.00     0.116 C 
BRANCH   2   3
ATOM      3  N   UNL     1      -1.394  -1.097   0.614  1.00  0.00    -0.352 N 
ATOM      4  C   UNL     1      -0.524  -0.038   0.651  1.00  0.00     0.253 C 
ATOM      5  O   UNL     1      -0.915   1.021   0.152  1.00  0.00    -0.269 OA
ATOM      6  H   UNL     1      -2.243  -0.907   0.153  1.00  0.00     0.163 HD
BRANCH   4   7
ATOM      7  C   UNL     1       0.833  -0.053   1.278  1.00  0.00     0.067 A 
ATOM      8  C   UNL     1       1.754  -1.112   1.363  1.00  0.00     0.054 A 
ATOM      9  C   UNL     1       2.899  -0.966   2.181  1.00  0.00     0.031 A 
ATOM     10  C   UNL     1       3.252   0.266   2.723  1.00  0.00     0.049 A 
ATOM     11  C   UNL     1       1.200   1.189   1.850  1.00  0.00     0.063 A 
ATOM     12  C   UNL     1       2.426   1.352   2.491  1.00  0.00     0.131 A 
BRANCH   8  13
ATOM     13  N   UNL     1       1.690  -2.365   0.754  1.00  0.00    -0.325 N 
ATOM     14  C   UNL     1       1.529  -2.855  -0.500  1.00  0.00     0.231 C 
ATOM     15  O   UNL     1       1.379  -4.091  -0.486  1.00  0.00    -0.274 OA
ATOM     16  H   UNL     1       1.787  -3.090   1.413  1.00  0.00     0.169 HD
BRANCH  14  17
ATOM     17  C   UNL     1       1.716  -2.116  -1.859  1.00  0.00     0.108 C 
BRANCH  17  18
ATOM     18  C   UNL     1       1.582  -0.591  -1.952  1.00  0.00     0.015 C 
ATOM     19  C   UNL     1       2.805   0.193  -1.508  1.00  0.00     0.005 C 
ENDBRANCH  17  18
BRANCH  17  20
ATOM     20  C   UNL     1       0.897  -2.819  -2.973  1.00  0.00    -0.036 A 
ATOM     21  C   UNL     1      -0.178  -2.211  -3.644  1.00  0.00     0.004 A 
ATOM     22  C   UNL     1       1.254  -4.124  -3.367  1.00  0.00     0.004 A 
ATOM     23  C   UNL     1      -0.828  -2.858  -4.702  1.00  0.00     0.000 A 
ATOM     24  C   UNL     1       0.580  -4.784  -4.397  1.00  0.00     0.000 A 
ATOM     25  C   UNL     1      -0.447  -4.142  -5.080  1.00  0.00     0.000 A 
ENDBRANCH  17  20
ENDBRANCH  14  17
ENDBRANCH   8  13
BRANCH  12  26
ATOM     26  O   UNL     1       2.829   2.599   2.992  1.00  0.00    -0.427 OA
BRANCH  26  27
ATOM     27  C   UNL     1       3.445   3.517   2.141  1.00  0.00     0.308 C 
ATOM     28  C   UNL     1       2.871   3.623   0.756  1.00  0.00     0.139 C 
ATOM     29  O   UNL     1       4.339   4.258   2.539  1.00  0.00    -0.252 OA
ENDBRANCH  26  27
ENDBRANCH  12  26
ENDBRANCH   4   7
ENDBRANCH   2   3
ENDBRANCH   1   2
BRANCH   1  30
ATOM     30  C   UNL     1      -3.302  -3.516  -0.076  1.00  0.00     0.023 C 
BRANCH  30  31
ATOM     31  C   UNL     1      -2.470  -4.315  -1.083  1.00  0.00     0.116 C 
BRANCH  31  32
ATOM     32  N   UNL     1      -2.026  -5.608  -0.578  1.00  0.00    -0.352 N 
ATOM     33  C   UNL     1      -2.398  -6.880  -0.944  1.00  0.00     0.251 C 
ATOM     34  H   UNL     1      -1.353  -5.563   0.139  1.00  0.00     0.163 HD
ATOM     35  O   UNL     1      -2.003  -7.854  -0.309  1.00  0.00    -0.269 OA
BRANCH  33  36
ATOM     36  C   UNL     1      -3.306  -7.082  -2.092  1.00  0.00     0.039 A 
ATOM     37  C   UNL     1      -4.428  -7.900  -1.942  1.00  0.00     0.014 A 
ATOM     38  C   UNL     1      -3.056  -6.454  -3.314  1.00  0.00     0.014 A 
ATOM     39  C   UNL     1      -5.353  -8.003  -2.985  1.00  0.00     0.010 A 
ATOM     40  C   UNL     1      -4.013  -6.495  -4.324  1.00  0.00     0.010 A 
ATOM     41  C   UNL     1      -5.180  -7.258  -4.165  1.00  0.00    -0.014 A 
BRANCH  41  42
ATOM     42  C   UNL     1      -6.221  -7.237  -5.225  1.00  0.00     0.031 A 
ATOM     43  C   UNL     1      -5.920  -7.764  -6.601  1.00  0.00     0.074 A 
ATOM     44  C   UNL     1      -7.420  -6.676  -4.968  1.00  0.00     0.049 A 
ATOM     45  N   UNL     1      -6.682  -7.769  -7.667  1.00  0.00    -0.248 NA
ATOM     46  C   UNL     1      -4.583  -8.339  -6.815  1.00  0.00     0.031 C 
ATOM     47  C   UNL     1      -7.827  -6.087  -3.690  1.00  0.00     0.029 A 
ATOM     48  N   UNL     1      -8.518  -6.503  -5.775  1.00  0.00    -0.354 N 
ATOM     49  C   UNL     1      -5.913  -8.335  -8.676  1.00  0.00     0.074 A 
ATOM     50  C   UNL     1      -4.611  -8.612  -8.111  1.00  0.00     0.031 C 
ATOM     51  C   UNL     1      -9.093  -5.648  -3.790  1.00  0.00     0.029 A 
ATOM     52  C   UNL     1      -9.573  -5.885  -5.147  1.00  0.00     0.049 A 
ATOM     53  H   UNL     1      -8.547  -6.794  -6.715  1.00  0.00     0.167 HD
ATOM     54  C   UNL     1      -6.266  -8.621  -9.953  1.00  0.00     0.031 A 
ATOM     55  C   UNL     1     -10.790  -5.543  -5.611  1.00  0.00     0.031 A 
ATOM     56  C   UNL     1      -7.562  -8.356 -10.517  1.00  0.00     0.049 A 
ATOM     57  C   UNL     1     -11.147  -5.854  -7.038  1.00  0.00     0.074 A 
ATOM     58  C   UNL     1      -8.026  -8.650 -11.787  1.00  0.00     0.029 A 
ATOM     59  N   UNL     1      -8.603  -7.736  -9.844  1.00  0.00    -0.354 N 
ATOM     60  N   UNL     1     -10.428  -6.447  -7.960  1.00  0.00    -0.248 NA
ATOM     61  C   UNL     1     -12.491  -5.456  -7.484  1.00  0.00     0.031 C 
ATOM     62  C   UNL     1      -9.335  -8.170 -11.898  1.00  0.00     0.029 A 
ATOM     63  C   UNL     1      -9.702  -7.624 -10.679  1.00  0.00     0.049 A 
ATOM     64  H   UNL     1      -8.566  -7.423  -8.912  1.00  0.00     0.167 HD
ATOM     65  C   UNL     1     -11.242  -6.522  -9.083  1.00  0.00     0.074 A 
ATOM     66  C   UNL     1     -12.513  -5.929  -8.723  1.00  0.00     0.031 C 
ATOM     67  C   UNL     1     -10.962  -7.038 -10.304  1.00  0.00     0.031 A 
BRANCH  54  68
ATOM     68  C   UNL     1      -5.227  -9.264 -10.829  1.00  0.00    -0.014 A 
ATOM     69  C   UNL     1      -4.830 -10.595 -10.622  1.00  0.00     0.009 A 
ATOM     70  C   UNL     1      -4.670  -8.547 -11.899  1.00  0.00     0.009 A 
ATOM     71  C   UNL     1      -3.872 -11.184 -11.449  1.00  0.00     0.001 A 
ATOM     72  C   UNL     1      -3.732  -9.149 -12.742  1.00  0.00     0.001 A 
ATOM     73  C   UNL     1      -3.328 -10.463 -12.511  1.00  0.00     0.000 A 
ENDBRANCH  54  68
BRANCH  55  74
ATOM     74  C   UNL     1     -11.777  -4.882  -4.718  1.00  0.00    -0.014 A 
ATOM     75  C   UNL     1     -12.927  -5.569  -4.299  1.00  0.00     0.009 A 
ATOM     76  C   UNL     1     -11.592  -3.554  -4.303  1.00  0.00     0.009 A 
ATOM     77  C   UNL     1     -13.888  -4.929  -3.512  1.00  0.00     0.001 A 
ATOM     78  C   UNL     1     -12.540  -2.927  -3.491  1.00  0.00     0.001 A 
ATOM     79  C   UNL     1     -13.692  -3.611  -3.107  1.00  0.00     0.000 A 
ENDBRANCH  55  74
BRANCH  67  80
ATOM     80  C   UNL     1     -12.064  -7.024 -11.325  1.00  0.00    -0.014 A 
ATOM     81  C   UNL     1     -12.469  -5.833 -11.947  1.00  0.00     0.009 A 
ATOM     82  C   UNL     1     -12.679  -8.230 -11.697  1.00  0.00     0.009 A 
ATOM     83  C   UNL     1     -13.491  -5.847 -12.898  1.00  0.00     0.001 A 
ATOM     84  C   UNL     1     -13.681  -8.244 -12.668  1.00  0.00     0.001 A 
ATOM     85  C   UNL     1     -14.092  -7.052 -13.261  1.00  0.00     0.000 A 
ENDBRANCH  67  80
ENDBRANCH  41  42
ENDBRANCH  33  36
ENDBRANCH  31  32
ENDBRANCH  30  31
ENDBRANCH   1  30
TORSDOF 17
