REMARK SMILES COCC[C@@H](C)NC(=O)N1Cc2nc[nH]c2C[C@@H]1C(=O)NCCCCNC(=O)c1ccc(-c2c3nc(c(-c4ccccc4)c4ccc([nH]4)c(-c4ccccc4)c4nc(c(-c5ccccc5)c5ccc2[nH]5)C=C4)C=C3)cc1
REMARK SMILES IDX 22 1 21 2 19 3 20 4 18 6 10 7 11 8 12 9 17 10 13 11 16 12
REMARK SMILES IDX 14 13 15 14 8 16 7 17 9 19 5 20 6 21 4 22 3 23 2 24 1 25
REMARK SMILES IDX 23 26 24 27 25 28 26 29 27 30 28 32 29 33 30 34 76 35 31 36
REMARK SMILES IDX 75 37 32 38 33 39 34 40 69 41 35 42 74 43 68 44 70 45 36 46
REMARK SMILES IDX 73 47 67 48 66 49 37 51 59 52 44 53 58 54 45 55 48 56 57 57
REMARK SMILES IDX 71 58 46 59 47 60 56 62 72 63 49 64 38 65 39 66 43 67 40 68
REMARK SMILES IDX 42 69 41 70 60 71 61 72 65 73 62 74 64 75 63 76 50 77 51 78
REMARK SMILES IDX 55 79 52 80 54 81 53 82
REMARK H PARENT 21 5 15 15 7 18 26 31 70 50 48 61
REMARK Flexibility Score: inf
ROOT
ATOM      1  C   UNL     1       1.602   0.751   1.693  1.00  0.00     0.116 C 
ENDROOT
BRANCH   1   2
ATOM      2  N   UNL     1       2.224   1.287   0.491  1.00  0.00    -0.354 N 
ATOM      3  C   UNL     1       1.895   2.349  -0.309  1.00  0.00     0.243 C 
ATOM      4  O   UNL     1       2.785   2.779  -1.047  1.00  0.00    -0.273 OA
ATOM      5  H   UNL     1       3.027   0.796   0.200  1.00  0.00     0.163 HD
BRANCH   3   6
ATOM      6  C   UNL     1       0.484   2.961  -0.302  1.00  0.00     0.182 C 
ATOM      7  N   UNL     1      -0.454   2.836  -1.482  1.00  0.00    -0.306 N 
ATOM      8  C   UNL     1      -1.845   3.304  -1.188  1.00  0.00     0.180 C 
ATOM      9  C   UNL     1      -1.818   4.532  -0.324  1.00  0.00     0.081 A 
ATOM     10  C   UNL     1       0.668   4.454   0.116  1.00  0.00     0.091 C 
ATOM     11  N   UNL     1      -2.916   5.243   0.087  1.00  0.00    -0.240 NA
ATOM     12  C   UNL     1      -0.683   5.036   0.268  1.00  0.00     0.042 A 
ATOM     13  C   UNL     1      -2.442   6.187   0.875  1.00  0.00     0.197 A 
ATOM     14  N   UNL     1      -1.081   6.104   1.012  1.00  0.00    -0.348 N 
ATOM     15  H   UNL     1      -0.504   6.700   1.543  1.00  0.00     0.167 HD
BRANCH   7  16
ATOM     16  C   UNL     1      -0.062   3.043  -2.787  1.00  0.00     0.318 C 
ATOM     17  N   UNL     1       0.765   2.154  -3.393  1.00  0.00    -0.335 N 
ATOM     18  H   UNL     1       1.107   2.457  -4.265  1.00  0.00     0.165 HD
ATOM     19  O   UNL     1      -0.541   3.924  -3.501  1.00  0.00    -0.249 OA
BRANCH  17  20
ATOM     20  C   UNL     1       1.242   0.836  -2.996  1.00  0.00     0.083 C 
ATOM     21  C   UNL     1       2.723   0.686  -3.353  1.00  0.00     0.031 C 
BRANCH  20  22
ATOM     22  C   UNL     1       0.395  -0.291  -3.626  1.00  0.00     0.053 C 
BRANCH  22  23
ATOM     23  C   UNL     1       0.346  -1.535  -2.732  1.00  0.00     0.162 C 
BRANCH  23  24
ATOM     24  O   UNL     1      -0.773  -1.629  -1.848  1.00  0.00    -0.385 OA
ATOM     25  C   UNL     1      -1.172  -0.438  -1.194  1.00  0.00     0.194 C 
ENDBRANCH  23  24
ENDBRANCH  22  23
ENDBRANCH  20  22
ENDBRANCH  17  20
ENDBRANCH   7  16
ENDBRANCH   3   6
ENDBRANCH   1   2
BRANCH   1  26
ATOM     26  C   UNL     1       1.005  -0.664   1.590  1.00  0.00     0.023 C 
BRANCH  26  27
ATOM     27  C   UNL     1       1.656  -1.662   0.618  1.00  0.00     0.023 C 
BRANCH  27  28
ATOM     28  C   UNL     1       2.762  -2.556   1.171  1.00  0.00     0.116 C 
BRANCH  28  29
ATOM     29  N   UNL     1       2.285  -3.482   2.212  1.00  0.00    -0.352 N 
ATOM     30  C   UNL     1       2.922  -4.004   3.334  1.00  0.00     0.251 C 
ATOM     31  H   UNL     1       1.355  -3.785   2.093  1.00  0.00     0.163 HD
ATOM     32  O   UNL     1       2.525  -5.021   3.869  1.00  0.00    -0.269 OA
BRANCH  30  33
ATOM     33  C   UNL     1       4.079  -3.278   3.890  1.00  0.00     0.039 A 
ATOM     34  C   UNL     1       5.187  -3.895   4.486  1.00  0.00     0.014 A 
ATOM     35  C   UNL     1       4.068  -1.915   3.691  1.00  0.00     0.014 A 
ATOM     36  C   UNL     1       6.273  -3.094   4.848  1.00  0.00     0.010 A 
ATOM     37  C   UNL     1       5.275  -1.314   3.588  1.00  0.00     0.010 A 
ATOM     38  C   UNL     1       6.285  -1.772   4.399  1.00  0.00    -0.014 A 
BRANCH  38  39
ATOM     39  C   UNL     1       7.366  -0.824   4.578  1.00  0.00     0.031 A 
ATOM     40  C   UNL     1       8.590  -1.212   3.852  1.00  0.00     0.074 A 
ATOM     41  C   UNL     1       7.164   0.430   5.048  1.00  0.00     0.049 A 
ATOM     42  N   UNL     1       9.604  -1.843   4.336  1.00  0.00    -0.248 NA
ATOM     43  C   UNL     1       8.589  -1.113   2.381  1.00  0.00     0.031 C 
ATOM     44  C   UNL     1       5.906   1.100   5.416  1.00  0.00     0.029 A 
ATOM     45  N   UNL     1       8.072   1.427   5.200  1.00  0.00    -0.354 N 
ATOM     46  C   UNL     1      10.493  -1.963   3.277  1.00  0.00     0.074 A 
ATOM     47  C   UNL     1       9.703  -1.788   2.087  1.00  0.00     0.031 C 
ATOM     48  C   UNL     1       6.117   2.433   5.542  1.00  0.00     0.029 A 
ATOM     49  C   UNL     1       7.540   2.693   5.421  1.00  0.00     0.049 A 
ATOM     50  H   UNL     1       9.042   1.265   5.157  1.00  0.00     0.167 HD
ATOM     51  C   UNL     1      11.834  -1.822   3.478  1.00  0.00     0.031 A 
ATOM     52  C   UNL     1       8.238   3.858   5.469  1.00  0.00     0.031 A 
ATOM     53  C   UNL     1      12.136  -1.777   4.894  1.00  0.00     0.049 A 
ATOM     54  C   UNL     1       9.663   3.500   5.691  1.00  0.00     0.074 A 
ATOM     55  C   UNL     1      11.908  -2.611   5.971  1.00  0.00     0.029 A 
ATOM     56  N   UNL     1      12.369  -0.528   5.427  1.00  0.00    -0.354 N 
ATOM     57  N   UNL     1      10.099   2.962   6.794  1.00  0.00    -0.248 NA
ATOM     58  C   UNL     1      10.495   3.278   4.518  1.00  0.00     0.031 C 
ATOM     59  C   UNL     1      11.545  -1.738   7.042  1.00  0.00     0.029 A 
ATOM     60  C   UNL     1      11.666  -0.420   6.597  1.00  0.00     0.049 A 
ATOM     61  H   UNL     1      12.943   0.169   5.034  1.00  0.00     0.167 HD
ATOM     62  C   UNL     1      10.978   1.971   6.379  1.00  0.00     0.074 A 
ATOM     63  C   UNL     1      11.257   2.278   4.974  1.00  0.00     0.031 C 
ATOM     64  C   UNL     1      11.148   0.830   7.113  1.00  0.00     0.031 A 
BRANCH  51  65
ATOM     65  C   UNL     1      12.788  -1.230   2.461  1.00  0.00    -0.014 A 
ATOM     66  C   UNL     1      14.130  -1.056   2.848  1.00  0.00     0.009 A 
ATOM     67  C   UNL     1      12.395  -0.589   1.272  1.00  0.00     0.009 A 
ATOM     68  C   UNL     1      14.983  -0.185   2.163  1.00  0.00     0.001 A 
ATOM     69  C   UNL     1      13.255   0.252   0.561  1.00  0.00     0.001 A 
ATOM     70  C   UNL     1      14.539   0.484   1.029  1.00  0.00     0.000 A 
ENDBRANCH  51  65
BRANCH  52  71
ATOM     71  C   UNL     1       7.836   5.229   5.077  1.00  0.00    -0.014 A 
ATOM     72  C   UNL     1       8.583   6.345   5.492  1.00  0.00     0.009 A 
ATOM     73  C   UNL     1       6.895   5.423   4.050  1.00  0.00     0.009 A 
ATOM     74  C   UNL     1       8.430   7.593   4.870  1.00  0.00     0.001 A 
ATOM     75  C   UNL     1       6.742   6.668   3.428  1.00  0.00     0.001 A 
ATOM     76  C   UNL     1       7.521   7.750   3.826  1.00  0.00     0.000 A 
ENDBRANCH  52  71
BRANCH  64  77
ATOM     77  C   UNL     1      10.553   0.785   8.501  1.00  0.00    -0.014 A 
ATOM     78  C   UNL     1       9.176   0.902   8.765  1.00  0.00     0.009 A 
ATOM     79  C   UNL     1      11.407   0.466   9.566  1.00  0.00     0.009 A 
ATOM     80  C   UNL     1       8.679   0.734  10.064  1.00  0.00     0.001 A 
ATOM     81  C   UNL     1      10.909   0.277  10.856  1.00  0.00     0.001 A 
ATOM     82  C   UNL     1       9.546   0.417  11.107  1.00  0.00     0.000 A 
ENDBRANCH  64  77
ENDBRANCH  38  39
ENDBRANCH  30  33
ENDBRANCH  28  29
ENDBRANCH  27  28
ENDBRANCH  26  27
ENDBRANCH   1  26
TORSDOF 16
