REMARK SMILES Cc1ccc2c(c1C)O[C@@H](C(=O)NCCCCNC(=O)c1ccc(-c3c4nc(c(-c5ccccc5)c5ccc([nH]5)c(-c5ccccc5)c5nc(c(-c6ccccc6)c6ccc3[nH]6)C=C5)C=C4)cc1)CC2=O
REMARK SMILES IDX 16 1 15 2 14 3 13 4 11 5 12 6 10 8 1 9 2 10 3 11 7 12 4 13
REMARK SMILES IDX 6 14 8 15 5 16 9 17 70 18 69 19 71 20 17 21 18 22 19 23
REMARK SMILES IDX 20 25 21 26 22 27 68 28 23 29 67 30 24 31 25 32 26 33 61 34
REMARK SMILES IDX 27 35 66 36 60 37 62 38 28 39 65 40 59 41 58 42 29 44 51 45
REMARK SMILES IDX 36 46 50 47 37 48 40 49 49 50 63 51 38 52 39 53 48 55 64 56
REMARK SMILES IDX 41 57 30 58 31 59 35 60 32 61 34 62 33 63 52 64 53 65 57 66
REMARK SMILES IDX 54 67 56 68 55 69 42 70 43 71 47 72 44 73 46 74 45 75
REMARK H PARENT 13 7 18 24 62 43 40 54
REMARK Flexibility Score: inf
ROOT
ATOM      1  C   UNL     1       1.924   0.030  -6.474  1.00  0.00     0.023 C 
ENDROOT
BRANCH   1   2
ATOM      2  C   UNL     1       1.159   1.086  -5.677  1.00  0.00     0.023 C 
BRANCH   2   3
ATOM      3  C   UNL     1       2.041   1.929  -4.755  1.00  0.00     0.116 C 
BRANCH   3   4
ATOM      4  N   UNL     1       2.135   3.305  -5.193  1.00  0.00    -0.353 N 
ATOM      5  C   UNL     1       1.452   4.429  -4.856  1.00  0.00     0.261 C 
ATOM      6  O   UNL     1       1.843   5.477  -5.387  1.00  0.00    -0.271 OA
ATOM      7  H   UNL     1       2.833   3.457  -5.871  1.00  0.00     0.163 HD
BRANCH   5   8
ATOM      8  C   UNL     1       0.209   4.457  -3.933  1.00  0.00     0.269 C 
ATOM      9  C   UNL     1       0.566   0.003   0.254  1.00  0.00     0.045 C 
ATOM     10  C   UNL     1      -0.020   0.763  -0.904  1.00  0.00    -0.044 A 
ATOM     11  C   UNL     1      -0.908   0.098  -1.765  1.00  0.00     0.005 A 
ATOM     12  C   UNL     1       0.309   2.114  -1.156  1.00  0.00    -0.005 A 
ATOM     13  C   UNL     1      -1.440   0.746  -2.877  1.00  0.00     0.016 A 
ATOM     14  C   UNL     1      -0.174   2.733  -2.328  1.00  0.00     0.134 A 
ATOM     15  C   UNL     1       1.230   2.893  -0.249  1.00  0.00     0.049 C 
ATOM     16  C   UNL     1      -1.055   2.057  -3.165  1.00  0.00     0.060 A 
ATOM     17  O   UNL     1       0.338   3.965  -2.611  1.00  0.00    -0.479 OA
ATOM     18  C   UNL     1      -1.514   2.695  -4.407  1.00  0.00     0.170 C 
ATOM     19  C   UNL     1      -1.070   4.097  -4.670  1.00  0.00     0.136 C 
ATOM     20  O   UNL     1      -2.259   2.097  -5.178  1.00  0.00    -0.294 OA
ENDBRANCH   5   8
ENDBRANCH   3   4
ENDBRANCH   2   3
ENDBRANCH   1   2
BRANCH   1  21
ATOM     21  C   UNL     1       2.627  -1.028  -5.629  1.00  0.00     0.116 C 
BRANCH  21  22
ATOM     22  N   UNL     1       1.725  -1.861  -4.847  1.00  0.00    -0.352 N 
ATOM     23  C   UNL     1       1.898  -3.186  -4.518  1.00  0.00     0.251 C 
ATOM     24  H   UNL     1       0.902  -1.430  -4.519  1.00  0.00     0.163 HD
ATOM     25  O   UNL     1       1.055  -3.807  -3.879  1.00  0.00    -0.269 OA
BRANCH  23  26
ATOM     26  C   UNL     1       3.120  -3.861  -4.997  1.00  0.00     0.039 A 
ATOM     27  C   UNL     1       2.998  -4.895  -5.927  1.00  0.00     0.014 A 
ATOM     28  C   UNL     1       4.375  -3.376  -4.620  1.00  0.00     0.014 A 
ATOM     29  C   UNL     1       4.145  -5.395  -6.546  1.00  0.00     0.010 A 
ATOM     30  C   UNL     1       5.512  -3.846  -5.271  1.00  0.00     0.010 A 
ATOM     31  C   UNL     1       5.404  -4.846  -6.251  1.00  0.00    -0.014 A 
BRANCH  31  32
ATOM     32  C   UNL     1       6.621  -5.293  -6.968  1.00  0.00     0.031 A 
ATOM     33  C   UNL     1       7.678  -6.067  -6.237  1.00  0.00     0.074 A 
ATOM     34  C   UNL     1       6.805  -4.950  -8.259  1.00  0.00     0.049 A 
ATOM     35  N   UNL     1       8.847  -6.469  -6.666  1.00  0.00    -0.248 NA
ATOM     36  C   UNL     1       7.393  -6.420  -4.837  1.00  0.00     0.031 C 
ATOM     37  C   UNL     1       5.867  -4.176  -9.075  1.00  0.00     0.029 A 
ATOM     38  N   UNL     1       7.851  -5.207  -9.109  1.00  0.00    -0.354 N 
ATOM     39  C   UNL     1       9.441  -7.106  -5.586  1.00  0.00     0.074 A 
ATOM     40  C   UNL     1       8.520  -7.015  -4.475  1.00  0.00     0.031 C 
ATOM     41  C   UNL     1       6.372  -4.040 -10.313  1.00  0.00     0.029 A 
ATOM     42  C   UNL     1       7.678  -4.691 -10.370  1.00  0.00     0.049 A 
ATOM     43  H   UNL     1       8.652  -5.714  -8.840  1.00  0.00     0.167 HD
ATOM     44  C   UNL     1      10.642  -7.726  -5.530  1.00  0.00     0.031 A 
ATOM     45  C   UNL     1       8.480  -4.736 -11.451  1.00  0.00     0.031 A 
ATOM     46  C   UNL     1      11.549  -7.847  -6.636  1.00  0.00     0.049 A 
ATOM     47  C   UNL     1       9.803  -5.442 -11.364  1.00  0.00     0.074 A 
ATOM     48  C   UNL     1      12.774  -8.490  -6.676  1.00  0.00     0.029 A 
ATOM     49  N   UNL     1      11.325  -7.326  -7.899  1.00  0.00    -0.354 N 
ATOM     50  N   UNL     1      10.341  -6.056 -10.340  1.00  0.00    -0.248 NA
ATOM     51  C   UNL     1      10.627  -5.465 -12.583  1.00  0.00     0.031 C 
ATOM     52  C   UNL     1      13.300  -8.344  -7.962  1.00  0.00     0.029 A 
ATOM     53  C   UNL     1      12.389  -7.633  -8.726  1.00  0.00     0.049 A 
ATOM     54  H   UNL     1      10.527  -6.814  -8.167  1.00  0.00     0.167 HD
ATOM     55  C   UNL     1      11.556  -6.553 -10.793  1.00  0.00     0.074 A 
ATOM     56  C   UNL     1      11.675  -6.175 -12.185  1.00  0.00     0.031 C 
ATOM     57  C   UNL     1      12.488  -7.259 -10.111  1.00  0.00     0.031 A 
BRANCH  44  58
ATOM     58  C   UNL     1      11.042  -8.341  -4.224  1.00  0.00    -0.014 A 
ATOM     59  C   UNL     1      10.513  -9.578  -3.826  1.00  0.00     0.009 A 
ATOM     60  C   UNL     1      12.004  -7.714  -3.419  1.00  0.00     0.009 A 
ATOM     61  C   UNL     1      10.931 -10.170  -2.634  1.00  0.00     0.001 A 
ATOM     62  C   UNL     1      12.431  -8.317  -2.235  1.00  0.00     0.001 A 
ATOM     63  C   UNL     1      11.893  -9.542  -1.843  1.00  0.00     0.000 A 
ENDBRANCH  44  58
BRANCH  45  64
ATOM     64  C   UNL     1       8.043  -4.109 -12.722  1.00  0.00    -0.014 A 
ATOM     65  C   UNL     1       7.564  -4.904 -13.773  1.00  0.00     0.009 A 
ATOM     66  C   UNL     1       8.100  -2.717 -12.890  1.00  0.00     0.009 A 
ATOM     67  C   UNL     1       7.163  -4.319 -14.976  1.00  0.00     0.001 A 
ATOM     68  C   UNL     1       7.683  -2.134 -14.089  1.00  0.00     0.001 A 
ATOM     69  C   UNL     1       7.220  -2.935 -15.132  1.00  0.00     0.000 A 
ENDBRANCH  45  64
BRANCH  57  70
ATOM     70  C   UNL     1      13.713  -7.697 -10.853  1.00  0.00    -0.014 A 
ATOM     71  C   UNL     1      14.782  -6.813 -11.056  1.00  0.00     0.009 A 
ATOM     72  C   UNL     1      13.840  -9.035 -11.257  1.00  0.00     0.009 A 
ATOM     73  C   UNL     1      15.960  -7.263 -11.656  1.00  0.00     0.001 A 
ATOM     74  C   UNL     1      15.024  -9.484 -11.843  1.00  0.00     0.001 A 
ATOM     75  C   UNL     1      16.082  -8.598 -12.042  1.00  0.00     0.000 A 
ENDBRANCH  57  70
ENDBRANCH  31  32
ENDBRANCH  23  26
ENDBRANCH  21  22
ENDBRANCH   1  21
TORSDOF 11
