REMARK SMILES CC(C)CSc1cc2c(cc1Cl)C=C(C(=O)NCCCCNC(=O)c1ccc(-c3c4nc(c(-c5ccccc5)c5ccc([nH]5)c(-c5ccccc5)c5nc(c(-c6ccccc6)c6ccc3[nH]6)C=C5)C=C4)cc1)[C@H](C(F)(F)F)O2
REMARK SMILES IDX 19 1 18 2 17 3 15 4 16 5 14 7 6 8 7 9 11 10 8 11 10 12 12 13
REMARK SMILES IDX 9 14 78 15 13 16 73 17 5 18 4 19 2 20 1 21 3 22 74 23 75 24
REMARK SMILES IDX 76 25 77 26 20 27 21 28 22 29 23 30 24 32 25 33 26 34 72 35
REMARK SMILES IDX 27 36 71 37 28 38 29 39 30 40 65 41 31 42 70 43 64 44 66 45
REMARK SMILES IDX 32 46 69 47 63 48 62 49 33 51 55 52 40 53 54 54 41 55 44 56
REMARK SMILES IDX 53 57 67 58 42 59 43 60 52 62 68 63 45 64 34 65 35 66 39 67
REMARK SMILES IDX 36 68 38 69 37 70 56 71 57 72 61 73 58 74 60 75 59 76 46 77
REMARK SMILES IDX 47 78 51 79 48 80 50 81 49 82
REMARK H PARENT 17 6 22 31 66 50 44 61
REMARK Flexibility Score: inf
ROOT
ATOM      1  C   UNL     1       0.875   2.440   9.530  1.00  0.00     0.023 C 
ENDROOT
BRANCH   1   2
ATOM      2  C   UNL     1       1.878   1.615   8.725  1.00  0.00     0.116 C 
BRANCH   2   3
ATOM      3  N   UNL     1       1.403   0.265   8.485  1.00  0.00    -0.352 N 
ATOM      4  C   UNL     1       0.822  -0.416   7.470  1.00  0.00     0.251 C 
ATOM      5  O   UNL     1       0.635  -1.617   7.696  1.00  0.00    -0.270 OA
ATOM      6  H   UNL     1       1.541  -0.310   9.272  1.00  0.00     0.163 HD
BRANCH   4   7
ATOM      7  C   UNL     1       0.405   0.157   6.155  1.00  0.00     0.067 C 
ATOM      8  C   UNL     1      -1.357   0.708   1.451  1.00  0.00     0.030 A 
ATOM      9  C   UNL     1      -0.680   1.541   2.353  1.00  0.00     0.063 A 
ATOM     10  C   UNL     1      -1.664  -0.604   1.851  1.00  0.00     0.055 A 
ATOM     11  C   UNL     1      -0.275   1.059   3.595  1.00  0.00     0.129 A 
ATOM     12  C   UNL     1      -1.228  -1.089   3.093  1.00  0.00     0.033 A 
ATOM     13  Cl  UNL     1      -2.614  -1.682   0.889  1.00  0.00    -0.083 Cl
ATOM     14  C   UNL     1      -0.524  -0.259   3.966  1.00  0.00     0.019 A 
ATOM     15  O   UNL     1       0.412   1.924   4.397  1.00  0.00    -0.475 OA
ATOM     16  C   UNL     1      -0.029  -0.741   5.249  1.00  0.00     0.025 C 
ATOM     17  C   UNL     1       0.361   1.625   5.821  1.00  0.00     0.314 C 
BRANCH   8  18
ATOM     18  S   UNL     1      -1.770   1.453  -0.121  1.00  0.00    -0.124 SA
BRANCH  18  19
ATOM     19  C   UNL     1      -0.872   0.395  -1.317  1.00  0.00     0.078 C 
BRANCH  19  20
ATOM     20  C   UNL     1       0.655   0.587  -1.395  1.00  0.00    -0.007 C 
ATOM     21  C   UNL     1       1.410   0.031  -0.187  1.00  0.00     0.008 C 
ATOM     22  C   UNL     1       1.172  -0.113  -2.659  1.00  0.00     0.008 C 
ENDBRANCH  19  20
ENDBRANCH  18  19
ENDBRANCH   8  18
BRANCH  17  23
ATOM     23  C   UNL     1      -0.818   2.369   6.474  1.00  0.00     0.429 C 
ATOM     24  F   UNL     1      -1.392   1.661   7.474  1.00  0.00    -0.167 F 
ATOM     25  F   UNL     1      -0.392   3.540   7.013  1.00  0.00    -0.167 F 
ATOM     26  F   UNL     1      -1.802   2.670   5.598  1.00  0.00    -0.167 F 
ENDBRANCH  17  23
ENDBRANCH   4   7
ENDBRANCH   2   3
ENDBRANCH   1   2
BRANCH   1  27
ATOM     27  C   UNL     1       0.956   2.252  11.043  1.00  0.00     0.023 C 
BRANCH  27  28
ATOM     28  C   UNL     1       2.293   2.616  11.673  1.00  0.00     0.116 C 
BRANCH  28  29
ATOM     29  N   UNL     1       2.759   3.959  11.358  1.00  0.00    -0.352 N 
ATOM     30  C   UNL     1       3.547   4.792  12.127  1.00  0.00     0.251 C 
ATOM     31  H   UNL     1       2.477   4.319  10.486  1.00  0.00     0.163 HD
ATOM     32  O   UNL     1       3.809   5.923  11.755  1.00  0.00    -0.269 OA
BRANCH  30  33
ATOM     33  C   UNL     1       4.017   4.304  13.441  1.00  0.00     0.039 A 
ATOM     34  C   UNL     1       4.586   3.037  13.559  1.00  0.00     0.014 A 
ATOM     35  C   UNL     1       3.800   5.092  14.575  1.00  0.00     0.014 A 
ATOM     36  C   UNL     1       4.753   2.481  14.819  1.00  0.00     0.010 A 
ATOM     37  C   UNL     1       4.062   4.565  15.842  1.00  0.00     0.010 A 
ATOM     38  C   UNL     1       4.485   3.234  15.975  1.00  0.00    -0.014 A 
BRANCH  38  39
ATOM     39  C   UNL     1       4.651   2.589  17.302  1.00  0.00     0.031 A 
ATOM     40  C   UNL     1       3.470   2.347  18.203  1.00  0.00     0.074 A 
ATOM     41  C   UNL     1       5.870   2.133  17.651  1.00  0.00     0.049 A 
ATOM     42  N   UNL     1       3.430   1.717  19.351  1.00  0.00    -0.248 NA
ATOM     43  C   UNL     1       2.167   2.877  17.767  1.00  0.00     0.031 C 
ATOM     44  C   UNL     1       7.087   2.293  16.852  1.00  0.00     0.029 A 
ATOM     45  N   UNL     1       6.277   1.398  18.735  1.00  0.00    -0.354 N 
ATOM     46  C   UNL     1       2.112   1.794  19.783  1.00  0.00     0.074 A 
ATOM     47  C   UNL     1       1.384   2.549  18.787  1.00  0.00     0.031 C 
ATOM     48  C   UNL     1       8.082   1.603  17.427  1.00  0.00     0.029 A 
ATOM     49  C   UNL     1       7.593   1.011  18.667  1.00  0.00     0.049 A 
ATOM     50  H   UNL     1       5.684   1.171  19.487  1.00  0.00     0.167 HD
ATOM     51  C   UNL     1       1.558   1.276  20.904  1.00  0.00     0.031 A 
ATOM     52  C   UNL     1       8.330   0.260  19.505  1.00  0.00     0.031 A 
ATOM     53  C   UNL     1       2.278   0.511  21.887  1.00  0.00     0.049 A 
ATOM     54  C   UNL     1       7.697  -0.283  20.751  1.00  0.00     0.074 A 
ATOM     55  C   UNL     1       1.796  -0.066  23.050  1.00  0.00     0.029 A 
ATOM     56  N   UNL     1       3.629   0.210  21.821  1.00  0.00    -0.354 N 
ATOM     57  N   UNL     1       6.451  -0.192  21.146  1.00  0.00    -0.248 NA
ATOM     58  C   UNL     1       8.572  -1.021  21.671  1.00  0.00     0.031 C 
ATOM     59  C   UNL     1       2.866  -0.676  23.711  1.00  0.00     0.029 A 
ATOM     60  C   UNL     1       4.003  -0.526  22.933  1.00  0.00     0.049 A 
ATOM     61  H   UNL     1       4.234   0.479  21.092  1.00  0.00     0.167 HD
ATOM     62  C   UNL     1       6.392  -0.857  22.362  1.00  0.00     0.074 A 
ATOM     63  C   UNL     1       7.720  -1.373  22.624  1.00  0.00     0.031 C 
ATOM     64  C   UNL     1       5.332  -1.015  23.191  1.00  0.00     0.031 A 
BRANCH  51  65
ATOM     65  C   UNL     1       0.097   1.530  21.150  1.00  0.00    -0.014 A 
ATOM     66  C   UNL     1      -0.295   2.400  22.180  1.00  0.00     0.009 A 
ATOM     67  C   UNL     1      -0.892   0.849  20.424  1.00  0.00     0.009 A 
ATOM     68  C   UNL     1      -1.646   2.578  22.485  1.00  0.00     0.001 A 
ATOM     69  C   UNL     1      -2.244   1.047  20.715  1.00  0.00     0.001 A 
ATOM     70  C   UNL     1      -2.619   1.905  21.749  1.00  0.00     0.000 A 
ENDBRANCH  51  65
BRANCH  52  71
ATOM     71  C   UNL     1       9.751  -0.018  19.173  1.00  0.00    -0.014 A 
ATOM     72  C   UNL     1      10.704   1.012  19.204  1.00  0.00     0.009 A 
ATOM     73  C   UNL     1      10.147  -1.300  18.764  1.00  0.00     0.009 A 
ATOM     74  C   UNL     1      12.020   0.772  18.805  1.00  0.00     0.001 A 
ATOM     75  C   UNL     1      11.471  -1.543  18.392  1.00  0.00     0.001 A 
ATOM     76  C   UNL     1      12.402  -0.506  18.402  1.00  0.00     0.000 A 
ENDBRANCH  52  71
BRANCH  64  77
ATOM     77  C   UNL     1       5.561  -1.768  24.469  1.00  0.00    -0.014 A 
ATOM     78  C   UNL     1       5.023  -3.054  24.632  1.00  0.00     0.009 A 
ATOM     79  C   UNL     1       6.249  -1.175  25.538  1.00  0.00     0.009 A 
ATOM     80  C   UNL     1       5.163  -3.729  25.844  1.00  0.00     0.001 A 
ATOM     81  C   UNL     1       6.409  -1.864  26.741  1.00  0.00     0.001 A 
ATOM     82  C   UNL     1       5.861  -3.136  26.896  1.00  0.00     0.000 A 
ENDBRANCH  64  77
ENDBRANCH  38  39
ENDBRANCH  30  33
ENDBRANCH  28  29
ENDBRANCH  27  28
ENDBRANCH   1  27
TORSDOF 15
