REMARK SMILES CC(C)CN(C)c1cc2c(cc1Cl)C=C(C(=O)NCCCCNC(=O)c1ccc(-c3c4nc(c(-c5ccccc5)c5ccc([nH]5)c(-c5ccccc5)c5nc(c(-c6ccccc6)c6ccc3[nH]6)C=C5)C=C4)cc1)[C@@H](C(F)(F)F)O2
REMARK SMILES IDX 20 1 19 2 18 3 16 4 17 5 15 7 7 8 8 9 12 10 9 11 11 12 13 13
REMARK SMILES IDX 10 14 79 15 14 16 74 17 5 18 6 19 4 20 2 21 1 22 3 23 75 24
REMARK SMILES IDX 76 25 77 26 78 27 21 28 22 29 23 30 24 31 25 33 26 34 27 35
REMARK SMILES IDX 73 36 28 37 72 38 29 39 30 40 31 41 66 42 32 43 71 44 65 45
REMARK SMILES IDX 67 46 33 47 70 48 64 49 63 50 34 52 56 53 41 54 55 55 42 56
REMARK SMILES IDX 45 57 54 58 68 59 43 60 44 61 53 63 69 64 46 65 35 66 36 67
REMARK SMILES IDX 40 68 37 69 39 70 38 71 57 72 58 73 62 74 59 75 61 76 60 77
REMARK SMILES IDX 47 78 48 79 52 80 49 81 51 82 50 83
REMARK H PARENT 18 6 23 32 67 51 45 62
REMARK Flexibility Score: inf
ROOT
ATOM      1  C   UNL     1      -3.965  -8.754   0.052  1.00  0.00     0.023 C 
ENDROOT
BRANCH   1   2
ATOM      2  C   UNL     1      -3.059  -8.482   1.249  1.00  0.00     0.116 C 
BRANCH   2   3
ATOM      3  N   UNL     1      -1.670  -8.353   0.853  1.00  0.00    -0.352 N 
ATOM      4  C   UNL     1      -0.764  -7.350   0.771  1.00  0.00     0.251 C 
ATOM      5  O   UNL     1       0.364  -7.688   0.398  1.00  0.00    -0.270 OA
ATOM      6  H   UNL     1      -1.288  -9.215   0.571  1.00  0.00     0.163 HD
BRANCH   4   7
ATOM      7  C   UNL     1      -1.040  -5.920   1.081  1.00  0.00     0.067 C 
ATOM      8  C   UNL     1      -0.732  -0.911   1.607  1.00  0.00     0.059 A 
ATOM      9  C   UNL     1      -1.752  -1.802   1.239  1.00  0.00     0.074 A 
ATOM     10  C   UNL     1       0.538  -1.456   1.910  1.00  0.00     0.065 A 
ATOM     11  C   UNL     1      -1.499  -3.168   1.148  1.00  0.00     0.130 A 
ATOM     12  C   UNL     1       0.807  -2.818   1.727  1.00  0.00     0.034 A 
ATOM     13  Cl  UNL     1       1.824  -0.485   2.544  1.00  0.00    -0.082 Cl
ATOM     14  C   UNL     1      -0.212  -3.677   1.330  1.00  0.00     0.019 A 
ATOM     15  O   UNL     1      -2.562  -3.988   0.870  1.00  0.00    -0.475 OA
ATOM     16  C   UNL     1       0.024  -5.094   1.077  1.00  0.00     0.025 C 
ATOM     17  C   UNL     1      -2.396  -5.345   1.378  1.00  0.00     0.314 C 
BRANCH   8  18
ATOM     18  N   UNL     1      -0.982   0.470   1.641  1.00  0.00    -0.373 N 
ATOM     19  C   UNL     1      -2.032   0.885   2.568  1.00  0.00     0.143 C 
BRANCH  18  20
ATOM     20  C   UNL     1      -0.940   1.173   0.342  1.00  0.00     0.119 C 
BRANCH  20  21
ATOM     21  C   UNL     1       0.500   1.426  -0.151  1.00  0.00     0.002 C 
ATOM     22  C   UNL     1       0.988   0.330  -1.104  1.00  0.00     0.009 C 
ATOM     23  C   UNL     1       0.606   2.779  -0.861  1.00  0.00     0.009 C 
ENDBRANCH  20  21
ENDBRANCH  18  20
ENDBRANCH   8  18
BRANCH  17  24
ATOM     24  C   UNL     1      -2.738  -5.416   2.886  1.00  0.00     0.429 C 
ATOM     25  F   UNL     1      -4.071  -5.262   3.078  1.00  0.00    -0.167 F 
ATOM     26  F   UNL     1      -2.408  -6.614   3.429  1.00  0.00    -0.167 F 
ATOM     27  F   UNL     1      -2.111  -4.474   3.625  1.00  0.00    -0.167 F 
ENDBRANCH  17  24
ENDBRANCH   4   7
ENDBRANCH   2   3
ENDBRANCH   1   2
BRANCH   1  28
ATOM     28  C   UNL     1      -3.999 -10.218  -0.385  1.00  0.00     0.023 C 
BRANCH  28  29
ATOM     29  C   UNL     1      -4.395 -11.209   0.705  1.00  0.00     0.116 C 
BRANCH  29  30
ATOM     30  N   UNL     1      -5.653 -10.896   1.371  1.00  0.00    -0.352 N 
ATOM     31  C   UNL     1      -6.541 -11.780   1.942  1.00  0.00     0.251 C 
ATOM     32  H   UNL     1      -5.895  -9.943   1.418  1.00  0.00     0.163 HD
ATOM     33  O   UNL     1      -7.603 -11.399   2.418  1.00  0.00    -0.269 OA
BRANCH  31  34
ATOM     34  C   UNL     1      -6.200 -13.214   1.913  1.00  0.00     0.039 A 
ATOM     35  C   UNL     1      -4.966 -13.640   2.408  1.00  0.00     0.014 A 
ATOM     36  C   UNL     1      -7.061 -14.103   1.268  1.00  0.00     0.014 A 
ATOM     37  C   UNL     1      -4.520 -14.918   2.104  1.00  0.00     0.010 A 
ATOM     38  C   UNL     1      -6.642 -15.414   1.035  1.00  0.00     0.010 A 
ATOM     39  C   UNL     1      -5.348 -15.814   1.405  1.00  0.00    -0.014 A 
BRANCH  39  40
ATOM     40  C   UNL     1      -4.835 -17.165   1.071  1.00  0.00     0.031 A 
ATOM     41  C   UNL     1      -4.597 -17.571  -0.358  1.00  0.00     0.074 A 
ATOM     42  C   UNL     1      -4.521 -18.005   2.076  1.00  0.00     0.049 A 
ATOM     43  N   UNL     1      -4.136 -18.705  -0.821  1.00  0.00    -0.248 NA
ATOM     44  C   UNL     1      -4.913 -16.583  -1.403  1.00  0.00     0.031 C 
ATOM     45  C   UNL     1      -4.678 -17.705   3.501  1.00  0.00     0.029 A 
ATOM     46  N   UNL     1      -3.974 -19.261   2.056  1.00  0.00    -0.354 N 
ATOM     47  C   UNL     1      -4.128 -18.577  -2.205  1.00  0.00     0.074 A 
ATOM     48  C   UNL     1      -4.644 -17.261  -2.511  1.00  0.00     0.031 C 
ATOM     49  C   UNL     1      -4.177 -18.721   4.219  1.00  0.00     0.029 A 
ATOM     50  C   UNL     1      -3.735 -19.772   3.309  1.00  0.00     0.049 A 
ATOM     51  H   UNL     1      -3.773 -19.750   1.226  1.00  0.00     0.167 HD
ATOM     52  C   UNL     1      -3.720 -19.475  -3.131  1.00  0.00     0.031 A 
ATOM     53  C   UNL     1      -3.231 -20.960   3.689  1.00  0.00     0.031 A 
ATOM     54  C   UNL     1      -3.189 -20.776  -2.820  1.00  0.00     0.049 A 
ATOM     55  C   UNL     1      -2.841 -21.957   2.639  1.00  0.00     0.074 A 
ATOM     56  C   UNL     1      -2.730 -21.747  -3.695  1.00  0.00     0.029 A 
ATOM     57  N   UNL     1      -3.044 -21.287  -1.541  1.00  0.00    -0.354 N 
ATOM     58  N   UNL     1      -2.850 -21.822   1.335  1.00  0.00    -0.248 NA
ATOM     59  C   UNL     1      -2.388 -23.272   3.109  1.00  0.00     0.031 C 
ATOM     60  C   UNL     1      -2.355 -22.865  -2.946  1.00  0.00     0.029 A 
ATOM     61  C   UNL     1      -2.529 -22.571  -1.604  1.00  0.00     0.049 A 
ATOM     62  H   UNL     1      -3.273 -20.809  -0.711  1.00  0.00     0.167 HD
ATOM     63  C   UNL     1      -2.402 -23.033   0.828  1.00  0.00     0.074 A 
ATOM     64  C   UNL     1      -2.107 -23.882   1.964  1.00  0.00     0.031 C 
ATOM     65  C   UNL     1      -2.254 -23.407  -0.465  1.00  0.00     0.031 A 
BRANCH  52  66
ATOM     66  C   UNL     1      -3.839 -19.105  -4.583  1.00  0.00    -0.014 A 
ATOM     67  C   UNL     1      -4.799 -19.744  -5.386  1.00  0.00     0.009 A 
ATOM     68  C   UNL     1      -2.938 -18.212  -5.182  1.00  0.00     0.009 A 
ATOM     69  C   UNL     1      -4.844 -19.509  -6.761  1.00  0.00     0.001 A 
ATOM     70  C   UNL     1      -3.000 -17.962  -6.555  1.00  0.00     0.001 A 
ATOM     71  C   UNL     1      -3.945 -18.617  -7.344  1.00  0.00     0.000 A 
ENDBRANCH  52  66
BRANCH  53  72
ATOM     72  C   UNL     1      -3.084 -21.258   5.136  1.00  0.00    -0.014 A 
ATOM     73  C   UNL     1      -4.219 -21.428   5.947  1.00  0.00     0.009 A 
ATOM     74  C   UNL     1      -1.813 -21.315   5.725  1.00  0.00     0.009 A 
ATOM     75  C   UNL     1      -4.085 -21.617   7.323  1.00  0.00     0.001 A 
ATOM     76  C   UNL     1      -1.682 -21.534   7.098  1.00  0.00     0.001 A 
ATOM     77  C   UNL     1      -2.817 -21.673   7.897  1.00  0.00     0.000 A 
ENDBRANCH  53  72
BRANCH  65  78
ATOM     78  C   UNL     1      -1.755 -24.796  -0.733  1.00  0.00    -0.014 A 
ATOM     79  C   UNL     1      -0.455 -24.989  -1.227  1.00  0.00     0.009 A 
ATOM     80  C   UNL     1      -2.602 -25.905  -0.584  1.00  0.00     0.009 A 
ATOM     81  C   UNL     1      -0.017 -26.266  -1.579  1.00  0.00     0.001 A 
ATOM     82  C   UNL     1      -2.151 -27.184  -0.914  1.00  0.00     0.001 A 
ATOM     83  C   UNL     1      -0.863 -27.362  -1.419  1.00  0.00     0.000 A 
ENDBRANCH  65  78
ENDBRANCH  39  40
ENDBRANCH  31  34
ENDBRANCH  29  30
ENDBRANCH  28  29
ENDBRANCH   1  28
TORSDOF 15
