REMARK SMILES O=C(NCCCCNC(=O)c1cc(SCc2csc(-c3ccsc3)n2)ccn1)c1ccc(-c2c3nc(c(-c4ccccc4)c4ccc([nH]4)c(-c4ccccc4)c4nc(c(-c5ccccc5)c5ccc2[nH]5)C=C4)C=C3)cc1
REMARK SMILES IDX 6 1 5 2 4 3 3 4 1 5 2 6 29 8 30 9 76 10 31 11 75 12 32 13
REMARK SMILES IDX 33 14 34 15 69 16 35 17 74 18 68 19 70 20 36 21 73 22 67 23
REMARK SMILES IDX 66 24 37 26 59 27 44 28 58 29 45 30 48 31 57 32 71 33 46 34
REMARK SMILES IDX 47 35 56 37 72 38 49 39 38 40 39 41 43 42 40 43 42 44 41 45
REMARK SMILES IDX 60 46 61 47 65 48 62 49 64 50 63 51 50 52 51 53 55 54 52 55
REMARK SMILES IDX 54 56 53 57 7 58 8 59 9 60 10 62 11 63 12 64 28 65 13 66
REMARK SMILES IDX 27 67 26 68 14 69 15 70 16 71 17 72 25 73 18 74 19 75 20 76
REMARK SMILES IDX 21 77 24 78 22 79 23 80
REMARK H PARENT 3 7 70 25 48 36 8 61
REMARK Flexibility Score: inf
ROOT
ATOM      1  C   UNL     1       4.729   3.586  -2.005  1.00  0.00     0.023 C 
ENDROOT
BRANCH   1   2
ATOM      2  C   UNL     1       5.193   2.136  -2.127  1.00  0.00     0.023 C 
BRANCH   2   3
ATOM      3  C   UNL     1       4.764   1.204  -0.999  1.00  0.00     0.116 C 
BRANCH   3   4
ATOM      4  N   UNL     1       3.324   1.137  -0.806  1.00  0.00    -0.352 N 
ATOM      5  O   UNL     1       1.322   0.179  -0.407  1.00  0.00    -0.269 OA
ATOM      6  C   UNL     1       2.544   0.060  -0.457  1.00  0.00     0.251 C 
ATOM      7  H   UNL     1       2.840   1.983  -0.945  1.00  0.00     0.163 HD
BRANCH   6   8
ATOM      8  C   UNL     1       3.166  -1.257  -0.186  1.00  0.00     0.039 A 
ATOM      9  C   UNL     1       4.327  -1.374   0.580  1.00  0.00     0.014 A 
ATOM     10  C   UNL     1       2.568  -2.401  -0.726  1.00  0.00     0.014 A 
ATOM     11  C   UNL     1       4.970  -2.603   0.684  1.00  0.00     0.010 A 
ATOM     12  C   UNL     1       3.181  -3.647  -0.571  1.00  0.00     0.010 A 
ATOM     13  C   UNL     1       4.409  -3.748   0.099  1.00  0.00    -0.014 A 
BRANCH  13  14
ATOM     14  C   UNL     1       5.124  -5.041   0.201  1.00  0.00     0.031 A 
ATOM     15  C   UNL     1       5.779  -5.649  -1.008  1.00  0.00     0.074 A 
ATOM     16  C   UNL     1       5.222  -5.641   1.401  1.00  0.00     0.049 A 
ATOM     17  N   UNL     1       6.484  -6.748  -1.097  1.00  0.00    -0.248 NA
ATOM     18  C   UNL     1       5.627  -4.927  -2.281  1.00  0.00     0.031 C 
ATOM     19  C   UNL     1       4.644  -5.131   2.647  1.00  0.00     0.029 A 
ATOM     20  N   UNL     1       5.858  -6.796   1.774  1.00  0.00    -0.354 N 
ATOM     21  C   UNL     1       6.854  -6.855  -2.432  1.00  0.00     0.074 A 
ATOM     22  C   UNL     1       6.273  -5.723  -3.122  1.00  0.00     0.031 C 
ATOM     23  C   UNL     1       4.981  -5.953   3.653  1.00  0.00     0.029 A 
ATOM     24  C   UNL     1       5.755  -7.067   3.116  1.00  0.00     0.049 A 
ATOM     25  H   UNL     1       6.341  -7.375   1.142  1.00  0.00     0.167 HD
ATOM     26  C   UNL     1       7.611  -7.807  -3.027  1.00  0.00     0.031 A 
ATOM     27  C   UNL     1       6.224  -8.104   3.834  1.00  0.00     0.031 A 
ATOM     28  C   UNL     1       8.175  -8.939  -2.340  1.00  0.00     0.049 A 
ATOM     29  C   UNL     1       7.014  -9.175   3.139  1.00  0.00     0.074 A 
ATOM     30  C   UNL     1       8.961  -9.957  -2.852  1.00  0.00     0.029 A 
ATOM     31  N   UNL     1       8.006  -9.205  -0.990  1.00  0.00    -0.354 N 
ATOM     32  N   UNL     1       7.372  -9.249   1.880  1.00  0.00    -0.248 NA
ATOM     33  C   UNL     1       7.465 -10.303   3.964  1.00  0.00     0.031 C 
ATOM     34  C   UNL     1       9.227 -10.865  -1.821  1.00  0.00     0.029 A 
ATOM     35  C   UNL     1       8.650 -10.384  -0.656  1.00  0.00     0.049 A 
ATOM     36  H   UNL     1       7.502  -8.639  -0.361  1.00  0.00     0.167 HD
ATOM     37  C   UNL     1       8.104 -10.422   1.764  1.00  0.00     0.074 A 
ATOM     38  C   UNL     1       8.155 -11.017   3.085  1.00  0.00     0.031 C 
ATOM     39  C   UNL     1       8.682 -10.962   0.663  1.00  0.00     0.031 A 
BRANCH  26  40
ATOM     40  C   UNL     1       7.846  -7.681  -4.506  1.00  0.00    -0.014 A 
ATOM     41  C   UNL     1       8.717  -6.711  -5.026  1.00  0.00     0.009 A 
ATOM     42  C   UNL     1       7.210  -8.566  -5.391  1.00  0.00     0.009 A 
ATOM     43  C   UNL     1       8.923  -6.612  -6.405  1.00  0.00     0.001 A 
ATOM     44  C   UNL     1       7.436  -8.480  -6.766  1.00  0.00     0.001 A 
ATOM     45  C   UNL     1       8.285  -7.497  -7.272  1.00  0.00     0.000 A 
ENDBRANCH  26  40
BRANCH  27  46
ATOM     46  C   UNL     1       5.945  -8.181   5.290  1.00  0.00    -0.014 A 
ATOM     47  C   UNL     1       6.972  -7.999   6.228  1.00  0.00     0.009 A 
ATOM     48  C   UNL     1       4.640  -8.424   5.750  1.00  0.00     0.009 A 
ATOM     49  C   UNL     1       6.701  -8.077   7.596  1.00  0.00     0.001 A 
ATOM     50  C   UNL     1       4.368  -8.473   7.118  1.00  0.00     0.001 A 
ATOM     51  C   UNL     1       5.400  -8.308   8.040  1.00  0.00     0.000 A 
ENDBRANCH  27  46
BRANCH  39  52
ATOM     52  C   UNL     1       9.434 -12.247   0.850  1.00  0.00    -0.014 A 
ATOM     53  C   UNL     1       8.757 -13.461   1.045  1.00  0.00     0.009 A 
ATOM     54  C   UNL     1      10.836 -12.247   0.800  1.00  0.00     0.009 A 
ATOM     55  C   UNL     1       9.474 -14.647   1.218  1.00  0.00     0.001 A 
ATOM     56  C   UNL     1      11.549 -13.437   0.948  1.00  0.00     0.001 A 
ATOM     57  C   UNL     1      10.868 -14.634   1.165  1.00  0.00     0.000 A 
ENDBRANCH  39  52
ENDBRANCH  13  14
ENDBRANCH   6   8
ENDBRANCH   3   4
ENDBRANCH   2   3
ENDBRANCH   1   2
BRANCH   1  58
ATOM     58  C   UNL     1       5.056   4.267  -0.681  1.00  0.00     0.116 C 
BRANCH  58  59
ATOM     59  N   UNL     1       6.481   4.436  -0.461  1.00  0.00    -0.351 N 
ATOM     60  C   UNL     1       7.216   5.600  -0.353  1.00  0.00     0.269 C 
ATOM     61  H   UNL     1       6.997   3.602  -0.376  1.00  0.00     0.163 HD
ATOM     62  O   UNL     1       8.432   5.535  -0.193  1.00  0.00    -0.268 OA
BRANCH  60  63
ATOM     63  C   UNL     1       6.526   6.918  -0.425  1.00  0.00     0.129 A 
ATOM     64  C   UNL     1       5.515   7.218   0.482  1.00  0.00     0.049 A 
ATOM     65  N   UNL     1       6.904   7.734  -1.439  1.00  0.00    -0.251 NA
ATOM     66  C   UNL     1       4.780   8.381   0.286  1.00  0.00     0.011 A 
ATOM     67  C   UNL     1       6.227   8.889  -1.561  1.00  0.00     0.113 A 
ATOM     68  C   UNL     1       5.164   9.242  -0.747  1.00  0.00     0.035 A 
BRANCH  66  69
ATOM     69  S   UNL     1       3.326   8.853   1.210  1.00  0.00    -0.120 SA
BRANCH  69  70
ATOM     70  C   UNL     1       3.078   7.508   2.408  1.00  0.00     0.132 C 
BRANCH  70  71
ATOM     71  C   UNL     1       2.571   6.216   1.840  1.00  0.00     0.062 A 
ATOM     72  C   UNL     1       1.544   6.020   0.934  1.00  0.00     0.091 A 
ATOM     73  N   UNL     1       3.118   5.039   2.337  1.00  0.00    -0.240 NA
ATOM     74  S   UNL     1       1.150   4.352   0.842  1.00  0.00    -0.122 S 
ATOM     75  C   UNL     1       2.384   4.003   1.981  1.00  0.00     0.124 A 
BRANCH  75  76
ATOM     76  C   UNL     1       2.628   2.645   2.576  1.00  0.00     0.021 A 
ATOM     77  C   UNL     1       1.730   1.536   2.562  1.00  0.00     0.023 A 
ATOM     78  C   UNL     1       3.788   2.353   3.263  1.00  0.00     0.076 A 
ATOM     79  C   UNL     1       2.224   0.459   3.267  1.00  0.00     0.065 A 
ATOM     80  S   UNL     1       3.784   0.764   3.898  1.00  0.00    -0.152 S 
ENDBRANCH  75  76
ENDBRANCH  70  71
ENDBRANCH  69  70
ENDBRANCH  66  69
ENDBRANCH  60  63
ENDBRANCH  58  59
ENDBRANCH   1  58
TORSDOF 15
