REMARK SMILES O=C(NCCCCNC(=O)c1ccc(Cn2ccc3ccc(Br)cc32)nc1)c1ccc(-c2c3nc(c(-c4ccccc4)c4ccc([nH]4)c(-c4ccccc4)c4nc(c(-c5ccccc5)c5ccc2[nH]5)C=C4)C=C3)cc1
REMARK SMILES IDX 5 1 4 2 3 3 1 4 2 5 28 7 29 8 75 9 30 10 74 11 31 12 32 13
REMARK SMILES IDX 33 14 68 15 34 16 73 17 67 18 69 19 35 20 72 21 66 22 65 23
REMARK SMILES IDX 36 25 58 26 43 27 57 28 44 29 47 30 56 31 70 32 45 33 46 34
REMARK SMILES IDX 55 36 71 37 48 38 37 39 38 40 42 41 39 42 41 43 40 44 59 45
REMARK SMILES IDX 60 46 64 47 61 48 63 49 62 50 49 51 50 52 54 53 51 54 53 55
REMARK SMILES IDX 52 56 6 57 7 58 8 59 9 60 10 62 11 63 12 64 27 65 13 66
REMARK SMILES IDX 26 67 14 68 15 69 16 70 17 71 25 72 18 73 19 74 24 75 20 76
REMARK SMILES IDX 22 77 21 78 23 79
REMARK H PARENT 3 6 69 24 47 35 8 61
REMARK Flexibility Score: inf
ROOT
ATOM      1  C   UNL     1       4.883   2.284  -2.001  1.00  0.00     0.023 C 
ENDROOT
BRANCH   1   2
ATOM      2  C   UNL     1       4.475   1.184  -1.035  1.00  0.00     0.116 C 
BRANCH   2   3
ATOM      3  N   UNL     1       3.025   0.998  -0.911  1.00  0.00    -0.352 N 
ATOM      4  O   UNL     1       1.204  -0.236  -0.294  1.00  0.00    -0.269 OA
ATOM      5  C   UNL     1       2.357   0.126  -0.064  1.00  0.00     0.251 C 
ATOM      6  H   UNL     1       2.462   1.556  -1.496  1.00  0.00     0.163 HD
BRANCH   5   7
ATOM      7  C   UNL     1       3.058  -0.346   1.140  1.00  0.00     0.039 A 
ATOM      8  C   UNL     1       3.001  -1.663   1.599  1.00  0.00     0.014 A 
ATOM      9  C   UNL     1       3.868   0.587   1.772  1.00  0.00     0.014 A 
ATOM     10  C   UNL     1       3.838  -2.031   2.652  1.00  0.00     0.010 A 
ATOM     11  C   UNL     1       4.867   0.159   2.594  1.00  0.00     0.010 A 
ATOM     12  C   UNL     1       4.790  -1.112   3.132  1.00  0.00    -0.014 A 
BRANCH  12  13
ATOM     13  C   UNL     1       5.766  -1.461   4.156  1.00  0.00     0.031 A 
ATOM     14  C   UNL     1       6.461  -2.745   3.921  1.00  0.00     0.074 A 
ATOM     15  C   UNL     1       6.132  -0.631   5.161  1.00  0.00     0.049 A 
ATOM     16  N   UNL     1       6.260  -3.849   4.554  1.00  0.00    -0.248 NA
ATOM     17  C   UNL     1       7.349  -2.871   2.755  1.00  0.00     0.031 C 
ATOM     18  C   UNL     1       5.757   0.775   5.383  1.00  0.00     0.029 A 
ATOM     19  N   UNL     1       7.016  -0.854   6.170  1.00  0.00    -0.354 N 
ATOM     20  C   UNL     1       7.153  -4.764   4.017  1.00  0.00     0.074 A 
ATOM     21  C   UNL     1       7.650  -4.171   2.800  1.00  0.00     0.031 C 
ATOM     22  C   UNL     1       6.587   1.336   6.290  1.00  0.00     0.029 A 
ATOM     23  C   UNL     1       7.403   0.287   6.864  1.00  0.00     0.049 A 
ATOM     24  H   UNL     1       7.356  -1.751   6.391  1.00  0.00     0.167 HD
ATOM     25  C   UNL     1       7.599  -5.812   4.761  1.00  0.00     0.031 A 
ATOM     26  C   UNL     1       8.319   0.363   7.858  1.00  0.00     0.031 A 
ATOM     27  C   UNL     1       6.786  -5.999   5.940  1.00  0.00     0.049 A 
ATOM     28  C   UNL     1       8.438  -0.993   8.435  1.00  0.00     0.074 A 
ATOM     29  C   UNL     1       5.453  -6.277   6.166  1.00  0.00     0.029 A 
ATOM     30  N   UNL     1       7.271  -5.466   7.112  1.00  0.00    -0.354 N 
ATOM     31  N   UNL     1       7.477  -1.581   9.087  1.00  0.00    -0.248 NA
ATOM     32  C   UNL     1       9.473  -1.868   7.915  1.00  0.00     0.031 C 
ATOM     33  C   UNL     1       5.097  -5.486   7.297  1.00  0.00     0.029 A 
ATOM     34  C   UNL     1       6.243  -4.835   7.762  1.00  0.00     0.049 A 
ATOM     35  H   UNL     1       8.201  -5.527   7.429  1.00  0.00     0.167 HD
ATOM     36  C   UNL     1       7.534  -2.902   8.669  1.00  0.00     0.074 A 
ATOM     37  C   UNL     1       8.851  -3.042   8.049  1.00  0.00     0.031 C 
ATOM     38  C   UNL     1       6.405  -3.669   8.609  1.00  0.00     0.031 A 
BRANCH  25  39
ATOM     39  C   UNL     1       8.996  -6.373   4.656  1.00  0.00    -0.014 A 
ATOM     40  C   UNL     1      10.043  -5.735   3.966  1.00  0.00     0.009 A 
ATOM     41  C   UNL     1       9.357  -7.440   5.499  1.00  0.00     0.009 A 
ATOM     42  C   UNL     1      11.378  -6.117   4.121  1.00  0.00     0.001 A 
ATOM     43  C   UNL     1      10.697  -7.799   5.689  1.00  0.00     0.001 A 
ATOM     44  C   UNL     1      11.707  -7.133   5.003  1.00  0.00     0.000 A 
ENDBRANCH  25  39
BRANCH  26  45
ATOM     45  C   UNL     1       9.342   1.404   8.098  1.00  0.00    -0.014 A 
ATOM     46  C   UNL     1       9.848   2.158   7.024  1.00  0.00     0.009 A 
ATOM     47  C   UNL     1      10.056   1.424   9.308  1.00  0.00     0.009 A 
ATOM     48  C   UNL     1      11.061   2.848   7.134  1.00  0.00     0.001 A 
ATOM     49  C   UNL     1      11.271   2.113   9.416  1.00  0.00     0.001 A 
ATOM     50  C   UNL     1      11.783   2.807   8.322  1.00  0.00     0.000 A 
ENDBRANCH  26  45
BRANCH  38  51
ATOM     51  C   UNL     1       5.148  -3.153   9.280  1.00  0.00    -0.014 A 
ATOM     52  C   UNL     1       4.483  -4.013  10.169  1.00  0.00     0.009 A 
ATOM     53  C   UNL     1       4.518  -1.943   8.938  1.00  0.00     0.009 A 
ATOM     54  C   UNL     1       3.225  -3.692  10.682  1.00  0.00     0.001 A 
ATOM     55  C   UNL     1       3.268  -1.607   9.476  1.00  0.00     0.001 A 
ATOM     56  C   UNL     1       2.618  -2.488  10.337  1.00  0.00     0.000 A 
ENDBRANCH  38  51
ENDBRANCH  12  13
ENDBRANCH   5   7
ENDBRANCH   2   3
ENDBRANCH   1   2
BRANCH   1  57
ATOM     57  C   UNL     1       4.422   3.695  -1.615  1.00  0.00     0.023 C 
BRANCH  57  58
ATOM     58  C   UNL     1       4.797   4.193  -0.217  1.00  0.00     0.116 C 
BRANCH  58  59
ATOM     59  N   UNL     1       6.233   4.252   0.010  1.00  0.00    -0.352 N 
ATOM     60  C   UNL     1       7.032   5.356   0.185  1.00  0.00     0.252 C 
ATOM     61  H   UNL     1       6.694   3.383   0.042  1.00  0.00     0.163 HD
ATOM     62  O   UNL     1       8.251   5.244   0.249  1.00  0.00    -0.269 OA
BRANCH  60  63
ATOM     63  C   UNL     1       6.415   6.684   0.258  1.00  0.00     0.058 A 
ATOM     64  C   UNL     1       5.521   7.044   1.266  1.00  0.00     0.017 A 
ATOM     65  C   UNL     1       6.707   7.601  -0.731  1.00  0.00     0.125 A 
ATOM     66  C   UNL     1       4.917   8.301   1.220  1.00  0.00     0.026 A 
ATOM     67  N   UNL     1       6.097   8.804  -0.818  1.00  0.00    -0.259 NA
ATOM     68  C   UNL     1       5.223   9.157   0.162  1.00  0.00     0.060 A 
BRANCH  68  69
ATOM     69  C   UNL     1       4.602  10.530   0.061  1.00  0.00     0.178 C 
BRANCH  69  70
ATOM     70  N   UNL     1       5.507  11.566   0.551  1.00  0.00    -0.341 N 
ATOM     71  C   UNL     1       5.337  12.252   1.728  1.00  0.00     0.087 A 
ATOM     72  C   UNL     1       6.646  12.014  -0.095  1.00  0.00     0.049 A 
ATOM     73  C   UNL     1       6.404  13.109   1.877  1.00  0.00     0.028 A 
ATOM     74  C   UNL     1       7.250  12.953   0.745  1.00  0.00    -0.000 A 
ATOM     75  C   UNL     1       7.217  11.651  -1.328  1.00  0.00     0.042 A 
ATOM     76  C   UNL     1       8.478  13.527   0.357  1.00  0.00     0.011 A 
ATOM     77  C   UNL     1       8.447  12.212  -1.673  1.00  0.00     0.020 A 
ATOM     78  C   UNL     1       9.075  13.137  -0.848  1.00  0.00     0.016 A 
ATOM     79  Br  UNL     1       9.281  11.678  -3.287  1.00  0.00    -0.051 Br
ENDBRANCH  69  70
ENDBRANCH  68  69
ENDBRANCH  60  63
ENDBRANCH  58  59
ENDBRANCH  57  58
ENDBRANCH   1  57
TORSDOF 13
