REMARK SMILES COC(=O)c1cccc(NC(=O)[C@@H]2[C@@H]3CC[C@@H](C3)[C@@H]2C(=O)NCCCCNC(=O)c2ccc(-c3c4nc(c(-c5ccccc5)c5ccc([nH]5)c(-c5ccccc5)c5nc(c(-c6ccccc6)c6ccc3[nH]6)C=C5)C=C4)cc2)c1
REMARK SMILES IDX 23 1 22 2 20 3 21 4 19 6 13 7 14 8 15 9 18 10 17 11 16 12
REMARK SMILES IDX 11 13 10 14 12 16 9 17 5 18 6 19 78 20 7 21 8 22 3 23 4 24
REMARK SMILES IDX 2 25 1 26 24 27 25 28 26 29 27 30 28 31 29 33 30 34 31 35
REMARK SMILES IDX 77 36 32 37 76 38 33 39 34 40 35 41 70 42 36 43 75 44 69 45
REMARK SMILES IDX 71 46 37 47 74 48 68 49 67 50 38 52 60 53 45 54 59 55 46 56
REMARK SMILES IDX 49 57 58 58 72 59 47 60 48 61 57 63 73 64 50 65 39 66 40 67
REMARK SMILES IDX 44 68 41 69 43 70 42 71 61 72 62 73 66 74 63 75 65 76 64 77
REMARK SMILES IDX 51 78 52 79 56 80 53 81 55 82 54 83
REMARK H PARENT 22 5 10 15 27 32 71 51 49 62
REMARK Flexibility Score: inf
ROOT
ATOM      1  C   UNL     1      -1.801   0.230  -7.866  1.00  0.00     0.116 C 
ENDROOT
BRANCH   1   2
ATOM      2  N   UNL     1      -0.808  -0.810  -8.069  1.00  0.00    -0.356 N 
ATOM      3  C   UNL     1      -0.934  -2.150  -8.302  1.00  0.00     0.224 C 
ATOM      4  O   UNL     1       0.080  -2.750  -8.655  1.00  0.00    -0.275 OA
ATOM      5  H   UNL     1       0.123  -0.492  -8.033  1.00  0.00     0.163 HD
BRANCH   3   6
ATOM      6  C   UNL     1      -2.302  -2.813  -8.196  1.00  0.00     0.094 C 
ATOM      7  C   UNL     1      -2.606  -3.870  -7.092  1.00  0.00     0.094 C 
ATOM      8  C   UNL     1      -3.218  -5.027  -7.932  1.00  0.00     0.002 C 
ATOM      9  C   UNL     1      -2.137  -5.731  -8.766  1.00  0.00     0.005 C 
ATOM     10  C   UNL     1      -3.988  -4.260  -9.013  1.00  0.00     0.009 C 
ATOM     11  C   UNL     1      -2.740  -3.524  -9.504  1.00  0.00     0.002 C 
ATOM     12  C   UNL     1      -1.841  -4.716  -9.872  1.00  0.00     0.005 C 
BRANCH   7  13
ATOM     13  C   UNL     1      -1.518  -4.283  -6.107  1.00  0.00     0.228 C 
ATOM     14  N   UNL     1      -1.722  -5.226  -5.138  1.00  0.00    -0.326 N 
ATOM     15  H   UNL     1      -0.880  -5.512  -4.715  1.00  0.00     0.169 HD
ATOM     16  O   UNL     1      -0.403  -3.760  -6.109  1.00  0.00    -0.274 OA
BRANCH  14  17
ATOM     17  C   UNL     1      -2.839  -5.889  -4.597  1.00  0.00     0.042 A 
ATOM     18  C   UNL     1      -3.626  -7.691  -3.152  1.00  0.00     0.062 A 
ATOM     19  C   UNL     1      -4.950  -7.366  -3.449  1.00  0.00     0.016 A 
ATOM     20  C   UNL     1      -2.575  -6.960  -3.728  1.00  0.00     0.041 A 
ATOM     21  C   UNL     1      -5.220  -6.276  -4.266  1.00  0.00     0.003 A 
ATOM     22  C   UNL     1      -4.170  -5.532  -4.815  1.00  0.00     0.026 A 
BRANCH  18  23
ATOM     23  C   UNL     1      -3.390  -8.808  -2.211  1.00  0.00     0.337 C 
ATOM     24  O   UNL     1      -4.126  -9.777  -2.114  1.00  0.00    -0.246 OA
BRANCH  23  25
ATOM     25  O   UNL     1      -2.331  -8.515  -1.417  1.00  0.00    -0.465 OA
ATOM     26  C   UNL     1      -2.165  -9.424  -0.326  1.00  0.00     0.282 C 
ENDBRANCH  23  25
ENDBRANCH  18  23
ENDBRANCH  14  17
ENDBRANCH   7  13
ENDBRANCH   3   6
ENDBRANCH   1   2
BRANCH   1  27
ATOM     27  C   UNL     1      -1.620   0.961  -6.539  1.00  0.00     0.023 C 
BRANCH  27  28
ATOM     28  C   UNL     1      -0.293   1.708  -6.382  1.00  0.00     0.023 C 
BRANCH  28  29
ATOM     29  C   UNL     1       0.071   2.664  -7.514  1.00  0.00     0.116 C 
BRANCH  29  30
ATOM     30  N   UNL     1      -0.921   3.705  -7.733  1.00  0.00    -0.352 N 
ATOM     31  C   UNL     1      -0.738   5.049  -7.955  1.00  0.00     0.251 C 
ATOM     32  H   UNL     1      -1.858   3.403  -7.721  1.00  0.00     0.163 HD
ATOM     33  O   UNL     1      -1.708   5.798  -8.020  1.00  0.00    -0.269 OA
BRANCH  31  34
ATOM     34  C   UNL     1       0.628   5.603  -8.074  1.00  0.00     0.039 A 
ATOM     35  C   UNL     1       0.946   6.759  -7.355  1.00  0.00     0.014 A 
ATOM     36  C   UNL     1       1.595   4.989  -8.875  1.00  0.00     0.014 A 
ATOM     37  C   UNL     1       2.252   7.253  -7.377  1.00  0.00     0.010 A 
ATOM     38  C   UNL     1       2.911   5.445  -8.846  1.00  0.00     0.010 A 
ATOM     39  C   UNL     1       3.255   6.577  -8.090  1.00  0.00    -0.014 A 
BRANCH  39  40
ATOM     40  C   UNL     1       4.670   7.022  -8.030  1.00  0.00     0.031 A 
ATOM     41  C   UNL     1       5.363   7.535  -9.262  1.00  0.00     0.074 A 
ATOM     42  C   UNL     1       5.355   6.905  -6.875  1.00  0.00     0.049 A 
ATOM     43  N   UNL     1       6.605   7.924  -9.408  1.00  0.00    -0.248 NA
ATOM     44  C   UNL     1       4.562   7.602 -10.495  1.00  0.00     0.031 C 
ATOM     45  C   UNL     1       4.815   6.382  -5.618  1.00  0.00     0.029 A 
ATOM     46  N   UNL     1       6.658   7.213  -6.574  1.00  0.00    -0.354 N 
ATOM     47  C   UNL     1       6.739   8.264 -10.748  1.00  0.00     0.074 A 
ATOM     48  C   UNL     1       5.465   7.998 -11.381  1.00  0.00     0.031 C 
ATOM     49  C   UNL     1       5.771   6.429  -4.677  1.00  0.00     0.029 A 
ATOM     50  C   UNL     1       6.999   6.949  -5.270  1.00  0.00     0.049 A 
ATOM     51  H   UNL     1       7.289   7.587  -7.231  1.00  0.00     0.167 HD
ATOM     52  C   UNL     1       7.819   8.769 -11.391  1.00  0.00     0.031 A 
ATOM     53  C   UNL     1       8.169   7.104  -4.622  1.00  0.00     0.031 A 
ATOM     54  C   UNL     1       9.084   9.045 -10.764  1.00  0.00     0.049 A 
ATOM     55  C   UNL     1       9.353   7.660  -5.361  1.00  0.00     0.074 A 
ATOM     56  C   UNL     1      10.217   9.612 -11.323  1.00  0.00     0.029 A 
ATOM     57  N   UNL     1       9.385   8.771  -9.440  1.00  0.00    -0.354 N 
ATOM     58  N   UNL     1       9.441   8.042  -6.612  1.00  0.00    -0.248 NA
ATOM     59  C   UNL     1      10.598   7.813  -4.593  1.00  0.00     0.031 C 
ATOM     60  C   UNL     1      11.218   9.641 -10.346  1.00  0.00     0.029 A 
ATOM     61  C   UNL     1      10.693   9.137  -9.168  1.00  0.00     0.049 A 
ATOM     62  H   UNL     1       8.761   8.376  -8.789  1.00  0.00     0.167 HD
ATOM     63  C   UNL     1      10.741   8.503  -6.774  1.00  0.00     0.074 A 
ATOM     64  C   UNL     1      11.399   8.369  -5.491  1.00  0.00     0.031 C 
ATOM     65  C   UNL     1      11.336   8.994  -7.888  1.00  0.00     0.031 A 
BRANCH  52  66
ATOM     66  C   UNL     1       7.676   9.053 -12.860  1.00  0.00    -0.014 A 
ATOM     67  C   UNL     1       6.899  10.129 -13.318  1.00  0.00     0.009 A 
ATOM     68  C   UNL     1       8.357   8.259 -13.795  1.00  0.00     0.009 A 
ATOM     69  C   UNL     1       6.781  10.383 -14.686  1.00  0.00     0.001 A 
ATOM     70  C   UNL     1       8.258   8.532 -15.161  1.00  0.00     0.001 A 
ATOM     71  C   UNL     1       7.463   9.588 -15.605  1.00  0.00     0.000 A 
ENDBRANCH  52  66
BRANCH  53  72
ATOM     72  C   UNL     1       8.278   6.744  -3.186  1.00  0.00    -0.014 A 
ATOM     73  C   UNL     1       8.389   7.745  -2.209  1.00  0.00     0.009 A 
ATOM     74  C   UNL     1       8.282   5.399  -2.785  1.00  0.00     0.009 A 
ATOM     75  C   UNL     1       8.529   7.406  -0.861  1.00  0.00     0.001 A 
ATOM     76  C   UNL     1       8.395   5.064  -1.434  1.00  0.00     0.001 A 
ATOM     77  C   UNL     1       8.527   6.067  -0.475  1.00  0.00     0.000 A 
ENDBRANCH  53  72
BRANCH  65  78
ATOM     78  C   UNL     1      12.761   9.448  -7.759  1.00  0.00    -0.014 A 
ATOM     79  C   UNL     1      13.811   8.524  -7.643  1.00  0.00     0.009 A 
ATOM     80  C   UNL     1      13.060  10.819  -7.785  1.00  0.00     0.009 A 
ATOM     81  C   UNL     1      15.130   8.966  -7.521  1.00  0.00     0.001 A 
ATOM     82  C   UNL     1      14.381  11.258  -7.689  1.00  0.00     0.001 A 
ATOM     83  C   UNL     1      15.414  10.332  -7.548  1.00  0.00     0.000 A 
ENDBRANCH  65  78
ENDBRANCH  39  40
ENDBRANCH  31  34
ENDBRANCH  29  30
ENDBRANCH  28  29
ENDBRANCH  27  28
ENDBRANCH   1  27
TORSDOF 15
