REMARK SMILES Cc1ccc2nc(CC3(CC(=O)NCCCCNC(=O)c4ccc(-c5c6nc(c(-c7ccccc7)c7ccc([nH]7)c(-c7ccccc7)c7nc(c(-c8ccccc8)c8ccc5[nH]8)C=C7)C=C6)cc4)CCCCC3)sc2c1
REMARK SMILES IDX 15 1 14 2 13 3 11 4 12 5 10 7 9 8 69 9 73 10 70 11 72 12
REMARK SMILES IDX 71 13 8 14 7 15 1 16 2 17 3 18 76 19 4 20 75 21 5 22 74 23
REMARK SMILES IDX 6 24 16 25 17 26 18 27 19 28 20 30 21 31 22 32 68 33 23 34
REMARK SMILES IDX 67 35 24 36 25 37 26 38 61 39 27 40 66 41 60 42 62 43 28 44
REMARK SMILES IDX 65 45 59 46 58 47 29 49 51 50 36 51 50 52 37 53 40 54 49 55
REMARK SMILES IDX 63 56 38 57 39 58 48 60 64 61 41 62 30 63 31 64 35 65 32 66
REMARK SMILES IDX 34 67 33 68 52 69 53 70 57 71 54 72 56 73 55 74 42 75 43 76
REMARK SMILES IDX 47 77 44 78 46 79 45 80
REMARK H PARENT 13 6 18 29 62 48 40 59
REMARK Flexibility Score: inf
ROOT
ATOM      1  C   UNL     1      -3.612  -4.779   0.258  1.00  0.00     0.023 C 
ENDROOT
BRANCH   1   2
ATOM      2  C   UNL     1      -5.049  -4.675  -0.258  1.00  0.00     0.116 C 
BRANCH   2   3
ATOM      3  N   UNL     1      -5.777  -3.628   0.427  1.00  0.00    -0.356 N 
ATOM      4  C   UNL     1      -6.079  -2.366   0.022  1.00  0.00     0.220 C 
ATOM      5  O   UNL     1      -6.676  -1.634   0.814  1.00  0.00    -0.275 OA
ATOM      6  H   UNL     1      -6.104  -3.867   1.324  1.00  0.00     0.163 HD
BRANCH   4   7
ATOM      7  C   UNL     1      -5.698  -1.854  -1.364  1.00  0.00     0.107 C 
BRANCH   7   8
ATOM      8  C   UNL     1      -4.260  -1.252  -1.565  1.00  0.00    -0.015 C 
ATOM      9  C   UNL     1      -4.324  -0.194  -2.711  1.00  0.00     0.008 C 
ATOM     10  C   UNL     1      -3.232  -2.306  -2.058  1.00  0.00     0.008 C 
ATOM     11  C   UNL     1      -4.647  -0.798  -4.086  1.00  0.00     0.001 C 
ATOM     12  C   UNL     1      -3.574  -2.973  -3.385  1.00  0.00     0.001 C 
ATOM     13  C   UNL     1      -3.692  -1.923  -4.479  1.00  0.00     0.000 C 
BRANCH   8  14
ATOM     14  C   UNL     1      -3.812  -0.551  -0.232  1.00  0.00     0.075 C 
BRANCH  14  15
ATOM     15  C   UNL     1      -2.334  -0.324  -0.092  1.00  0.00     0.094 A 
ATOM     16  C   UNL     1       3.687   1.048  -0.021  1.00  0.00     0.044 C 
ATOM     17  C   UNL     1       2.337   0.394   0.030  1.00  0.00    -0.050 A 
ATOM     18  C   UNL     1       2.226  -0.993   0.161  1.00  0.00     0.006 A 
ATOM     19  C   UNL     1       1.181   1.189  -0.054  1.00  0.00     0.024 A 
ATOM     20  C   UNL     1       0.972  -1.607   0.213  1.00  0.00     0.030 A 
ATOM     21  C   UNL     1      -0.073   0.557  -0.030  1.00  0.00     0.055 A 
ATOM     22  C   UNL     1      -0.193  -0.825   0.114  1.00  0.00     0.082 A 
ATOM     23  S   UNL     1      -1.649   1.243  -0.178  1.00  0.00    -0.119 S 
ATOM     24  N   UNL     1      -1.486  -1.305   0.133  1.00  0.00    -0.241 NA
ENDBRANCH  14  15
ENDBRANCH   8  14
ENDBRANCH   7   8
ENDBRANCH   4   7
ENDBRANCH   2   3
ENDBRANCH   1   2
BRANCH   1  25
ATOM     25  C   UNL     1      -3.378  -5.795   1.364  1.00  0.00     0.023 C 
BRANCH  25  26
ATOM     26  C   UNL     1      -3.653  -7.234   0.963  1.00  0.00     0.116 C 
BRANCH  26  27
ATOM     27  N   UNL     1      -2.898  -7.697  -0.194  1.00  0.00    -0.352 N 
ATOM     28  C   UNL     1      -2.419  -8.964  -0.445  1.00  0.00     0.251 C 
ATOM     29  H   UNL     1      -2.706  -7.019  -0.882  1.00  0.00     0.163 HD
ATOM     30  O   UNL     1      -1.745  -9.196  -1.437  1.00  0.00    -0.269 OA
BRANCH  28  31
ATOM     31  C   UNL     1      -2.694 -10.031   0.540  1.00  0.00     0.039 A 
ATOM     32  C   UNL     1      -1.637 -10.823   0.990  1.00  0.00     0.014 A 
ATOM     33  C   UNL     1      -3.975 -10.190   1.072  1.00  0.00     0.014 A 
ATOM     34  C   UNL     1      -1.855 -11.730   2.027  1.00  0.00     0.010 A 
ATOM     35  C   UNL     1      -4.164 -11.009   2.175  1.00  0.00     0.010 A 
ATOM     36  C   UNL     1      -3.112 -11.805   2.651  1.00  0.00    -0.014 A 
BRANCH  36  37
ATOM     37  C   UNL     1      -3.358 -12.742   3.772  1.00  0.00     0.031 A 
ATOM     38  C   UNL     1      -4.376 -13.841   3.617  1.00  0.00     0.074 A 
ATOM     39  C   UNL     1      -2.708 -12.578   4.941  1.00  0.00     0.049 A 
ATOM     40  N   UNL     1      -4.741 -14.756   4.479  1.00  0.00    -0.248 NA
ATOM     41  C   UNL     1      -5.107 -13.898   2.339  1.00  0.00     0.031 C 
ATOM     42  C   UNL     1      -1.755 -11.507   5.244  1.00  0.00     0.029 A 
ATOM     43  N   UNL     1      -2.752 -13.319   6.095  1.00  0.00    -0.354 N 
ATOM     44  C   UNL     1      -5.756 -15.472   3.857  1.00  0.00     0.074 A 
ATOM     45  C   UNL     1      -5.996 -14.850   2.576  1.00  0.00     0.031 C 
ATOM     46  C   UNL     1      -1.273 -11.686   6.485  1.00  0.00     0.029 A 
ATOM     47  C   UNL     1      -1.900 -12.865   7.073  1.00  0.00     0.049 A 
ATOM     48  H   UNL     1      -3.337 -14.101   6.211  1.00  0.00     0.167 HD
ATOM     49  C   UNL     1      -6.410 -16.572   4.297  1.00  0.00     0.031 A 
ATOM     50  C   UNL     1      -1.644 -13.357   8.300  1.00  0.00     0.031 A 
ATOM     51  C   UNL     1      -6.142 -17.216   5.552  1.00  0.00     0.049 A 
ATOM     52  C   UNL     1      -2.344 -14.612   8.743  1.00  0.00     0.074 A 
ATOM     53  C   UNL     1      -6.690 -18.381   6.058  1.00  0.00     0.029 A 
ATOM     54  N   UNL     1      -5.241 -16.750   6.496  1.00  0.00    -0.354 N 
ATOM     55  N   UNL     1      -3.234 -15.333   8.104  1.00  0.00    -0.248 NA
ATOM     56  C   UNL     1      -1.985 -15.133  10.070  1.00  0.00     0.031 C 
ATOM     57  C   UNL     1      -6.147 -18.600   7.328  1.00  0.00     0.029 A 
ATOM     58  C   UNL     1      -5.227 -17.597   7.590  1.00  0.00     0.049 A 
ATOM     59  H   UNL     1      -4.693 -15.938   6.402  1.00  0.00     0.167 HD
ATOM     60  C   UNL     1      -3.522 -16.404   8.939  1.00  0.00     0.074 A 
ATOM     61  C   UNL     1      -2.695 -16.251  10.118  1.00  0.00     0.031 C 
ATOM     62  C   UNL     1      -4.396 -17.423   8.752  1.00  0.00     0.031 A 
BRANCH  49  63
ATOM     63  C   UNL     1      -7.469 -17.150   3.401  1.00  0.00    -0.014 A 
ATOM     64  C   UNL     1      -7.133 -17.791   2.197  1.00  0.00     0.009 A 
ATOM     65  C   UNL     1      -8.819 -17.070   3.773  1.00  0.00     0.009 A 
ATOM     66  C   UNL     1      -8.130 -18.305   1.366  1.00  0.00     0.001 A 
ATOM     67  C   UNL     1      -9.812 -17.612   2.954  1.00  0.00     0.001 A 
ATOM     68  C   UNL     1      -9.467 -18.220   1.748  1.00  0.00     0.000 A 
ENDBRANCH  49  63
BRANCH  50  69
ATOM     69  C   UNL     1      -0.652 -12.691   9.184  1.00  0.00    -0.014 A 
ATOM     70  C   UNL     1       0.588 -13.297   9.446  1.00  0.00     0.009 A 
ATOM     71  C   UNL     1      -0.945 -11.459   9.787  1.00  0.00     0.009 A 
ATOM     72  C   UNL     1       1.497 -12.700  10.322  1.00  0.00     0.001 A 
ATOM     73  C   UNL     1      -0.022 -10.851  10.641  1.00  0.00     0.001 A 
ATOM     74  C   UNL     1       1.193 -11.477  10.917  1.00  0.00     0.000 A 
ENDBRANCH  50  69
BRANCH  62  75
ATOM     75  C   UNL     1      -4.475 -18.461   9.834  1.00  0.00    -0.014 A 
ATOM     76  C   UNL     1      -5.077 -18.178  11.070  1.00  0.00     0.009 A 
ATOM     77  C   UNL     1      -3.965 -19.747   9.601  1.00  0.00     0.009 A 
ATOM     78  C   UNL     1      -5.128 -19.152  12.067  1.00  0.00     0.001 A 
ATOM     79  C   UNL     1      -4.044 -20.728  10.590  1.00  0.00     0.001 A 
ATOM     80  C   UNL     1      -4.615 -20.427  11.825  1.00  0.00     0.000 A 
ENDBRANCH  62  75
ENDBRANCH  36  37
ENDBRANCH  28  31
ENDBRANCH  26  27
ENDBRANCH  25  26
ENDBRANCH   1  25
TORSDOF 14
