REMARK SMILES O=C(/C=C/c1c(Cl)cccc1Cl)NCC(=O)NCCCCNC(=O)c1ccc(-c2c3nc(c(-c4ccccc4)c4ccc([nH]4)c(-c4ccccc4)c4nc(c(-c5ccccc5)c5ccc2[nH]5)C=C4)C=C3)cc1
REMARK SMILES IDX 19 1 18 2 17 3 15 4 16 5 14 7 13 8 1 9 2 10 3 12 4 13 5 14
REMARK SMILES IDX 6 15 11 16 7 17 8 18 10 19 12 20 9 21 20 22 21 23 22 24
REMARK SMILES IDX 23 25 24 27 25 28 26 29 72 30 27 31 71 32 28 33 29 34 30 35
REMARK SMILES IDX 65 36 31 37 70 38 64 39 66 40 32 41 69 42 63 43 62 44 33 46
REMARK SMILES IDX 55 47 40 48 54 49 41 50 44 51 53 52 67 53 42 54 43 55 52 57
REMARK SMILES IDX 68 58 45 59 34 60 35 61 39 62 36 63 38 64 37 65 56 66 57 67
REMARK SMILES IDX 61 68 58 69 60 70 59 71 46 72 47 73 51 74 48 75 50 76 49 77
REMARK H PARENT 17 6 13 11 22 26 66 45 44 56
REMARK Flexibility Score: inf
ROOT
ATOM      1  C   UNL     1       2.644   0.083   3.356  1.00  0.00     0.023 C 
ENDROOT
BRANCH   1   2
ATOM      2  C   UNL     1       1.659   1.167   2.916  1.00  0.00     0.116 C 
BRANCH   2   3
ATOM      3  N   UNL     1       2.319   2.446   2.741  1.00  0.00    -0.355 N 
ATOM      4  C   UNL     1       2.694   3.059   1.579  1.00  0.00     0.239 C 
ATOM      5  O   UNL     1       3.218   4.172   1.650  1.00  0.00    -0.273 OA
ATOM      6  H   UNL     1       2.524   2.937   3.569  1.00  0.00     0.163 HD
BRANCH   4   7
ATOM      7  C   UNL     1       2.402   2.400   0.228  1.00  0.00     0.216 C 
BRANCH   7   8
ATOM      8  N   UNL     1       3.075   1.118   0.086  1.00  0.00    -0.343 N 
ATOM      9  O   UNL     1       1.182  -0.068  -0.420  1.00  0.00    -0.270 OA
ATOM     10  C   UNL     1       2.393  -0.023  -0.233  1.00  0.00     0.244 C 
ATOM     11  H   UNL     1       4.049   1.071   0.224  1.00  0.00     0.164 HD
BRANCH  10  12
ATOM     12  C   UNL     1       3.176  -1.282  -0.248  1.00  0.00     0.072 C 
ATOM     13  C   UNL     1       4.499  -1.384  -0.444  1.00  0.00     0.017 C 
BRANCH  13  14
ATOM     14  C   UNL     1       5.195  -2.687  -0.482  1.00  0.00     0.012 A 
ATOM     15  C   UNL     1       4.909  -3.666  -1.456  1.00  0.00     0.049 A 
ATOM     16  C   UNL     1       6.215  -2.970   0.449  1.00  0.00     0.049 A 
ATOM     17  Cl  UNL     1       3.726  -3.423  -2.699  1.00  0.00    -0.084 Cl
ATOM     18  C   UNL     1       5.602  -4.882  -1.482  1.00  0.00     0.021 A 
ATOM     19  C   UNL     1       6.913  -4.184   0.411  1.00  0.00     0.021 A 
ATOM     20  Cl  UNL     1       6.658  -1.844   1.691  1.00  0.00    -0.084 Cl
ATOM     21  C   UNL     1       6.605  -5.141  -0.552  1.00  0.00     0.003 A 
ENDBRANCH  13  14
ENDBRANCH  10  12
ENDBRANCH   7   8
ENDBRANCH   4   7
ENDBRANCH   2   3
ENDBRANCH   1   2
BRANCH   1  22
ATOM     22  C   UNL     1       3.173   0.251   4.784  1.00  0.00     0.023 C 
BRANCH  22  23
ATOM     23  C   UNL     1       2.106   0.289   5.873  1.00  0.00     0.116 C 
BRANCH  23  24
ATOM     24  N   UNL     1       1.280  -0.906   5.906  1.00  0.00    -0.352 N 
ATOM     25  C   UNL     1       0.768  -1.575   6.988  1.00  0.00     0.251 C 
ATOM     26  H   UNL     1       1.058  -1.291   5.027  1.00  0.00     0.163 HD
ATOM     27  O   UNL     1       0.193  -2.651   6.828  1.00  0.00    -0.269 OA
BRANCH  25  28
ATOM     28  C   UNL     1       0.929  -1.026   8.352  1.00  0.00     0.039 A 
ATOM     29  C   UNL     1       1.267  -1.901   9.388  1.00  0.00     0.014 A 
ATOM     30  C   UNL     1       0.732   0.331   8.621  1.00  0.00     0.014 A 
ATOM     31  C   UNL     1       1.452  -1.408  10.681  1.00  0.00     0.010 A 
ATOM     32  C   UNL     1       0.990   0.834   9.895  1.00  0.00     0.010 A 
ATOM     33  C   UNL     1       1.340  -0.032  10.941  1.00  0.00    -0.014 A 
BRANCH  33  34
ATOM     34  C   UNL     1       1.569   0.504  12.307  1.00  0.00     0.031 A 
ATOM     35  C   UNL     1       0.445   1.150  13.071  1.00  0.00     0.074 A 
ATOM     36  C   UNL     1       2.801   0.439  12.850  1.00  0.00     0.049 A 
ATOM     37  N   UNL     1       0.455   1.666  14.274  1.00  0.00    -0.248 NA
ATOM     38  C   UNL     1      -0.854   1.251  12.386  1.00  0.00     0.031 C 
ATOM     39  C   UNL     1       3.987  -0.118  12.198  1.00  0.00     0.029 A 
ATOM     40  N   UNL     1       3.256   0.844  14.080  1.00  0.00    -0.354 N 
ATOM     41  C   UNL     1      -0.826   2.161  14.483  1.00  0.00     0.074 A 
ATOM     42  C   UNL     1      -1.571   1.935  13.264  1.00  0.00     0.031 C 
ATOM     43  C   UNL     1       5.026  -0.055  13.047  1.00  0.00     0.029 A 
ATOM     44  C   UNL     1       4.588   0.577  14.288  1.00  0.00     0.049 A 
ATOM     45  H   UNL     1       2.684   1.284  14.749  1.00  0.00     0.167 HD
ATOM     46  C   UNL     1      -1.347   2.732  15.597  1.00  0.00     0.031 A 
ATOM     47  C   UNL     1       5.368   0.809  15.360  1.00  0.00     0.031 A 
ATOM     48  C   UNL     1      -0.612   2.949  16.814  1.00  0.00     0.049 A 
ATOM     49  C   UNL     1       4.767   1.444  16.583  1.00  0.00     0.074 A 
ATOM     50  C   UNL     1      -1.065   3.469  18.014  1.00  0.00     0.029 A 
ATOM     51  N   UNL     1       0.733   2.661  16.985  1.00  0.00    -0.354 N 
ATOM     52  N   UNL     1       3.534   1.835  16.791  1.00  0.00    -0.248 NA
ATOM     53  C   UNL     1       5.667   1.651  17.727  1.00  0.00     0.031 C 
ATOM     54  C   UNL     1       0.019   3.542  18.896  1.00  0.00     0.029 A 
ATOM     55  C   UNL     1       1.133   3.013  18.264  1.00  0.00     0.049 A 
ATOM     56  H   UNL     1       1.318   2.265  16.299  1.00  0.00     0.167 HD
ATOM     57  C   UNL     1       3.502   2.310  18.096  1.00  0.00     0.074 A 
ATOM     58  C   UNL     1       4.835   2.136  18.637  1.00  0.00     0.031 C 
ATOM     59  C   UNL     1       2.463   2.841  18.786  1.00  0.00     0.031 A 
BRANCH  46  60
ATOM     60  C   UNL     1      -2.786   3.165  15.542  1.00  0.00    -0.014 A 
ATOM     61  C   UNL     1      -3.829   2.225  15.490  1.00  0.00     0.009 A 
ATOM     62  C   UNL     1      -3.107   4.531  15.572  1.00  0.00     0.009 A 
ATOM     63  C   UNL     1      -5.159   2.645  15.428  1.00  0.00     0.001 A 
ATOM     64  C   UNL     1      -4.439   4.948  15.541  1.00  0.00     0.001 A 
ATOM     65  C   UNL     1      -5.463   4.005  15.458  1.00  0.00     0.000 A 
ENDBRANCH  46  60
BRANCH  47  66
ATOM     66  C   UNL     1       6.801   0.413  15.339  1.00  0.00    -0.014 A 
ATOM     67  C   UNL     1       7.256  -0.654  16.129  1.00  0.00     0.009 A 
ATOM     68  C   UNL     1       7.722   1.106  14.540  1.00  0.00     0.009 A 
ATOM     69  C   UNL     1       8.610  -0.999  16.142  1.00  0.00     0.001 A 
ATOM     70  C   UNL     1       9.069   0.740  14.531  1.00  0.00     0.001 A 
ATOM     71  C   UNL     1       9.514  -0.304  15.340  1.00  0.00     0.000 A 
ENDBRANCH  47  66
BRANCH  59  72
ATOM     72  C   UNL     1       2.722   3.242  20.212  1.00  0.00    -0.014 A 
ATOM     73  C   UNL     1       3.517   4.356  20.525  1.00  0.00     0.009 A 
ATOM     74  C   UNL     1       2.143   2.504  21.256  1.00  0.00     0.009 A 
ATOM     75  C   UNL     1       3.761   4.696  21.857  1.00  0.00     0.001 A 
ATOM     76  C   UNL     1       2.363   2.866  22.586  1.00  0.00     0.001 A 
ATOM     77  C   UNL     1       3.182   3.953  22.886  1.00  0.00     0.000 A 
ENDBRANCH  59  72
ENDBRANCH  33  34
ENDBRANCH  25  28
ENDBRANCH  23  24
ENDBRANCH  22  23
ENDBRANCH   1  22
TORSDOF 14
