REMARK SMILES O=C(NCCCCNC(=O)c1cccc(Nc2nc(-c3ccc(F)cc3F)cs2)c1)c1ccc(-c2c3nc(c(-c4ccccc4)c4ccc([nH]4)c(-c4ccccc4)c4nc(c(-c5ccccc5)c5ccc2[nH]5)C=C4)C=C3)cc1
REMARK SMILES IDX 6 1 5 2 4 3 3 4 1 5 2 6 31 8 32 9 78 10 33 11 77 12 34 13
REMARK SMILES IDX 35 14 36 15 71 16 37 17 76 18 70 19 72 20 38 21 75 22 69 23
REMARK SMILES IDX 68 24 39 26 61 27 46 28 60 29 47 30 50 31 59 32 73 33 48 34
REMARK SMILES IDX 49 35 58 37 74 38 51 39 40 40 41 41 45 42 42 43 44 44 43 45
REMARK SMILES IDX 62 46 63 47 67 48 64 49 66 50 65 51 52 52 53 53 57 54 54 55
REMARK SMILES IDX 56 56 55 57 7 58 8 59 9 60 10 62 11 63 12 64 30 65 13 66
REMARK SMILES IDX 15 67 14 68 16 69 17 71 18 72 29 73 19 74 28 75 20 76 21 77
REMARK SMILES IDX 26 78 22 79 25 80 27 81 23 82 24 83
REMARK H PARENT 3 7 72 25 50 36 8 61 16 70
REMARK Flexibility Score: inf
ROOT
ATOM      1  C   UNL     1       4.405  -2.442   2.779  1.00  0.00     0.023 C 
ENDROOT
BRANCH   1   2
ATOM      2  C   UNL     1       4.875  -1.151   2.112  1.00  0.00     0.023 C 
BRANCH   2   3
ATOM      3  C   UNL     1       4.526  -1.023   0.635  1.00  0.00     0.116 C 
BRANCH   3   4
ATOM      4  N   UNL     1       3.091  -1.021   0.392  1.00  0.00    -0.352 N 
ATOM      5  O   UNL     1       1.077  -0.161  -0.150  1.00  0.00    -0.269 OA
ATOM      6  C   UNL     1       2.300  -0.046  -0.164  1.00  0.00     0.251 C 
ATOM      7  H   UNL     1       2.618  -1.839   0.667  1.00  0.00     0.163 HD
BRANCH   6   8
ATOM      8  C   UNL     1       2.918   1.158  -0.755  1.00  0.00     0.039 A 
ATOM      9  C   UNL     1       4.019   1.054  -1.608  1.00  0.00     0.014 A 
ATOM     10  C   UNL     1       2.383   2.412  -0.448  1.00  0.00     0.014 A 
ATOM     11  C   UNL     1       4.678   2.204  -2.031  1.00  0.00     0.010 A 
ATOM     12  C   UNL     1       2.993   3.564  -0.946  1.00  0.00     0.010 A 
ATOM     13  C   UNL     1       4.166   3.471  -1.713  1.00  0.00    -0.014 A 
BRANCH  13  14
ATOM     14  C   UNL     1       4.837   4.693  -2.220  1.00  0.00     0.031 A 
ATOM     15  C   UNL     1       5.442   5.691  -1.272  1.00  0.00     0.074 A 
ATOM     16  C   UNL     1       4.883   4.911  -3.547  1.00  0.00     0.049 A 
ATOM     17  N   UNL     1       6.007   6.842  -1.537  1.00  0.00    -0.248 NA
ATOM     18  C   UNL     1       5.398   5.357   0.160  1.00  0.00     0.031 C 
ATOM     19  C   UNL     1       4.341   4.013  -4.569  1.00  0.00     0.029 A 
ATOM     20  N   UNL     1       5.405   5.956  -4.265  1.00  0.00    -0.354 N 
ATOM     21  C   UNL     1       6.364   7.381  -0.308  1.00  0.00     0.074 A 
ATOM     22  C   UNL     1       5.926   6.444   0.705  1.00  0.00     0.031 C 
ATOM     23  C   UNL     1       4.578   4.534  -5.781  1.00  0.00     0.029 A 
ATOM     24  C   UNL     1       5.223   5.832  -5.620  1.00  0.00     0.049 A 
ATOM     25  H   UNL     1       5.865   6.721  -3.849  1.00  0.00     0.167 HD
ATOM     26  C   UNL     1       6.997   8.551  -0.048  1.00  0.00     0.031 A 
ATOM     27  C   UNL     1       5.510   6.680  -6.624  1.00  0.00     0.031 A 
ATOM     28  C   UNL     1       7.416   9.487  -1.060  1.00  0.00     0.049 A 
ATOM     29  C   UNL     1       6.156   7.997  -6.307  1.00  0.00     0.074 A 
ATOM     30  C   UNL     1       8.089  10.686  -0.900  1.00  0.00     0.029 A 
ATOM     31  N   UNL     1       7.189   9.335  -2.420  1.00  0.00    -0.354 N 
ATOM     32  N   UNL     1       6.514   8.481  -5.143  1.00  0.00    -0.248 NA
ATOM     33  C   UNL     1       6.441   8.883  -7.444  1.00  0.00     0.031 C 
ATOM     34  C   UNL     1       8.211  11.290  -2.156  1.00  0.00     0.029 A 
ATOM     35  C   UNL     1       7.682  10.432  -3.107  1.00  0.00     0.049 A 
ATOM     36  H   UNL     1       6.744   8.561  -2.835  1.00  0.00     0.167 HD
ATOM     37  C   UNL     1       7.096   9.713  -5.408  1.00  0.00     0.074 A 
ATOM     38  C   UNL     1       7.049   9.898  -6.844  1.00  0.00     0.031 C 
ATOM     39  C   UNL     1       7.629  10.605  -4.538  1.00  0.00     0.031 A 
BRANCH  26  40
ATOM     40  C   UNL     1       7.232   8.906   1.397  1.00  0.00    -0.014 A 
ATOM     41  C   UNL     1       8.138   8.188   2.194  1.00  0.00     0.009 A 
ATOM     42  C   UNL     1       6.548   9.992   1.965  1.00  0.00     0.009 A 
ATOM     43  C   UNL     1       8.316   8.520   3.540  1.00  0.00     0.001 A 
ATOM     44  C   UNL     1       6.752  10.343   3.301  1.00  0.00     0.001 A 
ATOM     45  C   UNL     1       7.625   9.598   4.091  1.00  0.00     0.000 A 
ENDBRANCH  26  40
BRANCH  27  46
ATOM     46  C   UNL     1       5.168   6.303  -8.019  1.00  0.00    -0.014 A 
ATOM     47  C   UNL     1       6.176   5.992  -8.943  1.00  0.00     0.009 A 
ATOM     48  C   UNL     1       3.825   6.219  -8.423  1.00  0.00     0.009 A 
ATOM     49  C   UNL     1       5.846   5.619 -10.248  1.00  0.00     0.001 A 
ATOM     50  C   UNL     1       3.498   5.815  -9.718  1.00  0.00     0.001 A 
ATOM     51  C   UNL     1       4.508   5.523 -10.632  1.00  0.00     0.000 A 
ENDBRANCH  27  46
BRANCH  39  52
ATOM     52  C   UNL     1       8.256  11.844  -5.116  1.00  0.00    -0.014 A 
ATOM     53  C   UNL     1       7.480  12.872  -5.672  1.00  0.00     0.009 A 
ATOM     54  C   UNL     1       9.650  12.004  -5.052  1.00  0.00     0.009 A 
ATOM     55  C   UNL     1       8.091  14.023  -6.176  1.00  0.00     0.001 A 
ATOM     56  C   UNL     1      10.254  13.167  -5.527  1.00  0.00     0.001 A 
ATOM     57  C   UNL     1       9.475  14.172  -6.097  1.00  0.00     0.000 A 
ENDBRANCH  39  52
ENDBRANCH  13  14
ENDBRANCH   6   8
ENDBRANCH   3   4
ENDBRANCH   2   3
ENDBRANCH   1   2
BRANCH   1  58
ATOM     58  C   UNL     1       4.820  -3.727   2.069  1.00  0.00     0.116 C 
BRANCH  58  59
ATOM     59  N   UNL     1       6.264  -3.865   1.963  1.00  0.00    -0.352 N 
ATOM     60  C   UNL     1       7.062  -4.904   2.369  1.00  0.00     0.251 C 
ATOM     61  H   UNL     1       6.733  -3.108   1.542  1.00  0.00     0.163 HD
ATOM     62  O   UNL     1       8.284  -4.793   2.344  1.00  0.00    -0.269 OA
BRANCH  60  63
ATOM     63  C   UNL     1       6.445  -6.154   2.853  1.00  0.00     0.041 A 
ATOM     64  C   UNL     1       6.857  -6.678   4.077  1.00  0.00     0.014 A 
ATOM     65  C   UNL     1       5.475  -6.814   2.087  1.00  0.00     0.040 A 
ATOM     66  C   UNL     1       6.233  -7.819   4.572  1.00  0.00     0.003 A 
ATOM     67  C   UNL     1       4.850  -7.972   2.565  1.00  0.00     0.041 A 
ATOM     68  C   UNL     1       5.220  -8.440   3.833  1.00  0.00     0.026 A 
BRANCH  67  69
ATOM     69  N   UNL     1       3.874  -8.588   1.762  1.00  0.00    -0.332 N 
ATOM     70  H   UNL     1       3.734  -8.201   0.868  1.00  0.00     0.169 HD
BRANCH  69  71
ATOM     71  C   UNL     1       3.107  -9.655   2.082  1.00  0.00     0.187 A 
ATOM     72  N   UNL     1       2.551  -9.912   3.247  1.00  0.00    -0.220 NA
ATOM     73  S   UNL     1       2.790 -10.836   0.858  1.00  0.00    -0.105 S 
ATOM     74  C   UNL     1       1.844 -11.097   3.188  1.00  0.00     0.086 A 
ATOM     75  C   UNL     1       1.934 -11.782   1.995  1.00  0.00     0.097 A 
BRANCH  74  76
ATOM     76  C   UNL     1       1.046 -11.576   4.297  1.00  0.00     0.037 A 
ATOM     77  C   UNL     1       1.405 -12.745   4.981  1.00  0.00     0.016 A 
ATOM     78  C   UNL     1      -0.132 -10.908   4.655  1.00  0.00     0.135 A 
ATOM     79  C   UNL     1       0.579 -13.240   5.994  1.00  0.00     0.040 A 
ATOM     80  C   UNL     1      -0.957 -11.398   5.662  1.00  0.00     0.079 A 
ATOM     81  F   UNL     1      -0.516  -9.801   4.001  1.00  0.00    -0.206 F 
ATOM     82  C   UNL     1      -0.595 -12.565   6.319  1.00  0.00     0.126 A 
ATOM     83  F   UNL     1      -1.393 -13.058   7.275  1.00  0.00    -0.207 F 
ENDBRANCH  74  76
ENDBRANCH  69  71
ENDBRANCH  67  69
ENDBRANCH  60  63
ENDBRANCH  58  59
ENDBRANCH   1  58
TORSDOF 14
