REMARK SMILES O=C(NCCCCNC(=O)c1cc(=O)[nH]c2c(Br)cccc12)c1ccc(-c2c3nc(c(-c4ccccc4)c4ccc([nH]4)c(-c4ccccc4)c4nc(c(-c5ccccc5)c5ccc2[nH]5)C=C4)C=C3)cc1
REMARK SMILES IDX 4 1 3 2 1 3 2 4 23 6 24 7 70 8 25 9 69 10 26 11 27 12 28 13
REMARK SMILES IDX 63 14 29 15 68 16 62 17 64 18 30 19 67 20 61 21 60 22 31 24
REMARK SMILES IDX 53 25 38 26 52 27 39 28 42 29 51 30 65 31 40 32 41 33 50 35
REMARK SMILES IDX 66 36 43 37 32 38 33 39 37 40 34 41 36 42 35 43 54 44 55 45
REMARK SMILES IDX 59 46 56 47 58 48 57 49 44 50 45 51 49 52 46 53 48 54 47 55
REMARK SMILES IDX 5 56 6 57 7 58 8 59 9 60 10 62 11 63 12 64 22 65 13 66 16 67
REMARK SMILES IDX 21 68 14 69 15 70 17 71 20 72 18 74 19 75
REMARK H PARENT 3 5 64 23 42 34 8 61 15 73
REMARK Flexibility Score: inf
ROOT
ATOM      1  C   UNL     1       4.612   0.216  -1.217  1.00  0.00     0.116 C 
ENDROOT
BRANCH   1   2
ATOM      2  N   UNL     1       3.176   0.357  -1.041  1.00  0.00    -0.352 N 
ATOM      3  O   UNL     1       1.177   0.126  -0.031  1.00  0.00    -0.269 OA
ATOM      4  C   UNL     1       2.400   0.083   0.058  1.00  0.00     0.251 C 
ATOM      5  H   UNL     1       2.689   0.699  -1.825  1.00  0.00     0.163 HD
BRANCH   4   6
ATOM      6  C   UNL     1       3.031  -0.285   1.344  1.00  0.00     0.039 A 
ATOM      7  C   UNL     1       2.456  -1.301   2.112  1.00  0.00     0.014 A 
ATOM      8  C   UNL     1       4.169   0.380   1.808  1.00  0.00     0.014 A 
ATOM      9  C   UNL     1       3.042  -1.669   3.325  1.00  0.00     0.010 A 
ATOM     10  C   UNL     1       4.809  -0.057   2.962  1.00  0.00     0.010 A 
ATOM     11  C   UNL     1       4.234  -1.062   3.752  1.00  0.00    -0.014 A 
BRANCH  11  12
ATOM     12  C   UNL     1       4.852  -1.407   5.057  1.00  0.00     0.031 A 
ATOM     13  C   UNL     1       4.973  -0.353   6.126  1.00  0.00     0.074 A 
ATOM     14  C   UNL     1       5.323  -2.648   5.279  1.00  0.00     0.049 A 
ATOM     15  N   UNL     1       5.513  -0.441   7.315  1.00  0.00    -0.248 NA
ATOM     16  C   UNL     1       4.439   0.983   5.810  1.00  0.00     0.031 C 
ATOM     17  C   UNL     1       5.282  -3.752   4.320  1.00  0.00     0.029 A 
ATOM     18  N   UNL     1       5.922  -3.192   6.389  1.00  0.00    -0.354 N 
ATOM     19  C   UNL     1       5.387   0.823   7.878  1.00  0.00     0.074 A 
ATOM     20  C   UNL     1       4.796   1.680   6.878  1.00  0.00     0.031 C 
ATOM     21  C   UNL     1       5.789  -4.852   4.897  1.00  0.00     0.029 A 
ATOM     22  C   UNL     1       6.237  -4.522   6.248  1.00  0.00     0.049 A 
ATOM     23  H   UNL     1       6.109  -2.678   7.207  1.00  0.00     0.167 HD
ATOM     24  C   UNL     1       5.698   1.226   9.132  1.00  0.00     0.031 A 
ATOM     25  C   UNL     1       6.816  -5.383   7.108  1.00  0.00     0.031 A 
ATOM     26  C   UNL     1       6.272   0.367  10.132  1.00  0.00     0.049 A 
ATOM     27  C   UNL     1       7.191  -4.907   8.485  1.00  0.00     0.074 A 
ATOM     28  C   UNL     1       6.599   0.676  11.440  1.00  0.00     0.029 A 
ATOM     29  N   UNL     1       6.597  -0.967   9.939  1.00  0.00    -0.354 N 
ATOM     30  N   UNL     1       7.032  -3.718   9.016  1.00  0.00    -0.248 NA
ATOM     31  C   UNL     1       7.810  -5.889   9.386  1.00  0.00     0.031 C 
ATOM     32  C   UNL     1       7.185  -0.452  12.018  1.00  0.00     0.029 A 
ATOM     33  C   UNL     1       7.145  -1.488  11.098  1.00  0.00     0.049 A 
ATOM     34  H   UNL     1       6.459  -1.468   9.102  1.00  0.00     0.167 HD
ATOM     35  C   UNL     1       7.509  -3.815  10.318  1.00  0.00     0.074 A 
ATOM     36  C   UNL     1       7.945  -5.184  10.502  1.00  0.00     0.031 C 
ATOM     37  C   UNL     1       7.579  -2.853  11.271  1.00  0.00     0.031 A 
BRANCH  24  38
ATOM     38  C   UNL     1       5.403   2.655   9.503  1.00  0.00    -0.014 A 
ATOM     39  C   UNL     1       6.453   3.529   9.828  1.00  0.00     0.009 A 
ATOM     40  C   UNL     1       4.081   3.120   9.604  1.00  0.00     0.009 A 
ATOM     41  C   UNL     1       6.185   4.830  10.259  1.00  0.00     0.001 A 
ATOM     42  C   UNL     1       3.818   4.433   9.998  1.00  0.00     0.001 A 
ATOM     43  C   UNL     1       4.869   5.283  10.336  1.00  0.00     0.000 A 
ENDBRANCH  24  38
BRANCH  25  44
ATOM     44  C   UNL     1       7.020  -6.796   6.689  1.00  0.00    -0.014 A 
ATOM     45  C   UNL     1       7.930  -7.117   5.668  1.00  0.00     0.009 A 
ATOM     46  C   UNL     1       6.246  -7.824   7.249  1.00  0.00     0.009 A 
ATOM     47  C   UNL     1       8.032  -8.426   5.190  1.00  0.00     0.001 A 
ATOM     48  C   UNL     1       6.374  -9.138   6.793  1.00  0.00     0.001 A 
ATOM     49  C   UNL     1       7.255  -9.436   5.755  1.00  0.00     0.000 A 
ENDBRANCH  25  44
BRANCH  37  50
ATOM     50  C   UNL     1       8.137  -3.226  12.618  1.00  0.00    -0.014 A 
ATOM     51  C   UNL     1       7.307  -3.182  13.752  1.00  0.00     0.009 A 
ATOM     52  C   UNL     1       9.504  -3.493  12.790  1.00  0.00     0.009 A 
ATOM     53  C   UNL     1       7.837  -3.374  15.029  1.00  0.00     0.001 A 
ATOM     54  C   UNL     1      10.024  -3.721  14.066  1.00  0.00     0.001 A 
ATOM     55  C   UNL     1       9.194  -3.647  15.184  1.00  0.00     0.000 A 
ENDBRANCH  37  50
ENDBRANCH  11  12
ENDBRANCH   4   6
ENDBRANCH   1   2
BRANCH   1  56
ATOM     56  C   UNL     1       4.984  -0.619  -2.434  1.00  0.00     0.023 C 
BRANCH  56  57
ATOM     57  C   UNL     1       4.504  -0.066  -3.773  1.00  0.00     0.023 C 
BRANCH  57  58
ATOM     58  C   UNL     1       4.862   1.393  -4.037  1.00  0.00     0.116 C 
BRANCH  58  59
ATOM     59  N   UNL     1       6.298   1.629  -4.026  1.00  0.00    -0.352 N 
ATOM     60  C   UNL     1       7.104   2.113  -5.017  1.00  0.00     0.252 C 
ATOM     61  H   UNL     1       6.755   1.408  -3.182  1.00  0.00     0.163 HD
ATOM     62  O   UNL     1       8.317   2.180  -4.848  1.00  0.00    -0.269 OA
BRANCH  60  63
ATOM     63  C   UNL     1       6.477   2.513  -6.300  1.00  0.00     0.054 A 
ATOM     64  C   UNL     1       5.614   3.540  -6.244  1.00  0.00     0.086 A 
ATOM     65  C   UNL     1       6.780   1.860  -7.584  1.00  0.00     0.012 A 
ATOM     66  C   UNL     1       4.836   3.941  -7.428  1.00  0.00     0.249 A 
ATOM     67  C   UNL     1       6.062   2.266  -8.722  1.00  0.00     0.063 A 
ATOM     68  C   UNL     1       7.744   0.852  -7.714  1.00  0.00     0.011 A 
ATOM     69  O   UNL     1       3.974   4.809  -7.340  1.00  0.00    -0.270 OA
ATOM     70  N   UNL     1       5.100   3.282  -8.591  1.00  0.00    -0.321 N 
ATOM     71  C   UNL     1       6.307   1.665  -9.964  1.00  0.00     0.042 A 
ATOM     72  C   UNL     1       7.991   0.260  -8.956  1.00  0.00     0.002 A 
ATOM     73  H   UNL     1       4.585   3.534  -9.391  1.00  0.00     0.170 HD
ATOM     74  Br  UNL     1       5.354   2.184 -11.521  1.00  0.00    -0.049 Br
ATOM     75  C   UNL     1       7.272   0.664 -10.080  1.00  0.00     0.018 A 
ENDBRANCH  60  63
ENDBRANCH  58  59
ENDBRANCH  57  58
ENDBRANCH  56  57
ENDBRANCH   1  56
TORSDOF 11
