REMARK SMILES COc1ccc(/C=C/c2cc(OC)cc(OC)c2/C=C/C(=O)NCCCCNC(=O)c2ccc(-c3c4nc(c(-c5ccccc5)c5ccc([nH]5)c(-c5ccccc5)c5nc(c(-c6ccccc6)c6ccc3[nH]6)C=C5)C=C4)cc2)cc1
REMARK SMILES IDX 24 1 23 2 21 3 22 4 20 6 19 7 18 8 9 9 10 10 11 11 15 12
REMARK SMILES IDX 14 13 8 14 7 15 6 16 3 17 4 18 80 19 5 20 79 21 2 22 1 23
REMARK SMILES IDX 12 24 13 25 16 26 17 27 25 28 26 29 27 30 28 31 29 32 30 34
REMARK SMILES IDX 31 35 32 36 78 37 33 38 77 39 34 40 35 41 36 42 71 43 37 44
REMARK SMILES IDX 76 45 70 46 72 47 38 48 75 49 69 50 68 51 39 53 61 54 46 55
REMARK SMILES IDX 60 56 47 57 50 58 59 59 73 60 48 61 49 62 58 64 74 65 51 66
REMARK SMILES IDX 40 67 41 68 45 69 42 70 44 71 43 72 62 73 63 74 67 75 64 76
REMARK SMILES IDX 66 77 65 78 52 79 53 80 57 81 54 82 56 83 55 84
REMARK H PARENT 23 5 28 33 72 52 50 63
REMARK Flexibility Score: inf
ROOT
ATOM      1  C   UNL     1       3.914  -5.230  -4.012  1.00  0.00     0.116 C 
ENDROOT
BRANCH   1   2
ATOM      2  N   UNL     1       4.961  -6.053  -4.577  1.00  0.00    -0.353 N 
ATOM      3  C   UNL     1       5.223  -6.279  -5.893  1.00  0.00     0.244 C 
ATOM      4  O   UNL     1       6.193  -6.944  -6.241  1.00  0.00    -0.270 OA
ATOM      5  H   UNL     1       5.554  -6.503  -3.933  1.00  0.00     0.163 HD
BRANCH   3   6
ATOM      6  C   UNL     1       4.345  -5.663  -6.907  1.00  0.00     0.072 C 
ATOM      7  C   UNL     1       3.082  -6.089  -7.056  1.00  0.00     0.018 C 
BRANCH   7   8
ATOM      8  C   UNL     1       2.206  -5.616  -8.138  1.00  0.00     0.024 A 
ATOM      9  C   UNL     1       1.140  -4.733  -7.803  1.00  0.00    -0.011 A 
ATOM     10  C   UNL     1       0.238  -4.305  -8.793  1.00  0.00     0.055 A 
ATOM     11  C   UNL     1       0.350  -4.750 -10.105  1.00  0.00     0.123 A 
ATOM     12  C   UNL     1       2.327  -6.046  -9.478  1.00  0.00     0.130 A 
ATOM     13  C   UNL     1       1.401  -5.594 -10.438  1.00  0.00     0.093 A 
BRANCH   9  14
ATOM     14  C   UNL     1       0.829  -4.261  -6.436  1.00  0.00     0.009 C 
ATOM     15  C   UNL     1       1.485  -3.261  -5.823  1.00  0.00     0.009 C 
BRANCH  15  16
ATOM     16  C   UNL     1       1.149  -2.702  -4.495  1.00  0.00    -0.025 A 
ATOM     17  C   UNL     1       0.533  -1.423  -2.042  1.00  0.00     0.118 A 
ATOM     18  C   UNL     1      -0.399  -2.246  -2.673  1.00  0.00     0.047 A 
ATOM     19  C   UNL     1       1.794  -1.275  -2.613  1.00  0.00     0.047 A 
ATOM     20  C   UNL     1      -0.100  -2.873  -3.889  1.00  0.00     0.012 A 
ATOM     21  C   UNL     1       2.096  -1.906  -3.830  1.00  0.00     0.012 A 
BRANCH  17  22
ATOM     22  O   UNL     1       0.081  -0.828  -0.899  1.00  0.00    -0.497 OA
ATOM     23  C   UNL     1       0.954   0.085  -0.246  1.00  0.00     0.278 C 
ENDBRANCH  17  22
ENDBRANCH  15  16
ENDBRANCH   9  14
BRANCH  11  24
ATOM     24  O   UNL     1      -0.619  -4.309 -10.963  1.00  0.00    -0.497 OA
ATOM     25  C   UNL     1      -0.748  -5.030 -12.185  1.00  0.00     0.278 C 
ENDBRANCH  11  24
BRANCH  12  26
ATOM     26  O   UNL     1       3.204  -6.915 -10.070  1.00  0.00    -0.496 OA
ATOM     27  C   UNL     1       4.264  -7.537  -9.371  1.00  0.00     0.278 C 
ENDBRANCH  12  26
ENDBRANCH   7   8
ENDBRANCH   3   6
ENDBRANCH   1   2
BRANCH   1  28
ATOM     28  C   UNL     1       2.930  -6.057  -3.193  1.00  0.00     0.023 C 
BRANCH  28  29
ATOM     29  C   UNL     1       3.466  -6.469  -1.822  1.00  0.00     0.023 C 
BRANCH  29  30
ATOM     30  C   UNL     1       3.916  -5.308  -0.943  1.00  0.00     0.116 C 
BRANCH  30  31
ATOM     31  N   UNL     1       2.870  -4.328  -0.705  1.00  0.00    -0.352 N 
ATOM     32  C   UNL     1       2.649  -3.585   0.432  1.00  0.00     0.251 C 
ATOM     33  H   UNL     1       2.242  -4.177  -1.448  1.00  0.00     0.163 HD
ATOM     34  O   UNL     1       1.617  -2.961   0.592  1.00  0.00    -0.269 OA
BRANCH  32  35
ATOM     35  C   UNL     1       3.660  -3.594   1.504  1.00  0.00     0.039 A 
ATOM     36  C   UNL     1       3.212  -3.754   2.816  1.00  0.00     0.014 A 
ATOM     37  C   UNL     1       5.023  -3.490   1.218  1.00  0.00     0.014 A 
ATOM     38  C   UNL     1       4.142  -3.905   3.838  1.00  0.00     0.010 A 
ATOM     39  C   UNL     1       5.949  -3.722   2.225  1.00  0.00     0.010 A 
ATOM     40  C   UNL     1       5.513  -3.946   3.539  1.00  0.00    -0.014 A 
BRANCH  40  41
ATOM     41  C   UNL     1       6.495  -4.265   4.596  1.00  0.00     0.031 A 
ATOM     42  C   UNL     1       7.497  -3.240   5.029  1.00  0.00     0.074 A 
ATOM     43  C   UNL     1       6.494  -5.503   5.126  1.00  0.00     0.049 A 
ATOM     44  N   UNL     1       8.428  -3.337   5.943  1.00  0.00    -0.248 NA
ATOM     45  C   UNL     1       7.468  -1.944   4.332  1.00  0.00     0.031 C 
ATOM     46  C   UNL     1       5.592  -6.592   4.738  1.00  0.00     0.029 A 
ATOM     47  N   UNL     1       7.272  -6.053   6.111  1.00  0.00    -0.354 N 
ATOM     48  C   UNL     1       9.098  -2.122   5.924  1.00  0.00     0.074 A 
ATOM     49  C   UNL     1       8.506  -1.325   4.872  1.00  0.00     0.031 C 
ATOM     50  C   UNL     1       5.839  -7.663   5.508  1.00  0.00     0.029 A 
ATOM     51  C   UNL     1       6.938  -7.351   6.413  1.00  0.00     0.049 A 
ATOM     52  H   UNL     1       7.999  -5.564   6.560  1.00  0.00     0.167 HD
ATOM     53  C   UNL     1      10.102  -1.702   6.728  1.00  0.00     0.031 A 
ATOM     54  C   UNL     1       7.461  -8.192   7.322  1.00  0.00     0.031 A 
ATOM     55  C   UNL     1      10.682  -2.506   7.770  1.00  0.00     0.049 A 
ATOM     56  C   UNL     1       8.581  -7.703   8.196  1.00  0.00     0.074 A 
ATOM     57  C   UNL     1      11.674  -2.165   8.672  1.00  0.00     0.029 A 
ATOM     58  N   UNL     1      10.321  -3.817   8.045  1.00  0.00    -0.354 N 
ATOM     59  N   UNL     1       9.157  -6.525   8.217  1.00  0.00    -0.248 NA
ATOM     60  C   UNL     1       9.112  -8.655   9.180  1.00  0.00     0.031 C 
ATOM     61  C   UNL     1      11.947  -3.288   9.461  1.00  0.00     0.029 A 
ATOM     62  C   UNL     1      11.086  -4.308   9.088  1.00  0.00     0.049 A 
ATOM     63  H   UNL     1       9.624  -4.323   7.568  1.00  0.00     0.167 HD
ATOM     64  C   UNL     1      10.102  -6.585   9.232  1.00  0.00     0.074 A 
ATOM     65  C   UNL     1      10.006  -7.909   9.814  1.00  0.00     0.031 C 
ATOM     66  C   UNL     1      10.973  -5.631   9.645  1.00  0.00     0.031 A 
BRANCH  53  67
ATOM     67  C   UNL     1      10.636  -0.317   6.496  1.00  0.00    -0.014 A 
ATOM     68  C   UNL     1       9.865   0.819   6.794  1.00  0.00     0.009 A 
ATOM     69  C   UNL     1      11.932  -0.142   5.988  1.00  0.00     0.009 A 
ATOM     70  C   UNL     1      10.366   2.100   6.549  1.00  0.00     0.001 A 
ATOM     71  C   UNL     1      12.441   1.140   5.772  1.00  0.00     0.001 A 
ATOM     72  C   UNL     1      11.655   2.259   6.043  1.00  0.00     0.000 A 
ENDBRANCH  53  67
BRANCH  54  73
ATOM     73  C   UNL     1       6.917  -9.567   7.468  1.00  0.00    -0.014 A 
ATOM     74  C   UNL     1       6.188  -9.928   8.612  1.00  0.00     0.009 A 
ATOM     75  C   UNL     1       7.121 -10.527   6.464  1.00  0.00     0.009 A 
ATOM     76  C   UNL     1       5.700 -11.229   8.759  1.00  0.00     0.001 A 
ATOM     77  C   UNL     1       6.606 -11.818   6.601  1.00  0.00     0.001 A 
ATOM     78  C   UNL     1       5.906 -12.171   7.753  1.00  0.00     0.000 A 
ENDBRANCH  54  73
BRANCH  66  79
ATOM     79  C   UNL     1      11.866  -5.982  10.801  1.00  0.00    -0.014 A 
ATOM     80  C   UNL     1      12.930  -6.884  10.652  1.00  0.00     0.009 A 
ATOM     81  C   UNL     1      11.657  -5.372  12.047  1.00  0.00     0.009 A 
ATOM     82  C   UNL     1      13.747  -7.195  11.740  1.00  0.00     0.001 A 
ATOM     83  C   UNL     1      12.494  -5.661  13.125  1.00  0.00     0.001 A 
ATOM     84  C   UNL     1      13.531  -6.580  12.973  1.00  0.00     0.000 A 
ENDBRANCH  66  79
ENDBRANCH  40  41
ENDBRANCH  32  35
ENDBRANCH  30  31
ENDBRANCH  29  30
ENDBRANCH  28  29
ENDBRANCH   1  28
TORSDOF 17
