REMARK SMILES Cc1ccc(C2=NN(C(=O)CCC(=O)NCCCCNC(=O)c3ccc(-c4c5nc(c(-c6ccccc6)c6ccc([nH]6)c(-c6ccccc6)c6nc(c(-c7ccccc7)c7ccc4[nH]7)C=C6)C=C5)cc3)[C@H](C[C@@H]3C=c4cccc(C)c4=NC3=O)C2)cc1
REMARK SMILES IDX 16 1 15 2 13 3 14 4 12 6 11 7 9 8 10 9 8 10 6 11 7 12 85 13
REMARK SMILES IDX 71 14 5 15 1 16 2 17 3 18 87 19 4 20 86 21 72 22 73 23 74 24
REMARK SMILES IDX 83 25 75 26 82 27 84 28 76 29 81 30 77 31 79 32 78 33 80 34
REMARK SMILES IDX 17 35 18 36 19 37 20 38 21 39 22 41 23 42 24 43 70 44 25 45
REMARK SMILES IDX 69 46 26 47 27 48 28 49 63 50 29 51 68 52 62 53 64 54 30 55
REMARK SMILES IDX 67 56 61 57 60 58 31 60 53 61 38 62 52 63 39 64 42 65 51 66
REMARK SMILES IDX 65 67 40 68 41 69 50 71 66 72 43 73 32 74 33 75 37 76 34 77
REMARK SMILES IDX 36 78 35 79 54 80 55 81 59 82 56 83 58 84 57 85 44 86 45 87
REMARK SMILES IDX 49 88 46 89 48 90 47 91
REMARK H PARENT 15 5 20 40 64 59 42 70
REMARK Flexibility Score: inf
ROOT
ATOM      1  C   UNL     1      -4.830   0.459   0.885  1.00  0.00     0.116 C 
ENDROOT
BRANCH   1   2
ATOM      2  N   UNL     1      -5.823   1.708   1.098  1.00  0.00    -0.356 N 
ATOM      3  C   UNL     1      -7.072   1.907   1.588  1.00  0.00     0.220 C 
ATOM      4  O   UNL     1      -7.527   3.049   1.460  1.00  0.00    -0.275 OA
ATOM      5  H   UNL     1      -5.415   2.550   0.791  1.00  0.00     0.163 HD
BRANCH   3   6
ATOM      6  C   UNL     1      -7.902   0.835   2.255  1.00  0.00     0.110 C 
BRANCH   6   7
ATOM      7  C   UNL     1      -8.004  -0.546   1.633  1.00  0.00     0.112 C 
BRANCH   7   8
ATOM      8  C   UNL     1      -6.724  -1.355   1.685  1.00  0.00     0.243 C 
ATOM      9  O   UNL     1      -6.430  -2.015   2.680  1.00  0.00    -0.273 OA
BRANCH   8  10
ATOM     10  N   UNL     1      -5.867  -1.163   0.566  1.00  0.00    -0.230 N 
ATOM     11  C   UNL     1      -3.152  -0.386   0.273  1.00  0.00     0.070 C 
ATOM     12  N   UNL     1      -4.092  -1.417   0.949  1.00  0.00    -0.174 NA
ATOM     13  C   UNL     1      -4.318   1.065  -0.774  1.00  0.00     0.086 C 
ATOM     14  C   UNL     1      -6.173   0.184  -0.699  1.00  0.00     0.118 C 
BRANCH  11  15
ATOM     15  C   UNL     1      -1.578  -1.137   0.049  1.00  0.00    -0.002 A 
ATOM     16  C   UNL     1       2.739  -1.784   0.322  1.00  0.00     0.044 C 
ATOM     17  C   UNL     1       1.246  -1.808   0.185  1.00  0.00    -0.051 A 
ATOM     18  C   UNL     1       0.341  -2.191   1.186  1.00  0.00     0.004 A 
ATOM     19  C   UNL     1       0.718  -1.307  -0.975  1.00  0.00     0.004 A 
ATOM     20  C   UNL     1      -1.054  -1.872   1.117  1.00  0.00     0.010 A 
ATOM     21  C   UNL     1      -0.650  -1.037  -1.039  1.00  0.00     0.010 A 
ENDBRANCH  11  15
BRANCH  14  22
ATOM     22  C   UNL     1      -7.016  -0.579  -2.004  1.00  0.00     0.045 C 
BRANCH  22  23
ATOM     23  C   UNL     1      -7.913  -1.833  -1.660  1.00  0.00     0.106 C 
ATOM     24  C   UNL     1      -7.280  -2.952  -0.871  1.00  0.00    -0.003 C 
ATOM     25  C   UNL     1      -8.654  -2.572  -2.790  1.00  0.00     0.253 C 
ATOM     26  C   UNL     1      -8.082  -3.885  -0.358  1.00  0.00    -0.003 A 
ATOM     27  N   UNL     1      -9.429  -3.678  -2.420  1.00  0.00    -0.212 NA
ATOM     28  O   UNL     1      -8.612  -2.156  -3.945  1.00  0.00    -0.272 OA
ATOM     29  C   UNL     1      -7.918  -4.503   0.932  1.00  0.00     0.010 A 
ATOM     30  C   UNL     1      -9.171  -4.282  -1.295  1.00  0.00     0.077 A 
ATOM     31  C   UNL     1      -8.778  -5.445   1.333  1.00  0.00     0.001 A 
ATOM     32  C   UNL     1      -9.859  -5.559  -0.866  1.00  0.00    -0.025 A 
ATOM     33  C   UNL     1      -9.690  -6.036   0.384  1.00  0.00     0.005 A 
ATOM     34  C   UNL     1     -10.533  -6.367  -1.925  1.00  0.00     0.047 C 
ENDBRANCH  22  23
ENDBRANCH  14  22
ENDBRANCH   8  10
ENDBRANCH   7   8
ENDBRANCH   6   7
ENDBRANCH   3   6
ENDBRANCH   1   2
BRANCH   1  35
ATOM     35  C   UNL     1      -4.442  -0.725  -0.947  1.00  0.00     0.023 C 
BRANCH  35  36
ATOM     36  C   UNL     1      -3.011  -0.092  -2.069  1.00  0.00     0.023 C 
BRANCH  36  37
ATOM     37  C   UNL     1      -1.965   1.313  -1.583  1.00  0.00     0.116 C 
BRANCH  37  38
ATOM     38  N   UNL     1      -1.621   1.545  -0.114  1.00  0.00    -0.352 N 
ATOM     39  C   UNL     1      -0.542   1.292   0.744  1.00  0.00     0.251 C 
ATOM     40  H   UNL     1      -2.358   1.995   0.359  1.00  0.00     0.163 HD
ATOM     41  O   UNL     1      -0.802   0.949   1.902  1.00  0.00    -0.269 OA
BRANCH  39  42
ATOM     42  C   UNL     1       0.876   1.760   0.404  1.00  0.00     0.039 A 
ATOM     43  C   UNL     1       1.552   2.042   1.616  1.00  0.00     0.014 A 
ATOM     44  C   UNL     1       0.707   2.834  -0.438  1.00  0.00     0.014 A 
ATOM     45  C   UNL     1       1.205   3.213   2.281  1.00  0.00     0.010 A 
ATOM     46  C   UNL     1       0.137   3.900   0.211  1.00  0.00     0.010 A 
ATOM     47  C   UNL     1       0.340   4.055   1.599  1.00  0.00    -0.014 A 
BRANCH  47  48
ATOM     48  C   UNL     1      -0.353   5.186   2.163  1.00  0.00     0.031 A 
ATOM     49  C   UNL     1       0.180   6.494   1.744  1.00  0.00     0.074 A 
ATOM     50  C   UNL     1      -1.504   5.034   2.855  1.00  0.00     0.049 A 
ATOM     51  N   UNL     1       0.054   7.585   2.408  1.00  0.00    -0.248 NA
ATOM     52  C   UNL     1       1.030   6.649   0.555  1.00  0.00     0.031 C 
ATOM     53  C   UNL     1      -2.504   6.064   3.120  1.00  0.00     0.029 A 
ATOM     54  N   UNL     1      -1.955   3.942   3.600  1.00  0.00    -0.354 N 
ATOM     55  C   UNL     1       0.428   8.592   1.546  1.00  0.00     0.074 A 
ATOM     56  C   UNL     1       1.213   7.963   0.526  1.00  0.00     0.031 C 
ATOM     57  C   UNL     1      -3.264   5.676   4.158  1.00  0.00     0.029 A 
ATOM     58  C   UNL     1      -2.674   4.463   4.695  1.00  0.00     0.049 A 
ATOM     59  H   UNL     1      -1.801   2.990   3.400  1.00  0.00     0.167 HD
ATOM     60  C   UNL     1      -0.179   9.802   1.656  1.00  0.00     0.031 A 
ATOM     61  C   UNL     1      -2.296   4.292   5.999  1.00  0.00     0.031 A 
ATOM     62  C   UNL     1      -1.013   9.846   2.860  1.00  0.00     0.049 A 
ATOM     63  C   UNL     1      -1.882   5.594   6.663  1.00  0.00     0.074 A 
ATOM     64  C   UNL     1      -2.379   9.762   3.068  1.00  0.00     0.029 A 
ATOM     65  N   UNL     1      -0.418   9.590   4.091  1.00  0.00    -0.354 N 
ATOM     66  N   UNL     1      -1.769   6.730   6.030  1.00  0.00    -0.248 NA
ATOM     67  C   UNL     1      -1.497   5.713   8.068  1.00  0.00     0.031 C 
ATOM     68  C   UNL     1      -2.594   9.374   4.423  1.00  0.00     0.029 A 
ATOM     69  C   UNL     1      -1.363   9.261   5.046  1.00  0.00     0.049 A 
ATOM     70  H   UNL     1       0.550   9.638   4.262  1.00  0.00     0.167 HD
ATOM     71  C   UNL     1      -1.253   7.687   6.862  1.00  0.00     0.074 A 
ATOM     72  C   UNL     1      -1.140   7.009   8.142  1.00  0.00     0.031 C 
ATOM     73  C   UNL     1      -0.922   8.932   6.402  1.00  0.00     0.031 A 
BRANCH  60  74
ATOM     74  C   UNL     1      -0.264  10.793   0.515  1.00  0.00    -0.014 A 
ATOM     75  C   UNL     1      -1.193  11.842   0.596  1.00  0.00     0.009 A 
ATOM     76  C   UNL     1       0.465  10.725  -0.690  1.00  0.00     0.009 A 
ATOM     77  C   UNL     1      -1.410  12.728  -0.469  1.00  0.00     0.001 A 
ATOM     78  C   UNL     1       0.247  11.596  -1.765  1.00  0.00     0.001 A 
ATOM     79  C   UNL     1      -0.698  12.599  -1.655  1.00  0.00     0.000 A 
ENDBRANCH  60  74
BRANCH  61  80
ATOM     80  C   UNL     1      -1.690   2.959   6.268  1.00  0.00    -0.014 A 
ATOM     81  C   UNL     1      -2.560   1.851   6.234  1.00  0.00     0.009 A 
ATOM     82  C   UNL     1      -0.321   2.757   6.033  1.00  0.00     0.009 A 
ATOM     83  C   UNL     1      -2.109   0.617   5.763  1.00  0.00     0.001 A 
ATOM     84  C   UNL     1       0.122   1.518   5.559  1.00  0.00     0.001 A 
ATOM     85  C   UNL     1      -0.781   0.469   5.375  1.00  0.00     0.000 A 
ENDBRANCH  61  80
BRANCH  73  86
ATOM     86  C   UNL     1      -0.149   9.994   7.160  1.00  0.00    -0.014 A 
ATOM     87  C   UNL     1       0.625   9.766   8.302  1.00  0.00     0.009 A 
ATOM     88  C   UNL     1      -0.096  11.304   6.622  1.00  0.00     0.009 A 
ATOM     89  C   UNL     1       1.371  10.796   8.897  1.00  0.00     0.001 A 
ATOM     90  C   UNL     1       0.697  12.313   7.169  1.00  0.00     0.001 A 
ATOM     91  C   UNL     1       1.419  12.062   8.323  1.00  0.00     0.000 A 
ENDBRANCH  73  86
ENDBRANCH  47  48
ENDBRANCH  39  42
ENDBRANCH  37  38
ENDBRANCH  36  37
ENDBRANCH  35  36
ENDBRANCH   1  35
TORSDOF 17
