REMARK SMILES CC(C)c1nc(N2C[C@H](C)OC(C)(C)C2)sc1C(=O)NCCCCNC(=O)c1ccc(-c2c3nc(c(-c4ccccc4)c4ccc([nH]4)c(-c4ccccc4)c4nc(c(-c5ccccc5)c5ccc2[nH]5)C=C4)C=C3)cc1
REMARK SMILES IDX 23 1 22 2 21 3 20 4 18 5 19 6 17 8 4 9 5 10 6 11 16 12 2 13
REMARK SMILES IDX 1 14 3 15 7 16 8 17 15 18 9 19 12 20 11 21 10 22 13 23 14 24
REMARK SMILES IDX 24 25 25 26 26 27 27 29 28 30 29 31 75 32 30 33 74 34 31 35
REMARK SMILES IDX 32 36 33 37 68 38 34 39 73 40 67 41 69 42 35 43 72 44 66 45
REMARK SMILES IDX 65 46 36 48 58 49 43 50 57 51 44 52 47 53 56 54 70 55 45 56
REMARK SMILES IDX 46 57 55 59 71 60 48 61 37 62 38 63 42 64 39 65 41 66 40 67
REMARK SMILES IDX 59 68 60 69 64 70 61 71 63 72 62 73 49 74 50 75 54 76 51 77
REMARK SMILES IDX 53 78 52 79
REMARK H PARENT 20 7 25 28 69 47 47 58
REMARK Flexibility Score: inf
ROOT
ATOM      1  C   UNL     1       2.988   3.005  -2.922  1.00  0.00     0.023 C 
ENDROOT
BRANCH   1   2
ATOM      2  C   UNL     1       1.998   1.944  -2.449  1.00  0.00     0.023 C 
BRANCH   2   3
ATOM      3  C   UNL     1       1.165   2.347  -1.228  1.00  0.00     0.116 C 
BRANCH   3   4
ATOM      4  N   UNL     1      -0.138   2.809  -1.630  1.00  0.00    -0.351 N 
ATOM      5  C   UNL     1      -1.367   2.235  -1.821  1.00  0.00     0.263 C 
ATOM      6  O   UNL     1      -2.189   3.078  -2.212  1.00  0.00    -0.268 OA
ATOM      7  H   UNL     1      -0.149   3.776  -1.813  1.00  0.00     0.163 HD
BRANCH   5   8
ATOM      8  C   UNL     1      -1.741   0.838  -1.589  1.00  0.00     0.117 A 
ATOM      9  C   UNL     1      -1.155  -0.408  -1.349  1.00  0.00     0.069 A 
ATOM     10  N   UNL     1      -2.059  -1.453  -1.137  1.00  0.00    -0.224 NA
ATOM     11  C   UNL     1      -3.291  -1.099  -1.387  1.00  0.00     0.186 A 
ATOM     12  S   UNL     1      -3.467   0.571  -1.695  1.00  0.00    -0.091 S 
BRANCH   9  13
ATOM     13  C   UNL     1       0.279  -0.851  -1.311  1.00  0.00     0.034 C 
ATOM     14  C   UNL     1       0.787  -1.033   0.120  1.00  0.00     0.014 C 
ATOM     15  C   UNL     1       0.523  -2.135  -2.115  1.00  0.00     0.014 C 
ENDBRANCH   9  13
BRANCH  11  16
ATOM     16  N   UNL     1      -4.342  -1.953  -1.373  1.00  0.00    -0.343 N 
ATOM     17  C   UNL     1      -5.354  -1.948  -2.428  1.00  0.00     0.150 C 
ATOM     18  C   UNL     1      -4.314  -3.159  -0.547  1.00  0.00     0.153 C 
ATOM     19  C   UNL     1      -5.194  -3.221  -3.283  1.00  0.00     0.135 C 
ATOM     20  C   UNL     1      -4.325  -4.457  -1.401  1.00  0.00     0.081 C 
ATOM     21  O   UNL     1      -5.303  -4.401  -2.466  1.00  0.00    -0.369 OA
ATOM     22  C   UNL     1      -6.277  -3.300  -4.350  1.00  0.00     0.040 C 
ATOM     23  C   UNL     1      -2.936  -4.782  -1.968  1.00  0.00     0.044 C 
ATOM     24  C   UNL     1      -4.769  -5.626  -0.508  1.00  0.00     0.044 C 
ENDBRANCH  11  16
ENDBRANCH   5   8
ENDBRANCH   3   4
ENDBRANCH   2   3
ENDBRANCH   1   2
BRANCH   1  25
ATOM     25  C   UNL     1       4.132   3.261  -1.947  1.00  0.00     0.116 C 
BRANCH  25  26
ATOM     26  N   UNL     1       4.937   2.081  -1.659  1.00  0.00    -0.352 N 
ATOM     27  C   UNL     1       6.253   2.034  -1.263  1.00  0.00     0.251 C 
ATOM     28  H   UNL     1       4.484   1.212  -1.760  1.00  0.00     0.163 HD
ATOM     29  O   UNL     1       6.831   0.963  -1.115  1.00  0.00    -0.269 OA
BRANCH  27  30
ATOM     30  C   UNL     1       6.976   3.305  -1.079  1.00  0.00     0.039 A 
ATOM     31  C   UNL     1       8.152   3.517  -1.801  1.00  0.00     0.014 A 
ATOM     32  C   UNL     1       6.435   4.315  -0.280  1.00  0.00     0.014 A 
ATOM     33  C   UNL     1       8.743   4.780  -1.788  1.00  0.00     0.010 A 
ATOM     34  C   UNL     1       6.984   5.590  -0.326  1.00  0.00     0.010 A 
ATOM     35  C   UNL     1       8.136   5.836  -1.089  1.00  0.00    -0.014 A 
BRANCH  35  36
ATOM     36  C   UNL     1       8.679   7.213  -1.155  1.00  0.00     0.031 A 
ATOM     37  C   UNL     1       9.215   7.868   0.085  1.00  0.00     0.074 A 
ATOM     38  C   UNL     1       8.615   7.899  -2.312  1.00  0.00     0.049 A 
ATOM     39  N   UNL     1       9.667   9.086   0.243  1.00  0.00    -0.248 NA
ATOM     40  C   UNL     1       9.216   7.059   1.315  1.00  0.00     0.031 C 
ATOM     41  C   UNL     1       8.066   7.394  -3.573  1.00  0.00     0.029 A 
ATOM     42  N   UNL     1       9.009   9.179  -2.611  1.00  0.00    -0.354 N 
ATOM     43  C   UNL     1       9.981   9.196   1.591  1.00  0.00     0.074 A 
ATOM     44  C   UNL     1       9.628   7.939   2.215  1.00  0.00     0.031 C 
ATOM     45  C   UNL     1       8.185   8.343  -4.515  1.00  0.00     0.029 A 
ATOM     46  C   UNL     1       8.787   9.531  -3.920  1.00  0.00     0.049 A 
ATOM     47  H   UNL     1       9.413   9.787  -1.950  1.00  0.00     0.167 HD
ATOM     48  C   UNL     1      10.533  10.242   2.249  1.00  0.00     0.031 A 
ATOM     49  C   UNL     1       9.040  10.684  -4.567  1.00  0.00     0.031 A 
ATOM     50  C   UNL     1      10.908  11.482   1.627  1.00  0.00     0.049 A 
ATOM     51  C   UNL     1       9.671  11.823  -3.820  1.00  0.00     0.074 A 
ATOM     52  C   UNL     1      11.537  12.576   2.195  1.00  0.00     0.029 A 
ATOM     53  N   UNL     1      10.690  11.790   0.294  1.00  0.00    -0.354 N 
ATOM     54  N   UNL     1      10.027  11.887  -2.559  1.00  0.00    -0.248 NA
ATOM     55  C   UNL     1       9.945  13.046  -4.588  1.00  0.00     0.031 C 
ATOM     56  C   UNL     1      11.669  13.562   1.210  1.00  0.00     0.029 A 
ATOM     57  C   UNL     1      11.158  13.064   0.022  1.00  0.00     0.049 A 
ATOM     58  H   UNL     1      10.266  11.192  -0.363  1.00  0.00     0.167 HD
ATOM     59  C   UNL     1      10.586  13.146  -2.389  1.00  0.00     0.074 A 
ATOM     60  C   UNL     1      10.535  13.807  -3.677  1.00  0.00     0.031 C 
ATOM     61  C   UNL     1      11.097  13.704  -1.265  1.00  0.00     0.031 A 
BRANCH  48  62
ATOM     62  C   UNL     1      10.761  10.080   3.724  1.00  0.00    -0.014 A 
ATOM     63  C   UNL     1      11.771   9.235   4.212  1.00  0.00     0.009 A 
ATOM     64  C   UNL     1       9.966  10.790   4.637  1.00  0.00     0.009 A 
ATOM     65  C   UNL     1      11.955   9.075   5.586  1.00  0.00     0.001 A 
ATOM     66  C   UNL     1      10.170  10.647   6.011  1.00  0.00     0.001 A 
ATOM     67  C   UNL     1      11.157   9.783   6.484  1.00  0.00     0.000 A 
ENDBRANCH  48  62
BRANCH  49  68
ATOM     68  C   UNL     1       8.723  10.810  -6.012  1.00  0.00    -0.014 A 
ATOM     69  C   UNL     1       9.754  10.797  -6.964  1.00  0.00     0.009 A 
ATOM     70  C   UNL     1       7.396  10.946  -6.446  1.00  0.00     0.009 A 
ATOM     71  C   UNL     1       9.463  10.943  -8.322  1.00  0.00     0.001 A 
ATOM     72  C   UNL     1       7.107  11.068  -7.807  1.00  0.00     0.001 A 
ATOM     73  C   UNL     1       8.140  11.074  -8.742  1.00  0.00     0.000 A 
ENDBRANCH  49  68
BRANCH  61  74
ATOM     74  C   UNL     1      11.665  15.088  -1.388  1.00  0.00    -0.014 A 
ATOM     75  C   UNL     1      10.827  16.208  -1.488  1.00  0.00     0.009 A 
ATOM     76  C   UNL     1      13.056  15.274  -1.361  1.00  0.00     0.009 A 
ATOM     77  C   UNL     1      11.373  17.489  -1.587  1.00  0.00     0.001 A 
ATOM     78  C   UNL     1      13.598  16.557  -1.436  1.00  0.00     0.001 A 
ATOM     79  C   UNL     1      12.757  17.662  -1.557  1.00  0.00     0.000 A 
ENDBRANCH  61  74
ENDBRANCH  35  36
ENDBRANCH  27  30
ENDBRANCH  25  26
ENDBRANCH   1  25
TORSDOF 13
