REMARK SMILES O=C(NCCCCNC(=O)c1c(C(=O)N2CCc3ccccc32)cccc1[N+](=O)[O-])c1ccc(-c2c3nc(c(-c4ccccc4)c4ccc([nH]4)c(-c4ccccc4)c4nc(c(-c5ccccc5)c5ccc2[nH]5)C=C4)C=C3)cc1
REMARK SMILES IDX 5 1 4 2 3 3 1 4 2 5 31 7 32 8 78 9 33 10 77 11 34 12 35 13
REMARK SMILES IDX 36 14 71 15 37 16 76 17 70 18 72 19 38 20 75 21 69 22 68 23
REMARK SMILES IDX 39 25 61 26 46 27 60 28 47 29 50 30 59 31 73 32 48 33 49 34
REMARK SMILES IDX 58 36 74 37 51 38 40 39 41 40 45 41 42 42 44 43 43 44 62 45
REMARK SMILES IDX 63 46 67 47 64 48 66 49 65 50 52 51 53 52 57 53 54 54 56 55
REMARK SMILES IDX 55 56 6 57 7 58 8 59 9 60 10 62 11 63 12 64 27 65 24 66
REMARK SMILES IDX 26 67 25 68 13 69 14 70 15 71 16 72 23 73 17 74 18 75 22 76
REMARK SMILES IDX 19 77 21 78 20 79 28 80 29 81 30 82
REMARK H PARENT 3 6 72 24 50 35 8 61
REMARK Flexibility Score: inf
ROOT
ATOM      1  C   UNL     1       4.984   1.321   2.205  1.00  0.00     0.023 C 
ENDROOT
BRANCH   1   2
ATOM      2  C   UNL     1       4.661   0.109   1.336  1.00  0.00     0.116 C 
BRANCH   2   3
ATOM      3  N   UNL     1       3.233  -0.084   1.138  1.00  0.00    -0.352 N 
ATOM      4  O   UNL     1       1.264  -0.079   0.039  1.00  0.00    -0.269 OA
ATOM      5  C   UNL     1       2.489  -0.036  -0.018  1.00  0.00     0.251 C 
ATOM      6  H   UNL     1       2.721  -0.278   1.956  1.00  0.00     0.163 HD
BRANCH   5   7
ATOM      7  C   UNL     1       3.156   0.099  -1.332  1.00  0.00     0.039 A 
ATOM      8  C   UNL     1       4.274  -0.672  -1.656  1.00  0.00     0.014 A 
ATOM      9  C   UNL     1       2.637   1.001  -2.267  1.00  0.00     0.014 A 
ATOM     10  C   UNL     1       4.960  -0.435  -2.844  1.00  0.00     0.010 A 
ATOM     11  C   UNL     1       3.280   1.179  -3.496  1.00  0.00     0.010 A 
ATOM     12  C   UNL     1       4.467   0.488  -3.780  1.00  0.00    -0.014 A 
BRANCH  12  13
ATOM     13  C   UNL     1       5.180   0.672  -5.070  1.00  0.00     0.031 A 
ATOM     14  C   UNL     1       5.838   1.978  -5.419  1.00  0.00     0.074 A 
ATOM     15  C   UNL     1       5.247  -0.364  -5.927  1.00  0.00     0.049 A 
ATOM     16  N   UNL     1       6.521   2.293  -6.492  1.00  0.00    -0.248 NA
ATOM     17  C   UNL     1       5.712   3.073  -4.446  1.00  0.00     0.031 C 
ATOM     18  C   UNL     1       4.637  -1.679  -5.710  1.00  0.00     0.029 A 
ATOM     19  N   UNL     1       5.869  -0.482  -7.144  1.00  0.00    -0.354 N 
ATOM     20  C   UNL     1       6.886   3.624  -6.335  1.00  0.00     0.074 A 
ATOM     21  C   UNL     1       6.332   4.065  -5.072  1.00  0.00     0.031 C 
ATOM     22  C   UNL     1       4.949  -2.482  -6.738  1.00  0.00     0.029 A 
ATOM     23  C   UNL     1       5.732  -1.726  -7.709  1.00  0.00     0.049 A 
ATOM     24  H   UNL     1       6.366   0.253  -7.570  1.00  0.00     0.167 HD
ATOM     25  C   UNL     1       7.617   4.406  -7.165  1.00  0.00     0.031 A 
ATOM     26  C   UNL     1       6.173  -2.207  -8.885  1.00  0.00     0.031 A 
ATOM     27  C   UNL     1       8.173   3.968  -8.419  1.00  0.00     0.049 A 
ATOM     28  C   UNL     1       6.967  -1.316  -9.792  1.00  0.00     0.074 A 
ATOM     29  C   UNL     1       8.966   4.676  -9.306  1.00  0.00     0.029 A 
ATOM     30  N   UNL     1       7.988   2.708  -8.967  1.00  0.00    -0.354 N 
ATOM     31  N   UNL     1       7.338  -0.073  -9.605  1.00  0.00    -0.248 NA
ATOM     32  C   UNL     1       7.402  -1.894 -11.070  1.00  0.00     0.031 C 
ATOM     33  C   UNL     1       9.221   3.861 -10.414  1.00  0.00     0.029 A 
ATOM     34  C   UNL     1       8.628   2.628 -10.194  1.00  0.00     0.049 A 
ATOM     35  H   UNL     1       7.478   1.979  -8.547  1.00  0.00     0.167 HD
ATOM     36  C   UNL     1       8.059   0.278 -10.738  1.00  0.00     0.074 A 
ATOM     37  C   UNL     1       8.091  -0.890 -11.595  1.00  0.00     0.031 C 
ATOM     38  C   UNL     1       8.638   1.465 -11.041  1.00  0.00     0.031 A 
BRANCH  25  39
ATOM     39  C   UNL     1       7.839   5.836  -6.755  1.00  0.00    -0.014 A 
ATOM     40  C   UNL     1       8.724   6.170  -5.718  1.00  0.00     0.009 A 
ATOM     41  C   UNL     1       7.184   6.867  -7.447  1.00  0.00     0.009 A 
ATOM     42  C   UNL     1       8.925   7.506  -5.363  1.00  0.00     0.001 A 
ATOM     43  C   UNL     1       7.405   8.203  -7.106  1.00  0.00     0.001 A 
ATOM     44  C   UNL     1       8.269   8.521  -6.059  1.00  0.00     0.000 A 
ENDBRANCH  25  39
BRANCH  26  45
ATOM     45  C   UNL     1       5.852  -3.605  -9.269  1.00  0.00    -0.014 A 
ATOM     46  C   UNL     1       6.846  -4.594  -9.267  1.00  0.00     0.009 A 
ATOM     47  C   UNL     1       4.536  -3.960  -9.608  1.00  0.00     0.009 A 
ATOM     48  C   UNL     1       6.530  -5.910  -9.610  1.00  0.00     0.001 A 
ATOM     49  C   UNL     1       4.219  -5.282  -9.924  1.00  0.00     0.001 A 
ATOM     50  C   UNL     1       5.217  -6.254  -9.931  1.00  0.00     0.000 A 
ENDBRANCH  26  45
BRANCH  38  51
ATOM     51  C   UNL     1       9.366   1.549 -12.351  1.00  0.00    -0.014 A 
ATOM     52  C   UNL     1       8.665   1.627 -13.565  1.00  0.00     0.009 A 
ATOM     53  C   UNL     1      10.769   1.575 -12.370  1.00  0.00     0.009 A 
ATOM     54  C   UNL     1       9.356   1.697 -14.775  1.00  0.00     0.001 A 
ATOM     55  C   UNL     1      11.457   1.670 -13.581  1.00  0.00     0.001 A 
ATOM     56  C   UNL     1      10.751   1.722 -14.782  1.00  0.00     0.000 A 
ENDBRANCH  38  51
ENDBRANCH  12  13
ENDBRANCH   5   7
ENDBRANCH   2   3
ENDBRANCH   1   2
BRANCH   1  57
ATOM     57  C   UNL     1       4.526   1.238   3.662  1.00  0.00     0.023 C 
BRANCH  57  58
ATOM     58  C   UNL     1       4.924  -0.031   4.410  1.00  0.00     0.116 C 
BRANCH  58  59
ATOM     59  N   UNL     1       6.357  -0.282   4.409  1.00  0.00    -0.352 N 
ATOM     60  C   UNL     1       7.170  -0.816   5.380  1.00  0.00     0.259 C 
ATOM     61  H   UNL     1       6.820  -0.027   3.578  1.00  0.00     0.163 HD
ATOM     62  O   UNL     1       8.371  -0.924   5.168  1.00  0.00    -0.269 OA
BRANCH  60  63
ATOM     63  C   UNL     1       6.601  -1.222   6.678  1.00  0.00     0.130 A 
ATOM     64  C   UNL     1       7.066  -0.640   7.868  1.00  0.00     0.060 A 
ATOM     65  C   UNL     1       5.585  -2.184   6.769  1.00  0.00     0.282 A 
ATOM     66  C   UNL     1       6.446  -0.954   9.089  1.00  0.00     0.015 A 
ATOM     67  C   UNL     1       4.934  -2.463   7.980  1.00  0.00     0.086 A 
ATOM     68  C   UNL     1       5.357  -1.824   9.139  1.00  0.00     0.008 A 
BRANCH  64  69
ATOM     69  C   UNL     1       8.294   0.188   7.909  1.00  0.00     0.259 C 
ATOM     70  O   UNL     1       9.369  -0.361   8.119  1.00  0.00    -0.269 OA
BRANCH  69  71
ATOM     71  N   UNL     1       8.121   1.538   7.694  1.00  0.00    -0.308 N 
ATOM     72  C   UNL     1       8.821   2.232   6.600  1.00  0.00     0.131 C 
ATOM     73  C   UNL     1       8.013   2.480   8.742  1.00  0.00     0.047 A 
ATOM     74  C   UNL     1       8.534   3.728   6.786  1.00  0.00     0.059 C 
ATOM     75  C   UNL     1       8.224   3.770   8.249  1.00  0.00    -0.022 A 
ATOM     76  C   UNL     1       7.805   2.268  10.093  1.00  0.00     0.026 A 
ATOM     77  C   UNL     1       8.152   4.880   9.078  1.00  0.00     0.006 A 
ATOM     78  C   UNL     1       7.743   3.377  10.942  1.00  0.00     0.002 A 
ATOM     79  C   UNL     1       7.902   4.675  10.436  1.00  0.00     0.000 A 
ENDBRANCH  69  71
ENDBRANCH  64  69
BRANCH  65  80
ATOM     80  N   UNL     1       5.205  -2.980   5.615  1.00  0.00     0.063 N 
ATOM     81  O   UNL     1       3.992  -3.077   5.381  1.00  0.00    -0.258 OA
ATOM     82  O   UNL     1       6.105  -3.520   4.964  1.00  0.00    -0.258 OA
ENDBRANCH  65  80
ENDBRANCH  60  63
ENDBRANCH  58  59
ENDBRANCH  57  58
ENDBRANCH   1  57
TORSDOF 14
