REMARK SMILES Cc1csc([C@H](C)Nc2cc(C)c(N)c(C(=O)NCCCCNC(=O)c3ccc(-c4c5nc(c(-c6ccccc6)c6ccc([nH]6)c(-c6ccccc6)c6nc(c(-c7ccccc7)c7ccc4[nH]7)C=C6)C=C5)cc3)c2)n1
REMARK SMILES IDX 20 1 19 2 18 3 16 4 17 5 15 7 9 8 10 9 74 10 11 11 12 12
REMARK SMILES IDX 13 13 8 14 6 16 7 17 5 18 1 19 2 20 3 21 75 22 4 23 14 24
REMARK SMILES IDX 21 27 22 28 23 29 24 30 25 32 26 33 27 34 73 35 28 36 72 37
REMARK SMILES IDX 29 38 30 39 31 40 66 41 32 42 71 43 65 44 67 45 33 46 70 47
REMARK SMILES IDX 64 48 63 49 34 51 56 52 41 53 55 54 42 55 45 56 54 57 68 58
REMARK SMILES IDX 43 59 44 60 53 62 69 63 46 64 35 65 36 66 40 67 37 68 39 69
REMARK SMILES IDX 38 70 57 71 58 72 62 73 59 74 61 75 60 76 47 77 48 78 52 79
REMARK SMILES IDX 49 80 51 81 50 82
REMARK H PARENT 18 6 8 15 14 25 14 26 23 31 67 50 45 61
REMARK Flexibility Score: inf
ROOT
ATOM      1  C   UNL     1      -0.013   1.688   5.542  1.00  0.00     0.023 C 
ENDROOT
BRANCH   1   2
ATOM      2  C   UNL     1       0.228   3.187   5.752  1.00  0.00     0.116 C 
BRANCH   2   3
ATOM      3  N   UNL     1       1.543   3.415   6.317  1.00  0.00    -0.352 N 
ATOM      4  C   UNL     1       2.781   3.652   5.765  1.00  0.00     0.253 C 
ATOM      5  O   UNL     1       3.707   3.762   6.575  1.00  0.00    -0.269 OA
ATOM      6  H   UNL     1       1.553   3.397   7.301  1.00  0.00     0.163 HD
BRANCH   4   7
ATOM      7  C   UNL     1       3.053   3.804   4.291  1.00  0.00     0.065 A 
ATOM      8  C   UNL     1       2.398   3.471   1.948  1.00  0.00     0.036 A 
ATOM      9  C   UNL     1       3.531   4.162   1.539  1.00  0.00     0.031 A 
ATOM     10  C   UNL     1       2.191   3.290   3.316  1.00  0.00     0.041 A 
ATOM     11  C   UNL     1       4.467   4.637   2.476  1.00  0.00    -0.025 A 
ATOM     12  C   UNL     1       5.688   5.358   1.971  1.00  0.00     0.046 C 
ATOM     13  C   UNL     1       4.242   4.452   3.861  1.00  0.00     0.047 A 
BRANCH   8  14
ATOM     14  N   UNL     1       1.357   3.136   1.093  1.00  0.00    -0.376 N 
ATOM     15  H   UNL     1       0.438   3.377   1.349  1.00  0.00     0.161 HD
BRANCH  14  16
ATOM     16  C   UNL     1       1.579   2.436  -0.180  1.00  0.00     0.135 C 
ATOM     17  C   UNL     1       0.649   1.213  -0.140  1.00  0.00     0.039 C 
BRANCH  16  18
ATOM     18  C   UNL     1       1.331   3.316  -1.405  1.00  0.00     0.115 A 
ATOM     19  C   UNL     1       1.156   6.634  -2.812  1.00  0.00     0.067 C 
ATOM     20  C   UNL     1       1.120   5.160  -2.636  1.00  0.00     0.049 A 
ATOM     21  C   UNL     1       0.895   4.216  -3.618  1.00  0.00     0.090 A 
ATOM     22  N   UNL     1       1.342   4.637  -1.373  1.00  0.00    -0.244 NA
ATOM     23  S   UNL     1       1.048   2.642  -2.967  1.00  0.00    -0.125 S 
ENDBRANCH  16  18
ENDBRANCH  14  16
ENDBRANCH   8  14
BRANCH  13  24
ATOM     24  N   UNL     1       5.111   5.057   4.778  1.00  0.00    -0.398 N 
ATOM     25  H   UNL     1       5.930   5.502   4.461  1.00  0.00     0.156 HD
ATOM     26  H   UNL     1       4.903   5.038   5.740  1.00  0.00     0.156 HD
ENDBRANCH  13  24
ENDBRANCH   4   7
ENDBRANCH   2   3
ENDBRANCH   1   2
BRANCH   1  27
ATOM     27  C   UNL     1      -0.402   0.928   6.813  1.00  0.00     0.023 C 
BRANCH  27  28
ATOM     28  C   UNL     1      -1.723   1.361   7.438  1.00  0.00     0.116 C 
BRANCH  28  29
ATOM     29  N   UNL     1      -2.854   1.256   6.530  1.00  0.00    -0.352 N 
ATOM     30  C   UNL     1      -4.177   1.047   6.835  1.00  0.00     0.251 C 
ATOM     31  H   UNL     1      -2.644   1.345   5.572  1.00  0.00     0.163 HD
ATOM     32  O   UNL     1      -5.004   0.883   5.949  1.00  0.00    -0.269 OA
BRANCH  30  33
ATOM     33  C   UNL     1      -4.584   0.975   8.254  1.00  0.00     0.039 A 
ATOM     34  C   UNL     1      -5.357  -0.110   8.673  1.00  0.00     0.014 A 
ATOM     35  C   UNL     1      -4.178   1.951   9.166  1.00  0.00     0.014 A 
ATOM     36  C   UNL     1      -5.668  -0.251  10.025  1.00  0.00     0.010 A 
ATOM     37  C   UNL     1      -4.432   1.774  10.522  1.00  0.00     0.010 A 
ATOM     38  C   UNL     1      -5.178   0.671  10.964  1.00  0.00    -0.014 A 
BRANCH  38  39
ATOM     39  C   UNL     1      -5.432   0.495  12.414  1.00  0.00     0.031 A 
ATOM     40  C   UNL     1      -6.271   1.493  13.160  1.00  0.00     0.074 A 
ATOM     41  C   UNL     1      -4.851  -0.527  13.071  1.00  0.00     0.049 A 
ATOM     42  N   UNL     1      -6.564   1.535  14.435  1.00  0.00    -0.248 NA
ATOM     43  C   UNL     1      -6.835   2.604  12.377  1.00  0.00     0.031 C 
ATOM     44  C   UNL     1      -3.976  -1.535  12.469  1.00  0.00     0.029 A 
ATOM     45  N   UNL     1      -4.907  -0.883  14.394  1.00  0.00    -0.354 N 
ATOM     46  C   UNL     1      -7.326   2.682  14.609  1.00  0.00     0.074 A 
ATOM     47  C   UNL     1      -7.413   3.333  13.320  1.00  0.00     0.031 C 
ATOM     48  C   UNL     1      -3.598  -2.410  13.415  1.00  0.00     0.029 A 
ATOM     49  C   UNL     1      -4.174  -2.006  14.693  1.00  0.00     0.049 A 
ATOM     50  H   UNL     1      -5.422  -0.381  15.066  1.00  0.00     0.167 HD
ATOM     51  C   UNL     1      -7.917   3.144  15.736  1.00  0.00     0.031 A 
ATOM     52  C   UNL     1      -3.987  -2.639  15.866  1.00  0.00     0.031 A 
ATOM     53  C   UNL     1      -7.844   2.490  17.015  1.00  0.00     0.049 A 
ATOM     54  C   UNL     1      -4.660  -2.110  17.101  1.00  0.00     0.074 A 
ATOM     55  C   UNL     1      -8.460   2.846  18.202  1.00  0.00     0.029 A 
ATOM     56  N   UNL     1      -7.109   1.344  17.272  1.00  0.00    -0.354 N 
ATOM     57  N   UNL     1      -5.439  -1.064  17.234  1.00  0.00    -0.248 NA
ATOM     58  C   UNL     1      -4.439  -2.860  18.346  1.00  0.00     0.031 C 
ATOM     59  C   UNL     1      -8.062   1.938  19.189  1.00  0.00     0.029 A 
ATOM     60  C   UNL     1      -7.239   0.989  18.604  1.00  0.00     0.049 A 
ATOM     61  H   UNL     1      -6.573   0.855  16.606  1.00  0.00     0.167 HD
ATOM     62  C   UNL     1      -5.821  -1.044  18.569  1.00  0.00     0.074 A 
ATOM     63  C   UNL     1      -5.201  -2.191  19.200  1.00  0.00     0.031 C 
ATOM     64  C   UNL     1      -6.615  -0.155  19.215  1.00  0.00     0.031 A 
BRANCH  51  65
ATOM     65  C   UNL     1      -8.694   4.427  15.631  1.00  0.00    -0.014 A 
ATOM     66  C   UNL     1      -9.918   4.481  14.945  1.00  0.00     0.009 A 
ATOM     67  C   UNL     1      -8.209   5.590  16.248  1.00  0.00     0.009 A 
ATOM     68  C   UNL     1     -10.621   5.683  14.847  1.00  0.00     0.001 A 
ATOM     69  C   UNL     1      -8.928   6.784  16.172  1.00  0.00     0.001 A 
ATOM     70  C   UNL     1     -10.128   6.832  15.464  1.00  0.00     0.000 A 
ENDBRANCH  51  65
BRANCH  52  71
ATOM     71  C   UNL     1      -3.144  -3.860  15.926  1.00  0.00    -0.014 A 
ATOM     72  C   UNL     1      -3.732  -5.120  16.117  1.00  0.00     0.009 A 
ATOM     73  C   UNL     1      -1.750  -3.774  15.796  1.00  0.00     0.009 A 
ATOM     74  C   UNL     1      -2.939  -6.266  16.203  1.00  0.00     0.001 A 
ATOM     75  C   UNL     1      -0.961  -4.924  15.856  1.00  0.00     0.001 A 
ATOM     76  C   UNL     1      -1.555  -6.168  16.068  1.00  0.00     0.000 A 
ENDBRANCH  52  71
BRANCH  64  77
ATOM     77  C   UNL     1      -6.884  -0.409  20.670  1.00  0.00    -0.014 A 
ATOM     78  C   UNL     1      -5.897  -0.189  21.642  1.00  0.00     0.009 A 
ATOM     79  C   UNL     1      -8.157  -0.840  21.075  1.00  0.00     0.009 A 
ATOM     80  C   UNL     1      -6.171  -0.426  22.991  1.00  0.00     0.001 A 
ATOM     81  C   UNL     1      -8.436  -1.050  22.426  1.00  0.00     0.001 A 
ATOM     82  C   UNL     1      -7.441  -0.852  23.381  1.00  0.00     0.000 A 
ENDBRANCH  64  77
ENDBRANCH  38  39
ENDBRANCH  30  33
ENDBRANCH  28  29
ENDBRANCH  27  28
ENDBRANCH   1  27
TORSDOF 15
