REMARK SMILES CCOC(=O)c1noc(C)c1C(=O)NCCCCNC(=O)c1ccc(-c2c3nc(c(-c4ccccc4)c4ccc([nH]4)c(-c4ccccc4)c4nc(c(-c5ccccc5)c5ccc2[nH]5)C=C4)C=C3)cc1
REMARK SMILES IDX 16 1 15 2 14 3 12 4 13 5 11 7 6 8 7 9 8 10 9 11 10 12 4 13
REMARK SMILES IDX 5 14 3 15 2 16 1 17 17 18 18 19 19 20 20 21 21 23 22 24
REMARK SMILES IDX 23 25 69 26 24 27 68 28 25 29 26 30 27 31 62 32 28 33 67 34
REMARK SMILES IDX 61 35 63 36 29 37 66 38 60 39 59 40 30 42 52 43 37 44 51 45
REMARK SMILES IDX 38 46 41 47 50 48 64 49 39 50 40 51 49 53 65 54 42 55 31 56
REMARK SMILES IDX 32 57 36 58 33 59 35 60 34 61 53 62 54 63 58 64 55 65 57 66
REMARK SMILES IDX 56 67 43 68 44 69 48 70 45 71 47 72 46 73
REMARK H PARENT 14 6 19 22 63 41 41 52
REMARK Flexibility Score: inf
ROOT
ATOM      1  C   UNL     1       1.109   8.297  -2.947  1.00  0.00     0.023 C 
ENDROOT
BRANCH   1   2
ATOM      2  C   UNL     1       1.795   7.939  -1.629  1.00  0.00     0.116 C 
BRANCH   2   3
ATOM      3  N   UNL     1       1.193   6.772  -1.034  1.00  0.00    -0.352 N 
ATOM      4  C   UNL     1       1.537   5.453  -0.958  1.00  0.00     0.257 C 
ATOM      5  O   UNL     1       0.787   4.791  -0.236  1.00  0.00    -0.269 OA
ATOM      6  H   UNL     1       0.342   6.972  -0.581  1.00  0.00     0.163 HD
BRANCH   4   7
ATOM      7  C   UNL     1       2.690   4.827  -1.594  1.00  0.00     0.117 A 
ATOM      8  C   UNL     1       3.145   3.501  -1.233  1.00  0.00     0.204 A 
ATOM      9  N   UNL     1       4.250   3.157  -1.906  1.00  0.00    -0.072 NA
ATOM     10  O   UNL     1       4.507   4.196  -2.752  1.00  0.00    -0.360 OA
ATOM     11  C   UNL     1       3.581   5.183  -2.596  1.00  0.00     0.147 A 
ATOM     12  C   UNL     1       3.817   6.291  -3.542  1.00  0.00     0.092 C 
BRANCH   8  13
ATOM     13  C   UNL     1       2.575   2.571  -0.267  1.00  0.00     0.361 C 
ATOM     14  O   UNL     1       3.179   2.179   0.731  1.00  0.00    -0.244 OA
BRANCH  13  15
ATOM     15  O   UNL     1       1.327   2.153  -0.630  1.00  0.00    -0.461 OA
BRANCH  15  16
ATOM     16  C   UNL     1       0.661   1.302   0.311  1.00  0.00     0.230 C 
ATOM     17  C   UNL     1       0.969  -0.151   0.004  1.00  0.00     0.049 C 
ENDBRANCH  15  16
ENDBRANCH  13  15
ENDBRANCH   8  13
ENDBRANCH   4   7
ENDBRANCH   2   3
ENDBRANCH   1   2
BRANCH   1  18
ATOM     18  C   UNL     1      -0.204   9.073  -2.805  1.00  0.00     0.023 C 
BRANCH  18  19
ATOM     19  C   UNL     1      -0.090  10.433  -2.124  1.00  0.00     0.116 C 
BRANCH  19  20
ATOM     20  N   UNL     1       0.890  11.315  -2.738  1.00  0.00    -0.352 N 
ATOM     21  C   UNL     1       0.901  12.688  -2.783  1.00  0.00     0.251 C 
ATOM     22  H   UNL     1       1.647  10.868  -3.181  1.00  0.00     0.163 HD
ATOM     23  O   UNL     1       1.768  13.279  -3.417  1.00  0.00    -0.269 OA
BRANCH  21  24
ATOM     24  C   UNL     1      -0.169  13.448  -2.104  1.00  0.00     0.039 A 
ATOM     25  C   UNL     1      -0.832  14.449  -2.817  1.00  0.00     0.014 A 
ATOM     26  C   UNL     1      -0.536  13.155  -0.788  1.00  0.00     0.014 A 
ATOM     27  C   UNL     1      -1.917  15.107  -2.235  1.00  0.00     0.010 A 
ATOM     28  C   UNL     1      -1.657  13.765  -0.233  1.00  0.00     0.010 A 
ATOM     29  C   UNL     1      -2.360  14.741  -0.954  1.00  0.00    -0.014 A 
BRANCH  29  30
ATOM     30  C   UNL     1      -3.576  15.352  -0.365  1.00  0.00     0.031 A 
ATOM     31  C   UNL     1      -3.478  16.213   0.860  1.00  0.00     0.074 A 
ATOM     32  C   UNL     1      -4.781  15.064  -0.894  1.00  0.00     0.049 A 
ATOM     33  N   UNL     1      -4.436  16.800   1.533  1.00  0.00    -0.248 NA
ATOM     34  C   UNL     1      -2.134  16.419   1.420  1.00  0.00     0.031 C 
ATOM     35  C   UNL     1      -5.015  14.189  -2.045  1.00  0.00     0.029 A 
ATOM     36  N   UNL     1      -6.037  15.472  -0.524  1.00  0.00    -0.354 N 
ATOM     37  C   UNL     1      -3.813  17.425   2.605  1.00  0.00     0.074 A 
ATOM     38  C   UNL     1      -2.404  17.110   2.518  1.00  0.00     0.031 C 
ATOM     39  C   UNL     1      -6.333  14.145  -2.301  1.00  0.00     0.029 A 
ATOM     40  C   UNL     1      -7.035  14.965  -1.319  1.00  0.00     0.049 A 
ATOM     41  H   UNL     1      -6.207  16.072   0.238  1.00  0.00     0.167 HD
ATOM     42  C   UNL     1      -4.362  18.203   3.568  1.00  0.00     0.031 A 
ATOM     43  C   UNL     1      -8.368  15.141  -1.266  1.00  0.00     0.031 A 
ATOM     44  C   UNL     1      -5.761  18.531   3.645  1.00  0.00     0.049 A 
ATOM     45  C   UNL     1      -8.951  16.032  -0.209  1.00  0.00     0.074 A 
ATOM     46  C   UNL     1      -6.400  19.379   4.532  1.00  0.00     0.029 A 
ATOM     47  N   UNL     1      -6.737  18.021   2.803  1.00  0.00    -0.354 N 
ATOM     48  N   UNL     1      -8.339  16.689   0.746  1.00  0.00    -0.248 NA
ATOM     49  C   UNL     1     -10.409  16.218  -0.232  1.00  0.00     0.031 C 
ATOM     50  C   UNL     1      -7.771  19.349   4.253  1.00  0.00     0.029 A 
ATOM     51  C   UNL     1      -7.978  18.517   3.165  1.00  0.00     0.049 A 
ATOM     52  H   UNL     1      -6.572  17.399   2.059  1.00  0.00     0.167 HD
ATOM     53  C   UNL     1      -9.332  17.380   1.427  1.00  0.00     0.074 A 
ATOM     54  C   UNL     1     -10.584  17.075   0.765  1.00  0.00     0.031 C 
ATOM     55  C   UNL     1      -9.216  18.194   2.504  1.00  0.00     0.031 A 
BRANCH  42  56
ATOM     56  C   UNL     1      -3.438  18.745   4.621  1.00  0.00    -0.014 A 
ATOM     57  C   UNL     1      -2.503  19.749   4.321  1.00  0.00     0.009 A 
ATOM     58  C   UNL     1      -3.512  18.254   5.933  1.00  0.00     0.009 A 
ATOM     59  C   UNL     1      -1.630  20.218   5.305  1.00  0.00     0.001 A 
ATOM     60  C   UNL     1      -2.656  18.745   6.921  1.00  0.00     0.001 A 
ATOM     61  C   UNL     1      -1.709  19.718   6.604  1.00  0.00     0.000 A 
ENDBRANCH  42  56
BRANCH  43  62
ATOM     62  C   UNL     1      -9.238  14.478  -2.269  1.00  0.00    -0.014 A 
ATOM     63  C   UNL     1      -9.809  15.221  -3.313  1.00  0.00     0.009 A 
ATOM     64  C   UNL     1      -9.485  13.098  -2.200  1.00  0.00     0.009 A 
ATOM     65  C   UNL     1     -10.624  14.598  -4.260  1.00  0.00     0.001 A 
ATOM     66  C   UNL     1     -10.284  12.474  -3.160  1.00  0.00     0.001 A 
ATOM     67  C   UNL     1     -10.857  13.225  -4.186  1.00  0.00     0.000 A 
ENDBRANCH  43  62
BRANCH  55  68
ATOM     68  C   UNL     1     -10.476  18.822   3.023  1.00  0.00    -0.014 A 
ATOM     69  C   UNL     1     -11.416  18.071   3.744  1.00  0.00     0.009 A 
ATOM     70  C   UNL     1     -10.710  20.190   2.815  1.00  0.00     0.009 A 
ATOM     71  C   UNL     1     -12.582  18.672   4.222  1.00  0.00     0.001 A 
ATOM     72  C   UNL     1     -11.864  20.794   3.315  1.00  0.00     0.001 A 
ATOM     73  C   UNL     1     -12.803  20.033   4.011  1.00  0.00     0.000 A 
ENDBRANCH  55  68
ENDBRANCH  29  30
ENDBRANCH  21  24
ENDBRANCH  19  20
ENDBRANCH  18  19
ENDBRANCH   1  18
TORSDOF 14
