REMARK SMILES O=C(NCCCCNC(=O)c1nnn(-c2ccccc2C(F)(F)F)c1-c1cccc(Cl)c1)c1ccc(-c2c3nc(c(-c4ccccc4)c4ccc([nH]4)c(-c4ccccc4)c4nc(c(-c5ccccc5)c5ccc2[nH]5)C=C4)C=C3)cc1
REMARK SMILES IDX 5 1 4 2 3 3 1 4 2 5 33 7 34 8 80 9 35 10 79 11 36 12 37 13
REMARK SMILES IDX 38 14 73 15 39 16 78 17 72 18 74 19 40 20 77 21 71 22 70 23
REMARK SMILES IDX 41 25 63 26 48 27 62 28 49 29 52 30 61 31 75 32 50 33 51 34
REMARK SMILES IDX 60 36 76 37 53 38 42 39 43 40 47 41 44 42 46 43 45 44 64 45
REMARK SMILES IDX 65 46 69 47 66 48 68 49 67 50 54 51 55 52 59 53 56 54 58 55
REMARK SMILES IDX 57 56 6 57 7 58 8 59 9 60 10 62 11 63 12 64 25 65 13 66
REMARK SMILES IDX 14 67 26 68 27 69 32 70 28 71 30 72 29 73 31 74 15 75 16 76
REMARK SMILES IDX 20 77 17 78 19 79 18 80 21 81 22 82 23 83 24 84
REMARK H PARENT 3 6 74 24 52 35 8 61
REMARK Flexibility Score: inf
ROOT
ATOM      1  C   UNL     1       5.096   1.838  -1.048  1.00  0.00     0.023 C 
ENDROOT
BRANCH   1   2
ATOM      2  C   UNL     1       4.721   0.838   0.047  1.00  0.00     0.116 C 
BRANCH   2   3
ATOM      3  N   UNL     1       3.304   0.766   0.343  1.00  0.00    -0.352 N 
ATOM      4  O   UNL     1       1.209   0.118   0.535  1.00  0.00    -0.269 OA
ATOM      5  C   UNL     1       2.248   0.035  -0.127  1.00  0.00     0.251 C 
ATOM      6  H   UNL     1       3.038   1.394   1.053  1.00  0.00     0.163 HD
BRANCH   5   7
ATOM      7  C   UNL     1       2.231  -0.782  -1.374  1.00  0.00     0.039 A 
ATOM      8  C   UNL     1       3.320  -1.050  -2.201  1.00  0.00     0.014 A 
ATOM      9  C   UNL     1       0.968  -1.282  -1.758  1.00  0.00     0.014 A 
ATOM     10  C   UNL     1       3.138  -1.726  -3.411  1.00  0.00     0.010 A 
ATOM     11  C   UNL     1       0.781  -1.961  -2.959  1.00  0.00     0.010 A 
ATOM     12  C   UNL     1       1.864  -2.154  -3.808  1.00  0.00    -0.014 A 
BRANCH  12  13
ATOM     13  C   UNL     1       1.737  -2.930  -5.043  1.00  0.00     0.031 A 
ATOM     14  C   UNL     1       2.475  -4.227  -5.043  1.00  0.00     0.074 A 
ATOM     15  C   UNL     1       0.927  -2.623  -6.080  1.00  0.00     0.049 A 
ATOM     16  N   UNL     1       3.452  -4.585  -5.811  1.00  0.00    -0.248 NA
ATOM     17  C   UNL     1       2.136  -5.212  -4.005  1.00  0.00     0.031 C 
ATOM     18  C   UNL     1      -0.093  -1.576  -6.163  1.00  0.00     0.029 A 
ATOM     19  N   UNL     1       0.795  -3.271  -7.276  1.00  0.00    -0.354 N 
ATOM     20  C   UNL     1       3.762  -5.898  -5.461  1.00  0.00     0.074 A 
ATOM     21  C   UNL     1       2.995  -6.196  -4.277  1.00  0.00     0.031 C 
ATOM     22  C   UNL     1      -0.878  -1.797  -7.245  1.00  0.00     0.029 A 
ATOM     23  C   UNL     1      -0.328  -2.905  -8.009  1.00  0.00     0.049 A 
ATOM     24  H   UNL     1       1.442  -3.942  -7.593  1.00  0.00     0.167 HD
ATOM     25  C   UNL     1       4.492  -6.712  -6.272  1.00  0.00     0.031 A 
ATOM     26  C   UNL     1      -0.789  -3.491  -9.144  1.00  0.00     0.031 A 
ATOM     27  C   UNL     1       5.207  -5.974  -7.278  1.00  0.00     0.049 A 
ATOM     28  C   UNL     1       0.328  -4.250  -9.746  1.00  0.00     0.074 A 
ATOM     29  C   UNL     1       6.189  -5.004  -7.261  1.00  0.00     0.029 A 
ATOM     30  N   UNL     1       4.674  -5.946  -8.543  1.00  0.00    -0.354 N 
ATOM     31  N   UNL     1       1.375  -3.690 -10.276  1.00  0.00    -0.248 NA
ATOM     32  C   UNL     1       0.474  -5.652  -9.395  1.00  0.00     0.031 C 
ATOM     33  C   UNL     1       5.845  -4.122  -8.327  1.00  0.00     0.029 A 
ATOM     34  C   UNL     1       4.718  -4.644  -8.964  1.00  0.00     0.049 A 
ATOM     35  H   UNL     1       4.327  -6.715  -9.050  1.00  0.00     0.167 HD
ATOM     36  C   UNL     1       2.429  -4.517  -9.921  1.00  0.00     0.074 A 
ATOM     37  C   UNL     1       1.803  -5.758  -9.469  1.00  0.00     0.031 C 
ATOM     38  C   UNL     1       3.691  -4.021  -9.768  1.00  0.00     0.031 A 
BRANCH  25  39
ATOM     39  C   UNL     1       4.270  -8.198  -6.388  1.00  0.00    -0.014 A 
ATOM     40  C   UNL     1       5.126  -8.954  -7.212  1.00  0.00     0.009 A 
ATOM     41  C   UNL     1       3.089  -8.828  -5.955  1.00  0.00     0.009 A 
ATOM     42  C   UNL     1       4.779 -10.243  -7.635  1.00  0.00     0.001 A 
ATOM     43  C   UNL     1       2.759 -10.129  -6.344  1.00  0.00     0.001 A 
ATOM     44  C   UNL     1       3.591 -10.826  -7.208  1.00  0.00     0.000 A 
ENDBRANCH  25  39
BRANCH  26  45
ATOM     45  C   UNL     1      -2.179  -3.671  -9.619  1.00  0.00    -0.014 A 
ATOM     46  C   UNL     1      -2.449  -3.984 -10.963  1.00  0.00     0.009 A 
ATOM     47  C   UNL     1      -3.218  -3.838  -8.687  1.00  0.00     0.009 A 
ATOM     48  C   UNL     1      -3.701  -4.485 -11.350  1.00  0.00     0.001 A 
ATOM     49  C   UNL     1      -4.467  -4.339  -9.074  1.00  0.00     0.001 A 
ATOM     50  C   UNL     1      -4.703  -4.677 -10.402  1.00  0.00     0.000 A 
ENDBRANCH  26  45
BRANCH  38  51
ATOM     51  C   UNL     1       3.964  -2.610 -10.226  1.00  0.00    -0.014 A 
ATOM     52  C   UNL     1       3.308  -1.486  -9.691  1.00  0.00     0.009 A 
ATOM     53  C   UNL     1       5.035  -2.399 -11.107  1.00  0.00     0.009 A 
ATOM     54  C   UNL     1       3.702  -0.192 -10.048  1.00  0.00     0.001 A 
ATOM     55  C   UNL     1       5.441  -1.107 -11.446  1.00  0.00     0.001 A 
ATOM     56  C   UNL     1       4.773  -0.004 -10.919  1.00  0.00     0.000 A 
ENDBRANCH  38  51
ENDBRANCH  12  13
ENDBRANCH   5   7
ENDBRANCH   2   3
ENDBRANCH   1   2
BRANCH   1  57
ATOM     57  C   UNL     1       4.590   3.271  -0.849  1.00  0.00     0.023 C 
BRANCH  57  58
ATOM     58  C   UNL     1       4.985   3.942   0.462  1.00  0.00     0.116 C 
BRANCH  58  59
ATOM     59  N   UNL     1       6.405   4.221   0.563  1.00  0.00    -0.351 N 
ATOM     60  C   UNL     1       7.025   5.374   0.995  1.00  0.00     0.274 C 
ATOM     61  H   UNL     1       7.005   3.490   0.288  1.00  0.00     0.163 HD
ATOM     62  O   UNL     1       8.254   5.438   0.925  1.00  0.00    -0.267 OA
BRANCH  60  63
ATOM     63  C   UNL     1       6.224   6.472   1.513  1.00  0.00     0.178 A 
ATOM     64  N   UNL     1       6.265   7.724   0.952  1.00  0.00    -0.124 NA
ATOM     65  C   UNL     1       5.304   6.467   2.557  1.00  0.00     0.108 A 
ATOM     66  N   UNL     1       5.362   8.481   1.558  1.00  0.00    -0.061 NA
ATOM     67  N   UNL     1       4.876   7.791   2.611  1.00  0.00    -0.211 N 
BRANCH  65  68
ATOM     68  C   UNL     1       4.783   5.379   3.380  1.00  0.00     0.004 A 
ATOM     69  C   UNL     1       3.404   5.108   3.398  1.00  0.00     0.010 A 
ATOM     70  C   UNL     1       5.644   4.591   4.150  1.00  0.00     0.031 A 
ATOM     71  C   UNL     1       2.888   4.096   4.207  1.00  0.00     0.002 A 
ATOM     72  C   UNL     1       5.121   3.586   4.963  1.00  0.00     0.041 A 
ATOM     73  C   UNL     1       3.748   3.340   4.998  1.00  0.00     0.020 A 
ATOM     74  Cl  UNL     1       6.177   2.651   5.947  1.00  0.00    -0.084 Cl
ENDBRANCH  65  68
BRANCH  67  75
ATOM     75  C   UNL     1       3.886   8.347   3.460  1.00  0.00     0.079 A 
ATOM     76  C   UNL     1       2.784   8.957   2.836  1.00  0.00     0.029 A 
ATOM     77  C   UNL     1       3.916   8.184   4.860  1.00  0.00     0.081 A 
ATOM     78  C   UNL     1       1.661   9.300   3.586  1.00  0.00     0.002 A 
ATOM     79  C   UNL     1       2.761   8.528   5.590  1.00  0.00     0.015 A 
ATOM     80  C   UNL     1       1.639   9.062   4.957  1.00  0.00     0.001 A 
BRANCH  77  81
ATOM     81  C   UNL     1       5.131   7.757   5.654  1.00  0.00     0.418 C 
ATOM     82  F   UNL     1       5.432   8.651   6.639  1.00  0.00    -0.166 F 
ATOM     83  F   UNL     1       4.944   6.569   6.290  1.00  0.00    -0.166 F 
ATOM     84  F   UNL     1       6.273   7.629   4.929  1.00  0.00    -0.166 F 
ENDBRANCH  77  81
ENDBRANCH  67  75
ENDBRANCH  60  63
ENDBRANCH  58  59
ENDBRANCH  57  58
ENDBRANCH   1  57
TORSDOF 14
