REMARK SMILES Cc1ccc(OCC(=O)Oc2ccc(C(=O)NCCCCNC(=O)c3ccc(-c4c5nc(c(-c6ccccc6)c6ccc([nH]6)c(-c6ccccc6)c6nc(c(-c7ccccc7)c7ccc4[nH]7)C=C6)C=C5)cc3)cc2)cc1C
REMARK SMILES IDX 18 1 17 2 15 3 16 4 14 6 11 7 12 8 74 9 13 10 73 11 10 12
REMARK SMILES IDX 8 13 9 14 7 15 6 16 5 17 1 18 2 19 3 20 76 21 4 22 75 23
REMARK SMILES IDX 77 24 19 25 20 26 21 27 22 28 23 29 24 31 25 32 26 33 72 34
REMARK SMILES IDX 27 35 71 36 28 37 29 38 30 39 65 40 31 41 70 42 64 43 66 44
REMARK SMILES IDX 32 45 69 46 63 47 62 48 33 50 55 51 40 52 54 53 41 54 44 55
REMARK SMILES IDX 53 56 67 57 42 58 43 59 52 61 68 62 45 63 34 64 35 65 39 66
REMARK SMILES IDX 36 67 38 68 37 69 56 70 57 71 61 72 58 73 60 74 59 75 46 76
REMARK SMILES IDX 47 77 51 78 48 79 50 80 49 81
REMARK H PARENT 17 5 22 30 66 49 44 60
REMARK Flexibility Score: inf
ROOT
ATOM      1  C   UNL     1      -6.817   3.932   6.190  1.00  0.00     0.116 C 
ENDROOT
BRANCH   1   2
ATOM      2  N   UNL     1      -6.095   3.203   7.216  1.00  0.00    -0.352 N 
ATOM      3  C   UNL     1      -5.358   2.046   7.156  1.00  0.00     0.251 C 
ATOM      4  O   UNL     1      -4.800   1.662   8.184  1.00  0.00    -0.269 OA
ATOM      5  H   UNL     1      -6.143   3.609   8.111  1.00  0.00     0.163 HD
BRANCH   3   6
ATOM      6  C   UNL     1      -5.162   1.282   5.893  1.00  0.00     0.040 A 
ATOM      7  C   UNL     1      -4.600  -0.060   3.505  1.00  0.00     0.131 A 
ATOM      8  C   UNL     1      -3.653  -0.053   4.526  1.00  0.00     0.048 A 
ATOM      9  C   UNL     1      -5.857   0.505   3.701  1.00  0.00     0.048 A 
ATOM     10  C   UNL     1      -3.935   0.623   5.717  1.00  0.00     0.017 A 
ATOM     11  C   UNL     1      -6.137   1.163   4.898  1.00  0.00     0.017 A 
BRANCH   7  12
ATOM     12  O   UNL     1      -4.269  -0.713   2.311  1.00  0.00    -0.424 OA
BRANCH  12  13
ATOM     13  C   UNL     1      -4.495   0.006   1.139  1.00  0.00     0.349 C 
ATOM     14  O   UNL     1      -4.953   1.141   1.049  1.00  0.00    -0.248 OA
BRANCH  13  15
ATOM     15  C   UNL     1      -4.121  -0.839  -0.070  1.00  0.00     0.352 C 
BRANCH  15  16
ATOM     16  O   UNL     1      -2.853  -1.467  -0.039  1.00  0.00    -0.482 OA
BRANCH  16  17
ATOM     17  C   UNL     1      -1.743  -0.669  -0.086  1.00  0.00     0.120 A 
ATOM     18  C   UNL     1       1.992   1.510  -0.026  1.00  0.00     0.044 C 
ATOM     19  C   UNL     1       0.715   0.718  -0.064  1.00  0.00    -0.048 A 
ATOM     20  C   UNL     1      -0.505   1.404  -0.164  1.00  0.00     0.007 A 
ATOM     21  C   UNL     1       0.703  -0.687  -0.008  1.00  0.00    -0.045 A 
ATOM     22  C   UNL     1      -1.723   0.719  -0.187  1.00  0.00     0.047 A 
ATOM     23  C   UNL     1      -0.532  -1.360  -0.012  1.00  0.00     0.050 A 
ATOM     24  C   UNL     1       1.951  -1.522   0.053  1.00  0.00     0.045 C 
ENDBRANCH  16  17
ENDBRANCH  15  16
ENDBRANCH  13  15
ENDBRANCH  12  13
ENDBRANCH   7  12
ENDBRANCH   3   6
ENDBRANCH   1   2
BRANCH   1  25
ATOM     25  C   UNL     1      -8.312   3.611   6.253  1.00  0.00     0.023 C 
BRANCH  25  26
ATOM     26  C   UNL     1      -9.064   4.334   7.373  1.00  0.00     0.023 C 
BRANCH  26  27
ATOM     27  C   UNL     1      -9.076   5.852   7.256  1.00  0.00     0.116 C 
BRANCH  27  28
ATOM     28  N   UNL     1      -9.652   6.325   6.007  1.00  0.00    -0.352 N 
ATOM     29  C   UNL     1     -10.388   7.462   5.777  1.00  0.00     0.251 C 
ATOM     30  H   UNL     1      -9.492   5.753   5.222  1.00  0.00     0.163 HD
ATOM     31  O   UNL     1     -10.906   7.651   4.686  1.00  0.00    -0.269 OA
BRANCH  29  32
ATOM     32  C   UNL     1     -10.581   8.436   6.871  1.00  0.00     0.039 A 
ATOM     33  C   UNL     1     -11.862   8.945   7.094  1.00  0.00     0.014 A 
ATOM     34  C   UNL     1      -9.513   8.835   7.679  1.00  0.00     0.014 A 
ATOM     35  C   UNL     1     -12.080   9.816   8.161  1.00  0.00     0.010 A 
ATOM     36  C   UNL     1      -9.748   9.637   8.792  1.00  0.00     0.010 A 
ATOM     37  C   UNL     1     -11.031  10.146   9.037  1.00  0.00    -0.014 A 
BRANCH  37  38
ATOM     38  C   UNL     1     -11.271  11.025  10.208  1.00  0.00     0.031 A 
ATOM     39  C   UNL     1     -10.587  12.361  10.310  1.00  0.00     0.074 A 
ATOM     40  C   UNL     1     -12.079  10.601  11.200  1.00  0.00     0.049 A 
ATOM     41  N   UNL     1     -10.689  13.269  11.248  1.00  0.00    -0.248 NA
ATOM     42  C   UNL     1      -9.648  12.716   9.234  1.00  0.00     0.031 C 
ATOM     43  C   UNL     1     -12.754   9.302  11.248  1.00  0.00     0.029 A 
ATOM     44  N   UNL     1     -12.474  11.223  12.358  1.00  0.00    -0.354 N 
ATOM     45  C   UNL     1      -9.819  14.289  10.883  1.00  0.00     0.074 A 
ATOM     46  C   UNL     1      -9.157  13.867   9.669  1.00  0.00     0.031 C 
ATOM     47  C   UNL     1     -13.507   9.239  12.358  1.00  0.00     0.029 A 
ATOM     48  C   UNL     1     -13.341  10.474  13.116  1.00  0.00     0.049 A 
ATOM     49  H   UNL     1     -12.165  12.120  12.620  1.00  0.00     0.167 HD
ATOM     50  C   UNL     1      -9.604  15.479  11.492  1.00  0.00     0.031 A 
ATOM     51  C   UNL     1     -13.939  10.752  14.289  1.00  0.00     0.031 A 
ATOM     52  C   UNL     1     -10.272  15.903  12.694  1.00  0.00     0.049 A 
ATOM     53  C   UNL     1     -13.696  12.089  14.934  1.00  0.00     0.074 A 
ATOM     54  C   UNL     1     -10.173  17.117  13.352  1.00  0.00     0.029 A 
ATOM     55  N   UNL     1     -11.158  15.124  13.422  1.00  0.00    -0.354 N 
ATOM     56  N   UNL     1     -12.939  13.079  14.528  1.00  0.00    -0.248 NA
ATOM     57  C   UNL     1     -14.411  12.353  16.190  1.00  0.00     0.031 C 
ATOM     58  C   UNL     1     -10.954  17.050  14.510  1.00  0.00     0.029 A 
ATOM     59  C   UNL     1     -11.594  15.822  14.536  1.00  0.00     0.049 A 
ATOM     60  H   UNL     1     -11.435  14.210  13.183  1.00  0.00     0.167 HD
ATOM     61  C   UNL     1     -13.113  14.095  15.459  1.00  0.00     0.074 A 
ATOM     62  C   UNL     1     -14.064  13.607  16.437  1.00  0.00     0.031 C 
ATOM     63  C   UNL     1     -12.538  15.322  15.502  1.00  0.00     0.031 A 
BRANCH  50  64
ATOM     64  C   UNL     1      -8.597  16.409  10.871  1.00  0.00    -0.014 A 
ATOM     65  C   UNL     1      -8.846  17.042   9.643  1.00  0.00     0.009 A 
ATOM     66  C   UNL     1      -7.401  16.692  11.549  1.00  0.00     0.009 A 
ATOM     67  C   UNL     1      -7.904  17.913   9.091  1.00  0.00     0.001 A 
ATOM     68  C   UNL     1      -6.475  17.588  11.011  1.00  0.00     0.001 A 
ATOM     69  C   UNL     1      -6.723  18.191   9.778  1.00  0.00     0.000 A 
ENDBRANCH  50  64
BRANCH  51  70
ATOM     70  C   UNL     1     -14.842   9.756  14.925  1.00  0.00    -0.014 A 
ATOM     71  C   UNL     1     -16.222   9.995  15.020  1.00  0.00     0.009 A 
ATOM     72  C   UNL     1     -14.322   8.567  15.461  1.00  0.00     0.009 A 
ATOM     73  C   UNL     1     -17.055   9.083  15.673  1.00  0.00     0.001 A 
ATOM     74  C   UNL     1     -15.163   7.641  16.082  1.00  0.00     0.001 A 
ATOM     75  C   UNL     1     -16.526   7.906  16.200  1.00  0.00     0.000 A 
ENDBRANCH  51  70
BRANCH  63  76
ATOM     76  C   UNL     1     -12.961  16.237  16.619  1.00  0.00    -0.014 A 
ATOM     77  C   UNL     1     -12.612  15.980  17.954  1.00  0.00     0.009 A 
ATOM     78  C   UNL     1     -13.716  17.383  16.323  1.00  0.00     0.009 A 
ATOM     79  C   UNL     1     -13.056  16.823  18.975  1.00  0.00     0.001 A 
ATOM     80  C   UNL     1     -14.128  18.244  17.341  1.00  0.00     0.001 A 
ATOM     81  C   UNL     1     -13.811  17.955  18.667  1.00  0.00     0.000 A 
ENDBRANCH  63  76
ENDBRANCH  37  38
ENDBRANCH  29  32
ENDBRANCH  27  28
ENDBRANCH  26  27
ENDBRANCH  25  26
ENDBRANCH   1  25
TORSDOF 16
