REMARK SMILES COc1ccccc1-n1c(C)nnc1SCC(=O)NCCCCNC(=O)c1ccc(-c2c3nc(c(-c4ccccc4)c4ccc([nH]4)c(-c4ccccc4)c4nc(c(-c5ccccc5)c5ccc2[nH]5)C=C4)C=C3)cc1
REMARK SMILES IDX 20 1 19 2 17 3 18 4 16 6 15 7 14 8 9 9 10 10 11 11 12 12
REMARK SMILES IDX 13 13 8 14 3 15 4 16 5 17 7 18 6 19 2 20 1 21 21 22 22 23
REMARK SMILES IDX 23 24 24 25 25 26 26 28 27 29 28 30 74 31 29 32 73 33 30 34
REMARK SMILES IDX 31 35 32 36 67 37 33 38 72 39 66 40 68 41 34 42 71 43 65 44
REMARK SMILES IDX 64 45 35 47 57 48 42 49 56 50 43 51 46 52 55 53 69 54 44 55
REMARK SMILES IDX 45 56 54 58 70 59 47 60 36 61 37 62 41 63 38 64 40 65 39 66
REMARK SMILES IDX 58 67 59 68 63 69 60 70 62 71 61 72 48 73 49 74 53 75 50 76
REMARK SMILES IDX 52 77 51 78
REMARK H PARENT 19 5 24 27 68 46 46 57
REMARK Flexibility Score: inf
ROOT
ATOM      1  C   UNL     1       0.052  -2.275  -2.778  1.00  0.00     0.116 C 
ENDROOT
BRANCH   1   2
ATOM      2  N   UNL     1      -0.197  -0.855  -2.929  1.00  0.00    -0.355 N 
ATOM      3  C   UNL     1       0.517   0.095  -3.597  1.00  0.00     0.230 C 
ATOM      4  O   UNL     1      -0.138   1.049  -4.039  1.00  0.00    -0.274 OA
ATOM      5  H   UNL     1      -1.008  -0.525  -2.480  1.00  0.00     0.163 HD
BRANCH   3   6
ATOM      6  C   UNL     1       2.001   0.010  -3.913  1.00  0.00     0.178 C 
BRANCH   6   7
ATOM      7  S   UNL     1       3.046  -0.927  -2.814  1.00  0.00    -0.076 SA
BRANCH   7   8
ATOM      8  C   UNL     1       3.628  -0.009  -1.472  1.00  0.00     0.196 A 
ATOM      9  N   UNL     1       3.300   1.243  -0.993  1.00  0.00    -0.270 N 
ATOM     10  C   UNL     1       4.128   1.441   0.105  1.00  0.00     0.135 A 
ATOM     11  C   UNL     1       4.104   2.614   1.014  1.00  0.00     0.090 C 
ATOM     12  N   UNL     1       4.876   0.374   0.281  1.00  0.00    -0.134 NA
ATOM     13  N   UNL     1       4.562  -0.525  -0.698  1.00  0.00    -0.123 NA
BRANCH   9  14
ATOM     14  C   UNL     1       2.356   2.170  -1.446  1.00  0.00     0.091 A 
ATOM     15  C   UNL     1       0.992   2.034  -1.175  1.00  0.00     0.142 A 
ATOM     16  C   UNL     1       0.115   2.960  -1.750  1.00  0.00     0.048 A 
ATOM     17  C   UNL     1       0.589   4.003  -2.553  1.00  0.00     0.004 A 
ATOM     18  C   UNL     1       2.847   3.246  -2.207  1.00  0.00     0.031 A 
ATOM     19  C   UNL     1       1.956   4.154  -2.771  1.00  0.00     0.002 A 
BRANCH  15  20
ATOM     20  O   UNL     1       0.381   1.002  -0.521  1.00  0.00    -0.495 OA
ATOM     21  C   UNL     1       0.892   0.659   0.762  1.00  0.00     0.278 C 
ENDBRANCH  15  20
ENDBRANCH   9  14
ENDBRANCH   7   8
ENDBRANCH   6   7
ENDBRANCH   3   6
ENDBRANCH   1   2
BRANCH   1  22
ATOM     22  C   UNL     1       0.385  -2.729  -1.349  1.00  0.00     0.023 C 
BRANCH  22  23
ATOM     23  C   UNL     1      -0.678  -2.513  -0.265  1.00  0.00     0.023 C 
BRANCH  23  24
ATOM     24  C   UNL     1      -2.028  -3.138  -0.544  1.00  0.00     0.116 C 
BRANCH  24  25
ATOM     25  N   UNL     1      -2.016  -4.599  -0.700  1.00  0.00    -0.352 N 
ATOM     26  C   UNL     1      -3.100  -5.455  -0.912  1.00  0.00     0.251 C 
ATOM     27  H   UNL     1      -1.132  -5.030  -0.648  1.00  0.00     0.163 HD
ATOM     28  O   UNL     1      -3.024  -6.651  -0.702  1.00  0.00    -0.269 OA
BRANCH  26  29
ATOM     29  C   UNL     1      -4.351  -4.863  -1.429  1.00  0.00     0.039 A 
ATOM     30  C   UNL     1      -5.640  -5.243  -1.041  1.00  0.00     0.014 A 
ATOM     31  C   UNL     1      -4.173  -3.800  -2.289  1.00  0.00     0.014 A 
ATOM     32  C   UNL     1      -6.719  -4.506  -1.540  1.00  0.00     0.010 A 
ATOM     33  C   UNL     1      -5.146  -2.862  -2.345  1.00  0.00     0.010 A 
ATOM     34  C   UNL     1      -6.440  -3.316  -2.219  1.00  0.00    -0.014 A 
BRANCH  34  35
ATOM     35  C   UNL     1      -7.415  -2.443  -2.846  1.00  0.00     0.031 A 
ATOM     36  C   UNL     1      -8.281  -1.714  -1.896  1.00  0.00     0.074 A 
ATOM     37  C   UNL     1      -7.282  -2.082  -4.146  1.00  0.00     0.049 A 
ATOM     38  N   UNL     1      -9.548  -1.867  -1.724  1.00  0.00    -0.248 NA
ATOM     39  C   UNL     1      -7.649  -0.814  -0.916  1.00  0.00     0.031 C 
ATOM     40  C   UNL     1      -6.231  -2.449  -5.114  1.00  0.00     0.029 A 
ATOM     41  N   UNL     1      -8.005  -1.177  -4.852  1.00  0.00    -0.354 N 
ATOM     42  C   UNL     1      -9.916  -0.953  -0.745  1.00  0.00     0.074 A 
ATOM     43  C   UNL     1      -8.691  -0.485  -0.151  1.00  0.00     0.031 C 
ATOM     44  C   UNL     1      -6.260  -1.601  -6.169  1.00  0.00     0.029 A 
ATOM     45  C   UNL     1      -7.420  -0.741  -6.036  1.00  0.00     0.049 A 
ATOM     46  H   UNL     1      -8.883  -0.852  -4.547  1.00  0.00     0.167 HD
ATOM     47  C   UNL     1     -11.189  -0.474  -0.668  1.00  0.00     0.031 A 
ATOM     48  C   UNL     1      -7.855   0.277  -6.824  1.00  0.00     0.031 A 
ATOM     49  C   UNL     1     -12.070  -1.197  -1.550  1.00  0.00     0.049 A 
ATOM     50  C   UNL     1      -9.269   0.533  -6.450  1.00  0.00     0.074 A 
ATOM     51  C   UNL     1     -12.489  -2.509  -1.636  1.00  0.00     0.029 A 
ATOM     52  N   UNL     1     -12.292  -0.638  -2.789  1.00  0.00    -0.354 N 
ATOM     53  N   UNL     1     -10.223  -0.330  -6.661  1.00  0.00    -0.248 NA
ATOM     54  C   UNL     1      -9.527   1.502  -5.393  1.00  0.00     0.031 C 
ATOM     55  C   UNL     1     -12.471  -2.800  -3.031  1.00  0.00     0.029 A 
ATOM     56  C   UNL     1     -12.142  -1.631  -3.723  1.00  0.00     0.049 A 
ATOM     57  H   UNL     1     -12.518   0.302  -2.972  1.00  0.00     0.167 HD
ATOM     58  C   UNL     1     -10.985  -0.306  -5.500  1.00  0.00     0.074 A 
ATOM     59  C   UNL     1     -10.565   0.906  -4.794  1.00  0.00     0.031 C 
ATOM     60  C   UNL     1     -11.651  -1.419  -5.068  1.00  0.00     0.031 A 
BRANCH  47  61
ATOM     61  C   UNL     1     -11.570   0.873  -0.118  1.00  0.00    -0.014 A 
ATOM     62  C   UNL     1     -12.937   1.196  -0.037  1.00  0.00     0.009 A 
ATOM     63  C   UNL     1     -10.657   1.925   0.071  1.00  0.00     0.009 A 
ATOM     64  C   UNL     1     -13.365   2.516   0.142  1.00  0.00     0.001 A 
ATOM     65  C   UNL     1     -11.081   3.239   0.289  1.00  0.00     0.001 A 
ATOM     66  C   UNL     1     -12.435   3.539   0.294  1.00  0.00     0.000 A 
ENDBRANCH  47  61
BRANCH  48  67
ATOM     67  C   UNL     1      -7.072   1.213  -7.666  1.00  0.00    -0.014 A 
ATOM     68  C   UNL     1      -7.677   1.960  -8.691  1.00  0.00     0.009 A 
ATOM     69  C   UNL     1      -5.767   1.578  -7.284  1.00  0.00     0.009 A 
ATOM     70  C   UNL     1      -7.014   3.047  -9.284  1.00  0.00     0.001 A 
ATOM     71  C   UNL     1      -5.106   2.664  -7.872  1.00  0.00     0.001 A 
ATOM     72  C   UNL     1      -5.736   3.408  -8.864  1.00  0.00     0.000 A 
ENDBRANCH  48  67
BRANCH  60  73
ATOM     73  C   UNL     1     -11.670  -2.633  -5.970  1.00  0.00    -0.014 A 
ATOM     74  C   UNL     1     -10.514  -3.364  -6.301  1.00  0.00     0.009 A 
ATOM     75  C   UNL     1     -12.916  -3.174  -6.316  1.00  0.00     0.009 A 
ATOM     76  C   UNL     1     -10.604  -4.592  -6.966  1.00  0.00     0.001 A 
ATOM     77  C   UNL     1     -13.007  -4.409  -6.962  1.00  0.00     0.001 A 
ATOM     78  C   UNL     1     -11.853  -5.117  -7.288  1.00  0.00     0.000 A 
ENDBRANCH  60  73
ENDBRANCH  34  35
ENDBRANCH  26  29
ENDBRANCH  24  25
ENDBRANCH  23  24
ENDBRANCH  22  23
ENDBRANCH   1  22
TORSDOF 15
