REMARK SMILES CCO[C@H](CCn1nnc2c(cnn2C)c1=O)C(=O)NCCCCNC(=O)c1ccc(-c2c3nc(c(-c4ccccc4)c4ccc([nH]4)c(-c4ccccc4)c4nc(c(-c5ccccc5)c5ccc2[nH]5)C=C4)C=C3)cc1
REMARK SMILES IDX 22 1 21 2 20 3 18 4 19 5 4 7 3 8 2 9 1 10 5 11 6 12 7 13
REMARK SMILES IDX 8 14 16 15 9 16 11 17 17 18 10 19 12 20 14 21 13 22 15 23
REMARK SMILES IDX 23 24 24 25 25 26 26 27 27 29 28 30 29 31 75 32 30 33 74 34
REMARK SMILES IDX 31 35 32 36 33 37 68 38 34 39 73 40 67 41 69 42 35 43 72 44
REMARK SMILES IDX 66 45 65 46 36 48 58 49 43 50 57 51 44 52 47 53 56 54 70 55
REMARK SMILES IDX 45 56 46 57 55 59 71 60 48 61 37 62 38 63 42 64 39 65 41 66
REMARK SMILES IDX 40 67 59 68 60 69 64 70 61 71 63 72 62 73 49 74 50 75 54 76
REMARK SMILES IDX 51 77 53 78 52 79
REMARK H PARENT 20 6 25 28 69 47 47 58
REMARK Flexibility Score: inf
ROOT
ATOM      1  C   UNL     1       0.218   1.329  -0.997  1.00  0.00     0.023 C 
ENDROOT
BRANCH   1   2
ATOM      2  C   UNL     1       1.649   0.972  -0.569  1.00  0.00     0.116 C 
BRANCH   2   3
ATOM      3  N   UNL     1       1.901   1.209   0.830  1.00  0.00    -0.354 N 
ATOM      4  C   UNL     1       2.335   0.395   1.822  1.00  0.00     0.249 C 
ATOM      5  O   UNL     1       2.906   0.996   2.746  1.00  0.00    -0.272 OA
ATOM      6  H   UNL     1       1.725   2.134   1.118  1.00  0.00     0.163 HD
BRANCH   4   7
ATOM      7  C   UNL     1       2.194  -1.166   1.896  1.00  0.00     0.208 C 
BRANCH   7   8
ATOM      8  O   UNL     1       3.398  -1.941   1.829  1.00  0.00    -0.369 OA
BRANCH   8   9
ATOM      9  C   UNL     1       3.751  -2.594   0.631  1.00  0.00     0.158 C 
ATOM     10  C   UNL     1       4.479  -1.663  -0.319  1.00  0.00     0.035 C 
ENDBRANCH   8   9
ENDBRANCH   7   8
BRANCH   7  11
ATOM     11  C   UNL     1       0.862  -1.946   1.705  1.00  0.00     0.066 C 
BRANCH  11  12
ATOM     12  C   UNL     1      -0.089  -1.823   0.508  1.00  0.00     0.153 C 
BRANCH  12  13
ATOM     13  N   UNL     1       0.273  -2.484  -0.746  1.00  0.00    -0.210 N 
ATOM     14  N   UNL     1       1.478  -2.104  -1.305  1.00  0.00    -0.062 NA
ATOM     15  C   UNL     1      -0.637  -3.343  -1.402  1.00  0.00     0.280 A 
ATOM     16  N   UNL     1       1.920  -2.606  -2.365  1.00  0.00    -0.111 NA
ATOM     17  C   UNL     1      -0.096  -3.908  -2.603  1.00  0.00     0.108 A 
ATOM     18  O   UNL     1      -1.764  -3.609  -0.999  1.00  0.00    -0.267 OA
ATOM     19  C   UNL     1       1.153  -3.515  -2.979  1.00  0.00     0.187 A 
ATOM     20  C   UNL     1      -0.495  -4.831  -3.575  1.00  0.00     0.151 A 
ATOM     21  N   UNL     1       1.485  -4.254  -4.073  1.00  0.00    -0.249 N 
ATOM     22  N   UNL     1       0.474  -5.060  -4.476  1.00  0.00    -0.179 NA
ATOM     23  C   UNL     1       2.767  -4.311  -4.732  1.00  0.00     0.176 C 
ENDBRANCH  12  13
ENDBRANCH  11  12
ENDBRANCH   7  11
ENDBRANCH   4   7
ENDBRANCH   2   3
ENDBRANCH   1   2
BRANCH   1  24
ATOM     24  C   UNL     1       0.129   2.375  -2.113  1.00  0.00     0.023 C 
BRANCH  24  25
ATOM     25  C   UNL     1       0.700   1.883  -3.435  1.00  0.00     0.116 C 
BRANCH  25  26
ATOM     26  N   UNL     1      -0.163   0.959  -4.170  1.00  0.00    -0.352 N 
ATOM     27  C   UNL     1       0.097   0.412  -5.427  1.00  0.00     0.251 C 
ATOM     28  H   UNL     1      -1.008   0.698  -3.736  1.00  0.00     0.163 HD
ATOM     29  O   UNL     1      -0.760  -0.088  -6.110  1.00  0.00    -0.269 OA
BRANCH  27  30
ATOM     30  C   UNL     1       1.501   0.478  -5.889  1.00  0.00     0.039 A 
ATOM     31  C   UNL     1       1.854   1.081  -7.097  1.00  0.00     0.014 A 
ATOM     32  C   UNL     1       2.468   0.075  -4.978  1.00  0.00     0.014 A 
ATOM     33  C   UNL     1       3.200   1.375  -7.331  1.00  0.00     0.010 A 
ATOM     34  C   UNL     1       3.752   0.533  -5.131  1.00  0.00     0.010 A 
ATOM     35  C   UNL     1       4.151   1.129  -6.328  1.00  0.00    -0.014 A 
BRANCH  35  36
ATOM     36  C   UNL     1       5.554   1.516  -6.491  1.00  0.00     0.031 A 
ATOM     37  C   UNL     1       5.852   2.903  -6.962  1.00  0.00     0.074 A 
ATOM     38  C   UNL     1       6.578   0.746  -6.060  1.00  0.00     0.049 A 
ATOM     39  N   UNL     1       6.455   3.253  -8.053  1.00  0.00    -0.248 NA
ATOM     40  C   UNL     1       5.416   4.040  -6.137  1.00  0.00     0.031 C 
ATOM     41  C   UNL     1       6.542  -0.514  -5.302  1.00  0.00     0.029 A 
ATOM     42  N   UNL     1       7.910   1.013  -6.120  1.00  0.00    -0.354 N 
ATOM     43  C   UNL     1       6.603   4.639  -8.004  1.00  0.00     0.074 A 
ATOM     44  C   UNL     1       5.865   5.080  -6.845  1.00  0.00     0.031 C 
ATOM     45  C   UNL     1       7.752  -0.750  -4.753  1.00  0.00     0.029 A 
ATOM     46  C   UNL     1       8.687   0.208  -5.303  1.00  0.00     0.049 A 
ATOM     47  H   UNL     1       8.289   1.718  -6.693  1.00  0.00     0.167 HD
ATOM     48  C   UNL     1       7.454   5.315  -8.828  1.00  0.00     0.031 A 
ATOM     49  C   UNL     1      10.017   0.315  -5.092  1.00  0.00     0.031 A 
ATOM     50  C   UNL     1       7.918   4.504  -9.920  1.00  0.00     0.049 A 
ATOM     51  C   UNL     1      10.584   1.050  -6.242  1.00  0.00     0.074 A 
ATOM     52  C   UNL     1       7.319   3.858 -10.983  1.00  0.00     0.029 A 
ATOM     53  N   UNL     1       9.174   3.957  -9.817  1.00  0.00    -0.354 N 
ATOM     54  N   UNL     1      10.595   0.580  -7.456  1.00  0.00    -0.248 NA
ATOM     55  C   UNL     1      10.774   2.484  -6.123  1.00  0.00     0.031 C 
ATOM     56  C   UNL     1       8.036   2.630 -11.111  1.00  0.00     0.029 A 
ATOM     57  C   UNL     1       9.051   2.632 -10.151  1.00  0.00     0.049 A 
ATOM     58  H   UNL     1      10.000   4.423  -9.554  1.00  0.00     0.167 HD
ATOM     59  C   UNL     1      10.366   1.682  -8.265  1.00  0.00     0.074 A 
ATOM     60  C   UNL     1      10.604   2.837  -7.401  1.00  0.00     0.031 C 
ATOM     61  C   UNL     1       9.742   1.557  -9.474  1.00  0.00     0.031 A 
BRANCH  48  62
ATOM     62  C   UNL     1       8.126   6.620  -8.486  1.00  0.00    -0.014 A 
ATOM     63  C   UNL     1       8.827   7.319  -9.487  1.00  0.00     0.009 A 
ATOM     64  C   UNL     1       8.317   7.050  -7.160  1.00  0.00     0.009 A 
ATOM     65  C   UNL     1       9.707   8.364  -9.172  1.00  0.00     0.001 A 
ATOM     66  C   UNL     1       9.165   8.118  -6.845  1.00  0.00     0.001 A 
ATOM     67  C   UNL     1       9.877   8.760  -7.849  1.00  0.00     0.000 A 
ENDBRANCH  48  62
BRANCH  49  68
ATOM     68  C   UNL     1      10.758   0.076  -3.841  1.00  0.00    -0.014 A 
ATOM     69  C   UNL     1      12.149  -0.085  -3.860  1.00  0.00     0.009 A 
ATOM     70  C   UNL     1      10.132   0.294  -2.598  1.00  0.00     0.009 A 
ATOM     71  C   UNL     1      12.898   0.029  -2.683  1.00  0.00     0.001 A 
ATOM     72  C   UNL     1      10.880   0.404  -1.423  1.00  0.00     0.001 A 
ATOM     73  C   UNL     1      12.265   0.292  -1.469  1.00  0.00     0.000 A 
ENDBRANCH  49  68
BRANCH  61  74
ATOM     74  C   UNL     1       9.488   0.163  -9.999  1.00  0.00    -0.014 A 
ATOM     75  C   UNL     1       8.657  -0.757  -9.334  1.00  0.00     0.009 A 
ATOM     76  C   UNL     1       9.957  -0.173 -11.276  1.00  0.00     0.009 A 
ATOM     77  C   UNL     1       8.329  -1.986  -9.917  1.00  0.00     0.001 A 
ATOM     78  C   UNL     1       9.615  -1.393 -11.867  1.00  0.00     0.001 A 
ATOM     79  C   UNL     1       8.805  -2.300 -11.187  1.00  0.00     0.000 A 
ENDBRANCH  61  74
ENDBRANCH  35  36
ENDBRANCH  27  30
ENDBRANCH  25  26
ENDBRANCH  24  25
ENDBRANCH   1  24
TORSDOF 16
