REMARK SMILES C[NH2+][C@@]1(C(=O)NCCCCNC(=O)c2ccc(-c3c4nc(c(-c5ccccc5)c5ccc([nH]5)c(-c5ccccc5)c5nc(c(-c6ccccc6)c6ccc3[nH]6)C=C5)C=C4)cc2)CC[C@H](Oc2cc(C)cc(C)c2C)C1
REMARK SMILES IDX 8 1 7 2 6 3 4 4 5 5 3 7 62 8 75 9 63 10 64 11 2 12 1 13
REMARK SMILES IDX 65 16 66 17 67 18 73 19 68 20 71 21 74 22 69 23 70 24 72 25
REMARK SMILES IDX 9 26 10 27 11 28 12 29 13 31 14 32 15 33 61 34 16 35 60 36
REMARK SMILES IDX 17 37 18 38 19 39 54 40 20 41 59 42 53 43 55 44 21 45 58 46
REMARK SMILES IDX 52 47 51 48 22 50 44 51 29 52 43 53 30 54 33 55 42 56 56 57
REMARK SMILES IDX 31 58 32 59 41 61 57 62 34 63 23 64 24 65 28 66 25 67 27 68
REMARK SMILES IDX 26 69 45 70 46 71 50 72 47 73 49 74 48 75 35 76 36 77 40 78
REMARK SMILES IDX 37 79 39 80 38 81
REMARK H PARENT 6 6 2 14 2 15 11 30 55 49 33 60
REMARK Flexibility Score: inf
ROOT
ATOM      1  C   UNL     1      -4.376  -0.452   0.683  1.00  0.00     0.023 C 
ENDROOT
BRANCH   1   2
ATOM      2  C   UNL     1      -3.686   0.818   0.228  1.00  0.00     0.116 C 
BRANCH   2   3
ATOM      3  N   UNL     1      -2.346   0.873   0.733  1.00  0.00    -0.351 N 
ATOM      4  C   UNL     1      -1.157   0.542   0.176  1.00  0.00     0.281 C 
ATOM      5  O   UNL     1      -0.248   0.470   1.014  1.00  0.00    -0.268 OA
ATOM      6  H   UNL     1      -2.278   1.213   1.654  1.00  0.00     0.163 HD
BRANCH   4   7
ATOM      7  C   UNL     1      -0.912   0.284  -1.376  1.00  0.00     0.179 C 
ATOM      8  C   UNL     1      -1.558   1.350  -2.277  1.00  0.00     0.083 C 
ATOM      9  C   UNL     1      -1.450  -1.062  -1.907  1.00  0.00     0.124 C 
ATOM     10  C   UNL     1      -2.702   0.708  -3.052  1.00  0.00     0.052 C 
ATOM     11  C   UNL     1      -2.654  -0.807  -2.848  1.00  0.00     0.180 C 
BRANCH   7  12
ATOM     12  N   UNL     1       0.555   0.416  -1.674  1.00  0.00    -0.336 N 
ATOM     13  C   UNL     1       1.456  -0.433  -0.898  1.00  0.00     0.331 C 
ATOM     14  H   UNL     1       0.693   0.194  -2.660  1.00  0.00     0.346 HD
ATOM     15  H   UNL     1       0.798   1.373  -1.417  1.00  0.00     0.346 HD
ENDBRANCH   7  12
BRANCH  11  16
ATOM     16  O   UNL     1      -3.771  -1.488  -2.266  1.00  0.00    -0.490 OA
BRANCH  16  17
ATOM     17  C   UNL     1      -5.094  -1.338  -2.574  1.00  0.00     0.123 A 
ATOM     18  C   UNL     1      -5.621  -0.335  -3.383  1.00  0.00     0.050 A 
ATOM     19  C   UNL     1      -5.978  -2.176  -1.842  1.00  0.00    -0.006 A 
ATOM     20  C   UNL     1      -6.984  -0.011  -3.321  1.00  0.00    -0.047 A 
ATOM     21  C   UNL     1      -7.348  -1.845  -1.761  1.00  0.00    -0.044 A 
ATOM     22  C   UNL     1      -5.445  -3.354  -1.059  1.00  0.00     0.049 C 
ATOM     23  C   UNL     1      -7.508   1.195  -4.045  1.00  0.00     0.044 C 
ATOM     24  C   UNL     1      -7.832  -0.762  -2.505  1.00  0.00     0.007 A 
ATOM     25  C   UNL     1      -8.325  -2.578  -0.878  1.00  0.00     0.045 C 
ENDBRANCH  16  17
ENDBRANCH  11  16
ENDBRANCH   4   7
ENDBRANCH   2   3
ENDBRANCH   1   2
BRANCH   1  26
ATOM     26  C   UNL     1      -5.112  -0.354   2.002  1.00  0.00     0.023 C 
BRANCH  26  27
ATOM     27  C   UNL     1      -6.158   0.751   2.045  1.00  0.00     0.116 C 
BRANCH  27  28
ATOM     28  N   UNL     1      -7.047   0.822   0.884  1.00  0.00    -0.352 N 
ATOM     29  C   UNL     1      -8.402   1.079   0.857  1.00  0.00     0.251 C 
ATOM     30  H   UNL     1      -6.623   0.664   0.010  1.00  0.00     0.163 HD
ATOM     31  O   UNL     1      -9.036   1.139  -0.180  1.00  0.00    -0.269 OA
BRANCH  29  32
ATOM     32  C   UNL     1      -9.087   1.224   2.150  1.00  0.00     0.039 A 
ATOM     33  C   UNL     1     -10.126   0.344   2.461  1.00  0.00     0.014 A 
ATOM     34  C   UNL     1      -8.582   2.117   3.094  1.00  0.00     0.014 A 
ATOM     35  C   UNL     1     -10.607   0.301   3.767  1.00  0.00     0.010 A 
ATOM     36  C   UNL     1      -8.978   1.985   4.412  1.00  0.00     0.010 A 
ATOM     37  C   UNL     1     -10.001   1.086   4.759  1.00  0.00    -0.014 A 
BRANCH  37  38
ATOM     38  C   UNL     1     -10.444   1.055   6.170  1.00  0.00     0.031 A 
ATOM     39  C   UNL     1     -10.940   2.332   6.789  1.00  0.00     0.074 A 
ATOM     40  C   UNL     1     -10.297  -0.059   6.911  1.00  0.00     0.049 A 
ATOM     41  N   UNL     1     -11.170   2.610   8.044  1.00  0.00    -0.248 NA
ATOM     42  C   UNL     1     -11.144   3.468   5.872  1.00  0.00     0.031 C 
ATOM     43  C   UNL     1      -9.789  -1.347   6.432  1.00  0.00     0.029 A 
ATOM     44  N   UNL     1     -10.549  -0.277   8.241  1.00  0.00    -0.354 N 
ATOM     45  C   UNL     1     -11.482   3.963   8.071  1.00  0.00     0.074 A 
ATOM     46  C   UNL     1     -11.359   4.460   6.720  1.00  0.00     0.031 C 
ATOM     47  C   UNL     1      -9.794  -2.227   7.448  1.00  0.00     0.029 A 
ATOM     48  C   UNL     1     -10.259  -1.554   8.655  1.00  0.00     0.049 A 
ATOM     49  H   UNL     1     -10.905   0.417   8.842  1.00  0.00     0.167 HD
ATOM     50  C   UNL     1     -11.861   4.721   9.125  1.00  0.00     0.031 A 
ATOM     51  C   UNL     1     -10.351  -2.109   9.878  1.00  0.00     0.031 A 
ATOM     52  C   UNL     1     -12.044   4.202  10.450  1.00  0.00     0.049 A 
ATOM     53  C   UNL     1     -10.829  -1.262  11.024  1.00  0.00     0.074 A 
ATOM     54  C   UNL     1     -12.499   4.856  11.579  1.00  0.00     0.029 A 
ATOM     55  N   UNL     1     -11.799   2.886  10.815  1.00  0.00    -0.354 N 
ATOM     56  N   UNL     1     -11.158   0.008  11.032  1.00  0.00    -0.248 NA
ATOM     57  C   UNL     1     -10.959  -1.927  12.328  1.00  0.00     0.031 C 
ATOM     58  C   UNL     1     -12.506   3.940  12.637  1.00  0.00     0.029 A 
ATOM     59  C   UNL     1     -12.094   2.708  12.154  1.00  0.00     0.049 A 
ATOM     60  H   UNL     1     -11.466   2.184  10.210  1.00  0.00     0.167 HD
ATOM     61  C   UNL     1     -11.558   0.288  12.332  1.00  0.00     0.074 A 
ATOM     62  C   UNL     1     -11.444  -0.949  13.080  1.00  0.00     0.031 C 
ATOM     63  C   UNL     1     -11.980   1.461  12.864  1.00  0.00     0.031 A 
BRANCH  50  64
ATOM     64  C   UNL     1     -12.103   6.181   8.868  1.00  0.00    -0.014 A 
ATOM     65  C   UNL     1     -13.191   6.615   8.092  1.00  0.00     0.009 A 
ATOM     66  C   UNL     1     -11.225   7.137   9.400  1.00  0.00     0.009 A 
ATOM     67  C   UNL     1     -13.364   7.972   7.812  1.00  0.00     0.001 A 
ATOM     68  C   UNL     1     -11.420   8.496   9.146  1.00  0.00     0.001 A 
ATOM     69  C   UNL     1     -12.481   8.911   8.342  1.00  0.00     0.000 A 
ENDBRANCH  50  64
BRANCH  51  70
ATOM     70  C   UNL     1     -10.012  -3.542  10.078  1.00  0.00    -0.014 A 
ATOM     71  C   UNL     1     -11.029  -4.482  10.310  1.00  0.00     0.009 A 
ATOM     72  C   UNL     1      -8.680  -3.981  10.041  1.00  0.00     0.009 A 
ATOM     73  C   UNL     1     -10.717  -5.825  10.529  1.00  0.00     0.001 A 
ATOM     74  C   UNL     1      -8.373  -5.330  10.234  1.00  0.00     0.001 A 
ATOM     75  C   UNL     1      -9.390  -6.249  10.487  1.00  0.00     0.000 A 
ENDBRANCH  51  70
BRANCH  63  76
ATOM     76  C   UNL     1     -12.389   1.448  14.307  1.00  0.00    -0.014 A 
ATOM     77  C   UNL     1     -11.433   1.390  15.332  1.00  0.00     0.009 A 
ATOM     78  C   UNL     1     -13.748   1.547  14.641  1.00  0.00     0.009 A 
ATOM     79  C   UNL     1     -11.836   1.403  16.668  1.00  0.00     0.001 A 
ATOM     80  C   UNL     1     -14.145   1.586  15.977  1.00  0.00     0.001 A 
ATOM     81  C   UNL     1     -13.190   1.506  16.989  1.00  0.00     0.000 A 
ENDBRANCH  63  76
ENDBRANCH  37  38
ENDBRANCH  29  32
ENDBRANCH  27  28
ENDBRANCH  26  27
ENDBRANCH   1  26
TORSDOF 14
