REMARK SMILES Cc1c(C(=O)NCCCCNC(=O)c2ccc(-c3c4nc(c(-c5ccccc5)c5ccc([nH]5)c(-c5ccccc5)c5nc(c(-c6ccccc6)c6ccc3[nH]6)C=C5)C=C4)cc2)sc2ncnc(NCc3cn4c(n3)SCC4)c12
REMARK SMILES IDX 8 1 7 2 6 3 4 4 5 5 3 7 1 8 2 9 78 10 62 11 63 12 67 13
REMARK SMILES IDX 64 14 66 15 65 16 68 17 69 19 70 20 71 21 74 22 72 23 73 24
REMARK SMILES IDX 77 25 75 26 76 27 9 28 10 29 11 30 12 31 13 33 14 34 15 35
REMARK SMILES IDX 61 36 16 37 60 38 17 39 18 40 19 41 54 42 20 43 59 44 53 45
REMARK SMILES IDX 55 46 21 47 58 48 52 49 51 50 22 52 44 53 29 54 43 55 30 56
REMARK SMILES IDX 33 57 42 58 56 59 31 60 32 61 41 63 57 64 34 65 23 66 24 67
REMARK SMILES IDX 28 68 25 69 27 70 26 71 45 72 46 73 50 74 47 75 49 76 48 77
REMARK SMILES IDX 35 78 36 79 40 80 37 81 39 82 38 83
REMARK H PARENT 6 6 68 18 11 32 55 51 33 62
REMARK Flexibility Score: inf
ROOT
ATOM      1  C   UNL     1       2.959   6.011   0.583  1.00  0.00     0.023 C 
ENDROOT
BRANCH   1   2
ATOM      2  C   UNL     1       1.742   5.621  -0.251  1.00  0.00     0.116 C 
BRANCH   2   3
ATOM      3  N   UNL     1       1.929   4.369  -0.946  1.00  0.00    -0.351 N 
ATOM      4  C   UNL     1       1.602   3.067  -0.668  1.00  0.00     0.261 C 
ATOM      5  O   UNL     1       1.932   2.291  -1.574  1.00  0.00    -0.268 OA
ATOM      6  H   UNL     1       2.394   4.473  -1.807  1.00  0.00     0.163 HD
BRANCH   4   7
ATOM      7  C   UNL     1       0.909   2.605   0.543  1.00  0.00     0.098 A 
ATOM      8  C   UNL     1       1.133   0.154   0.038  1.00  0.00     0.047 C 
ATOM      9  C   UNL     1       0.584   1.274   0.853  1.00  0.00    -0.014 A 
ATOM     10  C   UNL     1      -0.322   1.158   2.008  1.00  0.00     0.057 A 
ATOM     11  S   UNL     1       0.432   3.622   1.811  1.00  0.00    -0.110 S 
ATOM     12  C   UNL     1      -0.422   2.409   2.606  1.00  0.00     0.129 A 
ATOM     13  C   UNL     1      -1.086   0.148   2.661  1.00  0.00     0.138 A 
ATOM     14  N   UNL     1      -1.102   2.757   3.708  1.00  0.00    -0.225 NA
ATOM     15  N   UNL     1      -1.780   0.490   3.779  1.00  0.00    -0.219 NA
ATOM     16  C   UNL     1      -1.753   1.739   4.241  1.00  0.00     0.225 A 
BRANCH  13  17
ATOM     17  N   UNL     1      -1.342  -1.153   2.365  1.00  0.00    -0.364 N 
ATOM     18  H   UNL     1      -2.055  -1.528   2.931  1.00  0.00     0.162 HD
BRANCH  17  19
ATOM     19  C   UNL     1      -0.835  -2.115   1.435  1.00  0.00     0.172 C 
BRANCH  19  20
ATOM     20  C   UNL     1       0.211  -3.050   1.967  1.00  0.00     0.079 A 
ATOM     21  C   UNL     1       1.597  -3.001   1.864  1.00  0.00     0.113 A 
ATOM     22  N   UNL     1      -0.191  -4.228   2.592  1.00  0.00    -0.226 NA
ATOM     23  N   UNL     1       2.006  -4.196   2.347  1.00  0.00    -0.325 N 
ATOM     24  C   UNL     1       0.918  -4.883   2.781  1.00  0.00     0.168 A 
ATOM     25  C   UNL     1       3.216  -4.962   2.128  1.00  0.00     0.135 C 
ATOM     26  S   UNL     1       1.244  -6.563   2.986  1.00  0.00    -0.086 SA
ATOM     27  C   UNL     1       2.732  -6.397   1.914  1.00  0.00     0.100 C 
ENDBRANCH  19  20
ENDBRANCH  17  19
ENDBRANCH  13  17
ENDBRANCH   4   7
ENDBRANCH   2   3
ENDBRANCH   1   2
BRANCH   1  28
ATOM     28  C   UNL     1       4.173   6.483  -0.232  1.00  0.00     0.023 C 
BRANCH  28  29
ATOM     29  C   UNL     1       3.910   7.658  -1.171  1.00  0.00     0.116 C 
BRANCH  29  30
ATOM     30  N   UNL     1       3.344   8.821  -0.491  1.00  0.00    -0.352 N 
ATOM     31  C   UNL     1       2.751   9.937  -1.052  1.00  0.00     0.251 C 
ATOM     32  H   UNL     1       3.392   8.809   0.492  1.00  0.00     0.163 HD
ATOM     33  O   UNL     1       2.658  10.985  -0.430  1.00  0.00    -0.269 OA
BRANCH  31  34
ATOM     34  C   UNL     1       2.213   9.836  -2.420  1.00  0.00     0.039 A 
ATOM     35  C   UNL     1       2.447  10.826  -3.372  1.00  0.00     0.014 A 
ATOM     36  C   UNL     1       1.480   8.700  -2.746  1.00  0.00     0.014 A 
ATOM     37  C   UNL     1       2.017  10.608  -4.679  1.00  0.00     0.010 A 
ATOM     38  C   UNL     1       1.186   8.416  -4.056  1.00  0.00     0.010 A 
ATOM     39  C   UNL     1       1.413   9.384  -5.024  1.00  0.00    -0.014 A 
BRANCH  39  40
ATOM     40  C   UNL     1       1.106   9.074  -6.415  1.00  0.00     0.031 A 
ATOM     41  C   UNL     1       2.230   9.284  -7.366  1.00  0.00     0.074 A 
ATOM     42  C   UNL     1      -0.041   8.497  -6.831  1.00  0.00     0.049 A 
ATOM     43  N   UNL     1       2.328  10.220  -8.248  1.00  0.00    -0.248 NA
ATOM     44  C   UNL     1       3.432   8.445  -7.247  1.00  0.00     0.031 C 
ATOM     45  C   UNL     1      -1.151   7.960  -6.036  1.00  0.00     0.029 A 
ATOM     46  N   UNL     1      -0.413   8.191  -8.104  1.00  0.00    -0.354 N 
ATOM     47  C   UNL     1       3.518   9.994  -8.930  1.00  0.00     0.074 A 
ATOM     48  C   UNL     1       4.222   8.983  -8.180  1.00  0.00     0.031 C 
ATOM     49  C   UNL     1      -1.949   7.201  -6.822  1.00  0.00     0.029 A 
ATOM     50  C   UNL     1      -1.518   7.356  -8.198  1.00  0.00     0.049 A 
ATOM     51  H   UNL     1       0.063   8.535  -8.894  1.00  0.00     0.167 HD
ATOM     52  C   UNL     1       3.721  10.508 -10.176  1.00  0.00     0.031 A 
ATOM     53  C   UNL     1      -2.044   6.836  -9.332  1.00  0.00     0.031 A 
ATOM     54  C   UNL     1       2.745  11.523 -10.492  1.00  0.00     0.049 A 
ATOM     55  C   UNL     1      -1.612   7.702 -10.450  1.00  0.00     0.074 A 
ATOM     56  C   UNL     1       2.394  12.742  -9.947  1.00  0.00     0.029 A 
ATOM     57  N   UNL     1       1.684  11.143 -11.280  1.00  0.00    -0.354 N 
ATOM     58  N   UNL     1      -2.021   8.930 -10.596  1.00  0.00    -0.248 NA
ATOM     59  C   UNL     1      -0.389   7.361 -11.157  1.00  0.00     0.031 C 
ATOM     60  C   UNL     1       0.971  12.785 -10.038  1.00  0.00     0.029 A 
ATOM     61  C   UNL     1       0.544  11.629 -10.696  1.00  0.00     0.049 A 
ATOM     62  H   UNL     1       1.734  10.617 -12.111  1.00  0.00     0.167 HD
ATOM     63  C   UNL     1      -0.898   9.623 -11.020  1.00  0.00     0.074 A 
ATOM     64  C   UNL     1       0.042   8.590 -11.456  1.00  0.00     0.031 C 
ATOM     65  C   UNL     1      -0.729  10.944 -10.713  1.00  0.00     0.031 A 
BRANCH  52  66
ATOM     66  C   UNL     1       4.516   9.819 -11.257  1.00  0.00    -0.014 A 
ATOM     67  C   UNL     1       4.614  10.444 -12.516  1.00  0.00     0.009 A 
ATOM     68  C   UNL     1       4.914   8.473 -11.190  1.00  0.00     0.009 A 
ATOM     69  C   UNL     1       4.989   9.730 -13.660  1.00  0.00     0.001 A 
ATOM     70  C   UNL     1       5.329   7.767 -12.323  1.00  0.00     0.001 A 
ATOM     71  C   UNL     1       5.333   8.386 -13.564  1.00  0.00     0.000 A 
ENDBRANCH  52  66
BRANCH  53  72
ATOM     72  C   UNL     1      -2.693   5.528  -9.552  1.00  0.00    -0.014 A 
ATOM     73  C   UNL     1      -3.453   5.292 -10.708  1.00  0.00     0.009 A 
ATOM     74  C   UNL     1      -2.317   4.418  -8.774  1.00  0.00     0.009 A 
ATOM     75  C   UNL     1      -3.776   3.987 -11.102  1.00  0.00     0.001 A 
ATOM     76  C   UNL     1      -2.641   3.115  -9.168  1.00  0.00     0.001 A 
ATOM     77  C   UNL     1      -3.354   2.899 -10.342  1.00  0.00     0.000 A 
ENDBRANCH  53  72
BRANCH  65  78
ATOM     78  C   UNL     1      -1.891  11.682 -10.092  1.00  0.00    -0.014 A 
ATOM     79  C   UNL     1      -2.443  11.335  -8.845  1.00  0.00     0.009 A 
ATOM     80  C   UNL     1      -2.327  12.867 -10.702  1.00  0.00     0.009 A 
ATOM     81  C   UNL     1      -3.414  12.141  -8.240  1.00  0.00     0.001 A 
ATOM     82  C   UNL     1      -3.280  13.682 -10.089  1.00  0.00     0.001 A 
ATOM     83  C   UNL     1      -3.826  13.318  -8.860  1.00  0.00     0.000 A 
ENDBRANCH  65  78
ENDBRANCH  39  40
ENDBRANCH  31  34
ENDBRANCH  29  30
ENDBRANCH  28  29
ENDBRANCH   1  28
TORSDOF 14
