REMARK SMILES O=C(NCCCCNC(=O)[C@@H]1CCC[N@@H+](Cc2cccc3ccccc23)C1)c1ccc(-c2c3nc(c(-c4ccccc4)c4ccc([nH]4)c(-c4ccccc4)c4nc(c(-c5ccccc5)c5ccc2[nH]5)C=C4)C=C3)cc1
REMARK SMILES IDX 5 1 4 2 3 3 1 4 2 5 28 7 29 8 75 9 30 10 74 11 31 12 32 13
REMARK SMILES IDX 33 14 68 15 34 16 73 17 67 18 69 19 35 20 72 21 66 22 65 23
REMARK SMILES IDX 36 25 58 26 43 27 57 28 44 29 47 30 56 31 70 32 45 33 46 34
REMARK SMILES IDX 55 36 71 37 48 38 37 39 38 40 42 41 39 42 41 43 40 44 59 45
REMARK SMILES IDX 60 46 64 47 61 48 63 49 62 50 49 51 50 52 54 53 51 54 53 55
REMARK SMILES IDX 52 56 6 57 7 58 8 59 9 60 10 62 11 63 12 64 27 65 13 66
REMARK SMILES IDX 15 67 14 68 16 70 17 71 18 72 26 73 19 74 21 75 25 76 20 77
REMARK SMILES IDX 22 78 24 79 23 80
REMARK H PARENT 3 6 69 24 47 35 8 61 15 69
REMARK Flexibility Score: inf
ROOT
ATOM      1  C   UNL     1       4.990  -2.187  -1.131  1.00  0.00     0.023 C 
ENDROOT
BRANCH   1   2
ATOM      2  C   UNL     1       4.532  -0.830  -0.627  1.00  0.00     0.116 C 
BRANCH   2   3
ATOM      3  N   UNL     1       3.102  -0.587  -0.766  1.00  0.00    -0.352 N 
ATOM      4  O   UNL     1       1.081   0.213  -0.117  1.00  0.00    -0.269 OA
ATOM      5  C   UNL     1       2.281   0.124   0.083  1.00  0.00     0.251 C 
ATOM      6  H   UNL     1       2.671  -0.977  -1.561  1.00  0.00     0.163 HD
BRANCH   5   7
ATOM      7  C   UNL     1       2.896   0.734   1.278  1.00  0.00     0.039 A 
ATOM      8  C   UNL     1       4.041   1.519   1.139  1.00  0.00     0.014 A 
ATOM      9  C   UNL     1       2.403   0.402   2.541  1.00  0.00     0.014 A 
ATOM     10  C   UNL     1       4.800   1.810   2.260  1.00  0.00     0.010 A 
ATOM     11  C   UNL     1       3.117   0.789   3.677  1.00  0.00     0.010 A 
ATOM     12  C   UNL     1       4.346   1.452   3.542  1.00  0.00    -0.014 A 
BRANCH  12  13
ATOM     13  C   UNL     1       5.172   1.818   4.718  1.00  0.00     0.031 A 
ATOM     14  C   UNL     1       5.793   0.769   5.599  1.00  0.00     0.074 A 
ATOM     15  C   UNL     1       5.414   3.123   4.942  1.00  0.00     0.049 A 
ATOM     16  N   UNL     1       6.579   0.930   6.635  1.00  0.00    -0.248 NA
ATOM     17  C   UNL     1       5.492  -0.637   5.289  1.00  0.00     0.031 C 
ATOM     18  C   UNL     1       4.870   4.228   4.146  1.00  0.00     0.029 A 
ATOM     19  N   UNL     1       6.211   3.741   5.868  1.00  0.00    -0.354 N 
ATOM     20  C   UNL     1       6.831  -0.345   7.124  1.00  0.00     0.074 A 
ATOM     21  C   UNL     1       6.113  -1.272   6.275  1.00  0.00     0.031 C 
ATOM     22  C   UNL     1       5.419   5.378   4.560  1.00  0.00     0.029 A 
ATOM     23  C   UNL     1       6.288   5.101   5.697  1.00  0.00     0.049 A 
ATOM     24  H   UNL     1       6.682   3.258   6.585  1.00  0.00     0.167 HD
ATOM     25  C   UNL     1       7.588  -0.708   8.188  1.00  0.00     0.031 A 
ATOM     26  C   UNL     1       6.976   6.030   6.382  1.00  0.00     0.031 A 
ATOM     27  C   UNL     1       8.320   0.216   9.015  1.00  0.00     0.049 A 
ATOM     28  C   UNL     1       7.807   5.600   7.551  1.00  0.00     0.074 A 
ATOM     29  C   UNL     1       9.139  -0.057  10.098  1.00  0.00     0.029 A 
ATOM     30  N   UNL     1       8.327   1.591   8.845  1.00  0.00    -0.354 N 
ATOM     31  N   UNL     1       8.030   4.390   8.001  1.00  0.00    -0.248 NA
ATOM     32  C   UNL     1       8.469   6.665   8.313  1.00  0.00     0.031 C 
ATOM     33  C   UNL     1       9.611   1.159  10.607  1.00  0.00     0.029 A 
ATOM     34  C   UNL     1       9.119   2.184   9.815  1.00  0.00     0.049 A 
ATOM     35  H   UNL     1       7.841   2.076   8.140  1.00  0.00     0.167 HD
ATOM     36  C   UNL     1       8.859   4.546   9.101  1.00  0.00     0.074 A 
ATOM     37  C   UNL     1       9.121   5.966   9.231  1.00  0.00     0.031 C 
ATOM     38  C   UNL     1       9.354   3.599   9.934  1.00  0.00     0.031 A 
BRANCH  25  39
ATOM     39  C   UNL     1       7.631  -2.167   8.546  1.00  0.00    -0.014 A 
ATOM     40  C   UNL     1       8.374  -3.088   7.792  1.00  0.00     0.009 A 
ATOM     41  C   UNL     1       6.948  -2.619   9.687  1.00  0.00     0.009 A 
ATOM     42  C   UNL     1       8.409  -4.436   8.158  1.00  0.00     0.001 A 
ATOM     43  C   UNL     1       7.003  -3.963  10.063  1.00  0.00     0.001 A 
ATOM     44  C   UNL     1       7.727  -4.872   9.294  1.00  0.00     0.000 A 
ENDBRANCH  25  39
BRANCH  26  45
ATOM     45  C   UNL     1       6.894   7.453   5.974  1.00  0.00    -0.014 A 
ATOM     46  C   UNL     1       7.987   8.080   5.360  1.00  0.00     0.009 A 
ATOM     47  C   UNL     1       5.705   8.178   6.155  1.00  0.00     0.009 A 
ATOM     48  C   UNL     1       7.895   9.410   4.944  1.00  0.00     0.001 A 
ATOM     49  C   UNL     1       5.607   9.498   5.713  1.00  0.00     0.001 A 
ATOM     50  C   UNL     1       6.703  10.114   5.113  1.00  0.00     0.000 A 
ENDBRANCH  26  45
BRANCH  38  51
ATOM     51  C   UNL     1      10.235   4.081  11.047  1.00  0.00    -0.014 A 
ATOM     52  C   UNL     1       9.690   4.717  12.174  1.00  0.00     0.009 A 
ATOM     53  C   UNL     1      11.623   3.894  10.969  1.00  0.00     0.009 A 
ATOM     54  C   UNL     1      10.525   5.189  13.187  1.00  0.00     0.001 A 
ATOM     55  C   UNL     1      12.453   4.348  11.995  1.00  0.00     0.001 A 
ATOM     56  C   UNL     1      11.905   5.003  13.097  1.00  0.00     0.000 A 
ENDBRANCH  38  51
ENDBRANCH  12  13
ENDBRANCH   5   7
ENDBRANCH   2   3
ENDBRANCH   1   2
BRANCH   1  57
ATOM     57  C   UNL     1       4.558  -2.531  -2.549  1.00  0.00     0.023 C 
BRANCH  57  58
ATOM     58  C   UNL     1       4.941  -1.504  -3.615  1.00  0.00     0.116 C 
BRANCH  58  59
ATOM     59  N   UNL     1       6.317  -1.654  -4.027  1.00  0.00    -0.356 N 
ATOM     60  C   UNL     1       6.931  -2.279  -5.057  1.00  0.00     0.228 C 
ATOM     61  H   UNL     1       6.948  -1.200  -3.424  1.00  0.00     0.163 HD
ATOM     62  O   UNL     1       8.170  -2.236  -5.007  1.00  0.00    -0.275 OA
BRANCH  60  63
ATOM     63  C   UNL     1       6.258  -2.905  -6.288  1.00  0.00     0.133 C 
ATOM     64  C   UNL     1       4.751  -3.059  -6.459  1.00  0.00     0.025 C 
ATOM     65  C   UNL     1       6.925  -4.263  -6.600  1.00  0.00     0.276 C 
ATOM     66  C   UNL     1       4.184  -4.215  -5.649  1.00  0.00     0.062 C 
ATOM     67  N   UNL     1       6.396  -5.364  -5.780  1.00  0.00    -0.331 N 
ATOM     68  C   UNL     1       4.940  -5.515  -5.902  1.00  0.00     0.262 C 
ATOM     69  H   UNL     1       6.564  -5.107  -4.808  1.00  0.00     0.348 HD
BRANCH  67  70
ATOM     70  C   UNL     1       7.130  -6.635  -6.009  1.00  0.00     0.299 C 
BRANCH  70  71
ATOM     71  C   UNL     1       6.582  -7.522  -7.122  1.00  0.00     0.014 A 
ATOM     72  C   UNL     1       6.833  -7.132  -8.452  1.00  0.00     0.010 A 
ATOM     73  C   UNL     1       5.729  -8.641  -6.867  1.00  0.00    -0.010 A 
ATOM     74  C   UNL     1       6.188  -7.751  -9.515  1.00  0.00     0.001 A 
ATOM     75  C   UNL     1       5.080  -9.260  -7.967  1.00  0.00    -0.018 A 
ATOM     76  C   UNL     1       5.466  -9.175  -5.581  1.00  0.00     0.009 A 
ATOM     77  C   UNL     1       5.303  -8.794  -9.270  1.00  0.00     0.009 A 
ATOM     78  C   UNL     1       4.201 -10.336  -7.756  1.00  0.00     0.009 A 
ATOM     79  C   UNL     1       4.607 -10.261  -5.390  1.00  0.00     0.001 A 
ATOM     80  C   UNL     1       3.969 -10.837  -6.478  1.00  0.00     0.001 A 
ENDBRANCH  70  71
ENDBRANCH  67  70
ENDBRANCH  60  63
ENDBRANCH  58  59
ENDBRANCH  57  58
ENDBRANCH   1  57
TORSDOF 13
