REMARK SMILES O=C(COc1cc(-c2ccccc2)nc(Nc2ccccc2Br)n1)NCCCCNC(=O)c1ccc(-c2c3nc(c(-c4ccccc4)c4ccc([nH]4)c(-c4ccccc4)c4nc(c(-c5ccccc5)c5ccc2[nH]5)C=C4)C=C3)cc1
REMARK SMILES IDX 26 1 25 2 1 3 2 4 3 6 4 7 5 8 6 9 24 10 7 11 15 12 14 13
REMARK SMILES IDX 8 14 9 15 13 16 10 17 12 18 11 19 16 20 17 22 18 23 22 24
REMARK SMILES IDX 19 25 21 26 23 27 20 28 27 29 28 30 29 31 30 32 31 33 32 35
REMARK SMILES IDX 33 36 34 37 80 38 35 39 79 40 36 41 37 42 38 43 73 44 39 45
REMARK SMILES IDX 78 46 72 47 74 48 40 49 77 50 71 51 70 52 41 54 63 55 48 56
REMARK SMILES IDX 62 57 49 58 52 59 61 60 75 61 50 62 51 63 60 65 76 66 53 67
REMARK SMILES IDX 42 68 43 69 47 70 44 71 46 72 45 73 64 74 65 75 69 76 66 77
REMARK SMILES IDX 68 78 67 79 54 80 55 81 59 82 56 83 58 84 57 85
REMARK H PARENT 25 5 16 21 30 34 74 53 52 64
REMARK Flexibility Score: inf
ROOT
ATOM      1  C   UNL     1       2.216  -1.106  -2.028  1.00  0.00     0.116 C 
ENDROOT
BRANCH   1   2
ATOM      2  N   UNL     1       2.938  -0.428  -0.969  1.00  0.00    -0.353 N 
ATOM      3  O   UNL     1       1.222   0.976  -0.361  1.00  0.00    -0.271 OA
ATOM      4  C   UNL     1       2.321   0.483  -0.131  1.00  0.00     0.258 C 
ATOM      5  H   UNL     1       3.894  -0.623  -0.842  1.00  0.00     0.163 HD
BRANCH   4   6
ATOM      6  C   UNL     1       3.097   0.775   1.162  1.00  0.00     0.331 C 
BRANCH   6   7
ATOM      7  O   UNL     1       3.918  -0.291   1.633  1.00  0.00    -0.467 OA
BRANCH   7   8
ATOM      8  C   UNL     1       3.242  -1.270   2.321  1.00  0.00     0.219 A 
ATOM      9  C   UNL     1       2.219  -1.978   1.754  1.00  0.00     0.097 A 
ATOM     10  N   UNL     1       3.780  -1.609   3.497  1.00  0.00    -0.177 NA
ATOM     11  C   UNL     1       1.789  -3.096   2.428  1.00  0.00     0.080 A 
ATOM     12  C   UNL     1       3.251  -2.667   4.138  1.00  0.00     0.231 A 
ATOM     13  N   UNL     1       2.286  -3.450   3.626  1.00  0.00    -0.212 NA
BRANCH  11  14
ATOM     14  C   UNL     1       0.796  -3.971   1.794  1.00  0.00     0.000 A 
ATOM     15  C   UNL     1      -0.459  -4.196   2.373  1.00  0.00     0.010 A 
ATOM     16  C   UNL     1       1.050  -4.514   0.518  1.00  0.00     0.010 A 
ATOM     17  C   UNL     1      -1.444  -4.905   1.678  1.00  0.00     0.001 A 
ATOM     18  C   UNL     1       0.069  -5.223  -0.175  1.00  0.00     0.001 A 
ATOM     19  C   UNL     1      -1.183  -5.409   0.403  1.00  0.00     0.000 A 
ENDBRANCH  11  14
BRANCH  12  20
ATOM     20  N   UNL     1       3.748  -3.052   5.378  1.00  0.00    -0.323 N 
ATOM     21  H   UNL     1       3.474  -3.950   5.675  1.00  0.00     0.170 HD
BRANCH  20  22
ATOM     22  C   UNL     1       4.578  -2.362   6.271  1.00  0.00     0.055 A 
ATOM     23  C   UNL     1       5.725  -3.024   6.743  1.00  0.00     0.027 A 
ATOM     24  C   UNL     1       4.351  -1.045   6.713  1.00  0.00     0.041 A 
ATOM     25  C   UNL     1       6.629  -2.391   7.600  1.00  0.00     0.002 A 
ATOM     26  C   UNL     1       5.257  -0.413   7.575  1.00  0.00     0.018 A 
ATOM     27  Br  UNL     1       2.755  -0.083   6.314  1.00  0.00    -0.049 Br
ATOM     28  C   UNL     1       6.398  -1.083   8.012  1.00  0.00     0.001 A 
ENDBRANCH  20  22
ENDBRANCH  12  20
ENDBRANCH   7   8
ENDBRANCH   6   7
ENDBRANCH   4   6
ENDBRANCH   1   2
BRANCH   1  29
ATOM     29  C   UNL     1       2.599  -0.631  -3.423  1.00  0.00     0.023 C 
BRANCH  29  30
ATOM     30  C   UNL     1       4.075  -0.809  -3.777  1.00  0.00     0.023 C 
BRANCH  30  31
ATOM     31  C   UNL     1       4.609  -2.236  -3.679  1.00  0.00     0.116 C 
BRANCH  31  32
ATOM     32  N   UNL     1       3.993  -3.144  -4.633  1.00  0.00    -0.352 N 
ATOM     33  C   UNL     1       4.582  -3.971  -5.560  1.00  0.00     0.251 C 
ATOM     34  H   UNL     1       3.009  -3.172  -4.611  1.00  0.00     0.163 HD
ATOM     35  O   UNL     1       3.887  -4.567  -6.380  1.00  0.00    -0.269 OA
BRANCH  33  36
ATOM     36  C   UNL     1       6.054  -4.123  -5.599  1.00  0.00     0.039 A 
ATOM     37  C   UNL     1       6.704  -4.079  -6.836  1.00  0.00     0.014 A 
ATOM     38  C   UNL     1       6.795  -4.309  -4.429  1.00  0.00     0.014 A 
ATOM     39  C   UNL     1       8.099  -4.143  -6.892  1.00  0.00     0.010 A 
ATOM     40  C   UNL     1       8.188  -4.295  -4.480  1.00  0.00     0.010 A 
ATOM     41  C   UNL     1       8.856  -4.209  -5.711  1.00  0.00    -0.014 A 
BRANCH  41  42
ATOM     42  C   UNL     1      10.342  -4.174  -5.744  1.00  0.00     0.031 A 
ATOM     43  C   UNL     1      11.145  -5.343  -5.242  1.00  0.00     0.074 A 
ATOM     44  C   UNL     1      10.975  -3.061  -6.168  1.00  0.00     0.049 A 
ATOM     45  N   UNL     1      12.445  -5.471  -5.144  1.00  0.00    -0.248 NA
ATOM     46  C   UNL     1      10.390  -6.513  -4.767  1.00  0.00     0.031 C 
ATOM     47  C   UNL     1      10.319  -1.843  -6.649  1.00  0.00     0.029 A 
ATOM     48  N   UNL     1      12.314  -2.772  -6.257  1.00  0.00    -0.354 N 
ATOM     49  C   UNL     1      12.661  -6.724  -4.582  1.00  0.00     0.074 A 
ATOM     50  C   UNL     1      11.359  -7.296  -4.315  1.00  0.00     0.031 C 
ATOM     51  C   UNL     1      11.256  -0.953  -7.012  1.00  0.00     0.029 A 
ATOM     52  C   UNL     1      12.576  -1.515  -6.747  1.00  0.00     0.049 A 
ATOM     53  H   UNL     1      13.021  -3.406  -5.996  1.00  0.00     0.167 HD
ATOM     54  C   UNL     1      13.835  -7.350  -4.326  1.00  0.00     0.031 A 
ATOM     55  C   UNL     1      13.746  -0.880  -6.951  1.00  0.00     0.031 A 
ATOM     56  C   UNL     1      15.131  -6.786  -4.594  1.00  0.00     0.049 A 
ATOM     57  C   UNL     1      15.034  -1.585  -6.629  1.00  0.00     0.074 A 
ATOM     58  C   UNL     1      16.375  -7.367  -4.423  1.00  0.00     0.029 A 
ATOM     59  N   UNL     1      15.351  -5.507  -5.082  1.00  0.00    -0.354 N 
ATOM     60  N   UNL     1      15.220  -2.798  -6.167  1.00  0.00    -0.248 NA
ATOM     61  C   UNL     1      16.276  -0.835  -6.867  1.00  0.00     0.031 C 
ATOM     62  C   UNL     1      17.350  -6.418  -4.748  1.00  0.00     0.029 A 
ATOM     63  C   UNL     1      16.712  -5.270  -5.187  1.00  0.00     0.049 A 
ATOM     64  H   UNL     1      14.645  -4.863  -5.319  1.00  0.00     0.167 HD
ATOM     65  C   UNL     1      16.597  -2.967  -6.090  1.00  0.00     0.074 A 
ATOM     66  C   UNL     1      17.197  -1.739  -6.569  1.00  0.00     0.031 C 
ATOM     67  C   UNL     1      17.299  -4.045  -5.664  1.00  0.00     0.031 A 
BRANCH  54  68
ATOM     68  C   UNL     1      13.770  -8.720  -3.706  1.00  0.00    -0.014 A 
ATOM     69  C   UNL     1      13.291  -9.827  -4.426  1.00  0.00     0.009 A 
ATOM     70  C   UNL     1      14.234  -8.915  -2.396  1.00  0.00     0.009 A 
ATOM     71  C   UNL     1      13.241 -11.090  -3.833  1.00  0.00     0.001 A 
ATOM     72  C   UNL     1      14.213 -10.185  -1.817  1.00  0.00     0.001 A 
ATOM     73  C   UNL     1      13.707 -11.269  -2.532  1.00  0.00     0.000 A 
ENDBRANCH  54  68
BRANCH  55  74
ATOM     74  C   UNL     1      13.760   0.502  -7.502  1.00  0.00    -0.014 A 
ATOM     75  C   UNL     1      14.248   0.749  -8.794  1.00  0.00     0.009 A 
ATOM     76  C   UNL     1      13.301   1.584  -6.734  1.00  0.00     0.009 A 
ATOM     77  C   UNL     1      14.306   2.052  -9.294  1.00  0.00     0.001 A 
ATOM     78  C   UNL     1      13.329   2.882  -7.249  1.00  0.00     0.001 A 
ATOM     79  C   UNL     1      13.842   3.116  -8.523  1.00  0.00     0.000 A 
ENDBRANCH  55  74
BRANCH  67  80
ATOM     80  C   UNL     1      18.800  -3.962  -5.734  1.00  0.00    -0.014 A 
ATOM     81  C   UNL     1      19.531  -3.134  -4.869  1.00  0.00     0.009 A 
ATOM     82  C   UNL     1      19.494  -4.760  -6.658  1.00  0.00     0.009 A 
ATOM     83  C   UNL     1      20.924  -3.079  -4.953  1.00  0.00     0.001 A 
ATOM     84  C   UNL     1      20.888  -4.728  -6.718  1.00  0.00     0.001 A 
ATOM     85  C   UNL     1      21.601  -3.880  -5.872  1.00  0.00     0.000 A 
ENDBRANCH  67  80
ENDBRANCH  41  42
ENDBRANCH  33  36
ENDBRANCH  31  32
ENDBRANCH  30  31
ENDBRANCH  29  30
ENDBRANCH   1  29
TORSDOF 16
