REMARK SMILES CCC[C@@H](C)[C@@](C#N)(CC)C(=O)NCCCCNC(=O)c1ccc(-c2c3nc(c(-c4ccccc4)c4ccc([nH]4)c(-c4ccccc4)c4nc(c(-c5ccccc5)c5ccc2[nH]5)C=C4)C=C3)cc1
REMARK SMILES IDX 15 1 14 2 13 3 11 4 12 5 6 7 4 8 5 9 3 10 2 11 1 12 7 13
REMARK SMILES IDX 8 14 9 15 10 16 16 17 17 18 18 19 19 20 20 22 21 23 22 24
REMARK SMILES IDX 68 25 23 26 67 27 24 28 25 29 26 30 61 31 27 32 66 33 60 34
REMARK SMILES IDX 62 35 28 36 65 37 59 38 58 39 29 41 51 42 36 43 50 44 37 45
REMARK SMILES IDX 40 46 49 47 63 48 38 49 39 50 48 52 64 53 41 54 30 55 31 56
REMARK SMILES IDX 35 57 32 58 34 59 33 60 52 61 53 62 57 63 54 64 56 65 55 66
REMARK SMILES IDX 42 67 43 68 47 69 44 70 46 71 45 72
REMARK H PARENT 13 6 18 21 62 40 40 51
REMARK Flexibility Score: inf
ROOT
ATOM      1  C   UNL     1       0.923   6.731  -4.872  1.00  0.00     0.023 C 
ENDROOT
BRANCH   1   2
ATOM      2  C   UNL     1       1.769   6.207  -3.717  1.00  0.00     0.116 C 
BRANCH   2   3
ATOM      3  N   UNL     1       0.955   5.993  -2.532  1.00  0.00    -0.355 N 
ATOM      4  C   UNL     1       0.533   4.851  -1.917  1.00  0.00     0.240 C 
ATOM      5  O   UNL     1      -0.208   5.011  -0.944  1.00  0.00    -0.273 OA
ATOM      6  H   UNL     1       0.653   6.822  -2.095  1.00  0.00     0.163 HD
BRANCH   4   7
ATOM      7  C   UNL     1       0.945   3.451  -2.424  1.00  0.00     0.138 C 
BRANCH   7   8
ATOM      8  C   UNL     1       0.462   2.266  -1.470  1.00  0.00     0.016 C 
ATOM      9  C   UNL     1      -1.064   2.074  -1.439  1.00  0.00     0.010 C 
BRANCH   8  10
ATOM     10  C   UNL     1       1.046   2.329  -0.029  1.00  0.00     0.005 C 
BRANCH  10  11
ATOM     11  C   UNL     1       0.717   1.140   0.892  1.00  0.00    -0.003 C 
ATOM     12  C   UNL     1       1.068  -0.221   0.310  1.00  0.00     0.004 C 
ENDBRANCH  10  11
ENDBRANCH   8  10
ENDBRANCH   7   8
BRANCH   7  13
ATOM     13  C   UNL     1       2.465   3.451  -2.424  1.00  0.00     0.079 C 
ATOM     14  N   UNL     1       3.726   3.451  -2.424  1.00  0.00    -0.197 NA
ENDBRANCH   7  13
BRANCH   7  15
ATOM     15  C   UNL     1       0.470   3.185  -3.891  1.00  0.00     0.029 C 
ATOM     16  C   UNL     1      -0.971   3.552  -4.245  1.00  0.00     0.006 C 
ENDBRANCH   7  15
ENDBRANCH   4   7
ENDBRANCH   2   3
ENDBRANCH   1   2
BRANCH   1  17
ATOM     17  C   UNL     1       0.388   8.145  -4.653  1.00  0.00     0.023 C 
BRANCH  17  18
ATOM     18  C   UNL     1       1.456   9.179  -4.316  1.00  0.00     0.116 C 
BRANCH  18  19
ATOM     19  N   UNL     1       2.525   9.220  -5.300  1.00  0.00    -0.352 N 
ATOM     20  C   UNL     1       3.149  10.308  -5.856  1.00  0.00     0.251 C 
ATOM     21  H   UNL     1       2.848   8.343  -5.611  1.00  0.00     0.163 HD
ATOM     22  O   UNL     1       3.925  10.163  -6.791  1.00  0.00    -0.269 OA
BRANCH  20  23
ATOM     23  C   UNL     1       2.849  11.659  -5.340  1.00  0.00     0.039 A 
ATOM     24  C   UNL     1       2.613  12.684  -6.257  1.00  0.00     0.014 A 
ATOM     25  C   UNL     1       2.784  11.909  -3.966  1.00  0.00     0.014 A 
ATOM     26  C   UNL     1       2.255  13.948  -5.794  1.00  0.00     0.010 A 
ATOM     27  C   UNL     1       2.344  13.147  -3.509  1.00  0.00     0.010 A 
ATOM     28  C   UNL     1       2.080  14.180  -4.418  1.00  0.00    -0.014 A 
BRANCH  28  29
ATOM     29  C   UNL     1       1.601  15.499  -3.937  1.00  0.00     0.031 A 
ATOM     30  C   UNL     1       2.474  16.364  -3.071  1.00  0.00     0.074 A 
ATOM     31  C   UNL     1       0.360  15.906  -4.266  1.00  0.00     0.049 A 
ATOM     32  N   UNL     1       2.238  17.565  -2.607  1.00  0.00    -0.248 NA
ATOM     33  C   UNL     1       3.769  15.803  -2.653  1.00  0.00     0.031 C 
ATOM     34  C   UNL     1      -0.604  15.131  -5.052  1.00  0.00     0.029 A 
ATOM     35  N   UNL     1      -0.299  17.077  -3.994  1.00  0.00    -0.354 N 
ATOM     36  C   UNL     1       3.349  17.900  -1.843  1.00  0.00     0.074 A 
ATOM     37  C   UNL     1       4.231  16.754  -1.855  1.00  0.00     0.031 C 
ATOM     38  C   UNL     1      -1.710  15.869  -5.241  1.00  0.00     0.029 A 
ATOM     39  C   UNL     1      -1.549  17.148  -4.559  1.00  0.00     0.049 A 
ATOM     40  H   UNL     1       0.087  17.798  -3.445  1.00  0.00     0.167 HD
ATOM     41  C   UNL     1       3.621  19.064  -1.208  1.00  0.00     0.031 A 
ATOM     42  C   UNL     1      -2.462  18.137  -4.538  1.00  0.00     0.031 A 
ATOM     43  C   UNL     1       2.741  20.202  -1.194  1.00  0.00     0.049 A 
ATOM     44  C   UNL     1      -2.139  19.415  -3.819  1.00  0.00     0.074 A 
ATOM     45  C   UNL     1       2.950  21.447  -0.626  1.00  0.00     0.029 A 
ATOM     46  N   UNL     1       1.478  20.231  -1.767  1.00  0.00    -0.354 N 
ATOM     47  N   UNL     1      -1.046  19.749  -3.176  1.00  0.00    -0.248 NA
ATOM     48  C   UNL     1      -3.171  20.460  -3.837  1.00  0.00     0.031 C 
ATOM     49  C   UNL     1       1.789  22.208  -0.803  1.00  0.00     0.029 A 
ATOM     50  C   UNL     1       0.884  21.461  -1.540  1.00  0.00     0.049 A 
ATOM     51  H   UNL     1       1.066  19.487  -2.263  1.00  0.00     0.167 HD
ATOM     52  C   UNL     1      -1.249  21.049  -2.734  1.00  0.00     0.074 A 
ATOM     53  C   UNL     1      -2.559  21.451  -3.205  1.00  0.00     0.031 C 
ATOM     54  C   UNL     1      -0.426  21.841  -2.002  1.00  0.00     0.031 A 
BRANCH  41  55
ATOM     55  C   UNL     1       4.927  19.160  -0.466  1.00  0.00    -0.014 A 
ATOM     56  C   UNL     1       6.154  19.187  -1.149  1.00  0.00     0.009 A 
ATOM     57  C   UNL     1       4.931  19.259   0.934  1.00  0.00     0.009 A 
ATOM     58  C   UNL     1       7.357  19.274  -0.445  1.00  0.00     0.001 A 
ATOM     59  C   UNL     1       6.133  19.378   1.634  1.00  0.00     0.001 A 
ATOM     60  C   UNL     1       7.345  19.375   0.946  1.00  0.00     0.000 A 
ENDBRANCH  41  55
BRANCH  42  61
ATOM     61  C   UNL     1      -3.761  17.966  -5.242  1.00  0.00    -0.014 A 
ATOM     62  C   UNL     1      -4.056  18.714  -6.391  1.00  0.00     0.009 A 
ATOM     63  C   UNL     1      -4.716  17.055  -4.763  1.00  0.00     0.009 A 
ATOM     64  C   UNL     1      -5.291  18.577  -7.029  1.00  0.00     0.001 A 
ATOM     65  C   UNL     1      -5.937  16.896  -5.421  1.00  0.00     0.001 A 
ATOM     66  C   UNL     1      -6.228  17.665  -6.547  1.00  0.00     0.000 A 
ENDBRANCH  42  61
BRANCH  54  67
ATOM     67  C   UNL     1      -0.915  23.229  -1.691  1.00  0.00    -0.014 A 
ATOM     68  C   UNL     1      -1.976  23.448  -0.799  1.00  0.00     0.009 A 
ATOM     69  C   UNL     1      -0.289  24.335  -2.287  1.00  0.00     0.009 A 
ATOM     70  C   UNL     1      -2.432  24.744  -0.547  1.00  0.00     0.001 A 
ATOM     71  C   UNL     1      -0.724  25.631  -2.006  1.00  0.00     0.001 A 
ATOM     72  C   UNL     1      -1.803  25.834  -1.147  1.00  0.00     0.000 A 
ENDBRANCH  54  67
ENDBRANCH  28  29
ENDBRANCH  20  23
ENDBRANCH  18  19
ENDBRANCH  17  18
ENDBRANCH   1  17
TORSDOF 16
