REMARK SMILES COc1ccccc1[C@H]([NH3+])c1nc(C(=O)NCCCCNC(=O)c2ccc(-c3c4nc(c(-c5ccccc5)c5ccc([nH]5)c(-c5ccccc5)c5nc(c(-c6ccccc6)c6ccc3[nH]6)C=C5)C=C4)cc2)c[nH]1
REMARK SMILES IDX 18 1 17 2 16 3 14 4 15 5 13 7 11 8 12 9 73 10 72 11 9 13
REMARK SMILES IDX 8 14 3 15 4 16 5 17 7 18 6 19 2 20 1 21 10 22 19 26 20 27
REMARK SMILES IDX 21 28 22 29 23 31 24 32 25 33 71 34 26 35 70 36 27 37 28 38
REMARK SMILES IDX 29 39 64 40 30 41 69 42 63 43 65 44 31 45 68 46 62 47 61 48
REMARK SMILES IDX 32 50 54 51 39 52 53 53 40 54 43 55 52 56 66 57 41 58 42 59
REMARK SMILES IDX 51 61 67 62 44 63 33 64 34 65 38 66 35 67 37 68 36 69 55 70
REMARK SMILES IDX 56 71 60 72 57 73 59 74 58 75 45 76 46 77 50 78 47 79 49 80
REMARK SMILES IDX 48 81
REMARK H PARENT 16 6 73 12 10 23 10 24 10 25 21 30 65 49 43 60
REMARK Flexibility Score: inf
ROOT
ATOM      1  C   UNL     1       0.103  -4.356  -1.217  1.00  0.00     0.023 C 
ENDROOT
BRANCH   1   2
ATOM      2  C   UNL     1       0.736  -4.816   0.095  1.00  0.00     0.116 C 
BRANCH   2   3
ATOM      3  N   UNL     1       1.836  -5.738  -0.133  1.00  0.00    -0.351 N 
ATOM      4  C   UNL     1       3.191  -5.509  -0.057  1.00  0.00     0.271 C 
ATOM      5  O   UNL     1       3.952  -6.468  -0.216  1.00  0.00    -0.267 OA
ATOM      6  H   UNL     1       1.575  -6.656  -0.377  1.00  0.00     0.163 HD
BRANCH   4   7
ATOM      7  C   UNL     1       3.687  -4.164   0.242  1.00  0.00     0.146 A 
ATOM      8  C   UNL     1       3.692  -2.010   0.560  1.00  0.00     0.170 A 
ATOM      9  N   UNL     1       2.938  -3.010   0.146  1.00  0.00    -0.222 NA
ATOM     10  N   UNL     1       4.946  -2.485   0.877  1.00  0.00    -0.342 N 
ATOM     11  C   UNL     1       4.963  -3.834   0.650  1.00  0.00     0.118 A 
ATOM     12  H   UNL     1       5.700  -1.946   1.210  1.00  0.00     0.167 HD
BRANCH   8  13
ATOM     13  C   UNL     1       3.277  -0.550   0.612  1.00  0.00     0.283 C 
BRANCH  13  14
ATOM     14  C   UNL     1       4.197   0.331   1.452  1.00  0.00     0.059 A 
ATOM     15  C   UNL     1       3.934   0.764   2.762  1.00  0.00     0.128 A 
ATOM     16  C   UNL     1       4.833   1.604   3.433  1.00  0.00     0.047 A 
ATOM     17  C   UNL     1       6.028   1.986   2.826  1.00  0.00     0.004 A 
ATOM     18  C   UNL     1       5.414   0.737   0.859  1.00  0.00     0.014 A 
ATOM     19  C   UNL     1       6.322   1.548   1.540  1.00  0.00     0.001 A 
BRANCH  15  20
ATOM     20  O   UNL     1       2.726   0.507   3.355  1.00  0.00    -0.496 OA
ATOM     21  C   UNL     1       2.824  -0.429   4.428  1.00  0.00     0.278 C 
ENDBRANCH  15  20
ENDBRANCH  13  14
BRANCH  13  22
ATOM     22  N   UNL     1       1.853  -0.437   0.958  1.00  0.00    -0.345 N 
ATOM     23  H   UNL     1       1.699  -0.811   1.895  1.00  0.00     0.345 HD
ATOM     24  H   UNL     1       1.296  -0.964   0.285  1.00  0.00     0.345 HD
ATOM     25  H   UNL     1       1.574   0.544   0.935  1.00  0.00     0.345 HD
ENDBRANCH  13  22
ENDBRANCH   8  13
ENDBRANCH   4   7
ENDBRANCH   2   3
ENDBRANCH   1   2
BRANCH   1  26
ATOM     26  C   UNL     1      -0.703  -5.447  -1.926  1.00  0.00     0.023 C 
BRANCH  26  27
ATOM     27  C   UNL     1      -1.812  -6.072  -1.087  1.00  0.00     0.116 C 
BRANCH  27  28
ATOM     28  N   UNL     1      -2.817  -5.112  -0.651  1.00  0.00    -0.352 N 
ATOM     29  C   UNL     1      -4.179  -5.285  -0.583  1.00  0.00     0.251 C 
ATOM     30  H   UNL     1      -2.479  -4.231  -0.372  1.00  0.00     0.163 HD
ATOM     31  O   UNL     1      -4.925  -4.350  -0.313  1.00  0.00    -0.269 OA
BRANCH  29  32
ATOM     32  C   UNL     1      -4.739  -6.619  -0.876  1.00  0.00     0.039 A 
ATOM     33  C   UNL     1      -5.765  -6.736  -1.816  1.00  0.00     0.014 A 
ATOM     34  C   UNL     1      -4.202  -7.755  -0.265  1.00  0.00     0.014 A 
ATOM     35  C   UNL     1      -6.209  -8.004  -2.196  1.00  0.00     0.010 A 
ATOM     36  C   UNL     1      -4.587  -9.015  -0.704  1.00  0.00     0.010 A 
ATOM     37  C   UNL     1      -5.597  -9.154  -1.669  1.00  0.00    -0.014 A 
BRANCH  37  38
ATOM     38  C   UNL     1      -6.001 -10.518  -2.090  1.00  0.00     0.031 A 
ATOM     39  C   UNL     1      -6.571 -11.470  -1.075  1.00  0.00     0.074 A 
ATOM     40  C   UNL     1      -5.776 -10.933  -3.352  1.00  0.00     0.049 A 
ATOM     41  N   UNL     1      -6.866 -12.738  -1.203  1.00  0.00    -0.248 NA
ATOM     42  C   UNL     1      -6.810 -10.929   0.273  1.00  0.00     0.031 C 
ATOM     43  C   UNL     1      -5.206 -10.118  -4.426  1.00  0.00     0.029 A 
ATOM     44  N   UNL     1      -5.986 -12.156  -3.939  1.00  0.00    -0.354 N 
ATOM     45  C   UNL     1      -7.298 -13.150   0.051  1.00  0.00     0.074 A 
ATOM     46  C   UNL     1      -7.176 -12.014   0.937  1.00  0.00     0.031 C 
ATOM     47  C   UNL     1      -5.130 -10.857  -5.545  1.00  0.00     0.029 A 
ATOM     48  C   UNL     1      -5.597 -12.210  -5.255  1.00  0.00     0.049 A 
ATOM     49  H   UNL     1      -6.379 -12.922  -3.461  1.00  0.00     0.167 HD
ATOM     50  C   UNL     1      -7.771 -14.362   0.430  1.00  0.00     0.031 A 
ATOM     51  C   UNL     1      -5.599 -13.237  -6.126  1.00  0.00     0.031 A 
ATOM     52  C   UNL     1      -7.897 -15.489  -0.454  1.00  0.00     0.049 A 
ATOM     53  C   UNL     1      -6.099 -14.582  -5.676  1.00  0.00     0.074 A 
ATOM     54  C   UNL     1      -8.412 -16.744  -0.181  1.00  0.00     0.029 A 
ATOM     55  N   UNL     1      -7.501 -15.498  -1.783  1.00  0.00    -0.354 N 
ATOM     56  N   UNL     1      -6.558 -14.944  -4.502  1.00  0.00    -0.248 NA
ATOM     57  C   UNL     1      -6.091 -15.660  -6.676  1.00  0.00     0.031 C 
ATOM     58  C   UNL     1      -8.270 -17.532  -1.327  1.00  0.00     0.029 A 
ATOM     59  C   UNL     1      -7.735 -16.745  -2.336  1.00  0.00     0.049 A 
ATOM     60  H   UNL     1      -7.111 -14.731  -2.262  1.00  0.00     0.167 HD
ATOM     61  C   UNL     1      -6.928 -16.276  -4.632  1.00  0.00     0.074 A 
ATOM     62  C   UNL     1      -6.647 -16.657  -6.001  1.00  0.00     0.031 C 
ATOM     63  C   UNL     1      -7.458 -17.108  -3.702  1.00  0.00     0.031 A 
BRANCH  50  64
ATOM     64  C   UNL     1      -8.166 -14.528   1.872  1.00  0.00    -0.014 A 
ATOM     65  C   UNL     1      -9.275 -13.855   2.410  1.00  0.00     0.009 A 
ATOM     66  C   UNL     1      -7.428 -15.387   2.701  1.00  0.00     0.009 A 
ATOM     67  C   UNL     1      -9.606 -14.000   3.759  1.00  0.00     0.001 A 
ATOM     68  C   UNL     1      -7.783 -15.558   4.041  1.00  0.00     0.001 A 
ATOM     69  C   UNL     1      -8.863 -14.855   4.571  1.00  0.00     0.000 A 
ENDBRANCH  50  64
BRANCH  51  70
ATOM     70  C   UNL     1      -5.119 -13.033  -7.519  1.00  0.00    -0.014 A 
ATOM     71  C   UNL     1      -6.020 -13.066  -8.594  1.00  0.00     0.009 A 
ATOM     72  C   UNL     1      -3.758 -12.808  -7.782  1.00  0.00     0.009 A 
ATOM     73  C   UNL     1      -5.565 -12.904  -9.905  1.00  0.00     0.001 A 
ATOM     74  C   UNL     1      -3.311 -12.615  -9.091  1.00  0.00     0.001 A 
ATOM     75  C   UNL     1      -4.213 -12.674 -10.152  1.00  0.00     0.000 A 
ENDBRANCH  51  70
BRANCH  63  76
ATOM     76  C   UNL     1      -7.827 -18.498  -4.143  1.00  0.00    -0.014 A 
ATOM     77  C   UNL     1      -6.850 -19.463  -4.432  1.00  0.00     0.009 A 
ATOM     78  C   UNL     1      -9.182 -18.860  -4.212  1.00  0.00     0.009 A 
ATOM     79  C   UNL     1      -7.226 -20.754  -4.811  1.00  0.00     0.001 A 
ATOM     80  C   UNL     1      -9.553 -20.160  -4.558  1.00  0.00     0.001 A 
ATOM     81  C   UNL     1      -8.575 -21.103  -4.866  1.00  0.00     0.000 A 
ENDBRANCH  63  76
ENDBRANCH  37  38
ENDBRANCH  29  32
ENDBRANCH  27  28
ENDBRANCH  26  27
ENDBRANCH   1  26
TORSDOF 15
