REMARK SMILES Cc1nn(CC(F)F)c2c1c(C(F)(F)F)cc(=O)n2CC(=O)NCCCCNC(=O)c1ccc(-c2c3nc(c(-c4ccccc4)c4ccc([nH]4)c(-c4ccccc4)c4nc(c(-c5ccccc5)c5ccc2[nH]5)C=C4)C=C3)cc1
REMARK SMILES IDX 25 1 24 2 23 3 21 4 22 5 20 7 19 8 1 9 2 10 3 11 10 12 4 13
REMARK SMILES IDX 9 14 11 15 16 16 17 17 18 18 5 19 6 20 7 21 8 22 12 23 13 24
REMARK SMILES IDX 14 25 15 26 26 27 27 28 28 29 29 30 30 32 31 33 32 34 78 35
REMARK SMILES IDX 33 36 77 37 34 38 35 39 36 40 71 41 37 42 76 43 70 44 72 45
REMARK SMILES IDX 38 46 75 47 69 48 68 49 39 51 61 52 46 53 60 54 47 55 50 56
REMARK SMILES IDX 59 57 73 58 48 59 49 60 58 62 74 63 51 64 40 65 41 66 45 67
REMARK SMILES IDX 42 68 44 69 43 70 62 71 63 72 67 73 64 74 66 75 65 76 52 77
REMARK SMILES IDX 53 78 57 79 54 80 56 81 55 82
REMARK H PARENT 23 6 28 31 72 50 50 61
REMARK Flexibility Score: inf
ROOT
ATOM      1  C   UNL     1       0.641   5.114  -3.693  1.00  0.00     0.023 C 
ENDROOT
BRANCH   1   2
ATOM      2  C   UNL     1       0.457   6.383  -2.866  1.00  0.00     0.116 C 
BRANCH   2   3
ATOM      3  N   UNL     1      -0.798   6.398  -2.148  1.00  0.00    -0.355 N 
ATOM      4  C   UNL     1      -1.017   6.495  -0.810  1.00  0.00     0.240 C 
ATOM      5  O   UNL     1      -2.154   6.824  -0.454  1.00  0.00    -0.273 OA
ATOM      6  H   UNL     1      -1.606   6.329  -2.706  1.00  0.00     0.163 HD
BRANCH   4   7
ATOM      7  C   UNL     1       0.102   6.327   0.223  1.00  0.00     0.227 C 
BRANCH   7   8
ATOM      8  N   UNL     1       0.934   5.125   0.113  1.00  0.00    -0.283 N 
ATOM      9  C   UNL     1       0.828   0.090   0.130  1.00  0.00     0.069 C 
ATOM     10  C   UNL     1       0.550   1.543   0.279  1.00  0.00     0.069 A 
ATOM     11  N   UNL     1      -0.673   1.900   0.682  1.00  0.00    -0.175 NA
ATOM     12  C   UNL     1       1.347   2.687   0.050  1.00  0.00     0.053 A 
ATOM     13  N   UNL     1      -0.675   3.250   0.688  1.00  0.00    -0.243 N 
ATOM     14  C   UNL     1       0.527   3.785   0.275  1.00  0.00     0.142 A 
ATOM     15  C   UNL     1       2.698   2.909  -0.348  1.00  0.00     0.074 A 
ATOM     16  C   UNL     1       3.163   4.168  -0.423  1.00  0.00     0.085 A 
ATOM     17  C   UNL     1       2.296   5.338  -0.145  1.00  0.00     0.253 A 
ATOM     18  O   UNL     1       2.827   6.453  -0.209  1.00  0.00    -0.269 OA
BRANCH  13  19
ATOM     19  C   UNL     1      -1.908   3.865   1.117  1.00  0.00     0.219 C 
BRANCH  19  20
ATOM     20  C   UNL     1      -1.904   4.250   2.574  1.00  0.00     0.363 C 
ATOM     21  F   UNL     1      -0.848   5.044   2.875  1.00  0.00    -0.208 F 
ATOM     22  F   UNL     1      -3.015   4.989   2.839  1.00  0.00    -0.208 F 
ENDBRANCH  19  20
ENDBRANCH  13  19
BRANCH  15  23
ATOM     23  C   UNL     1       3.566   1.739  -0.677  1.00  0.00     0.417 C 
ATOM     24  F   UNL     1       3.831   0.974   0.412  1.00  0.00    -0.166 F 
ATOM     25  F   UNL     1       3.014   0.932  -1.618  1.00  0.00    -0.166 F 
ATOM     26  F   UNL     1       4.776   2.119  -1.172  1.00  0.00    -0.166 F 
ENDBRANCH  15  23
ENDBRANCH   7   8
ENDBRANCH   4   7
ENDBRANCH   2   3
ENDBRANCH   1   2
BRANCH   1  27
ATOM     27  C   UNL     1      -0.329   4.957  -4.875  1.00  0.00     0.023 C 
BRANCH  27  28
ATOM     28  C   UNL     1      -0.399   6.152  -5.829  1.00  0.00     0.116 C 
BRANCH  28  29
ATOM     29  N   UNL     1       0.892   6.570  -6.337  1.00  0.00    -0.352 N 
ATOM     30  C   UNL     1       1.624   6.324  -7.464  1.00  0.00     0.251 C 
ATOM     31  H   UNL     1       1.355   7.181  -5.719  1.00  0.00     0.163 HD
ATOM     32  O   UNL     1       2.628   7.028  -7.609  1.00  0.00    -0.269 OA
BRANCH  30  33
ATOM     33  C   UNL     1       1.351   5.266  -8.476  1.00  0.00     0.039 A 
ATOM     34  C   UNL     1       0.284   4.372  -8.459  1.00  0.00     0.014 A 
ATOM     35  C   UNL     1       2.312   5.140  -9.504  1.00  0.00     0.014 A 
ATOM     36  C   UNL     1       0.220   3.343  -9.400  1.00  0.00     0.010 A 
ATOM     37  C   UNL     1       2.252   4.115 -10.446  1.00  0.00     0.010 A 
ATOM     38  C   UNL     1       1.219   3.192 -10.374  1.00  0.00    -0.014 A 
BRANCH  38  39
ATOM     39  C   UNL     1       1.030   2.162 -11.397  1.00  0.00     0.031 A 
ATOM     40  C   UNL     1      -0.229   2.329 -12.166  1.00  0.00     0.074 A 
ATOM     41  C   UNL     1       1.892   1.172 -11.714  1.00  0.00     0.049 A 
ATOM     42  N   UNL     1      -1.282   1.587 -12.090  1.00  0.00    -0.248 NA
ATOM     43  C   UNL     1      -0.397   3.534 -12.992  1.00  0.00     0.031 C 
ATOM     44  C   UNL     1       3.272   0.999 -11.255  1.00  0.00     0.029 A 
ATOM     45  N   UNL     1       1.731   0.133 -12.594  1.00  0.00    -0.354 N 
ATOM     46  C   UNL     1      -2.183   2.112 -13.008  1.00  0.00     0.074 A 
ATOM     47  C   UNL     1      -1.655   3.389 -13.414  1.00  0.00     0.031 C 
ATOM     48  C   UNL     1       3.889   0.069 -12.022  1.00  0.00     0.029 A 
ATOM     49  C   UNL     1       2.910  -0.532 -12.914  1.00  0.00     0.049 A 
ATOM     50  H   UNL     1       0.856  -0.121 -12.967  1.00  0.00     0.167 HD
ATOM     51  C   UNL     1      -3.151   1.329 -13.555  1.00  0.00     0.031 A 
ATOM     52  C   UNL     1       3.074  -1.495 -13.855  1.00  0.00     0.031 A 
ATOM     53  C   UNL     1      -3.316   0.104 -12.816  1.00  0.00     0.049 A 
ATOM     54  C   UNL     1       1.766  -2.143 -14.067  1.00  0.00     0.074 A 
ATOM     55  C   UNL     1      -3.783  -0.253 -11.571  1.00  0.00     0.029 A 
ATOM     56  N   UNL     1      -2.561  -0.939 -13.286  1.00  0.00    -0.354 N 
ATOM     57  N   UNL     1       1.179  -2.886 -13.175  1.00  0.00    -0.248 NA
ATOM     58  C   UNL     1       0.935  -1.735 -15.190  1.00  0.00     0.031 C 
ATOM     59  C   UNL     1      -3.053  -1.422 -11.207  1.00  0.00     0.029 A 
ATOM     60  C   UNL     1      -2.209  -1.774 -12.261  1.00  0.00     0.049 A 
ATOM     61  H   UNL     1      -2.308  -1.069 -14.228  1.00  0.00     0.167 HD
ATOM     62  C   UNL     1      -0.167  -2.650 -13.374  1.00  0.00     0.074 A 
ATOM     63  C   UNL     1      -0.260  -2.103 -14.722  1.00  0.00     0.031 C 
ATOM     64  C   UNL     1      -1.028  -2.615 -12.317  1.00  0.00     0.031 A 
BRANCH  51  65
ATOM     65  C   UNL     1      -3.567   1.423 -15.006  1.00  0.00    -0.014 A 
ATOM     66  C   UNL     1      -2.825   2.122 -15.977  1.00  0.00     0.009 A 
ATOM     67  C   UNL     1      -4.556   0.542 -15.485  1.00  0.00     0.009 A 
ATOM     68  C   UNL     1      -3.044   1.949 -17.347  1.00  0.00     0.001 A 
ATOM     69  C   UNL     1      -4.752   0.339 -16.857  1.00  0.00     0.001 A 
ATOM     70  C   UNL     1      -3.994   1.041 -17.788  1.00  0.00     0.000 A 
ENDBRANCH  51  65
BRANCH  52  71
ATOM     71  C   UNL     1       4.194  -1.723 -14.799  1.00  0.00    -0.014 A 
ATOM     72  C   UNL     1       5.002  -0.648 -15.202  1.00  0.00     0.009 A 
ATOM     73  C   UNL     1       4.250  -2.906 -15.561  1.00  0.00     0.009 A 
ATOM     74  C   UNL     1       5.775  -0.721 -16.368  1.00  0.00     0.001 A 
ATOM     75  C   UNL     1       5.019  -2.976 -16.731  1.00  0.00     0.001 A 
ATOM     76  C   UNL     1       5.763  -1.875 -17.146  1.00  0.00     0.000 A 
ENDBRANCH  52  71
BRANCH  64  77
ATOM     77  C   UNL     1      -0.628  -3.318 -11.045  1.00  0.00    -0.014 A 
ATOM     78  C   UNL     1      -1.529  -4.259 -10.519  1.00  0.00     0.009 A 
ATOM     79  C   UNL     1       0.519  -3.005 -10.297  1.00  0.00     0.009 A 
ATOM     80  C   UNL     1      -1.309  -4.851  -9.276  1.00  0.00     0.001 A 
ATOM     81  C   UNL     1       0.757  -3.624  -9.065  1.00  0.00     0.001 A 
ATOM     82  C   UNL     1      -0.164  -4.536  -8.550  1.00  0.00     0.000 A 
ENDBRANCH  64  77
ENDBRANCH  38  39
ENDBRANCH  30  33
ENDBRANCH  28  29
ENDBRANCH  27  28
ENDBRANCH   1  27
TORSDOF 15
