REMARK SMILES CC(=O)NS(=O)(=O)c1cc(-c2ccn(C(F)F)c(=O)c2)ccc1C(=O)NCCCCNC(=O)c1ccc(-c2c3nc(c(-c4ccccc4)c4ccc([nH]4)c(-c4ccccc4)c4nc(c(-c5ccccc5)c5ccc2[nH]5)C=C4)C=C3)cc1
REMARK SMILES IDX 28 1 27 2 26 3 24 4 25 5 23 7 8 8 9 9 10 10 22 11 21 12 5 13
REMARK SMILES IDX 6 14 7 15 4 16 1 17 2 18 3 19 11 21 12 22 20 23 13 24 18 25
REMARK SMILES IDX 14 26 19 27 15 28 16 29 17 30 29 31 30 32 31 33 32 34 33 36
REMARK SMILES IDX 34 37 35 38 81 39 36 40 80 41 37 42 38 43 39 44 74 45 40 46
REMARK SMILES IDX 79 47 73 48 75 49 41 50 78 51 72 52 71 53 42 55 64 56 49 57
REMARK SMILES IDX 63 58 50 59 53 60 62 61 76 62 51 63 52 64 61 66 77 67 54 68
REMARK SMILES IDX 43 69 44 70 48 71 45 72 47 73 46 74 65 75 66 76 70 77 67 78
REMARK SMILES IDX 69 79 68 80 55 81 56 82 60 83 57 84 59 85 58 86
REMARK H PARENT 26 6 4 20 31 35 75 54 53 65
REMARK Flexibility Score: inf
ROOT
ATOM      1  C   UNL     1       1.432   4.675  -1.794  1.00  0.00     0.023 C 
ENDROOT
BRANCH   1   2
ATOM      2  C   UNL     1       2.204   4.423  -0.495  1.00  0.00     0.116 C 
BRANCH   2   3
ATOM      3  N   UNL     1       1.286   4.407   0.628  1.00  0.00    -0.352 N 
ATOM      4  C   UNL     1       0.934   3.412   1.494  1.00  0.00     0.252 C 
ATOM      5  O   UNL     1       0.096   3.635   2.366  1.00  0.00    -0.269 OA
ATOM      6  H   UNL     1       0.836   5.266   0.794  1.00  0.00     0.163 HD
BRANCH   4   7
ATOM      7  C   UNL     1       1.592   2.089   1.515  1.00  0.00     0.060 A 
ATOM      8  C   UNL     1       1.390   1.069   0.581  1.00  0.00     0.101 A 
ATOM      9  C   UNL     1       1.839  -0.234   0.858  1.00  0.00     0.031 A 
ATOM     10  C   UNL     1       2.430  -0.541   2.090  1.00  0.00    -0.017 A 
ATOM     11  C   UNL     1       2.269   1.790   2.713  1.00  0.00     0.016 A 
ATOM     12  C   UNL     1       2.679   0.484   3.002  1.00  0.00     0.009 A 
BRANCH   8  13
ATOM     13  S   UNL     1       0.488   1.340  -0.910  1.00  0.00     0.264 S 
ATOM     14  O   UNL     1       1.467   1.677  -1.913  1.00  0.00    -0.201 OA
ATOM     15  O   UNL     1      -0.659   2.175  -0.634  1.00  0.00    -0.201 OA
BRANCH  13  16
ATOM     16  N   UNL     1      -0.080  -0.152  -1.362  1.00  0.00    -0.249 N 
ATOM     17  C   UNL     1      -1.816  -0.510   0.401  1.00  0.00     0.115 C 
ATOM     18  C   UNL     1      -1.271  -0.777  -0.972  1.00  0.00     0.230 C 
ATOM     19  O   UNL     1      -1.752  -1.625  -1.710  1.00  0.00    -0.274 OA
ATOM     20  H   UNL     1       0.491  -0.661  -1.981  1.00  0.00     0.183 HD
ENDBRANCH  13  16
ENDBRANCH   8  13
BRANCH  10  21
ATOM     21  C   UNL     1       2.582  -1.958   2.473  1.00  0.00    -0.011 A 
ATOM     22  C   UNL     1       1.647  -2.589   3.388  1.00  0.00     0.027 A 
ATOM     23  C   UNL     1       3.523  -2.710   1.880  1.00  0.00     0.080 A 
ATOM     24  C   UNL     1       1.678  -3.910   3.592  1.00  0.00     0.095 A 
ATOM     25  C   UNL     1       3.590  -4.181   2.124  1.00  0.00     0.255 A 
ATOM     26  N   UNL     1       2.617  -4.703   2.961  1.00  0.00    -0.258 N 
ATOM     27  O   UNL     1       4.465  -4.826   1.555  1.00  0.00    -0.269 OA
BRANCH  26  28
ATOM     28  C   UNL     1       2.602  -6.133   3.143  1.00  0.00     0.451 C 
ATOM     29  F   UNL     1       2.413  -6.767   1.960  1.00  0.00    -0.185 F 
ATOM     30  F   UNL     1       3.767  -6.572   3.675  1.00  0.00    -0.185 F 
ENDBRANCH  26  28
ENDBRANCH  10  21
ENDBRANCH   4   7
ENDBRANCH   2   3
ENDBRANCH   1   2
BRANCH   1  31
ATOM     31  C   UNL     1       1.335   6.147  -2.200  1.00  0.00     0.023 C 
BRANCH  31  32
ATOM     32  C   UNL     1       2.605   6.691  -2.853  1.00  0.00     0.116 C 
BRANCH  32  33
ATOM     33  N   UNL     1       2.933   5.985  -4.086  1.00  0.00    -0.352 N 
ATOM     34  C   UNL     1       3.007   6.432  -5.379  1.00  0.00     0.251 C 
ATOM     35  H   UNL     1       3.135   5.028  -3.970  1.00  0.00     0.163 HD
ATOM     36  O   UNL     1       3.089   5.627  -6.302  1.00  0.00    -0.269 OA
BRANCH  34  37
ATOM     37  C   UNL     1       2.990   7.877  -5.678  1.00  0.00     0.039 A 
ATOM     38  C   UNL     1       2.204   8.335  -6.740  1.00  0.00     0.014 A 
ATOM     39  C   UNL     1       3.789   8.768  -4.957  1.00  0.00     0.014 A 
ATOM     40  C   UNL     1       2.165   9.698  -7.038  1.00  0.00     0.010 A 
ATOM     41  C   UNL     1       3.723  10.131  -5.231  1.00  0.00     0.010 A 
ATOM     42  C   UNL     1       2.902  10.607  -6.265  1.00  0.00    -0.014 A 
BRANCH  42  43
ATOM     43  C   UNL     1       2.822  12.065  -6.497  1.00  0.00     0.031 A 
ATOM     44  C   UNL     1       4.018  12.811  -7.005  1.00  0.00     0.074 A 
ATOM     45  C   UNL     1       1.710  12.737  -6.149  1.00  0.00     0.049 A 
ATOM     46  N   UNL     1       4.249  14.098  -6.987  1.00  0.00    -0.248 NA
ATOM     47  C   UNL     1       5.107  12.004  -7.574  1.00  0.00     0.031 C 
ATOM     48  C   UNL     1       0.486  12.141  -5.613  1.00  0.00     0.029 A 
ATOM     49  N   UNL     1       1.447  14.082  -6.175  1.00  0.00    -0.354 N 
ATOM     50  C   UNL     1       5.544  14.250  -7.459  1.00  0.00     0.074 A 
ATOM     51  C   UNL     1       6.026  12.931  -7.815  1.00  0.00     0.031 C 
ATOM     52  C   UNL     1      -0.401  13.118  -5.361  1.00  0.00     0.029 A 
ATOM     53  C   UNL     1       0.205  14.404  -5.689  1.00  0.00     0.049 A 
ATOM     54  H   UNL     1       2.087  14.752  -6.508  1.00  0.00     0.167 HD
ATOM     55  C   UNL     1       6.277  15.384  -7.547  1.00  0.00     0.031 A 
ATOM     56  C   UNL     1      -0.371  15.604  -5.506  1.00  0.00     0.031 A 
ATOM     57  C   UNL     1       5.783  16.699  -7.244  1.00  0.00     0.049 A 
ATOM     58  C   UNL     1       0.394  16.852  -5.821  1.00  0.00     0.074 A 
ATOM     59  C   UNL     1       6.466  17.903  -7.229  1.00  0.00     0.029 A 
ATOM     60  N   UNL     1       4.461  16.983  -6.947  1.00  0.00    -0.354 N 
ATOM     61  N   UNL     1       1.654  16.978  -6.155  1.00  0.00    -0.248 NA
ATOM     62  C   UNL     1      -0.342  18.120  -5.730  1.00  0.00     0.031 C 
ATOM     63  C   UNL     1       5.543  18.924  -6.958  1.00  0.00     0.029 A 
ATOM     64  C   UNL     1       4.293  18.349  -6.803  1.00  0.00     0.049 A 
ATOM     65  H   UNL     1       3.747  16.313  -6.854  1.00  0.00     0.167 HD
ATOM     66  C   UNL     1       1.872  18.341  -6.285  1.00  0.00     0.074 A 
ATOM     67  C   UNL     1       0.607  18.999  -6.026  1.00  0.00     0.031 C 
ATOM     68  C   UNL     1       3.027  18.988  -6.568  1.00  0.00     0.031 A 
BRANCH  55  69
ATOM     69  C   UNL     1       7.710  15.229  -7.945  1.00  0.00    -0.014 A 
ATOM     70  C   UNL     1       8.092  15.261  -9.293  1.00  0.00     0.009 A 
ATOM     71  C   UNL     1       8.688  15.047  -6.955  1.00  0.00     0.009 A 
ATOM     72  C   UNL     1       9.434  15.098  -9.643  1.00  0.00     0.001 A 
ATOM     73  C   UNL     1      10.028  14.888  -7.309  1.00  0.00     0.001 A 
ATOM     74  C   UNL     1      10.399  14.911  -8.652  1.00  0.00     0.000 A 
ENDBRANCH  55  69
BRANCH  56  75
ATOM     75  C   UNL     1      -1.748  15.678  -4.972  1.00  0.00    -0.014 A 
ATOM     76  C   UNL     1      -2.845  15.646  -5.844  1.00  0.00     0.009 A 
ATOM     77  C   UNL     1      -1.967  15.758  -3.590  1.00  0.00     0.009 A 
ATOM     78  C   UNL     1      -4.145  15.703  -5.338  1.00  0.00     0.001 A 
ATOM     79  C   UNL     1      -3.268  15.812  -3.088  1.00  0.00     0.001 A 
ATOM     80  C   UNL     1      -4.355  15.786  -3.962  1.00  0.00     0.000 A 
ENDBRANCH  56  75
BRANCH  68  81
ATOM     81  C   UNL     1       2.969  20.482  -6.609  1.00  0.00    -0.014 A 
ATOM     82  C   UNL     1       3.224  21.231  -5.451  1.00  0.00     0.009 A 
ATOM     83  C   UNL     1       2.667  21.146  -7.807  1.00  0.00     0.009 A 
ATOM     84  C   UNL     1       3.168  22.624  -5.489  1.00  0.00     0.001 A 
ATOM     85  C   UNL     1       2.609  22.540  -7.840  1.00  0.00     0.001 A 
ATOM     86  C   UNL     1       2.859  23.277  -6.682  1.00  0.00     0.000 A 
ENDBRANCH  68  81
ENDBRANCH  42  43
ENDBRANCH  34  37
ENDBRANCH  32  33
ENDBRANCH  31  32
ENDBRANCH   1  31
TORSDOF 15
