REMARK SMILES C[C@H]1CCC[C@H](S[C@@H]2CCC[C@]([NH3+])(C(=O)NCCCCNC(=O)c3ccc(-c4c5nc(c(-c6ccccc6)c6ccc([nH]6)c(-c6ccccc6)c6nc(c(-c7ccccc7)c7ccc4[nH]7)C=C6)C=C5)cc3)C2)C1
REMARK SMILES IDX 18 1 17 2 16 3 14 4 15 5 12 7 8 8 9 9 72 10 10 11 11 12 7 13
REMARK SMILES IDX 6 14 1 15 2 16 3 17 73 18 4 19 5 20 13 21 19 25 20 26 21 27
REMARK SMILES IDX 22 28 23 30 24 31 25 32 71 33 26 34 70 35 27 36 28 37 29 38
REMARK SMILES IDX 64 39 30 40 69 41 63 42 65 43 31 44 68 45 62 46 61 47 32 49
REMARK SMILES IDX 54 50 39 51 53 52 40 53 43 54 52 55 66 56 41 57 42 58 51 60
REMARK SMILES IDX 67 61 44 62 33 63 34 64 38 65 35 66 37 67 36 68 55 69 56 70
REMARK SMILES IDX 60 71 57 72 59 73 58 74 45 75 46 76 50 77 47 78 49 79 48 80
REMARK H PARENT 16 6 13 22 13 23 13 24 21 29 65 48 43 59
REMARK Flexibility Score: inf
ROOT
ATOM      1  C   UNL     1       4.596   3.798   5.085  1.00  0.00     0.023 C 
ENDROOT
BRANCH   1   2
ATOM      2  C   UNL     1       3.618   3.900   3.919  1.00  0.00     0.116 C 
BRANCH   2   3
ATOM      3  N   UNL     1       3.746   2.775   3.023  1.00  0.00    -0.351 N 
ATOM      4  C   UNL     1       2.883   1.776   2.698  1.00  0.00     0.281 C 
ATOM      5  O   UNL     1       3.345   0.903   1.956  1.00  0.00    -0.268 OA
ATOM      6  H   UNL     1       4.615   2.721   2.564  1.00  0.00     0.163 HD
BRANCH   4   7
ATOM      7  C   UNL     1       1.422   1.705   3.266  1.00  0.00     0.175 C 
ATOM      8  C   UNL     1      -0.710   0.256   2.974  1.00  0.00     0.053 C 
ATOM      9  C   UNL     1      -1.587   1.508   2.859  1.00  0.00     0.015 C 
ATOM     10  C   UNL     1       0.735   0.498   2.601  1.00  0.00     0.093 C 
ATOM     11  C   UNL     1      -0.891   2.793   3.334  1.00  0.00     0.008 C 
ATOM     12  C   UNL     1       0.568   2.931   2.885  1.00  0.00     0.079 C 
BRANCH   8  13
ATOM     13  S   UNL     1      -1.398  -1.254   2.135  1.00  0.00    -0.155 SA
BRANCH  13  14
ATOM     14  C   UNL     1      -1.116  -1.192   0.285  1.00  0.00     0.047 C 
ATOM     15  C   UNL     1       2.458  -0.849  -1.389  1.00  0.00     0.007 C 
ATOM     16  C   UNL     1       1.216  -0.429  -0.603  1.00  0.00    -0.013 C 
ATOM     17  C   UNL     1       0.528   0.762  -1.285  1.00  0.00     0.003 C 
ATOM     18  C   UNL     1       0.259  -1.587  -0.302  1.00  0.00     0.017 C 
ATOM     19  C   UNL     1      -0.837   1.143  -0.720  1.00  0.00     0.001 C 
ATOM     20  C   UNL     1      -1.760  -0.042  -0.484  1.00  0.00     0.014 C 
ENDBRANCH  13  14
ENDBRANCH   8  13
BRANCH   7  21
ATOM     21  N   UNL     1       1.478   1.475   4.724  1.00  0.00    -0.345 N 
ATOM     22  H   UNL     1       1.931   2.268   5.177  1.00  0.00     0.345 HD
ATOM     23  H   UNL     1       2.009   0.625   4.915  1.00  0.00     0.345 HD
ATOM     24  H   UNL     1       0.530   1.372   5.089  1.00  0.00     0.345 HD
ENDBRANCH   7  21
ENDBRANCH   4   7
ENDBRANCH   2   3
ENDBRANCH   1   2
BRANCH   1  25
ATOM     25  C   UNL     1       6.068   3.937   4.702  1.00  0.00     0.023 C 
BRANCH  25  26
ATOM     26  C   UNL     1       6.403   5.152   3.845  1.00  0.00     0.116 C 
BRANCH  26  27
ATOM     27  N   UNL     1       5.906   6.400   4.405  1.00  0.00    -0.352 N 
ATOM     28  C   UNL     1       6.566   7.590   4.612  1.00  0.00     0.251 C 
ATOM     29  H   UNL     1       4.960   6.391   4.676  1.00  0.00     0.163 HD
ATOM     30  O   UNL     1       6.027   8.504   5.206  1.00  0.00    -0.269 OA
BRANCH  28  31
ATOM     31  C   UNL     1       7.956   7.724   4.129  1.00  0.00     0.039 A 
ATOM     32  C   UNL     1       8.930   8.191   5.013  1.00  0.00     0.014 A 
ATOM     33  C   UNL     1       8.295   7.343   2.829  1.00  0.00     0.014 A 
ATOM     34  C   UNL     1      10.266   8.203   4.613  1.00  0.00     0.010 A 
ATOM     35  C   UNL     1       9.634   7.279   2.462  1.00  0.00     0.010 A 
ATOM     36  C   UNL     1      10.632   7.707   3.351  1.00  0.00    -0.014 A 
BRANCH  36  37
ATOM     37  C   UNL     1      12.055   7.630   2.939  1.00  0.00     0.031 A 
ATOM     38  C   UNL     1      12.539   8.434   1.764  1.00  0.00     0.074 A 
ATOM     39  C   UNL     1      12.893   6.794   3.582  1.00  0.00     0.049 A 
ATOM     40  N   UNL     1      13.723   8.446   1.206  1.00  0.00    -0.248 NA
ATOM     41  C   UNL     1      11.560   9.322   1.116  1.00  0.00     0.031 C 
ATOM     42  C   UNL     1      12.535   5.930   4.710  1.00  0.00     0.029 A 
ATOM     43  N   UNL     1      14.223   6.528   3.373  1.00  0.00    -0.354 N 
ATOM     44  C   UNL     1      13.627   9.335   0.143  1.00  0.00     0.074 A 
ATOM     45  C   UNL     1      12.257   9.794   0.094  1.00  0.00     0.031 C 
ATOM     46  C   UNL     1      13.623   5.249   5.107  1.00  0.00     0.029 A 
ATOM     47  C   UNL     1      14.743   5.595   4.238  1.00  0.00     0.049 A 
ATOM     48  H   UNL     1      14.755   6.965   2.669  1.00  0.00     0.167 HD
ATOM     49  C   UNL     1      14.598   9.755  -0.701  1.00  0.00     0.031 A 
ATOM     50  C   UNL     1      15.980   5.071   4.316  1.00  0.00     0.031 A 
ATOM     51  C   UNL     1      15.963   9.305  -0.649  1.00  0.00     0.049 A 
ATOM     52  C   UNL     1      17.034   5.536   3.347  1.00  0.00     0.074 A 
ATOM     53  C   UNL     1      17.028   9.692  -1.444  1.00  0.00     0.029 A 
ATOM     54  N   UNL     1      16.450   8.371   0.251  1.00  0.00    -0.354 N 
ATOM     55  N   UNL     1      16.939   6.420   2.383  1.00  0.00    -0.248 NA
ATOM     56  C   UNL     1      18.370   4.940   3.488  1.00  0.00     0.031 C 
ATOM     57  C   UNL     1      18.153   8.961  -1.050  1.00  0.00     0.029 A 
ATOM     58  C   UNL     1      17.799   8.161   0.025  1.00  0.00     0.049 A 
ATOM     59  H   UNL     1      15.917   7.925   0.948  1.00  0.00     0.167 HD
ATOM     60  C   UNL     1      18.207   6.509   1.825  1.00  0.00     0.074 A 
ATOM     61  C   UNL     1      19.058   5.606   2.571  1.00  0.00     0.031 C 
ATOM     62  C   UNL     1      18.631   7.268   0.786  1.00  0.00     0.031 A 
BRANCH  49  63
ATOM     63  C   UNL     1      14.220  10.767  -1.745  1.00  0.00    -0.014 A 
ATOM     64  C   UNL     1      13.925  12.093  -1.389  1.00  0.00     0.009 A 
ATOM     65  C   UNL     1      14.206  10.408  -3.101  1.00  0.00     0.009 A 
ATOM     66  C   UNL     1      13.597  13.032  -2.368  1.00  0.00     0.001 A 
ATOM     67  C   UNL     1      13.906  11.357  -4.081  1.00  0.00     0.001 A 
ATOM     68  C   UNL     1      13.595  12.665  -3.713  1.00  0.00     0.000 A 
ENDBRANCH  49  63
BRANCH  50  69
ATOM     69  C   UNL     1      16.303   4.043   5.341  1.00  0.00    -0.014 A 
ATOM     70  C   UNL     1      17.191   4.331   6.390  1.00  0.00     0.009 A 
ATOM     71  C   UNL     1      15.757   2.752   5.253  1.00  0.00     0.009 A 
ATOM     72  C   UNL     1      17.560   3.338   7.300  1.00  0.00     0.001 A 
ATOM     73  C   UNL     1      16.102   1.771   6.185  1.00  0.00     0.001 A 
ATOM     74  C   UNL     1      17.014   2.060   7.198  1.00  0.00     0.000 A 
ENDBRANCH  50  69
BRANCH  62  75
ATOM     75  C   UNL     1      20.088   7.190   0.427  1.00  0.00    -0.014 A 
ATOM     76  C   UNL     1      20.629   6.053  -0.193  1.00  0.00     0.009 A 
ATOM     77  C   UNL     1      20.923   8.290   0.681  1.00  0.00     0.009 A 
ATOM     78  C   UNL     1      21.985   6.007  -0.521  1.00  0.00     0.001 A 
ATOM     79  C   UNL     1      22.271   8.253   0.324  1.00  0.00     0.001 A 
ATOM     80  C   UNL     1      22.803   7.108  -0.267  1.00  0.00     0.000 A 
ENDBRANCH  62  75
ENDBRANCH  36  37
ENDBRANCH  28  31
ENDBRANCH  26  27
ENDBRANCH  25  26
ENDBRANCH   1  25
TORSDOF 14
