REMARK SMILES Cc1cccc(N2C(=O)/C(=C/c3ccc(C(=O)NCCCCNC(=O)c4ccc(-c5c6nc(c(-c7ccccc7)c7ccc([nH]7)c(-c7ccccc7)c7nc(c(-c8ccccc8)c8ccc5[nH]8)C=C7)C=C6)cc4)cc3)c3ccccc3C2=O)c1
REMARK SMILES IDX 20 1 19 2 18 3 16 4 17 5 15 7 12 8 13 9 75 10 14 11 74 12
REMARK SMILES IDX 11 13 7 14 8 15 82 16 9 17 10 18 81 19 83 20 76 21 80 22
REMARK SMILES IDX 77 23 79 24 78 25 6 26 1 27 2 28 3 29 84 30 4 31 5 32 21 33
REMARK SMILES IDX 22 34 23 35 24 36 25 38 26 39 27 40 73 41 28 42 72 43 29 44
REMARK SMILES IDX 30 45 31 46 66 47 32 48 71 49 65 50 67 51 33 52 70 53 64 54
REMARK SMILES IDX 63 55 34 57 56 58 41 59 55 60 42 61 45 62 54 63 68 64 43 65
REMARK SMILES IDX 44 66 53 68 69 69 46 70 35 71 36 72 40 73 37 74 39 75 38 76
REMARK SMILES IDX 57 77 58 78 62 79 59 80 61 81 60 82 47 83 48 84 52 85 49 86
REMARK SMILES IDX 51 87 50 88
REMARK H PARENT 18 6 23 37 67 56 45 67
REMARK Flexibility Score: inf
ROOT
ATOM      1  C   UNL     1      -5.425  10.663   2.426  1.00  0.00     0.023 C 
ENDROOT
BRANCH   1   2
ATOM      2  C   UNL     1      -5.729  10.308   0.966  1.00  0.00     0.116 C 
BRANCH   2   3
ATOM      3  N   UNL     1      -5.169  11.246   0.001  1.00  0.00    -0.352 N 
ATOM      4  C   UNL     1      -4.185  11.086  -0.947  1.00  0.00     0.251 C 
ATOM      5  O   UNL     1      -3.804  12.055  -1.599  1.00  0.00    -0.269 OA
ATOM      6  H   UNL     1      -5.562  12.148   0.034  1.00  0.00     0.163 HD
BRANCH   4   7
ATOM      7  C   UNL     1      -3.536   9.774  -1.147  1.00  0.00     0.039 A 
ATOM      8  C   UNL     1      -2.249   7.298  -1.181  1.00  0.00    -0.025 A 
ATOM      9  C   UNL     1      -1.496   8.476  -1.137  1.00  0.00     0.009 A 
ATOM     10  C   UNL     1      -3.637   7.372  -1.363  1.00  0.00     0.009 A 
ATOM     11  C   UNL     1      -2.139   9.716  -1.121  1.00  0.00     0.014 A 
ATOM     12  C   UNL     1      -4.280   8.611  -1.352  1.00  0.00     0.014 A 
BRANCH   8  13
ATOM     13  C   UNL     1      -1.571   6.011  -0.984  1.00  0.00     0.022 C 
ATOM     14  N   UNL     1      -1.733   2.652   0.305  1.00  0.00    -0.242 N 
ATOM     15  C   UNL     1      -1.054   3.809  -0.133  1.00  0.00     0.265 C 
ATOM     16  C   UNL     1      -3.066   2.718   0.764  1.00  0.00     0.265 C 
ATOM     17  O   UNL     1       0.060   3.855  -0.655  1.00  0.00    -0.268 OA
ATOM     18  C   UNL     1      -1.834   5.093  -0.025  1.00  0.00     0.049 C 
ATOM     19  C   UNL     1      -3.521   4.004   1.343  1.00  0.00     0.048 A 
ATOM     20  O   UNL     1      -3.903   1.818   0.769  1.00  0.00    -0.268 OA
ATOM     21  C   UNL     1      -2.862   5.184   1.015  1.00  0.00    -0.000 A 
ATOM     22  C   UNL     1      -4.598   4.016   2.244  1.00  0.00     0.014 A 
ATOM     23  C   UNL     1      -3.219   6.362   1.690  1.00  0.00     0.010 A 
ATOM     24  C   UNL     1      -4.988   5.204   2.858  1.00  0.00     0.001 A 
ATOM     25  C   UNL     1      -4.284   6.375   2.595  1.00  0.00     0.001 A 
BRANCH  14  26
ATOM     26  C   UNL     1      -1.073   1.351   0.174  1.00  0.00     0.053 A 
ATOM     27  C   UNL     1       2.493  -0.078   0.017  1.00  0.00     0.044 C 
ATOM     28  C   UNL     1       0.994  -0.002   0.041  1.00  0.00    -0.049 A 
ATOM     29  C   UNL     1       0.241  -1.169  -0.060  1.00  0.00     0.003 A 
ATOM     30  C   UNL     1       0.334   1.235   0.177  1.00  0.00     0.030 A 
ATOM     31  C   UNL     1      -1.145  -1.095  -0.040  1.00  0.00     0.002 A 
ATOM     32  C   UNL     1      -1.787   0.146   0.071  1.00  0.00     0.027 A 
ENDBRANCH  14  26
ENDBRANCH   8  13
ENDBRANCH   4   7
ENDBRANCH   2   3
ENDBRANCH   1   2
BRANCH   1  33
ATOM     33  C   UNL     1      -5.900  12.037   2.898  1.00  0.00     0.023 C 
BRANCH  33  34
ATOM     34  C   UNL     1      -7.409  12.252   2.869  1.00  0.00     0.116 C 
BRANCH  34  35
ATOM     35  N   UNL     1      -8.123  11.791   4.051  1.00  0.00    -0.352 N 
ATOM     36  C   UNL     1      -9.493  11.761   4.305  1.00  0.00     0.251 C 
ATOM     37  H   UNL     1      -7.554  11.451   4.778  1.00  0.00     0.163 HD
ATOM     38  O   UNL     1      -9.905  11.378   5.376  1.00  0.00    -0.269 OA
BRANCH  36  39
ATOM     39  C   UNL     1     -10.448  12.066   3.202  1.00  0.00     0.039 A 
ATOM     40  C   UNL     1     -11.537  11.203   3.031  1.00  0.00     0.014 A 
ATOM     41  C   UNL     1     -10.171  13.031   2.239  1.00  0.00     0.014 A 
ATOM     42  C   UNL     1     -12.155  11.122   1.785  1.00  0.00     0.010 A 
ATOM     43  C   UNL     1     -10.706  12.884   0.976  1.00  0.00     0.010 A 
ATOM     44  C   UNL     1     -11.638  11.873   0.732  1.00  0.00    -0.014 A 
BRANCH  44  45
ATOM     45  C   UNL     1     -11.879  11.549  -0.669  1.00  0.00     0.031 A 
ATOM     46  C   UNL     1     -12.733  12.402  -1.514  1.00  0.00     0.074 A 
ATOM     47  C   UNL     1     -11.254  10.481  -1.210  1.00  0.00     0.049 A 
ATOM     48  N   UNL     1     -13.316  12.000  -2.593  1.00  0.00    -0.248 NA
ATOM     49  C   UNL     1     -13.064  13.777  -1.158  1.00  0.00     0.031 C 
ATOM     50  C   UNL     1     -11.113  10.142  -2.622  1.00  0.00     0.029 A 
ATOM     51  N   UNL     1     -10.794   9.352  -0.544  1.00  0.00    -0.354 N 
ATOM     52  C   UNL     1     -13.825  13.111  -3.224  1.00  0.00     0.074 A 
ATOM     53  C   UNL     1     -13.758  14.159  -2.233  1.00  0.00     0.031 C 
ATOM     54  C   UNL     1     -10.824   8.834  -2.729  1.00  0.00     0.029 A 
ATOM     55  C   UNL     1     -10.930   8.253  -1.400  1.00  0.00     0.049 A 
ATOM     56  H   UNL     1     -10.435   9.329   0.372  1.00  0.00     0.167 HD
ATOM     57  C   UNL     1     -14.097  13.051  -4.558  1.00  0.00     0.031 A 
ATOM     58  C   UNL     1     -11.755   7.214  -1.073  1.00  0.00     0.031 A 
ATOM     59  C   UNL     1     -13.974  11.685  -5.075  1.00  0.00     0.049 A 
ATOM     60  C   UNL     1     -12.913   7.028  -2.033  1.00  0.00     0.074 A 
ATOM     61  C   UNL     1     -13.005  11.041  -5.827  1.00  0.00     0.029 A 
ATOM     62  N   UNL     1     -14.818  10.693  -4.588  1.00  0.00    -0.354 N 
ATOM     63  N   UNL     1     -13.304   7.929  -2.891  1.00  0.00    -0.248 NA
ATOM     64  C   UNL     1     -13.751   5.831  -2.065  1.00  0.00     0.031 C 
ATOM     65  C   UNL     1     -13.222   9.641  -5.714  1.00  0.00     0.029 A 
ATOM     66  C   UNL     1     -14.343   9.441  -4.928  1.00  0.00     0.049 A 
ATOM     67  H   UNL     1     -15.640  10.859  -4.072  1.00  0.00     0.167 HD
ATOM     68  C   UNL     1     -14.410   7.478  -3.561  1.00  0.00     0.074 A 
ATOM     69  C   UNL     1     -14.642   6.151  -3.021  1.00  0.00     0.031 C 
ATOM     70  C   UNL     1     -15.051   8.244  -4.491  1.00  0.00     0.031 A 
BRANCH  57  71
ATOM     71  C   UNL     1     -14.199  14.267  -5.459  1.00  0.00    -0.014 A 
ATOM     72  C   UNL     1     -14.064  14.110  -6.852  1.00  0.00     0.009 A 
ATOM     73  C   UNL     1     -14.334  15.594  -5.014  1.00  0.00     0.009 A 
ATOM     74  C   UNL     1     -13.988  15.206  -7.726  1.00  0.00     0.001 A 
ATOM     75  C   UNL     1     -14.246  16.696  -5.877  1.00  0.00     0.001 A 
ATOM     76  C   UNL     1     -14.059  16.502  -7.235  1.00  0.00     0.000 A 
ENDBRANCH  57  71
BRANCH  58  77
ATOM     77  C   UNL     1     -11.827   6.947   0.391  1.00  0.00    -0.014 A 
ATOM     78  C   UNL     1     -10.668   6.480   1.044  1.00  0.00     0.009 A 
ATOM     79  C   UNL     1     -12.867   7.474   1.170  1.00  0.00     0.009 A 
ATOM     80  C   UNL     1     -10.507   6.644   2.423  1.00  0.00     0.001 A 
ATOM     81  C   UNL     1     -12.706   7.624   2.554  1.00  0.00     0.001 A 
ATOM     82  C   UNL     1     -11.515   7.243   3.173  1.00  0.00     0.000 A 
ENDBRANCH  58  77
BRANCH  70  83
ATOM     83  C   UNL     1     -16.380   7.928  -5.130  1.00  0.00    -0.014 A 
ATOM     84  C   UNL     1     -17.365   7.120  -4.547  1.00  0.00     0.009 A 
ATOM     85  C   UNL     1     -16.731   8.589  -6.329  1.00  0.00     0.009 A 
ATOM     86  C   UNL     1     -18.617   6.945  -5.154  1.00  0.00     0.001 A 
ATOM     87  C   UNL     1     -17.992   8.453  -6.914  1.00  0.00     0.001 A 
ATOM     88  C   UNL     1     -18.934   7.619  -6.330  1.00  0.00     0.000 A 
ENDBRANCH  70  83
ENDBRANCH  44  45
ENDBRANCH  36  39
ENDBRANCH  34  35
ENDBRANCH  33  34
ENDBRANCH   1  33
TORSDOF 13
