REMARK SMILES O=C(NCCCCNC(=O)c1ccc(OC[C@H]2C[C@H]3CC[C@@H]2C3)c(Cl)c1)c1ccc(-c2c3nc(c(-c4ccccc4)c4ccc([nH]4)c(-c4ccccc4)c4nc(c(-c5ccccc5)c5ccc2[nH]5)C=C4)C=C3)cc1
REMARK SMILES IDX 6 1 5 2 4 3 3 4 1 5 2 6 27 8 28 9 74 10 29 11 73 12 30 13
REMARK SMILES IDX 31 14 32 15 67 16 33 17 72 18 66 19 68 20 34 21 71 22 65 23
REMARK SMILES IDX 64 24 35 26 57 27 42 28 56 29 43 30 46 31 55 32 69 33 44 34
REMARK SMILES IDX 45 35 54 37 70 38 47 39 36 40 37 41 41 42 38 43 40 44 39 45
REMARK SMILES IDX 58 46 59 47 63 48 60 49 62 50 61 51 48 52 49 53 53 54 50 55
REMARK SMILES IDX 52 56 51 57 7 58 8 59 9 60 10 62 11 63 12 64 26 65 13 66
REMARK SMILES IDX 24 67 14 68 25 69 15 70 16 71 17 72 18 73 22 74 19 75 21 76
REMARK SMILES IDX 23 77 20 78
REMARK H PARENT 3 7 68 25 46 36 8 61
REMARK Flexibility Score: inf
ROOT
ATOM      1  C   UNL     1      13.133 -10.928  12.135  1.00  0.00     0.023 C 
ENDROOT
BRANCH   1   2
ATOM      2  C   UNL     1      14.429 -11.656  11.777  1.00  0.00     0.023 C 
BRANCH   2   3
ATOM      3  C   UNL     1      15.686 -11.059  12.399  1.00  0.00     0.116 C 
BRANCH   3   4
ATOM      4  N   UNL     1      15.565 -10.880  13.838  1.00  0.00    -0.352 N 
ATOM      5  O   UNL     1      16.140 -11.108  16.006  1.00  0.00    -0.269 OA
ATOM      6  C   UNL     1      16.453 -11.209  14.826  1.00  0.00     0.251 C 
ATOM      7  H   UNL     1      14.726 -10.464  14.143  1.00  0.00     0.163 HD
BRANCH   6   8
ATOM      8  C   UNL     1      17.782 -11.716  14.450  1.00  0.00     0.039 A 
ATOM      9  C   UNL     1      18.567 -11.031  13.517  1.00  0.00     0.014 A 
ATOM     10  C   UNL     1      18.233 -12.902  15.034  1.00  0.00     0.014 A 
ATOM     11  C   UNL     1      19.764 -11.590  13.086  1.00  0.00     0.010 A 
ATOM     12  C   UNL     1      19.461 -13.429  14.645  1.00  0.00     0.010 A 
ATOM     13  C   UNL     1      20.222 -12.788  13.653  1.00  0.00    -0.014 A 
BRANCH  13  14
ATOM     14  C   UNL     1      21.528 -13.351  13.249  1.00  0.00     0.031 A 
ATOM     15  C   UNL     1      21.602 -14.654  12.511  1.00  0.00     0.074 A 
ATOM     16  C   UNL     1      22.649 -12.696  13.597  1.00  0.00     0.049 A 
ATOM     17  N   UNL     1      22.659 -15.346  12.171  1.00  0.00    -0.248 NA
ATOM     18  C   UNL     1      20.325 -15.264  12.113  1.00  0.00     0.031 C 
ATOM     19  C   UNL     1      22.693 -11.420  14.315  1.00  0.00     0.029 A 
ATOM     20  N   UNL     1      23.966 -13.020  13.406  1.00  0.00    -0.354 N 
ATOM     21  C   UNL     1      22.175 -16.487  11.545  1.00  0.00     0.074 A 
ATOM     22  C   UNL     1      20.730 -16.401  11.564  1.00  0.00     0.031 C 
ATOM     23  C   UNL     1      23.973 -11.068  14.501  1.00  0.00     0.029 A 
ATOM     24  C   UNL     1      24.834 -12.117  13.968  1.00  0.00     0.049 A 
ATOM     25  H   UNL     1      24.261 -13.821  12.916  1.00  0.00     0.167 HD
ATOM     26  C   UNL     1      22.877 -17.514  11.008  1.00  0.00     0.031 A 
ATOM     27  C   UNL     1      26.174 -12.147  14.076  1.00  0.00     0.031 A 
ATOM     28  C   UNL     1      24.313 -17.591  10.996  1.00  0.00     0.049 A 
ATOM     29  C   UNL     1      26.927 -13.309  13.505  1.00  0.00     0.074 A 
ATOM     30  C   UNL     1      25.120 -18.568  10.440  1.00  0.00     0.029 A 
ATOM     31  N   UNL     1      25.158 -16.656  11.575  1.00  0.00    -0.354 N 
ATOM     32  N   UNL     1      26.460 -14.367  12.887  1.00  0.00    -0.248 NA
ATOM     33  C   UNL     1      28.389 -13.283  13.644  1.00  0.00     0.031 C 
ATOM     34  C   UNL     1      26.452 -18.247  10.724  1.00  0.00     0.029 A 
ATOM     35  C   UNL     1      26.476 -17.045  11.414  1.00  0.00     0.049 A 
ATOM     36  H   UNL     1      24.863 -15.836  12.034  1.00  0.00     0.167 HD
ATOM     37  C   UNL     1      27.570 -15.126  12.546  1.00  0.00     0.074 A 
ATOM     38  C   UNL     1      28.734 -14.402  13.020  1.00  0.00     0.031 C 
ATOM     39  C   UNL     1      27.619 -16.313  11.895  1.00  0.00     0.031 A 
BRANCH  26  40
ATOM     40  C   UNL     1      22.091 -18.654  10.426  1.00  0.00    -0.014 A 
ATOM     41  C   UNL     1      21.395 -18.522   9.214  1.00  0.00     0.009 A 
ATOM     42  C   UNL     1      22.064 -19.889  11.094  1.00  0.00     0.009 A 
ATOM     43  C   UNL     1      20.657 -19.592   8.703  1.00  0.00     0.001 A 
ATOM     44  C   UNL     1      21.346 -20.964  10.568  1.00  0.00     0.001 A 
ATOM     45  C   UNL     1      20.634 -20.812   9.379  1.00  0.00     0.000 A 
ENDBRANCH  26  40
BRANCH  27  46
ATOM     46  C   UNL     1      26.865 -11.038  14.777  1.00  0.00    -0.014 A 
ATOM     47  C   UNL     1      27.568 -10.065  14.053  1.00  0.00     0.009 A 
ATOM     48  C   UNL     1      26.763 -10.911  16.172  1.00  0.00     0.009 A 
ATOM     49  C   UNL     1      28.161  -8.988  14.715  1.00  0.00     0.001 A 
ATOM     50  C   UNL     1      27.337  -9.820  16.827  1.00  0.00     0.001 A 
ATOM     51  C   UNL     1      28.038  -8.862  16.099  1.00  0.00     0.000 A 
ENDBRANCH  27  46
BRANCH  39  52
ATOM     52  C   UNL     1      28.978 -16.890  11.627  1.00  0.00    -0.014 A 
ATOM     53  C   UNL     1      29.712 -17.519  12.643  1.00  0.00     0.009 A 
ATOM     54  C   UNL     1      29.502 -16.852  10.325  1.00  0.00     0.009 A 
ATOM     55  C   UNL     1      30.957 -18.085  12.362  1.00  0.00     0.001 A 
ATOM     56  C   UNL     1      30.736 -17.437  10.044  1.00  0.00     0.001 A 
ATOM     57  C   UNL     1      31.465 -18.049  11.063  1.00  0.00     0.000 A 
ENDBRANCH  39  52
ENDBRANCH  13  14
ENDBRANCH   6   8
ENDBRANCH   3   4
ENDBRANCH   2   3
ENDBRANCH   1   2
BRANCH   1  58
ATOM     58  C   UNL     1      13.191  -9.419  11.920  1.00  0.00     0.116 C 
BRANCH  58  59
ATOM     59  N   UNL     1      13.333  -9.103  10.514  1.00  0.00    -0.352 N 
ATOM     60  C   UNL     1      12.347  -8.695   9.661  1.00  0.00     0.251 C 
ATOM     61  H   UNL     1      14.237  -9.191  10.132  1.00  0.00     0.163 HD
ATOM     62  O   UNL     1      12.556  -8.499   8.470  1.00  0.00    -0.269 OA
BRANCH  60  63
ATOM     63  C   UNL     1      11.014  -8.455  10.221  1.00  0.00     0.041 A 
ATOM     64  C   UNL     1      10.676  -7.155  10.591  1.00  0.00     0.018 A 
ATOM     65  C   UNL     1      10.126  -9.515  10.402  1.00  0.00     0.038 A 
ATOM     66  C   UNL     1       9.386  -6.902  11.039  1.00  0.00     0.049 A 
ATOM     67  C   UNL     1       8.839  -9.252  10.874  1.00  0.00     0.083 A 
ATOM     68  C   UNL     1       8.430  -7.926  11.066  1.00  0.00     0.137 A 
ATOM     69  Cl  UNL     1       7.845 -10.615  11.243  1.00  0.00    -0.080 Cl
BRANCH  68  70
ATOM     70  O   UNL     1       7.152  -7.486  11.275  1.00  0.00    -0.492 OA
BRANCH  70  71
ATOM     71  C   UNL     1       6.172  -7.911  10.320  1.00  0.00     0.233 C 
BRANCH  71  72
ATOM     72  C   UNL     1       6.092  -7.171   8.966  1.00  0.00     0.030 C 
ATOM     73  C   UNL     1       7.054  -6.020   8.622  1.00  0.00     0.011 C 
ATOM     74  C   UNL     1       6.194  -8.079   7.705  1.00  0.00    -0.004 C 
ATOM     75  C   UNL     1       7.542  -6.379   7.203  1.00  0.00    -0.010 C 
ATOM     76  C   UNL     1       7.570  -8.750   7.580  1.00  0.00     0.004 C 
ATOM     77  C   UNL     1       6.300  -7.028   6.594  1.00  0.00     0.007 C 
ATOM     78  C   UNL     1       8.507  -7.573   7.283  1.00  0.00     0.004 C 
ENDBRANCH  71  72
ENDBRANCH  70  71
ENDBRANCH  68  70
ENDBRANCH  60  63
ENDBRANCH  58  59
ENDBRANCH   1  58
TORSDOF 14
