REMARK SMILES O=C(CNC(=O)CN1C(=O)S/C(=C\c2cccc(Br)c2)C1=O)NCCCCNC(=O)c1ccc(-c2c3nc(c(-c4ccccc4)c4ccc([nH]4)c(-c4ccccc4)c4nc(c(-c5ccccc5)c5ccc2[nH]5)C=C4)C=C3)cc1
REMARK SMILES IDX 24 1 23 2 1 3 2 4 3 6 4 7 5 8 6 10 7 11 8 12 9 13 21 14
REMARK SMILES IDX 10 15 11 16 12 17 22 18 13 19 14 20 15 21 20 22 16 23 18 24
REMARK SMILES IDX 17 25 19 26 25 27 26 28 27 29 28 30 29 31 30 33 31 34 32 35
REMARK SMILES IDX 78 36 33 37 77 38 34 39 35 40 36 41 71 42 37 43 76 44 70 45
REMARK SMILES IDX 72 46 38 47 75 48 69 49 68 50 39 52 61 53 46 54 60 55 47 56
REMARK SMILES IDX 50 57 59 58 73 59 48 60 49 61 58 63 74 64 51 65 40 66 41 67
REMARK SMILES IDX 45 68 42 69 44 70 43 71 62 72 63 73 67 74 64 75 66 76 65 77
REMARK SMILES IDX 52 78 53 79 57 80 54 81 56 82 55 83
REMARK H PARENT 23 5 4 9 28 32 72 51 50 62
REMARK Flexibility Score: inf
ROOT
ATOM      1  C   UNL     1       1.897  -2.295  -1.166  1.00  0.00     0.116 C 
ENDROOT
BRANCH   1   2
ATOM      2  N   UNL     1       2.594  -1.262  -0.421  1.00  0.00    -0.355 N 
ATOM      3  O   UNL     1       0.943   0.317  -0.611  1.00  0.00    -0.273 OA
ATOM      4  C   UNL     1       2.022  -0.037  -0.147  1.00  0.00     0.239 C 
ATOM      5  H   UNL     1       3.507  -1.442  -0.101  1.00  0.00     0.163 HD
BRANCH   4   6
ATOM      6  C   UNL     1       2.892   0.911   0.690  1.00  0.00     0.216 C 
BRANCH   6   7
ATOM      7  N   UNL     1       3.930   0.212   1.436  1.00  0.00    -0.345 N 
ATOM      8  C   UNL     1       5.274   0.407   1.476  1.00  0.00     0.240 C 
ATOM      9  H   UNL     1       3.603  -0.522   2.006  1.00  0.00     0.164 HD
ATOM     10  O   UNL     1       5.897  -0.189   2.358  1.00  0.00    -0.273 OA
BRANCH   8  11
ATOM     11  C   UNL     1       5.983   1.391   0.544  1.00  0.00     0.229 C 
BRANCH  11  12
ATOM     12  N   UNL     1       5.889   1.066  -0.869  1.00  0.00    -0.259 N 
ATOM     13  C   UNL     1       6.492  -0.053  -1.371  1.00  0.00     0.294 C 
ATOM     14  C   UNL     1       5.312   1.917  -1.783  1.00  0.00     0.268 C 
ATOM     15  O   UNL     1       6.953  -0.990  -0.736  1.00  0.00    -0.261 OA
ATOM     16  S   UNL     1       6.444  -0.034  -3.125  1.00  0.00    -0.022 SA
ATOM     17  C   UNL     1       5.390   1.324  -3.146  1.00  0.00     0.083 C 
ATOM     18  O   UNL     1       4.781   2.988  -1.532  1.00  0.00    -0.268 OA
ATOM     19  C   UNL     1       4.625   1.766  -4.154  1.00  0.00     0.029 C 
BRANCH  19  20
ATOM     20  C   UNL     1       4.462   1.081  -5.441  1.00  0.00    -0.023 A 
ATOM     21  C   UNL     1       3.413   0.163  -5.581  1.00  0.00     0.008 A 
ATOM     22  C   UNL     1       5.325   1.302  -6.516  1.00  0.00     0.023 A 
ATOM     23  C   UNL     1       3.258  -0.574  -6.755  1.00  0.00     0.002 A 
ATOM     24  C   UNL     1       5.146   0.584  -7.702  1.00  0.00     0.018 A 
ATOM     25  C   UNL     1       4.128  -0.363  -7.821  1.00  0.00     0.016 A 
ATOM     26  Br  UNL     1       6.292   0.902  -9.172  1.00  0.00    -0.051 Br
ENDBRANCH  19  20
ENDBRANCH  11  12
ENDBRANCH   8  11
ENDBRANCH   6   7
ENDBRANCH   4   6
ENDBRANCH   1   2
BRANCH   1  27
ATOM     27  C   UNL     1       2.130  -2.207  -2.673  1.00  0.00     0.023 C 
BRANCH  27  28
ATOM     28  C   UNL     1       3.595  -2.324  -3.084  1.00  0.00     0.023 C 
BRANCH  28  29
ATOM     29  C   UNL     1       4.289  -3.639  -2.762  1.00  0.00     0.116 C 
BRANCH  29  30
ATOM     30  N   UNL     1       3.793  -4.734  -3.577  1.00  0.00    -0.352 N 
ATOM     31  C   UNL     1       4.473  -5.614  -4.384  1.00  0.00     0.251 C 
ATOM     32  H   UNL     1       2.817  -4.866  -3.546  1.00  0.00     0.163 HD
ATOM     33  O   UNL     1       3.838  -6.351  -5.134  1.00  0.00    -0.269 OA
BRANCH  31  34
ATOM     34  C   UNL     1       5.956  -5.674  -4.382  1.00  0.00     0.039 A 
ATOM     35  C   UNL     1       6.617  -5.920  -5.591  1.00  0.00     0.014 A 
ATOM     36  C   UNL     1       6.702  -5.530  -3.209  1.00  0.00     0.014 A 
ATOM     37  C   UNL     1       8.014  -5.965  -5.631  1.00  0.00     0.010 A 
ATOM     38  C   UNL     1       8.095  -5.488  -3.264  1.00  0.00     0.010 A 
ATOM     39  C   UNL     1       8.768  -5.714  -4.473  1.00  0.00    -0.014 A 
BRANCH  39  40
ATOM     40  C   UNL     1      10.255  -5.686  -4.510  1.00  0.00     0.031 A 
ATOM     41  C   UNL     1      11.058  -6.680  -3.713  1.00  0.00     0.074 A 
ATOM     42  C   UNL     1      10.889  -4.731  -5.219  1.00  0.00     0.049 A 
ATOM     43  N   UNL     1      12.358  -6.782  -3.588  1.00  0.00    -0.248 NA
ATOM     44  C   UNL     1      10.302  -7.678  -2.939  1.00  0.00     0.031 C 
ATOM     45  C   UNL     1      10.234  -3.688  -6.011  1.00  0.00     0.029 A 
ATOM     46  N   UNL     1      12.229  -4.481  -5.385  1.00  0.00    -0.354 N 
ATOM     47  C   UNL     1      12.573  -7.838  -2.710  1.00  0.00     0.074 A 
ATOM     48  C   UNL     1      11.271  -8.314  -2.296  1.00  0.00     0.031 C 
ATOM     49  C   UNL     1      11.172  -2.933  -6.606  1.00  0.00     0.029 A 
ATOM     50  C   UNL     1      12.492  -3.404  -6.198  1.00  0.00     0.049 A 
ATOM     51  H   UNL     1      12.934  -5.021  -4.962  1.00  0.00     0.167 HD
ATOM     52  C   UNL     1      13.746  -8.375  -2.296  1.00  0.00     0.031 A 
ATOM     53  C   UNL     1      13.662  -2.850  -6.568  1.00  0.00     0.031 A 
ATOM     54  C   UNL     1      15.043  -7.906  -2.707  1.00  0.00     0.049 A 
ATOM     55  C   UNL     1      14.950  -3.444  -6.066  1.00  0.00     0.074 A 
ATOM     56  C   UNL     1      16.287  -8.422  -2.387  1.00  0.00     0.029 A 
ATOM     57  N   UNL     1      15.264  -6.805  -3.521  1.00  0.00    -0.354 N 
ATOM     58  N   UNL     1      15.135  -4.488  -5.295  1.00  0.00    -0.248 NA
ATOM     59  C   UNL     1      16.192  -2.786  -6.496  1.00  0.00     0.031 C 
ATOM     60  C   UNL     1      17.262  -7.594  -2.952  1.00  0.00     0.029 A 
ATOM     61  C   UNL     1      16.625  -6.606  -3.685  1.00  0.00     0.049 A 
ATOM     62  H   UNL     1      14.558  -6.248  -3.922  1.00  0.00     0.167 HD
ATOM     63  C   UNL     1      16.512  -4.630  -5.174  1.00  0.00     0.074 A 
ATOM     64  C   UNL     1      17.113  -3.577  -5.965  1.00  0.00     0.031 C 
ATOM     65  C   UNL     1      17.214  -5.554  -4.473  1.00  0.00     0.031 A 
BRANCH  52  66
ATOM     66  C   UNL     1      13.681  -9.527  -1.328  1.00  0.00    -0.014 A 
ATOM     67  C   UNL     1      13.194 -10.785  -1.719  1.00  0.00     0.009 A 
ATOM     68  C   UNL     1      14.155  -9.363  -0.017  1.00  0.00     0.009 A 
ATOM     69  C   UNL     1      13.146 -11.841  -0.805  1.00  0.00     0.001 A 
ATOM     70  C   UNL     1      14.136 -10.429   0.884  1.00  0.00     0.001 A 
ATOM     71  C   UNL     1      13.622 -11.664   0.493  1.00  0.00     0.000 A 
ENDBRANCH  52  66
BRANCH  53  72
ATOM     72  C   UNL     1      13.678  -1.669  -7.472  1.00  0.00    -0.014 A 
ATOM     73  C   UNL     1      14.174  -1.779  -8.780  1.00  0.00     0.009 A 
ATOM     74  C   UNL     1      13.211  -0.422  -7.028  1.00  0.00     0.009 A 
ATOM     75  C   UNL     1      14.232  -0.660  -9.613  1.00  0.00     0.001 A 
ATOM     76  C   UNL     1      13.239   0.689  -7.875  1.00  0.00     0.001 A 
ATOM     77  C   UNL     1      13.760   0.572  -9.162  1.00  0.00     0.000 A 
ENDBRANCH  53  72
BRANCH  65  78
ATOM     78  C   UNL     1      18.714  -5.495  -4.562  1.00  0.00    -0.014 A 
ATOM     79  C   UNL     1      19.446  -4.460  -3.959  1.00  0.00     0.009 A 
ATOM     80  C   UNL     1      19.409  -6.516  -5.230  1.00  0.00     0.009 A 
ATOM     81  C   UNL     1      20.839  -4.431  -4.055  1.00  0.00     0.001 A 
ATOM     82  C   UNL     1      20.802  -6.504  -5.295  1.00  0.00     0.001 A 
ATOM     83  C   UNL     1      21.516  -5.455  -4.717  1.00  0.00     0.000 A 
ENDBRANCH  65  78
ENDBRANCH  39  40
ENDBRANCH  31  34
ENDBRANCH  29  30
ENDBRANCH  28  29
ENDBRANCH  27  28
ENDBRANCH   1  27
TORSDOF 15
