REMARK SMILES CC(C)C[C@H](NC(=O)[C@@H](NC(=O)[C@H](C)NC(=O)CNC(=O)OCc1ccccc1)C(C)C)C(=O)NCCCCNC(=O)c1ccc(-c2c3nc(c(-c4ccccc4)c4ccc([nH]4)c(-c4ccccc4)c4nc(c(-c5ccccc5)c5ccc2[nH]5)C=C4)C=C3)cc1
REMARK SMILES IDX 6 1 7 2 8 3 5 5 4 6 2 7 1 8 3 9 33 10 34 11 35 12 36 14
REMARK SMILES IDX 37 15 38 16 39 17 40 18 41 19 42 21 43 22 44 23 90 24 45 25
REMARK SMILES IDX 89 26 46 27 47 28 48 29 83 30 49 31 88 32 82 33 84 34 50 35
REMARK SMILES IDX 87 36 81 37 80 38 51 40 73 41 58 42 72 43 59 44 62 45 71 46
REMARK SMILES IDX 85 47 60 48 61 49 70 51 86 52 63 53 52 54 53 55 57 56 54 57
REMARK SMILES IDX 56 58 55 59 74 60 75 61 79 62 76 63 78 64 77 65 64 66 65 67
REMARK SMILES IDX 69 68 66 69 68 70 67 71 9 72 10 73 11 74 12 76 13 77 14 78
REMARK SMILES IDX 15 79 16 80 17 82 18 83 19 84 20 85 21 87 22 88 23 89 24 90
REMARK SMILES IDX 25 91 29 92 26 93 28 94 27 95 30 96 31 97 32 98
REMARK H PARENT 6 4 35 13 40 20 84 39 62 50 10 75 15 81 19 86
REMARK Flexibility Score: inf
ROOT
ATOM      1  N   UNL     1      -1.891  -2.516   0.831  1.00  0.00    -0.343 N 
ATOM      2  C   UNL     1      -1.143  -2.389   1.949  1.00  0.00     0.243 C 
ATOM      3  O   UNL     1       0.024  -2.772   1.797  1.00  0.00    -0.273 OA
ATOM      4  H   UNL     1      -1.418  -2.909   0.062  1.00  0.00     0.164 HD
ENDROOT
BRANCH   1   5
ATOM      5  C   UNL     1      -3.256  -2.172   0.582  1.00  0.00     0.171 C 
BRANCH   5   6
ATOM      6  C   UNL     1      -4.230  -3.122   1.337  1.00  0.00     0.038 C 
BRANCH   6   7
ATOM      7  C   UNL     1      -3.654  -4.175   2.350  1.00  0.00    -0.015 C 
ATOM      8  C   UNL     1      -4.041  -3.778   3.744  1.00  0.00     0.007 C 
ATOM      9  C   UNL     1      -4.204  -5.590   2.211  1.00  0.00     0.007 C 
ENDBRANCH   6   7
ENDBRANCH   5   6
BRANCH   5  10
ATOM     10  C   UNL     1      -3.584  -0.620   0.510  1.00  0.00     0.242 C 
ATOM     11  O   UNL     1      -4.760  -0.243   0.485  1.00  0.00    -0.273 OA
ATOM     12  N   UNL     1      -2.588   0.345   0.346  1.00  0.00    -0.354 N 
ATOM     13  H   UNL     1      -2.892   1.282   0.329  1.00  0.00     0.163 HD
BRANCH  12  14
ATOM     14  C   UNL     1      -1.159   0.135   0.198  1.00  0.00     0.116 C 
BRANCH  14  15
ATOM     15  C   UNL     1      -0.127   1.262   0.225  1.00  0.00     0.023 C 
BRANCH  15  16
ATOM     16  C   UNL     1      -0.186   2.349   1.296  1.00  0.00     0.023 C 
BRANCH  16  17
ATOM     17  C   UNL     1      -0.445   1.980   2.751  1.00  0.00     0.116 C 
BRANCH  17  18
ATOM     18  N   UNL     1       0.598   1.236   3.447  1.00  0.00    -0.352 N 
ATOM     19  C   UNL     1       1.306   1.564   4.586  1.00  0.00     0.251 C 
ATOM     20  H   UNL     1       0.833   0.370   3.044  1.00  0.00     0.163 HD
ATOM     21  O   UNL     1       2.049   0.747   5.120  1.00  0.00    -0.269 OA
BRANCH  19  22
ATOM     22  C   UNL     1       1.278   2.949   5.091  1.00  0.00     0.039 A 
ATOM     23  C   UNL     1       2.495   3.635   5.128  1.00  0.00     0.014 A 
ATOM     24  C   UNL     1       0.085   3.604   5.389  1.00  0.00     0.014 A 
ATOM     25  C   UNL     1       2.499   5.015   5.309  1.00  0.00     0.010 A 
ATOM     26  C   UNL     1       0.081   4.994   5.473  1.00  0.00     0.010 A 
ATOM     27  C   UNL     1       1.285   5.714   5.398  1.00  0.00    -0.014 A 
BRANCH  27  28
ATOM     28  C   UNL     1       1.266   7.197   5.353  1.00  0.00     0.031 A 
ATOM     29  C   UNL     1       0.738   7.985   6.516  1.00  0.00     0.074 A 
ATOM     30  C   UNL     1       1.672   7.832   4.234  1.00  0.00     0.049 A 
ATOM     31  N   UNL     1       0.620   9.281   6.646  1.00  0.00    -0.248 NA
ATOM     32  C   UNL     1       0.260   7.216   7.676  1.00  0.00     0.031 C 
ATOM     33  C   UNL     1       2.165   7.180   3.017  1.00  0.00     0.029 A 
ATOM     34  N   UNL     1       1.738   9.171   3.938  1.00  0.00    -0.354 N 
ATOM     35  C   UNL     1       0.040   9.482   7.891  1.00  0.00     0.074 A 
ATOM     36  C   UNL     1      -0.217   8.175   8.455  1.00  0.00     0.031 C 
ATOM     37  C   UNL     1       2.520   8.119   2.125  1.00  0.00     0.029 A 
ATOM     38  C   UNL     1       2.237   9.436   2.684  1.00  0.00     0.049 A 
ATOM     39  H   UNL     1       1.454   9.875   4.564  1.00  0.00     0.167 HD
ATOM     40  C   UNL     1      -0.234  10.649   8.519  1.00  0.00     0.031 A 
ATOM     41  C   UNL     1       2.442  10.608   2.054  1.00  0.00     0.031 A 
ATOM     42  C   UNL     1       0.026  11.948   7.960  1.00  0.00     0.049 A 
ATOM     43  C   UNL     1       2.104  11.890   2.765  1.00  0.00     0.074 A 
ATOM     44  C   UNL     1      -0.163  13.189   8.541  1.00  0.00     0.029 A 
ATOM     45  N   UNL     1       0.524  12.174   6.686  1.00  0.00    -0.354 N 
ATOM     46  N   UNL     1       1.631  12.063   3.975  1.00  0.00    -0.248 NA
ATOM     47  C   UNL     1       2.339  13.138   2.024  1.00  0.00     0.031 C 
ATOM     48  C   UNL     1       0.163  14.168   7.597  1.00  0.00     0.029 A 
ATOM     49  C   UNL     1       0.619  13.535   6.451  1.00  0.00     0.049 A 
ATOM     50  H   UNL     1       0.773  11.471   6.043  1.00  0.00     0.167 HD
ATOM     51  C   UNL     1       1.542  13.438   4.153  1.00  0.00     0.074 A 
ATOM     52  C   UNL     1       2.025  14.051   2.933  1.00  0.00     0.031 C 
ATOM     53  C   UNL     1       1.101  14.130   5.231  1.00  0.00     0.031 A 
BRANCH  40  54
ATOM     54  C   UNL     1      -0.863  10.568   9.882  1.00  0.00    -0.014 A 
ATOM     55  C   UNL     1      -0.145  10.088  10.990  1.00  0.00     0.009 A 
ATOM     56  C   UNL     1      -2.183  11.005  10.068  1.00  0.00     0.009 A 
ATOM     57  C   UNL     1      -0.750  10.009  12.245  1.00  0.00     0.001 A 
ATOM     58  C   UNL     1      -2.776  10.956  11.331  1.00  0.00     0.001 A 
ATOM     59  C   UNL     1      -2.063  10.448  12.416  1.00  0.00     0.000 A 
ENDBRANCH  40  54
BRANCH  41  60
ATOM     60  C   UNL     1       3.009  10.634   0.678  1.00  0.00    -0.014 A 
ATOM     61  C   UNL     1       4.300  11.133   0.449  1.00  0.00     0.009 A 
ATOM     62  C   UNL     1       2.257  10.177  -0.415  1.00  0.00     0.009 A 
ATOM     63  C   UNL     1       4.814  11.204  -0.848  1.00  0.00     0.001 A 
ATOM     64  C   UNL     1       2.785  10.219  -1.708  1.00  0.00     0.001 A 
ATOM     65  C   UNL     1       4.059  10.743  -1.924  1.00  0.00     0.000 A 
ENDBRANCH  41  60
BRANCH  53  66
ATOM     66  C   UNL     1       1.158  15.631   5.157  1.00  0.00    -0.014 A 
ATOM     67  C   UNL     1       0.288  16.357   4.330  1.00  0.00     0.009 A 
ATOM     68  C   UNL     1       2.072  16.329   5.962  1.00  0.00     0.009 A 
ATOM     69  C   UNL     1       0.356  17.752   4.286  1.00  0.00     0.001 A 
ATOM     70  C   UNL     1       2.116  17.724   5.940  1.00  0.00     0.001 A 
ATOM     71  C   UNL     1       1.265  18.433   5.095  1.00  0.00     0.000 A 
ENDBRANCH  53  66
ENDBRANCH  27  28
ENDBRANCH  19  22
ENDBRANCH  17  18
ENDBRANCH  16  17
ENDBRANCH  15  16
ENDBRANCH  14  15
ENDBRANCH  12  14
ENDBRANCH   5  10
ENDBRANCH   1   5
BRANCH   2  72
ATOM     72  C   UNL     1      -1.629  -1.714   3.308  1.00  0.00     0.174 C 
BRANCH  72  73
ATOM     73  N   UNL     1      -2.810  -0.733   3.370  1.00  0.00    -0.342 N 
ATOM     74  C   UNL     1      -4.013  -0.294   3.809  1.00  0.00     0.242 C 
ATOM     75  H   UNL     1      -2.541  -0.030   2.735  1.00  0.00     0.164 HD
ATOM     76  O   UNL     1      -4.196   0.871   3.393  1.00  0.00    -0.273 OA
BRANCH  74  77
ATOM     77  C   UNL     1      -5.241  -0.987   4.551  1.00  0.00     0.168 C 
ATOM     78  C   UNL     1      -6.298   0.095   4.879  1.00  0.00     0.041 C 
BRANCH  77  79
ATOM     79  N   UNL     1      -4.986  -1.737   5.782  1.00  0.00    -0.343 N 
ATOM     80  C   UNL     1      -5.595  -2.824   6.345  1.00  0.00     0.240 C 
ATOM     81  H   UNL     1      -4.229  -1.391   6.307  1.00  0.00     0.164 HD
ATOM     82  O   UNL     1      -5.160  -3.149   7.459  1.00  0.00    -0.273 OA
BRANCH  80  83
ATOM     83  C   UNL     1      -6.635  -3.763   5.655  1.00  0.00     0.219 C 
BRANCH  83  84
ATOM     84  N   UNL     1      -7.800  -3.182   5.021  1.00  0.00    -0.312 N 
ATOM     85  C   UNL     1      -8.216  -3.117   3.719  1.00  0.00     0.407 C 
ATOM     86  H   UNL     1      -8.417  -2.748   5.654  1.00  0.00     0.167 HD
ATOM     87  O   UNL     1      -9.301  -2.643   3.469  1.00  0.00    -0.225 OA
BRANCH  85  88
ATOM     88  O   UNL     1      -7.342  -3.598   2.791  1.00  0.00    -0.445 OA
BRANCH  88  89
ATOM     89  C   UNL     1      -7.737  -3.342   1.421  1.00  0.00     0.270 C 
BRANCH  89  90
ATOM     90  C   UNL     1      -8.309  -4.543   0.702  1.00  0.00    -0.011 A 
ATOM     91  C   UNL     1      -9.199  -5.414   1.341  1.00  0.00     0.007 A 
ATOM     92  C   UNL     1      -8.053  -4.736  -0.669  1.00  0.00     0.007 A 
ATOM     93  C   UNL     1      -9.808  -6.455   0.638  1.00  0.00     0.000 A 
ATOM     94  C   UNL     1      -8.664  -5.779  -1.372  1.00  0.00     0.000 A 
ATOM     95  C   UNL     1      -9.543  -6.638  -0.717  1.00  0.00     0.000 A 
ENDBRANCH  89  90
ENDBRANCH  88  89
ENDBRANCH  85  88
ENDBRANCH  83  84
ENDBRANCH  80  83
ENDBRANCH  77  79
ENDBRANCH  74  77
ENDBRANCH  72  73
BRANCH  72  96
ATOM     96  C   UNL     1      -1.202  -2.494   4.596  1.00  0.00     0.015 C 
ATOM     97  C   UNL     1      -0.207  -3.647   4.343  1.00  0.00     0.010 C 
ATOM     98  C   UNL     1      -0.574  -1.550   5.622  1.00  0.00     0.010 C 
ENDBRANCH  72  96
ENDBRANCH   2  72
TORSDOF 24
