REMARK SMILES C[C@H]1c2ccc(O)cc2OC(=O)[C@@H]1CC(=O)N[C@@H](CC1=c2ccccc2=NC1)C(=O)NCCCCNC(=O)c1ccc(-c2c3nc(c(-c4ccccc4)c4ccc([nH]4)c(-c4ccccc4)c4nc(c(-c5ccccc5)c5ccc2[nH]5)C=C4)C=C3)cc1
REMARK SMILES IDX 32 1 31 2 29 3 30 4 18 6 17 7 15 8 16 9 14 11 13 12 1 13
REMARK SMILES IDX 2 14 3 15 4 16 9 17 11 18 5 19 8 20 10 21 12 22 6 23 7 24
REMARK SMILES IDX 19 26 20 27 21 28 28 29 22 30 26 31 27 32 23 33 25 34 24 35
REMARK SMILES IDX 33 36 34 37 35 38 36 39 37 40 38 42 39 43 40 44 86 45 41 46
REMARK SMILES IDX 85 47 42 48 43 49 44 50 79 51 45 52 84 53 78 54 80 55 46 56
REMARK SMILES IDX 83 57 77 58 76 59 47 61 69 62 54 63 68 64 55 65 58 66 67 67
REMARK SMILES IDX 81 68 56 69 57 70 66 72 82 73 59 74 48 75 49 76 53 77 50 78
REMARK SMILES IDX 52 79 51 80 70 81 71 82 75 83 72 84 74 85 73 86 60 87 61 88
REMARK SMILES IDX 65 89 62 90 64 91 63 92
REMARK H PARENT 31 5 17 10 7 25 36 41 80 60 58 71
REMARK Flexibility Score: inf
ROOT
ATOM      1  C   UNL     1      -3.792  -4.095   4.817  1.00  0.00     0.116 C 
ENDROOT
BRANCH   1   2
ATOM      2  N   UNL     1      -2.746  -4.741   4.081  1.00  0.00    -0.354 N 
ATOM      3  C   UNL     1      -1.510  -4.155   3.921  1.00  0.00     0.242 C 
ATOM      4  O   UNL     1      -0.522  -4.885   4.061  1.00  0.00    -0.273 OA
ATOM      5  H   UNL     1      -2.916  -5.624   3.680  1.00  0.00     0.163 HD
BRANCH   3   6
ATOM      6  C   UNL     1      -1.319  -2.622   3.645  1.00  0.00     0.175 C 
BRANCH   6   7
ATOM      7  N   UNL     1      -2.355  -1.926   2.872  1.00  0.00    -0.344 N 
ATOM      8  C   UNL     1      -2.401  -1.624   1.544  1.00  0.00     0.221 C 
ATOM      9  O   UNL     1      -3.360  -0.975   1.124  1.00  0.00    -0.275 OA
ATOM     10  H   UNL     1      -3.137  -1.632   3.393  1.00  0.00     0.164 HD
BRANCH   8  11
ATOM     11  C   UNL     1      -1.303  -2.076   0.596  1.00  0.00     0.116 C 
BRANCH  11  12
ATOM     12  C   UNL     1      -0.144  -1.060   0.475  1.00  0.00     0.116 C 
ATOM     13  C   UNL     1       1.648  -0.019  -1.022  1.00  0.00     0.014 C 
ATOM     14  C   UNL     1       0.626  -1.156  -0.860  1.00  0.00     0.034 C 
ATOM     15  C   UNL     1       1.304  -2.504  -0.926  1.00  0.00    -0.001 A 
ATOM     16  C   UNL     1       1.555  -3.155  -2.136  1.00  0.00     0.011 A 
ATOM     17  C   UNL     1       1.658  -3.146   0.266  1.00  0.00     0.138 A 
ATOM     18  C   UNL     1       0.893  -1.267   1.551  1.00  0.00     0.315 C 
ATOM     19  C   UNL     1       2.079  -4.453  -2.135  1.00  0.00     0.047 A 
ATOM     20  C   UNL     1       2.147  -4.447   0.284  1.00  0.00     0.093 A 
ATOM     21  O   UNL     1       1.559  -2.482   1.501  1.00  0.00    -0.426 OA
ATOM     22  O   UNL     1       1.101  -0.452   2.442  1.00  0.00    -0.251 OA
ATOM     23  C   UNL     1       2.342  -5.097  -0.926  1.00  0.00     0.119 A 
BRANCH  23  24
ATOM     24  O   UNL     1       2.802  -6.379  -0.889  1.00  0.00    -0.508 OA
ATOM     25  H   UNL     1       2.945  -6.849  -1.687  1.00  0.00     0.293 HD
ENDBRANCH  23  24
ENDBRANCH  11  12
ENDBRANCH   8  11
ENDBRANCH   6   7
BRANCH   6  26
ATOM     26  C   UNL     1      -0.704  -1.722   4.772  1.00  0.00     0.068 C 
BRANCH  26  27
ATOM     27  C   UNL     1      -1.526  -1.219   5.949  1.00  0.00    -0.037 C 
ATOM     28  C   UNL     1      -2.446  -0.245   5.829  1.00  0.00     0.001 A 
ATOM     29  C   UNL     1      -1.974  -2.230   6.952  1.00  0.00     0.174 C 
ATOM     30  C   UNL     1      -2.544   0.983   6.623  1.00  0.00     0.010 A 
ATOM     31  C   UNL     1      -3.635  -1.064   6.208  1.00  0.00     0.065 A 
ATOM     32  N   UNL     1      -3.451  -2.149   6.888  1.00  0.00    -0.280 NA
ATOM     33  C   UNL     1      -3.775   1.508   6.812  1.00  0.00     0.001 A 
ATOM     34  C   UNL     1      -4.918  -0.424   5.873  1.00  0.00     0.028 A 
ATOM     35  C   UNL     1      -4.941   0.882   6.189  1.00  0.00     0.002 A 
ENDBRANCH  26  27
ENDBRANCH   6  26
ENDBRANCH   3   6
ENDBRANCH   1   2
BRANCH   1  36
ATOM     36  C   UNL     1      -5.125  -4.786   5.041  1.00  0.00     0.023 C 
BRANCH  36  37
ATOM     37  C   UNL     1      -5.224  -5.708   6.262  1.00  0.00     0.023 C 
BRANCH  37  38
ATOM     38  C   UNL     1      -4.504  -5.331   7.562  1.00  0.00     0.116 C 
BRANCH  38  39
ATOM     39  N   UNL     1      -4.958  -4.117   8.238  1.00  0.00    -0.352 N 
ATOM     40  C   UNL     1      -5.389  -3.948   9.542  1.00  0.00     0.251 C 
ATOM     41  H   UNL     1      -4.956  -3.302   7.686  1.00  0.00     0.163 HD
ATOM     42  O   UNL     1      -5.736  -2.854   9.978  1.00  0.00    -0.269 OA
BRANCH  40  43
ATOM     43  C   UNL     1      -5.476  -5.139  10.414  1.00  0.00     0.039 A 
ATOM     44  C   UNL     1      -4.374  -5.983  10.528  1.00  0.00     0.014 A 
ATOM     45  C   UNL     1      -6.706  -5.500  10.966  1.00  0.00     0.014 A 
ATOM     46  C   UNL     1      -4.582  -7.302  10.908  1.00  0.00     0.010 A 
ATOM     47  C   UNL     1      -6.877  -6.794  11.468  1.00  0.00     0.010 A 
ATOM     48  C   UNL     1      -5.847  -7.739  11.342  1.00  0.00    -0.014 A 
BRANCH  48  49
ATOM     49  C   UNL     1      -6.077  -9.196  11.563  1.00  0.00     0.031 A 
ATOM     50  C   UNL     1      -7.096  -9.957  10.743  1.00  0.00     0.074 A 
ATOM     51  C   UNL     1      -5.291  -9.869  12.426  1.00  0.00     0.049 A 
ATOM     52  N   UNL     1      -7.384 -11.237  10.770  1.00  0.00    -0.248 NA
ATOM     53  C   UNL     1      -7.896  -9.194   9.770  1.00  0.00     0.031 C 
ATOM     54  C   UNL     1      -4.243  -9.266  13.253  1.00  0.00     0.029 A 
ATOM     55  N   UNL     1      -5.213 -11.209  12.716  1.00  0.00    -0.354 N 
ATOM     56  C   UNL     1      -8.412 -11.420   9.851  1.00  0.00     0.074 A 
ATOM     57  C   UNL     1      -8.718 -10.121   9.296  1.00  0.00     0.031 C 
ATOM     58  C   UNL     1      -3.573 -10.237  13.887  1.00  0.00     0.029 A 
ATOM     59  C   UNL     1      -4.195 -11.522  13.584  1.00  0.00     0.049 A 
ATOM     60  H   UNL     1      -5.826 -11.880  12.338  1.00  0.00     0.167 HD
ATOM     61  C   UNL     1      -9.039 -12.567   9.491  1.00  0.00     0.031 A 
ATOM     62  C   UNL     1      -3.803 -12.705  14.096  1.00  0.00     0.031 A 
ATOM     63  C   UNL     1      -8.716 -13.869  10.013  1.00  0.00     0.049 A 
ATOM     64  C   UNL     1      -4.540 -13.954  13.713  1.00  0.00     0.074 A 
ATOM     65  C   UNL     1      -9.287 -15.088   9.689  1.00  0.00     0.029 A 
ATOM     66  N   UNL     1      -7.733 -14.125  10.955  1.00  0.00    -0.354 N 
ATOM     67  N   UNL     1      -5.520 -14.101  12.856  1.00  0.00    -0.248 NA
ATOM     68  C   UNL     1      -4.125 -15.200  14.375  1.00  0.00     0.031 C 
ATOM     69  C   UNL     1      -8.690 -16.074  10.477  1.00  0.00     0.029 A 
ATOM     70  C   UNL     1      -7.701 -15.479  11.243  1.00  0.00     0.049 A 
ATOM     71  H   UNL     1      -7.146 -13.446  11.360  1.00  0.00     0.167 HD
ATOM     72  C   UNL     1      -5.836 -15.453  12.870  1.00  0.00     0.074 A 
ATOM     73  C   UNL     1      -4.926 -16.088  13.802  1.00  0.00     0.031 C 
ATOM     74  C   UNL     1      -6.799 -16.104  12.175  1.00  0.00     0.031 A 
BRANCH  61  75
ATOM     75  C   UNL     1     -10.159 -12.484   8.488  1.00  0.00    -0.014 A 
ATOM     76  C   UNL     1     -11.477 -12.747   8.897  1.00  0.00     0.009 A 
ATOM     77  C   UNL     1      -9.906 -12.256   7.127  1.00  0.00     0.009 A 
ATOM     78  C   UNL     1     -12.515 -12.799   7.965  1.00  0.00     0.001 A 
ATOM     79  C   UNL     1     -10.951 -12.281   6.199  1.00  0.00     0.001 A 
ATOM     80  C   UNL     1     -12.252 -12.562   6.617  1.00  0.00     0.000 A 
ENDBRANCH  61  75
BRANCH  62  81
ATOM     81  C   UNL     1      -2.652 -12.742  15.035  1.00  0.00    -0.014 A 
ATOM     82  C   UNL     1      -2.748 -12.143  16.303  1.00  0.00     0.009 A 
ATOM     83  C   UNL     1      -1.433 -13.317  14.648  1.00  0.00     0.009 A 
ATOM     84  C   UNL     1      -1.638 -12.084  17.146  1.00  0.00     0.001 A 
ATOM     85  C   UNL     1      -0.333 -13.287  15.509  1.00  0.00     0.001 A 
ATOM     86  C   UNL     1      -0.432 -12.660  16.751  1.00  0.00     0.000 A 
ENDBRANCH  62  81
BRANCH  74  87
ATOM     87  C   UNL     1      -6.933 -17.586  12.379  1.00  0.00    -0.014 A 
ATOM     88  C   UNL     1      -6.587 -18.467  11.342  1.00  0.00     0.009 A 
ATOM     89  C   UNL     1      -7.495 -18.105  13.555  1.00  0.00     0.009 A 
ATOM     90  C   UNL     1      -6.817 -19.838  11.472  1.00  0.00     0.001 A 
ATOM     91  C   UNL     1      -7.699 -19.479  13.692  1.00  0.00     0.001 A 
ATOM     92  C   UNL     1      -7.369 -20.343  12.648  1.00  0.00     0.000 A 
ENDBRANCH  74  87
ENDBRANCH  48  49
ENDBRANCH  40  43
ENDBRANCH  38  39
ENDBRANCH  37  38
ENDBRANCH  36  37
ENDBRANCH   1  36
TORSDOF 17
