REMARK SMILES C[C@H](O)C[NH2+][C@H](CC(=O)Nc1cccc2ccccc12)C(=O)NCCCCNC(=O)c1ccc(-c2c3nc(c(-c4ccccc4)c4ccc([nH]4)c(-c4ccccc4)c4nc(c(-c5ccccc5)c5ccc2[nH]5)C=C4)C=C3)cc1
REMARK SMILES IDX 24 1 23 2 21 3 22 4 6 6 5 7 4 10 2 11 1 12 3 13 7 15 8 16
REMARK SMILES IDX 9 17 10 18 11 20 12 21 20 22 13 23 15 24 19 25 14 26 16 27
REMARK SMILES IDX 18 28 17 29 25 30 26 31 27 32 28 33 29 34 30 36 31 37 32 38
REMARK SMILES IDX 78 39 33 40 77 41 34 42 35 43 36 44 71 45 37 46 76 47 70 48
REMARK SMILES IDX 72 49 38 50 75 51 69 52 68 53 39 55 61 56 46 57 60 58 47 59
REMARK SMILES IDX 50 60 59 61 73 62 48 63 49 64 58 66 74 67 51 68 40 69 41 70
REMARK SMILES IDX 45 71 42 72 44 73 43 74 62 75 63 76 67 77 64 78 66 79 65 80
REMARK SMILES IDX 52 81 53 82 57 83 54 84 56 85 55 86
REMARK H PARENT 23 5 5 8 5 9 3 14 10 19 28 35 72 54 50 65
REMARK Flexibility Score: inf
ROOT
ATOM      1  C   UNL     1      -0.951   2.833  -1.699  1.00  0.00     0.116 C 
ENDROOT
BRANCH   1   2
ATOM      2  N   UNL     1      -1.869   2.163  -2.608  1.00  0.00    -0.351 N 
ATOM      3  C   UNL     1      -2.682   1.061  -2.468  1.00  0.00     0.278 C 
ATOM      4  O   UNL     1      -3.320   0.745  -3.482  1.00  0.00    -0.268 OA
ATOM      5  H   UNL     1      -1.919   2.581  -3.498  1.00  0.00     0.163 HD
BRANCH   3   6
ATOM      6  C   UNL     1      -2.876   0.233  -1.140  1.00  0.00     0.282 C 
BRANCH   6   7
ATOM      7  N   UNL     1      -3.821   0.918  -0.193  1.00  0.00    -0.333 N 
ATOM      8  H   UNL     1      -4.728   1.022  -0.650  1.00  0.00     0.347 HD
ATOM      9  H   UNL     1      -3.898   0.346   0.648  1.00  0.00     0.347 HD
BRANCH   7  10
ATOM     10  C   UNL     1      -3.334   2.238   0.198  1.00  0.00     0.292 C 
BRANCH  10  11
ATOM     11  C   UNL     1      -3.809   2.891   1.497  1.00  0.00     0.166 C 
ATOM     12  C   UNL     1      -2.991   4.147   1.768  1.00  0.00     0.044 C 
BRANCH  11  13
ATOM     13  O   UNL     1      -3.516   2.038   2.576  1.00  0.00    -0.388 OA
ATOM     14  H   UNL     1      -2.559   1.883   2.616  1.00  0.00     0.211 HD
ENDBRANCH  11  13
ENDBRANCH  10  11
ENDBRANCH   7  10
ENDBRANCH   6   7
BRANCH   6  15
ATOM     15  C   UNL     1      -1.570  -0.284  -0.523  1.00  0.00     0.175 C 
BRANCH  15  16
ATOM     16  C   UNL     1      -1.593  -1.640   0.189  1.00  0.00     0.230 C 
ATOM     17  O   UNL     1      -1.431  -2.693  -0.427  1.00  0.00    -0.274 OA
ATOM     18  N   UNL     1      -1.485  -1.616   1.563  1.00  0.00    -0.325 N 
ATOM     19  H   UNL     1      -0.639  -1.946   1.943  1.00  0.00     0.169 HD
BRANCH  18  20
ATOM     20  C   UNL     1      -2.460  -1.166   2.486  1.00  0.00     0.049 A 
ATOM     21  C   UNL     1      -3.814  -1.452   2.267  1.00  0.00     0.027 A 
ATOM     22  C   UNL     1      -2.052  -0.476   3.660  1.00  0.00     0.005 A 
ATOM     23  C   UNL     1      -4.781  -1.029   3.182  1.00  0.00     0.003 A 
ATOM     24  C   UNL     1      -3.051   0.016   4.542  1.00  0.00    -0.016 A 
ATOM     25  C   UNL     1      -0.705  -0.156   3.946  1.00  0.00     0.011 A 
ATOM     26  C   UNL     1      -4.402  -0.293   4.307  1.00  0.00     0.009 A 
ATOM     27  C   UNL     1      -2.693   0.895   5.580  1.00  0.00     0.009 A 
ATOM     28  C   UNL     1      -0.366   0.702   4.995  1.00  0.00     0.001 A 
ATOM     29  C   UNL     1      -1.363   1.255   5.788  1.00  0.00     0.001 A 
ENDBRANCH  18  20
ENDBRANCH  15  16
ENDBRANCH   6  15
ENDBRANCH   3   6
ENDBRANCH   1   2
BRANCH   1  30
ATOM     30  C   UNL     1      -0.129   3.980  -2.284  1.00  0.00     0.023 C 
BRANCH  30  31
ATOM     31  C   UNL     1      -0.869   5.310  -2.511  1.00  0.00     0.023 C 
BRANCH  31  32
ATOM     32  C   UNL     1      -1.712   5.881  -1.367  1.00  0.00     0.116 C 
BRANCH  32  33
ATOM     33  N   UNL     1      -0.999   6.093  -0.112  1.00  0.00    -0.352 N 
ATOM     34  C   UNL     1      -0.878   7.229   0.670  1.00  0.00     0.251 C 
ATOM     35  H   UNL     1      -0.528   5.301   0.234  1.00  0.00     0.163 HD
ATOM     36  O   UNL     1      -0.295   7.197   1.732  1.00  0.00    -0.269 OA
BRANCH  34  37
ATOM     37  C   UNL     1      -1.395   8.514   0.149  1.00  0.00     0.039 A 
ATOM     38  C   UNL     1      -0.476   9.544  -0.069  1.00  0.00     0.014 A 
ATOM     39  C   UNL     1      -2.731   8.658  -0.223  1.00  0.00     0.014 A 
ATOM     40  C   UNL     1      -0.865  10.663  -0.806  1.00  0.00     0.010 A 
ATOM     41  C   UNL     1      -3.099   9.743  -1.015  1.00  0.00     0.010 A 
ATOM     42  C   UNL     1      -2.155  10.727  -1.355  1.00  0.00    -0.014 A 
BRANCH  42  43
ATOM     43  C   UNL     1      -2.502  11.755  -2.368  1.00  0.00     0.031 A 
ATOM     44  C   UNL     1      -3.570  12.770  -2.092  1.00  0.00     0.074 A 
ATOM     45  C   UNL     1      -1.909  11.710  -3.579  1.00  0.00     0.049 A 
ATOM     46  N   UNL     1      -4.067  13.680  -2.890  1.00  0.00    -0.248 NA
ATOM     47  C   UNL     1      -4.176  12.742  -0.753  1.00  0.00     0.031 C 
ATOM     48  C   UNL     1      -0.879  10.749  -3.986  1.00  0.00     0.029 A 
ATOM     49  N   UNL     1      -2.094  12.485  -4.697  1.00  0.00    -0.354 N 
ATOM     50  C   UNL     1      -5.051  14.326  -2.155  1.00  0.00     0.074 A 
ATOM     51  C   UNL     1      -5.114  13.672  -0.866  1.00  0.00     0.031 C 
ATOM     52  C   UNL     1      -0.505  11.011  -5.248  1.00  0.00     0.029 A 
ATOM     53  C   UNL     1      -1.301  12.121  -5.759  1.00  0.00     0.049 A 
ATOM     54  H   UNL     1      -2.735  13.232  -4.735  1.00  0.00     0.167 HD
ATOM     55  C   UNL     1      -5.822  15.379  -2.516  1.00  0.00     0.031 A 
ATOM     56  C   UNL     1      -1.231  12.613  -7.010  1.00  0.00     0.031 A 
ATOM     57  C   UNL     1      -5.762  16.025  -3.800  1.00  0.00     0.049 A 
ATOM     58  C   UNL     1      -2.138  13.745  -7.404  1.00  0.00     0.074 A 
ATOM     59  C   UNL     1      -6.459  17.137  -4.239  1.00  0.00     0.029 A 
ATOM     60  N   UNL     1      -4.964  15.610  -4.855  1.00  0.00    -0.354 N 
ATOM     61  N   UNL     1      -3.014  14.391  -6.673  1.00  0.00    -0.248 NA
ATOM     62  C   UNL     1      -2.049  14.211  -8.795  1.00  0.00     0.031 C 
ATOM     63  C   UNL     1      -6.126  17.359  -5.580  1.00  0.00     0.029 A 
ATOM     64  C   UNL     1      -5.182  16.418  -5.958  1.00  0.00     0.049 A 
ATOM     65  H   UNL     1      -4.336  14.852  -4.824  1.00  0.00     0.167 HD
ATOM     66  C   UNL     1      -3.570  15.349  -7.510  1.00  0.00     0.074 A 
ATOM     67  C   UNL     1      -2.920  15.212  -8.797  1.00  0.00     0.031 C 
ATOM     68  C   UNL     1      -4.536  16.259  -7.236  1.00  0.00     0.031 A 
BRANCH  55  69
ATOM     69  C   UNL     1      -6.811  15.883  -1.503  1.00  0.00    -0.014 A 
ATOM     70  C   UNL     1      -6.387  16.545  -0.340  1.00  0.00     0.009 A 
ATOM     71  C   UNL     1      -8.187  15.706  -1.720  1.00  0.00     0.009 A 
ATOM     72  C   UNL     1      -7.317  16.980   0.607  1.00  0.00     0.001 A 
ATOM     73  C   UNL     1      -9.116  16.168  -0.786  1.00  0.00     0.001 A 
ATOM     74  C   UNL     1      -8.680  16.794   0.381  1.00  0.00     0.000 A 
ENDBRANCH  55  69
BRANCH  56  75
ATOM     75  C   UNL     1      -0.268  12.038  -7.985  1.00  0.00    -0.014 A 
ATOM     76  C   UNL     1       0.859  12.771  -8.385  1.00  0.00     0.009 A 
ATOM     77  C   UNL     1      -0.466  10.754  -8.518  1.00  0.00     0.009 A 
ATOM     78  C   UNL     1       1.759  12.239  -9.312  1.00  0.00     0.001 A 
ATOM     79  C   UNL     1       0.450  10.214  -9.424  1.00  0.00     0.001 A 
ATOM     80  C   UNL     1       1.557  10.959  -9.826  1.00  0.00     0.000 A 
ENDBRANCH  56  75
BRANCH  68  81
ATOM     81  C   UNL     1      -4.944  17.182  -8.348  1.00  0.00    -0.014 A 
ATOM     82  C   UNL     1      -5.734  16.725  -9.414  1.00  0.00     0.009 A 
ATOM     83  C   UNL     1      -4.582  18.537  -8.299  1.00  0.00     0.009 A 
ATOM     84  C   UNL     1      -6.136  17.604 -10.421  1.00  0.00     0.001 A 
ATOM     85  C   UNL     1      -5.007  19.419  -9.294  1.00  0.00     0.001 A 
ATOM     86  C   UNL     1      -5.778  18.951 -10.357  1.00  0.00     0.000 A 
ENDBRANCH  68  81
ENDBRANCH  42  43
ENDBRANCH  34  37
ENDBRANCH  32  33
ENDBRANCH  31  32
ENDBRANCH  30  31
ENDBRANCH   1  30
TORSDOF 18
