REMARK SMILES CC1CC[NH+]([C@H](c2ccc(F)cc2)c2ccc([C@@H](C)C(=O)NCCCCNC(=O)c3ccc(-c4c5nc(c(-c6ccccc6)c6ccc([nH]6)c(-c6ccccc6)c6nc(c(-c7ccccc7)c7ccc4[nH]7)C=C6)C=C5)cc3)cc2-c2ccc(C(F)(F)F)cc2)CC1
REMARK SMILES IDX 24 1 23 2 22 3 20 4 21 5 18 7 19 8 17 9 14 10 15 11 79 12
REMARK SMILES IDX 16 13 78 14 6 15 5 16 1 17 2 18 3 19 91 20 4 21 90 22 7 24
REMARK SMILES IDX 8 25 13 26 9 27 12 28 10 29 11 30 80 31 81 32 89 33 82 34
REMARK SMILES IDX 88 35 83 36 84 37 85 38 86 39 87 40 25 41 26 42 27 43 28 44
REMARK SMILES IDX 29 46 30 47 31 48 77 49 32 50 76 51 33 52 34 53 35 54 70 55
REMARK SMILES IDX 36 56 75 57 69 58 71 59 37 60 74 61 68 62 67 63 38 65 60 66
REMARK SMILES IDX 45 67 59 68 46 69 49 70 58 71 72 72 47 73 48 74 57 76 73 77
REMARK SMILES IDX 50 78 39 79 40 80 44 81 41 82 43 83 42 84 61 85 62 86 66 87
REMARK SMILES IDX 63 88 65 89 64 90 51 91 52 92 56 93 53 94 55 95 54 96
REMARK H PARENT 22 6 5 23 27 45 71 64 49 75
REMARK Flexibility Score: inf
ROOT
ATOM      1  C   UNL     1       1.056   5.180  -3.797  1.00  0.00     0.023 C 
ENDROOT
BRANCH   1   2
ATOM      2  C   UNL     1       2.207   5.933  -4.473  1.00  0.00     0.116 C 
BRANCH   2   3
ATOM      3  N   UNL     1       3.256   6.283  -3.536  1.00  0.00    -0.356 N 
ATOM      4  C   UNL     1       4.426   5.676  -3.187  1.00  0.00     0.227 C 
ATOM      5  O   UNL     1       5.070   6.233  -2.287  1.00  0.00    -0.274 OA
ATOM      6  H   UNL     1       3.091   7.127  -3.056  1.00  0.00     0.163 HD
BRANCH   4   7
ATOM      7  C   UNL     1       4.978   4.389  -3.832  1.00  0.00     0.105 C 
ATOM      8  C   UNL     1       5.250   4.511  -5.330  1.00  0.00     0.023 C 
BRANCH   7   9
ATOM      9  C   UNL     1       4.231   3.138  -3.407  1.00  0.00    -0.035 A 
ATOM     10  C   UNL     1       2.614   1.052  -2.283  1.00  0.00     0.022 A 
ATOM     11  C   UNL     1       2.211   1.816  -3.390  1.00  0.00     0.011 A 
ATOM     12  C   UNL     1       3.961   1.230  -1.859  1.00  0.00    -0.009 A 
ATOM     13  C   UNL     1       3.035   2.764  -3.993  1.00  0.00     0.005 A 
ATOM     14  C   UNL     1       4.705   2.326  -2.369  1.00  0.00     0.013 A 
BRANCH  10  15
ATOM     15  C   UNL     1       1.645   0.025  -1.623  1.00  0.00     0.247 C 
BRANCH  15  16
ATOM     16  N   UNL     1       0.206   0.030  -2.055  1.00  0.00    -0.325 N 
ATOM     17  C   UNL     1      -3.319   1.352  -4.337  1.00  0.00     0.008 C 
ATOM     18  C   UNL     1      -1.936   1.134  -3.729  1.00  0.00    -0.003 C 
ATOM     19  C   UNL     1      -1.396  -0.264  -4.030  1.00  0.00     0.065 C 
ATOM     20  C   UNL     1      -1.977   1.284  -2.216  1.00  0.00     0.065 C 
ATOM     21  C   UNL     1      -0.021  -0.524  -3.394  1.00  0.00     0.263 C 
ATOM     22  C   UNL     1      -0.564   1.203  -1.645  1.00  0.00     0.263 C 
ATOM     23  H   UNL     1      -0.254  -0.675  -1.480  1.00  0.00     0.348 HD
ENDBRANCH  15  16
BRANCH  15  24
ATOM     24  C   UNL     1       1.721   0.003  -0.080  1.00  0.00     0.014 A 
ATOM     25  C   UNL     1       1.627   1.180   0.690  1.00  0.00     0.013 A 
ATOM     26  C   UNL     1       1.890  -1.223   0.592  1.00  0.00     0.013 A 
ATOM     27  C   UNL     1       1.693   1.131   2.084  1.00  0.00     0.040 A 
ATOM     28  C   UNL     1       1.986  -1.266   1.984  1.00  0.00     0.040 A 
ATOM     29  C   UNL     1       1.880  -0.091   2.716  1.00  0.00     0.123 A 
ATOM     30  F   UNL     1       1.959  -0.136   4.053  1.00  0.00    -0.207 F 
ENDBRANCH  15  24
ENDBRANCH  10  15
BRANCH  12  31
ATOM     31  C   UNL     1       4.670   0.286  -0.972  1.00  0.00    -0.018 A 
ATOM     32  C   UNL     1       5.231   0.693   0.248  1.00  0.00     0.009 A 
ATOM     33  C   UNL     1       4.856  -1.049  -1.371  1.00  0.00     0.009 A 
ATOM     34  C   UNL     1       5.928  -0.213   1.056  1.00  0.00     0.014 A 
ATOM     35  C   UNL     1       5.544  -1.958  -0.564  1.00  0.00     0.014 A 
ATOM     36  C   UNL     1       6.081  -1.550   0.663  1.00  0.00     0.056 A 
BRANCH  36  37
ATOM     37  C   UNL     1       6.838  -2.519   1.538  1.00  0.00     0.416 C 
ATOM     38  F   UNL     1       8.180  -2.287   1.530  1.00  0.00    -0.166 F 
ATOM     39  F   UNL     1       6.456  -2.462   2.844  1.00  0.00    -0.166 F 
ATOM     40  F   UNL     1       6.683  -3.821   1.164  1.00  0.00    -0.166 F 
ENDBRANCH  36  37
ENDBRANCH  12  31
ENDBRANCH   7   9
ENDBRANCH   4   7
ENDBRANCH   2   3
ENDBRANCH   1   2
BRANCH   1  41
ATOM     41  C   UNL     1      -0.097   6.040  -3.291  1.00  0.00     0.023 C 
BRANCH  41  42
ATOM     42  C   UNL     1      -0.847   6.815  -4.365  1.00  0.00     0.116 C 
BRANCH  42  43
ATOM     43  N   UNL     1      -1.414   5.986  -5.418  1.00  0.00    -0.352 N 
ATOM     44  C   UNL     1      -2.556   6.208  -6.156  1.00  0.00     0.251 C 
ATOM     45  H   UNL     1      -0.919   5.162  -5.629  1.00  0.00     0.163 HD
ATOM     46  O   UNL     1      -2.943   5.377  -6.966  1.00  0.00    -0.269 OA
BRANCH  44  47
ATOM     47  C   UNL     1      -3.342   7.439  -5.916  1.00  0.00     0.039 A 
ATOM     48  C   UNL     1      -4.718   7.326  -5.710  1.00  0.00     0.014 A 
ATOM     49  C   UNL     1      -2.716   8.685  -5.827  1.00  0.00     0.014 A 
ATOM     50  C   UNL     1      -5.451   8.451  -5.326  1.00  0.00     0.010 A 
ATOM     51  C   UNL     1      -3.431   9.785  -5.365  1.00  0.00     0.010 A 
ATOM     52  C   UNL     1      -4.804   9.678  -5.103  1.00  0.00    -0.014 A 
BRANCH  52  53
ATOM     53  C   UNL     1      -5.545  10.848  -4.570  1.00  0.00     0.031 A 
ATOM     54  C   UNL     1      -5.679  12.102  -5.389  1.00  0.00     0.074 A 
ATOM     55  C   UNL     1      -6.042  10.804  -3.317  1.00  0.00     0.049 A 
ATOM     56  N   UNL     1      -6.268  13.229  -5.079  1.00  0.00    -0.248 NA
ATOM     57  C   UNL     1      -5.046  12.103  -6.719  1.00  0.00     0.031 C 
ATOM     58  C   UNL     1      -5.924   9.671  -2.394  1.00  0.00     0.029 A 
ATOM     59  N   UNL     1      -6.746  11.740  -2.601  1.00  0.00    -0.354 N 
ATOM     60  C   UNL     1      -6.061  14.075  -6.161  1.00  0.00     0.074 A 
ATOM     61  C   UNL     1      -5.254  13.350  -7.118  1.00  0.00     0.031 C 
ATOM     62  C   UNL     1      -6.563   9.966  -1.250  1.00  0.00     0.029 A 
ATOM     63  C   UNL     1      -7.105  11.316  -1.343  1.00  0.00     0.049 A 
ATOM     64  H   UNL     1      -6.971  12.630  -2.954  1.00  0.00     0.167 HD
ATOM     65  C   UNL     1      -6.519  15.334  -6.352  1.00  0.00     0.031 A 
ATOM     66  C   UNL     1      -7.797  11.945  -0.375  1.00  0.00     0.031 A 
ATOM     67  C   UNL     1      -7.346  16.046  -5.416  1.00  0.00     0.049 A 
ATOM     68  C   UNL     1      -8.309  13.337  -0.625  1.00  0.00     0.074 A 
ATOM     69  C   UNL     1      -7.929  17.293  -5.558  1.00  0.00     0.029 A 
ATOM     70  N   UNL     1      -7.707  15.574  -4.165  1.00  0.00    -0.354 N 
ATOM     71  N   UNL     1      -8.186  14.083  -1.695  1.00  0.00    -0.248 NA
ATOM     72  C   UNL     1      -9.068  13.966   0.466  1.00  0.00     0.031 C 
ATOM     73  C   UNL     1      -8.605  17.596  -4.372  1.00  0.00     0.029 A 
ATOM     74  C   UNL     1      -8.484  16.517  -3.513  1.00  0.00     0.049 A 
ATOM     75  H   UNL     1      -7.450  14.699  -3.795  1.00  0.00     0.167 HD
ATOM     76  C   UNL     1      -8.874  15.257  -1.417  1.00  0.00     0.074 A 
ATOM     77  C   UNL     1      -9.430  15.114  -0.088  1.00  0.00     0.031 C 
ATOM     78  C   UNL     1      -9.030  16.357  -2.192  1.00  0.00     0.031 A 
BRANCH  65  79
ATOM     79  C   UNL     1      -6.141  16.028  -7.630  1.00  0.00    -0.014 A 
ATOM     80  C   UNL     1      -6.710  15.650  -8.856  1.00  0.00     0.009 A 
ATOM     81  C   UNL     1      -5.253  17.114  -7.598  1.00  0.00     0.009 A 
ATOM     82  C   UNL     1      -6.377  16.331 -10.029  1.00  0.00     0.001 A 
ATOM     83  C   UNL     1      -4.942  17.809  -8.768  1.00  0.00     0.001 A 
ATOM     84  C   UNL     1      -5.500  17.414  -9.983  1.00  0.00     0.000 A 
ENDBRANCH  65  79
BRANCH  66  85
ATOM     85  C   UNL     1      -8.068  11.268   0.920  1.00  0.00    -0.014 A 
ATOM     86  C   UNL     1      -9.372  10.869   1.255  1.00  0.00     0.009 A 
ATOM     87  C   UNL     1      -7.035  11.050   1.844  1.00  0.00     0.009 A 
ATOM     88  C   UNL     1      -9.641  10.303   2.503  1.00  0.00     0.001 A 
ATOM     89  C   UNL     1      -7.302  10.456   3.079  1.00  0.00     0.001 A 
ATOM     90  C   UNL     1      -8.606  10.095   3.413  1.00  0.00     0.000 A 
ENDBRANCH  66  85
BRANCH  78  91
ATOM     91  C   UNL     1      -9.858  17.477  -1.630  1.00  0.00    -0.014 A 
ATOM     92  C   UNL     1      -9.374  18.289  -0.593  1.00  0.00     0.009 A 
ATOM     93  C   UNL     1     -11.129  17.738  -2.165  1.00  0.00     0.009 A 
ATOM     94  C   UNL     1     -10.164  19.317  -0.076  1.00  0.00     0.001 A 
ATOM     95  C   UNL     1     -11.904  18.785  -1.667  1.00  0.00     0.001 A 
ATOM     96  C   UNL     1     -11.426  19.567  -0.616  1.00  0.00     0.000 A 
ENDBRANCH  78  91
ENDBRANCH  52  53
ENDBRANCH  44  47
ENDBRANCH  42  43
ENDBRANCH  41  42
ENDBRANCH   1  41
TORSDOF 17
