REMARK SMILES COc1c(C)cc(Br)cc1C(=O)Nc1ccc(O)c(C(=O)NCCCCNC(=O)c2ccc(-c3c4nc(c(-c5ccccc5)c5ccc([nH]5)c(-c5ccccc5)c5nc(c(-c6ccccc6)c6ccc3[nH]6)C=C5)C=C4)cc2)c1
REMARK SMILES IDX 24 1 23 2 22 3 20 4 21 5 19 7 14 8 15 9 78 10 16 11 17 12
REMARK SMILES IDX 13 13 11 14 12 15 10 17 3 18 4 19 5 20 6 21 9 22 7 23 8 24
REMARK SMILES IDX 2 25 1 26 18 27 25 29 26 30 27 31 28 32 29 34 30 35 31 36
REMARK SMILES IDX 77 37 32 38 76 39 33 40 34 41 35 42 70 43 36 44 75 45 69 46
REMARK SMILES IDX 71 47 37 48 74 49 68 50 67 51 38 53 60 54 45 55 59 56 46 57
REMARK SMILES IDX 49 58 58 59 72 60 47 61 48 62 57 64 73 65 50 66 39 67 40 68
REMARK SMILES IDX 44 69 41 70 43 71 42 72 61 73 62 74 66 75 63 76 65 77 64 78
REMARK SMILES IDX 51 79 52 80 56 81 53 82 55 83 54 84
REMARK H PARENT 22 6 13 16 18 28 27 33 71 52 49 63
REMARK Flexibility Score: inf
ROOT
ATOM      1  C   UNL     1       1.603   5.337  -1.562  1.00  0.00     0.023 C 
ENDROOT
BRANCH   1   2
ATOM      2  C   UNL     1       1.829   4.805  -0.145  1.00  0.00     0.116 C 
BRANCH   2   3
ATOM      3  N   UNL     1       0.677   5.023   0.704  1.00  0.00    -0.352 N 
ATOM      4  C   UNL     1      -0.329   4.178   1.103  1.00  0.00     0.255 C 
ATOM      5  O   UNL     1      -1.129   4.620   1.933  1.00  0.00    -0.269 OA
ATOM      6  H   UNL     1       0.601   5.939   1.057  1.00  0.00     0.163 HD
BRANCH   4   7
ATOM      7  C   UNL     1      -0.491   2.762   0.665  1.00  0.00     0.083 A 
ATOM      8  C   UNL     1      -1.152   0.524   1.372  1.00  0.00     0.042 A 
ATOM      9  C   UNL     1      -1.150   0.095   0.050  1.00  0.00     0.030 A 
ATOM     10  C   UNL     1      -0.916   1.868   1.669  1.00  0.00     0.043 A 
ATOM     11  C   UNL     1      -0.733   0.957  -0.951  1.00  0.00     0.049 A 
ATOM     12  C   UNL     1      -0.356   2.263  -0.636  1.00  0.00     0.128 A 
BRANCH   8  13
ATOM     13  N   UNL     1      -1.387  -0.380   2.415  1.00  0.00    -0.322 N 
ATOM     14  C   UNL     1      -1.204  -1.746   2.344  1.00  0.00     0.259 C 
ATOM     15  O   UNL     1      -2.151  -2.516   2.496  1.00  0.00    -0.269 OA
ATOM     16  H   UNL     1      -1.710  -0.011   3.269  1.00  0.00     0.170 HD
BRANCH  14  17
ATOM     17  C   UNL     1       0.203  -2.268   2.476  1.00  0.00     0.083 A 
ATOM     18  C   UNL     1       1.360  -1.786   1.838  1.00  0.00     0.134 A 
ATOM     19  C   UNL     1       2.645  -2.166   2.280  1.00  0.00    -0.007 A 
ATOM     20  C   UNL     1       3.892  -1.512   1.748  1.00  0.00     0.048 C 
ATOM     21  C   UNL     1       2.760  -3.198   3.216  1.00  0.00     0.023 A 
ATOM     22  C   UNL     1       0.351  -3.308   3.410  1.00  0.00     0.033 A 
ATOM     23  C   UNL     1       1.616  -3.785   3.748  1.00  0.00     0.019 A 
ATOM     24  Br  UNL     1       1.785  -5.218   4.968  1.00  0.00    -0.051 Br
BRANCH  18  25
ATOM     25  O   UNL     1       1.290  -0.988   0.728  1.00  0.00    -0.496 OA
ATOM     26  C   UNL     1       1.537  -1.763  -0.455  1.00  0.00     0.278 C 
ENDBRANCH  18  25
ENDBRANCH  14  17
ENDBRANCH   8  13
BRANCH  12  27
ATOM     27  O   UNL     1       0.118   2.999  -1.673  1.00  0.00    -0.507 OA
ATOM     28  H   UNL     1       0.188   2.617  -2.525  1.00  0.00     0.293 HD
ENDBRANCH  12  27
ENDBRANCH   4   7
ENDBRANCH   2   3
ENDBRANCH   1   2
BRANCH   1  29
ATOM     29  C   UNL     1       1.748   6.838  -1.759  1.00  0.00     0.023 C 
BRANCH  29  30
ATOM     30  C   UNL     1       3.126   7.403  -1.482  1.00  0.00     0.116 C 
BRANCH  30  31
ATOM     31  N   UNL     1       4.193   6.779  -2.251  1.00  0.00    -0.352 N 
ATOM     32  C   UNL     1       5.333   7.368  -2.757  1.00  0.00     0.251 C 
ATOM     33  H   UNL     1       4.087   5.818  -2.433  1.00  0.00     0.163 HD
ATOM     34  O   UNL     1       6.119   6.735  -3.439  1.00  0.00    -0.269 OA
BRANCH  32  35
ATOM     35  C   UNL     1       5.550   8.808  -2.498  1.00  0.00     0.039 A 
ATOM     36  C   UNL     1       5.790   9.657  -3.581  1.00  0.00     0.014 A 
ATOM     37  C   UNL     1       5.414   9.322  -1.207  1.00  0.00     0.014 A 
ATOM     38  C   UNL     1       5.805  11.037  -3.378  1.00  0.00     0.010 A 
ATOM     39  C   UNL     1       5.343  10.696  -1.022  1.00  0.00     0.010 A 
ATOM     40  C   UNL     1       5.535  11.567  -2.105  1.00  0.00    -0.014 A 
BRANCH  40  41
ATOM     41  C   UNL     1       5.451  13.029  -1.879  1.00  0.00     0.031 A 
ATOM     42  C   UNL     1       6.436  13.702  -0.967  1.00  0.00     0.074 A 
ATOM     43  C   UNL     1       4.444  13.735  -2.429  1.00  0.00     0.049 A 
ATOM     44  N   UNL     1       6.489  14.953  -0.587  1.00  0.00    -0.248 NA
ATOM     45  C   UNL     1       7.481  12.849  -0.376  1.00  0.00     0.031 C 
ATOM     46  C   UNL     1       3.388  13.189  -3.285  1.00  0.00     0.029 A 
ATOM     47  N   UNL     1       4.141  15.070  -2.339  1.00  0.00    -0.354 N 
ATOM     48  C   UNL     1       7.551  15.029   0.304  1.00  0.00     0.074 A 
ATOM     49  C   UNL     1       8.084  13.693   0.447  1.00  0.00     0.031 C 
ATOM     50  C   UNL     1       2.572  14.186  -3.667  1.00  0.00     0.029 A 
ATOM     51  C   UNL     1       3.027  15.432  -3.058  1.00  0.00     0.049 A 
ATOM     52  H   UNL     1       4.671  15.709  -1.810  1.00  0.00     0.167 HD
ATOM     53  C   UNL     1       8.054  16.118   0.931  1.00  0.00     0.031 A 
ATOM     54  C   UNL     1       2.442  16.634  -3.212  1.00  0.00     0.031 A 
ATOM     55  C   UNL     1       7.545  17.451   0.766  1.00  0.00     0.049 A 
ATOM     56  C   UNL     1       3.036  17.833  -2.529  1.00  0.00     0.074 A 
ATOM     57  C   UNL     1       8.029  18.632   1.303  1.00  0.00     0.029 A 
ATOM     58  N   UNL     1       6.437  17.780   0.002  1.00  0.00    -0.354 N 
ATOM     59  N   UNL     1       4.086  17.901  -1.747  1.00  0.00    -0.248 NA
ATOM     60  C   UNL     1       2.371  19.123  -2.761  1.00  0.00     0.031 C 
ATOM     61  C   UNL     1       7.192  19.673   0.887  1.00  0.00     0.029 A 
ATOM     62  C   UNL     1       6.212  19.144   0.062  1.00  0.00     0.049 A 
ATOM     63  H   UNL     1       5.891  17.139  -0.507  1.00  0.00     0.167 HD
ATOM     64  C   UNL     1       4.222  19.242  -1.414  1.00  0.00     0.074 A 
ATOM     65  C   UNL     1       3.156  19.954  -2.089  1.00  0.00     0.031 C 
ATOM     66  C   UNL     1       5.148  19.832  -0.620  1.00  0.00     0.031 A 
BRANCH  53  67
ATOM     67  C   UNL     1       9.221  15.901   1.850  1.00  0.00    -0.014 A 
ATOM     68  C   UNL     1      10.493  15.590   1.344  1.00  0.00     0.009 A 
ATOM     69  C   UNL     1       9.050  16.020   3.237  1.00  0.00     0.009 A 
ATOM     70  C   UNL     1      11.563  15.363   2.212  1.00  0.00     0.001 A 
ATOM     71  C   UNL     1      10.128  15.818   4.102  1.00  0.00     0.001 A 
ATOM     72  C   UNL     1      11.380  15.480   3.590  1.00  0.00     0.000 A 
ENDBRANCH  53  67
BRANCH  54  73
ATOM     73  C   UNL     1       1.244  16.773  -4.078  1.00  0.00    -0.014 A 
ATOM     74  C   UNL     1       1.349  17.385  -5.337  1.00  0.00     0.009 A 
ATOM     75  C   UNL     1      -0.007  16.302  -3.654  1.00  0.00     0.009 A 
ATOM     76  C   UNL     1       0.221  17.544  -6.143  1.00  0.00     0.001 A 
ATOM     77  C   UNL     1      -1.130  16.442  -4.473  1.00  0.00     0.001 A 
ATOM     78  C   UNL     1      -1.017  17.069  -5.712  1.00  0.00     0.000 A 
ENDBRANCH  54  73
BRANCH  66  79
ATOM     79  C   UNL     1       5.068  21.322  -0.466  1.00  0.00    -0.014 A 
ATOM     80  C   UNL     1       4.087  21.916   0.343  1.00  0.00     0.009 A 
ATOM     81  C   UNL     1       6.014  22.138  -1.104  1.00  0.00     0.009 A 
ATOM     82  C   UNL     1       4.040  23.303   0.487  1.00  0.00     0.001 A 
ATOM     83  C   UNL     1       5.979  23.523  -0.939  1.00  0.00     0.001 A 
ATOM     84  C   UNL     1       4.988  24.105  -0.149  1.00  0.00     0.000 A 
ENDBRANCH  66  79
ENDBRANCH  40  41
ENDBRANCH  32  35
ENDBRANCH  30  31
ENDBRANCH  29  30
ENDBRANCH   1  29
TORSDOF 15
