REMARK SMILES C[C@@H](C(=O)NCCCCNC(=O)c1ccc(-c2c3nc(c(-c4ccccc4)c4ccc([nH]4)c(-c4ccccc4)c4nc(c(-c5ccccc5)c5ccc2[nH]5)C=C4)C=C3)cc1)c1ccc(NC2CCCC2)cc1F
REMARK SMILES IDX 7 1 6 2 5 3 3 4 4 5 2 7 1 8 61 9 62 10 72 11 63 12 71 13
REMARK SMILES IDX 73 14 64 15 65 16 66 18 67 19 70 20 68 21 69 22 8 23 9 24
REMARK SMILES IDX 10 25 11 26 12 28 13 29 14 30 60 31 15 32 59 33 16 34 17 35
REMARK SMILES IDX 18 36 53 37 19 38 58 39 52 40 54 41 20 42 57 43 51 44 50 45
REMARK SMILES IDX 21 47 43 48 28 49 42 50 29 51 32 52 41 53 55 54 30 55 31 56
REMARK SMILES IDX 40 58 56 59 33 60 22 61 23 62 27 63 24 64 26 65 25 66 44 67
REMARK SMILES IDX 45 68 49 69 46 70 48 71 47 72 34 73 35 74 39 75 36 76 38 77
REMARK SMILES IDX 37 78
REMARK H PARENT 5 6 65 17 10 27 54 46 32 57
REMARK Flexibility Score: inf
ROOT
ATOM      1  C   UNL     1       4.197   0.890   0.671  1.00  0.00     0.023 C 
ENDROOT
BRANCH   1   2
ATOM      2  C   UNL     1       3.498  -0.038   1.667  1.00  0.00     0.116 C 
BRANCH   2   3
ATOM      3  N   UNL     1       2.494   0.673   2.425  1.00  0.00    -0.356 N 
ATOM      4  C   UNL     1       1.140   0.714   2.282  1.00  0.00     0.227 C 
ATOM      5  O   UNL     1       0.547   1.476   3.050  1.00  0.00    -0.274 OA
ATOM      6  H   UNL     1       2.847   1.217   3.166  1.00  0.00     0.163 HD
BRANCH   4   7
ATOM      7  C   UNL     1       0.429  -0.184   1.250  1.00  0.00     0.108 C 
ATOM      8  C   UNL     1       0.767   0.168  -0.202  1.00  0.00     0.023 C 
BRANCH   7   9
ATOM      9  C   UNL     1      -1.085  -0.140   1.391  1.00  0.00     0.000 A 
ATOM     10  C   UNL     1      -1.781   1.070   1.315  1.00  0.00     0.009 A 
ATOM     11  C   UNL     1      -1.832  -1.307   1.538  1.00  0.00     0.129 A 
ATOM     12  C   UNL     1      -3.174   1.101   1.403  1.00  0.00     0.026 A 
ATOM     13  C   UNL     1      -3.226  -1.273   1.619  1.00  0.00     0.065 A 
ATOM     14  F   UNL     1      -1.213  -2.497   1.579  1.00  0.00    -0.207 F 
ATOM     15  C   UNL     1      -3.929  -0.063   1.560  1.00  0.00     0.037 A 
BRANCH  15  16
ATOM     16  N   UNL     1      -5.307  -0.082   1.636  1.00  0.00    -0.382 N 
ATOM     17  H   UNL     1      -5.715  -0.972   1.735  1.00  0.00     0.160 HD
BRANCH  16  18
ATOM     18  C   UNL     1      -6.237   1.036   1.589  1.00  0.00     0.079 C 
ATOM     19  C   UNL     1      -6.083   2.027   2.739  1.00  0.00     0.025 C 
ATOM     20  C   UNL     1      -6.186   1.848   0.292  1.00  0.00     0.025 C 
ATOM     21  C   UNL     1      -6.682   3.311   2.187  1.00  0.00     0.002 C 
ATOM     22  C   UNL     1      -6.324   3.312   0.707  1.00  0.00     0.002 C 
ENDBRANCH  16  18
ENDBRANCH  15  16
ENDBRANCH   7   9
ENDBRANCH   4   7
ENDBRANCH   2   3
ENDBRANCH   1   2
BRANCH   1  23
ATOM     23  C   UNL     1       4.940   2.073   1.301  1.00  0.00     0.023 C 
BRANCH  23  24
ATOM     24  C   UNL     1       5.940   1.709   2.390  1.00  0.00     0.116 C 
BRANCH  24  25
ATOM     25  N   UNL     1       6.939   0.755   1.942  1.00  0.00    -0.352 N 
ATOM     26  C   UNL     1       8.274   0.697   2.237  1.00  0.00     0.251 C 
ATOM     27  H   UNL     1       6.609   0.051   1.339  1.00  0.00     0.163 HD
ATOM     28  O   UNL     1       8.991  -0.123   1.658  1.00  0.00    -0.269 OA
BRANCH  26  29
ATOM     29  C   UNL     1       8.869   1.622   3.223  1.00  0.00     0.039 A 
ATOM     30  C   UNL     1      10.118   2.183   2.942  1.00  0.00     0.014 A 
ATOM     31  C   UNL     1       8.228   1.913   4.431  1.00  0.00     0.014 A 
ATOM     32  C   UNL     1      10.711   3.053   3.858  1.00  0.00     0.010 A 
ATOM     33  C   UNL     1       8.785   2.839   5.309  1.00  0.00     0.010 A 
ATOM     34  C   UNL     1      10.044   3.397   5.044  1.00  0.00    -0.014 A 
BRANCH  34  35
ATOM     35  C   UNL     1      10.679   4.296   6.038  1.00  0.00     0.031 A 
ATOM     36  C   UNL     1      11.070   3.765   7.391  1.00  0.00     0.074 A 
ATOM     37  C   UNL     1      10.881   5.593   5.738  1.00  0.00     0.049 A 
ATOM     38  N   UNL     1      11.644   4.388   8.389  1.00  0.00    -0.248 NA
ATOM     39  C   UNL     1      10.752   2.354   7.668  1.00  0.00     0.031 C 
ATOM     40  C   UNL     1      10.510   6.241   4.478  1.00  0.00     0.029 A 
ATOM     41  N   UNL     1      11.457   6.598   6.473  1.00  0.00    -0.354 N 
ATOM     42  C   UNL     1      11.734   3.455   9.414  1.00  0.00     0.074 A 
ATOM     43  C   UNL     1      11.111   2.240   8.938  1.00  0.00     0.031 C 
ATOM     44  C   UNL     1      10.902   7.526   4.514  1.00  0.00     0.029 A 
ATOM     45  C   UNL     1      11.524   7.797   5.806  1.00  0.00     0.049 A 
ATOM     46  H   UNL     1      11.790   6.472   7.391  1.00  0.00     0.167 HD
ATOM     47  C   UNL     1      12.305   3.586  10.636  1.00  0.00     0.031 A 
ATOM     48  C   UNL     1      12.042   8.979   6.190  1.00  0.00     0.031 A 
ATOM     49  C   UNL     1      12.945   4.786  11.102  1.00  0.00     0.049 A 
ATOM     50  C   UNL     1      12.688   9.094   7.542  1.00  0.00     0.074 A 
ATOM     51  C   UNL     1      13.606   5.002  12.299  1.00  0.00     0.029 A 
ATOM     52  N   UNL     1      13.008   5.972  10.389  1.00  0.00    -0.354 N 
ATOM     53  N   UNL     1      12.832   8.181   8.472  1.00  0.00    -0.248 NA
ATOM     54  C   UNL     1      13.264  10.402   7.887  1.00  0.00     0.031 C 
ATOM     55  C   UNL     1      14.033   6.334  12.327  1.00  0.00     0.029 A 
ATOM     56  C   UNL     1      13.684   6.930  11.125  1.00  0.00     0.049 A 
ATOM     57  H   UNL     1      12.628   6.113   9.492  1.00  0.00     0.167 HD
ATOM     58  C   UNL     1      13.547   8.791   9.494  1.00  0.00     0.074 A 
ATOM     59  C   UNL     1      13.816  10.148   9.065  1.00  0.00     0.031 C 
ATOM     60  C   UNL     1      13.950   8.273  10.680  1.00  0.00     0.031 A 
BRANCH  47  61
ATOM     61  C   UNL     1      12.252   2.396  11.553  1.00  0.00    -0.014 A 
ATOM     62  C   UNL     1      13.008   1.241  11.292  1.00  0.00     0.009 A 
ATOM     63  C   UNL     1      11.451   2.436  12.704  1.00  0.00     0.009 A 
ATOM     64  C   UNL     1      12.929   0.136  12.142  1.00  0.00     0.001 A 
ATOM     65  C   UNL     1      11.397   1.341  13.569  1.00  0.00     0.001 A 
ATOM     66  C   UNL     1      12.127   0.189  13.281  1.00  0.00     0.000 A 
ENDBRANCH  47  61
BRANCH  48  67
ATOM     67  C   UNL     1      12.017  10.140   5.263  1.00  0.00    -0.014 A 
ATOM     68  C   UNL     1      13.202  10.592   4.661  1.00  0.00     0.009 A 
ATOM     69  C   UNL     1      10.815  10.808   4.983  1.00  0.00     0.009 A 
ATOM     70  C   UNL     1      13.189  11.708   3.822  1.00  0.00     0.001 A 
ATOM     71  C   UNL     1      10.801  11.907   4.122  1.00  0.00     0.001 A 
ATOM     72  C   UNL     1      11.989  12.363   3.551  1.00  0.00     0.000 A 
ENDBRANCH  48  67
BRANCH  60  73
ATOM     73  C   UNL     1      14.769   9.161  11.573  1.00  0.00    -0.014 A 
ATOM     74  C   UNL     1      14.196  10.245  12.255  1.00  0.00     0.009 A 
ATOM     75  C   UNL     1      16.134   8.887  11.753  1.00  0.00     0.009 A 
ATOM     76  C   UNL     1      14.984  11.062  13.068  1.00  0.00     0.001 A 
ATOM     77  C   UNL     1      16.913   9.687  12.590  1.00  0.00     0.001 A 
ATOM     78  C   UNL     1      16.340  10.780  13.238  1.00  0.00     0.000 A 
ENDBRANCH  60  73
ENDBRANCH  34  35
ENDBRANCH  26  29
ENDBRANCH  24  25
ENDBRANCH  23  24
ENDBRANCH   1  23
TORSDOF 14
