REMARK SMILES O=C(Nc1c(F)cc(F)cc1F)N[C@H]1C=C[C@@H](C(=O)NCCCCNC(=O)c2ccc(-c3c4nc(c(-c5ccccc5)c5ccc([nH]5)c(-c5ccccc5)c5nc(c(-c6ccccc6)c6ccc3[nH]6)C=C5)C=C4)cc2)C1
REMARK SMILES IDX 22 1 21 2 20 3 18 4 19 5 17 7 14 8 15 9 76 10 16 11 13 12
REMARK SMILES IDX 1 13 2 14 3 15 4 18 5 19 11 20 6 21 7 22 10 23 12 24 8 25
REMARK SMILES IDX 9 26 23 27 24 28 25 29 26 30 27 32 28 33 29 34 75 35 30 36
REMARK SMILES IDX 74 37 31 38 32 39 33 40 68 41 34 42 73 43 67 44 69 45 35 46
REMARK SMILES IDX 72 47 66 48 65 49 36 51 58 52 43 53 57 54 44 55 47 56 56 57
REMARK SMILES IDX 70 58 45 59 46 60 55 62 71 63 48 64 37 65 38 66 42 67 39 68
REMARK SMILES IDX 41 69 40 70 59 71 60 72 64 73 61 74 63 75 62 76 49 77 50 78
REMARK SMILES IDX 54 79 51 80 53 81 52 82
REMARK H PARENT 20 6 3 16 13 17 25 31 69 50 47 61
REMARK Flexibility Score: inf
ROOT
ATOM      1  C   UNL     1       6.354  -2.183   2.068  1.00  0.00     0.023 C 
ENDROOT
BRANCH   1   2
ATOM      2  C   UNL     1       5.459  -3.390   1.809  1.00  0.00     0.116 C 
BRANCH   2   3
ATOM      3  N   UNL     1       5.120  -4.069   3.038  1.00  0.00    -0.356 N 
ATOM      4  C   UNL     1       3.920  -4.214   3.664  1.00  0.00     0.227 C 
ATOM      5  O   UNL     1       3.915  -4.856   4.720  1.00  0.00    -0.274 OA
ATOM      6  H   UNL     1       5.879  -4.495   3.498  1.00  0.00     0.163 HD
BRANCH   4   7
ATOM      7  C   UNL     1       2.615  -3.635   3.106  1.00  0.00     0.103 C 
ATOM      8  C   UNL     1       1.943  -1.832   1.569  1.00  0.00     0.107 C 
ATOM      9  C   UNL     1       1.903  -3.175   0.915  1.00  0.00    -0.006 C 
ATOM     10  C   UNL     1       2.590  -2.110   2.939  1.00  0.00     0.047 C 
ATOM     11  C   UNL     1       2.263  -4.159   1.747  1.00  0.00    -0.016 C 
BRANCH   8  12
ATOM     12  N   UNL     1       2.740  -0.943   0.755  1.00  0.00    -0.332 N 
ATOM     13  O   UNL     1       0.986   0.286  -0.007  1.00  0.00    -0.248 OA
ATOM     14  C   UNL     1       2.197   0.079   0.046  1.00  0.00     0.319 C 
ATOM     15  N   UNL     1       3.039   1.000  -0.495  1.00  0.00    -0.303 N 
ATOM     16  H   UNL     1       2.580   1.816  -0.798  1.00  0.00     0.172 HD
ATOM     17  H   UNL     1       3.713  -1.083   0.714  1.00  0.00     0.165 HD
BRANCH  15  18
ATOM     18  C   UNL     1       4.431   1.032  -0.714  1.00  0.00     0.115 A 
ATOM     19  C   UNL     1       5.245  -0.081  -0.930  1.00  0.00     0.152 A 
ATOM     20  C   UNL     1       5.035   2.295  -0.760  1.00  0.00     0.152 A 
ATOM     21  F   UNL     1       4.733  -1.320  -0.945  1.00  0.00    -0.204 F 
ATOM     22  C   UNL     1       6.615   0.059  -1.155  1.00  0.00     0.081 A 
ATOM     23  C   UNL     1       6.407   2.450  -0.931  1.00  0.00     0.081 A 
ATOM     24  F   UNL     1       4.284   3.393  -0.583  1.00  0.00    -0.204 F 
ATOM     25  C   UNL     1       7.187   1.322  -1.124  1.00  0.00     0.129 A 
ATOM     26  F   UNL     1       8.510   1.452  -1.279  1.00  0.00    -0.207 F 
ENDBRANCH  15  18
ENDBRANCH   8  12
ENDBRANCH   4   7
ENDBRANCH   2   3
ENDBRANCH   1   2
BRANCH   1  27
ATOM     27  C   UNL     1       7.785  -2.525   2.477  1.00  0.00     0.023 C 
BRANCH  27  28
ATOM     28  C   UNL     1       8.515  -3.473   1.531  1.00  0.00     0.116 C 
BRANCH  28  29
ATOM     29  N   UNL     1       8.518  -3.005   0.152  1.00  0.00    -0.352 N 
ATOM     30  C   UNL     1       9.579  -2.844  -0.705  1.00  0.00     0.251 C 
ATOM     31  H   UNL     1       7.636  -2.771  -0.218  1.00  0.00     0.163 HD
ATOM     32  O   UNL     1       9.428  -2.260  -1.774  1.00  0.00    -0.269 OA
BRANCH  30  33
ATOM     33  C   UNL     1      10.901  -3.378  -0.324  1.00  0.00     0.039 A 
ATOM     34  C   UNL     1      12.039  -2.585  -0.481  1.00  0.00     0.014 A 
ATOM     35  C   UNL     1      11.003  -4.664   0.213  1.00  0.00     0.014 A 
ATOM     36  C   UNL     1      13.273  -3.059  -0.029  1.00  0.00     0.010 A 
ATOM     37  C   UNL     1      12.212  -5.097   0.741  1.00  0.00     0.010 A 
ATOM     38  C   UNL     1      13.361  -4.301   0.622  1.00  0.00    -0.014 A 
BRANCH  38  39
ATOM     39  C   UNL     1      14.639  -4.787   1.198  1.00  0.00     0.031 A 
ATOM     40  C   UNL     1      15.267  -6.055   0.686  1.00  0.00     0.074 A 
ATOM     41  C   UNL     1      15.193  -4.130   2.236  1.00  0.00     0.049 A 
ATOM     42  N   UNL     1      16.346  -6.668   1.103  1.00  0.00    -0.248 NA
ATOM     43  C   UNL     1      14.578  -6.739  -0.420  1.00  0.00     0.031 C 
ATOM     44  C   UNL     1      14.657  -2.917   2.858  1.00  0.00     0.029 A 
ATOM     45  N   UNL     1      16.330  -4.397   2.958  1.00  0.00    -0.354 N 
ATOM     46  C   UNL     1      16.453  -7.814   0.324  1.00  0.00     0.074 A 
ATOM     47  C   UNL     1      15.302  -7.840  -0.551  1.00  0.00     0.031 C 
ATOM     48  C   UNL     1      15.482  -2.526   3.842  1.00  0.00     0.029 A 
ATOM     49  C   UNL     1      16.578  -3.482   3.952  1.00  0.00     0.049 A 
ATOM     50  H   UNL     1      16.912  -5.170   2.779  1.00  0.00     0.167 HD
ATOM     51  C   UNL     1      17.431  -8.749   0.322  1.00  0.00     0.031 A 
ATOM     52  C   UNL     1      17.575  -3.422   4.855  1.00  0.00     0.031 A 
ATOM     53  C   UNL     1      18.580  -8.719   1.187  1.00  0.00     0.049 A 
ATOM     54  C   UNL     1      18.639  -4.484   4.844  1.00  0.00     0.074 A 
ATOM     55  C   UNL     1      19.658  -9.585   1.219  1.00  0.00     0.029 A 
ATOM     56  N   UNL     1      18.796  -7.774   2.179  1.00  0.00    -0.354 N 
ATOM     57  N   UNL     1      18.768  -5.517   4.047  1.00  0.00    -0.248 NA
ATOM     58  C   UNL     1      19.701  -4.364   5.851  1.00  0.00     0.031 C 
ATOM     59  C   UNL     1      20.497  -9.200   2.270  1.00  0.00     0.029 A 
ATOM     60  C   UNL     1      19.974  -8.054   2.849  1.00  0.00     0.049 A 
ATOM     61  H   UNL     1      18.199  -7.016   2.377  1.00  0.00     0.167 HD
ATOM     62  C   UNL     1      19.941  -6.151   4.436  1.00  0.00     0.074 A 
ATOM     63  C   UNL     1      20.494  -5.375   5.527  1.00  0.00     0.031 C 
ATOM     64  C   UNL     1      20.510  -7.275   3.935  1.00  0.00     0.031 A 
BRANCH  51  65
ATOM     65  C   UNL     1      17.296  -9.894  -0.646  1.00  0.00    -0.014 A 
ATOM     66  C   UNL     1      17.415  -9.697  -2.031  1.00  0.00     0.009 A 
ATOM     67  C   UNL     1      17.082 -11.194  -0.163  1.00  0.00     0.009 A 
ATOM     68  C   UNL     1      17.285 -10.772  -2.914  1.00  0.00     0.001 A 
ATOM     69  C   UNL     1      16.984 -12.272  -1.046  1.00  0.00     0.001 A 
ATOM     70  C   UNL     1      17.075 -12.058  -2.420  1.00  0.00     0.000 A 
ENDBRANCH  51  65
BRANCH  52  71
ATOM     71  C   UNL     1      17.627  -2.307   5.838  1.00  0.00    -0.014 A 
ATOM     72  C   UNL     1      18.634  -1.332   5.753  1.00  0.00     0.009 A 
ATOM     73  C   UNL     1      16.683  -2.217   6.872  1.00  0.00     0.009 A 
ATOM     74  C   UNL     1      18.711  -0.309   6.701  1.00  0.00     0.001 A 
ATOM     75  C   UNL     1      16.744  -1.175   7.800  1.00  0.00     0.001 A 
ATOM     76  C   UNL     1      17.764  -0.229   7.721  1.00  0.00     0.000 A 
ENDBRANCH  52  71
BRANCH  64  77
ATOM     77  C   UNL     1      21.817  -7.710   4.537  1.00  0.00    -0.014 A 
ATOM     78  C   UNL     1      21.885  -8.239   5.836  1.00  0.00     0.009 A 
ATOM     79  C   UNL     1      22.994  -7.620   3.778  1.00  0.00     0.009 A 
ATOM     80  C   UNL     1      23.112  -8.631   6.375  1.00  0.00     0.001 A 
ATOM     81  C   UNL     1      24.214  -8.045   4.306  1.00  0.00     0.001 A 
ATOM     82  C   UNL     1      24.273  -8.539   5.608  1.00  0.00     0.000 A 
ENDBRANCH  64  77
ENDBRANCH  38  39
ENDBRANCH  30  33
ENDBRANCH  28  29
ENDBRANCH  27  28
ENDBRANCH   1  27
TORSDOF 13
