REMARK SMILES Nc1ccccc1NC(=O)N[C@H]1CCCCC[C@H]1C(=O)NCCCCNC(=O)c1ccc(-c2c3nc(c(-c4ccccc4)c4ccc([nH]4)c(-c4ccccc4)c4nc(c(-c5ccccc5)c5ccc2[nH]5)C=C4)C=C3)cc1
REMARK SMILES IDX 22 1 21 2 19 3 20 4 18 6 12 7 11 8 8 9 9 10 10 12 7 14 2 15
REMARK SMILES IDX 3 16 4 17 6 18 5 19 1 20 13 23 14 24 17 26 16 27 15 28 23 30
REMARK SMILES IDX 24 31 25 32 26 33 27 34 28 36 29 37 30 38 76 39 31 40 75 41
REMARK SMILES IDX 32 42 33 43 34 44 69 45 35 46 74 47 68 48 70 49 36 50 73 51
REMARK SMILES IDX 67 52 66 53 37 55 59 56 44 57 58 58 45 59 48 60 57 61 71 62
REMARK SMILES IDX 46 63 47 64 56 66 72 67 49 68 38 69 39 70 43 71 40 72 42 73
REMARK SMILES IDX 41 74 60 75 61 76 65 77 62 78 64 79 63 80 50 81 51 82 55 83
REMARK SMILES IDX 52 84 54 85 53 86
REMARK H PARENT 21 5 8 11 11 13 1 21 1 22 26 35 70 54 48 65
REMARK Flexibility Score: 90.00
ROOT
ATOM      1  C   UNL     1      -4.874   0.158   0.113  1.00  0.00     0.116 C 
ENDROOT
BRANCH   1   2
ATOM      2  N   UNL     1      -4.636   0.834  -1.133  1.00  0.00    -0.356 N 
ATOM      3  C   UNL     1      -3.479   1.068  -1.798  1.00  0.00     0.225 C 
ATOM      4  O   UNL     1      -3.593   1.239  -3.019  1.00  0.00    -0.275 OA
ATOM      5  H   UNL     1      -5.444   1.182  -1.574  1.00  0.00     0.163 HD
BRANCH   3   6
ATOM      6  C   UNL     1      -2.086   1.119  -1.152  1.00  0.00     0.101 C 
BRANCH   6   7
ATOM      7  C   UNL     1      -1.814   2.006   0.086  1.00  0.00     0.096 C 
BRANCH   7   8
ATOM      8  N   UNL     1      -2.806   3.071   0.284  1.00  0.00    -0.334 N 
ATOM      9  N   UNL     1      -1.753   5.233   0.212  1.00  0.00    -0.306 N 
ATOM     10  C   UNL     1      -2.810   4.411   0.262  1.00  0.00     0.319 C 
ATOM     11  H   UNL     1      -2.023   6.126  -0.103  1.00  0.00     0.171 HD
ATOM     12  O   UNL     1      -3.929   4.939   0.209  1.00  0.00    -0.248 OA
ATOM     13  H   UNL     1      -3.698   2.706   0.486  1.00  0.00     0.165 HD
BRANCH   9  14
ATOM     14  C   UNL     1      -0.371   5.199   0.476  1.00  0.00     0.065 A 
ATOM     15  C   UNL     1       0.430   6.265   0.012  1.00  0.00     0.055 A 
ATOM     16  C   UNL     1       1.826   6.115   0.014  1.00  0.00     0.028 A 
ATOM     17  C   UNL     1       2.425   5.004   0.604  1.00  0.00     0.002 A 
ATOM     18  C   UNL     1       0.244   4.201   1.216  1.00  0.00     0.028 A 
ATOM     19  C   UNL     1       1.632   4.068   1.250  1.00  0.00     0.002 A 
BRANCH  15  20
ATOM     20  N   UNL     1      -0.120   7.421  -0.555  1.00  0.00    -0.397 N 
ATOM     21  H   UNL     1       0.470   8.145  -0.868  1.00  0.00     0.156 HD
ATOM     22  H   UNL     1      -1.097   7.511  -0.640  1.00  0.00     0.156 HD
ENDBRANCH  15  20
ENDBRANCH   9  14
ENDBRANCH   7   8
BRANCH   7  23
ATOM     23  C   UNL     1      -1.413   1.368   1.436  1.00  0.00     0.026 C 
BRANCH  23  24
ATOM     24  C   UNL     1      -1.824  -0.015   1.904  1.00  0.00     0.002 CG0
ATOM     25  G   UNL     1      -1.231  -1.177   1.127  1.00  0.00     0.000 G0
ENDBRANCH  23  24
ENDBRANCH   7  23
ENDBRANCH   6   7
BRANCH   6  26
ATOM     26  C   UNL     1      -1.293  -0.192  -1.245  1.00  0.00     0.015 C 
BRANCH  26  27
ATOM     27  C   UNL     1      -1.668  -1.340  -0.321  1.00  0.00     0.001 C 
BRANCH  27  28
ATOM     28  C   UNL     1      -1.231  -1.177   1.127  1.00  0.00     0.000 CG0
ATOM     29  G   UNL     1      -1.824  -0.015   1.904  1.00  0.00     0.000 G0
ENDBRANCH  27  28
ENDBRANCH  26  27
ENDBRANCH   6  26
ENDBRANCH   3   6
ENDBRANCH   1   2
BRANCH   1  30
ATOM     30  C   UNL     1      -5.525   1.036   1.177  1.00  0.00     0.023 C 
BRANCH  30  31
ATOM     31  C   UNL     1      -6.850   0.495   1.706  1.00  0.00     0.023 C 
BRANCH  31  32
ATOM     32  C   UNL     1      -6.852  -0.952   2.180  1.00  0.00     0.116 C 
BRANCH  32  33
ATOM     33  N   UNL     1      -5.981  -1.247   3.306  1.00  0.00    -0.352 N 
ATOM     34  C   UNL     1      -6.190  -2.219   4.272  1.00  0.00     0.251 C 
ATOM     35  H   UNL     1      -5.164  -0.705   3.390  1.00  0.00     0.163 HD
ATOM     36  O   UNL     1      -5.412  -2.389   5.193  1.00  0.00    -0.269 OA
BRANCH  34  37
ATOM     37  C   UNL     1      -7.441  -3.006   4.179  1.00  0.00     0.039 A 
ATOM     38  C   UNL     1      -8.398  -2.867   5.186  1.00  0.00     0.014 A 
ATOM     39  C   UNL     1      -7.737  -3.696   3.001  1.00  0.00     0.014 A 
ATOM     40  C   UNL     1      -9.699  -3.323   4.959  1.00  0.00     0.010 A 
ATOM     41  C   UNL     1      -9.053  -4.066   2.745  1.00  0.00     0.010 A 
ATOM     42  C   UNL     1     -10.053  -3.864   3.711  1.00  0.00    -0.014 A 
BRANCH  42  43
ATOM     43  C   UNL     1     -11.464  -4.192   3.378  1.00  0.00     0.031 A 
ATOM     44  C   UNL     1     -11.842  -5.601   3.010  1.00  0.00     0.074 A 
ATOM     45  C   UNL     1     -12.390  -3.213   3.312  1.00  0.00     0.049 A 
ATOM     46  N   UNL     1     -12.993  -6.066   2.595  1.00  0.00    -0.248 NA
ATOM     47  C   UNL     1     -10.775  -6.612   3.081  1.00  0.00     0.031 C 
ATOM     48  C   UNL     1     -12.152  -1.792   3.581  1.00  0.00     0.029 A 
ATOM     49  N   UNL     1     -13.725  -3.266   2.989  1.00  0.00    -0.354 N 
ATOM     50  C   UNL     1     -12.778  -7.412   2.325  1.00  0.00     0.074 A 
ATOM     51  C   UNL     1     -11.377  -7.675   2.573  1.00  0.00     0.031 C 
ATOM     52  C   UNL     1     -13.307  -1.118   3.449  1.00  0.00     0.029 A 
ATOM     53  C   UNL     1     -14.358  -2.047   3.048  1.00  0.00     0.049 A 
ATOM     54  H   UNL     1     -14.185  -4.100   2.738  1.00  0.00     0.167 HD
ATOM     55  C   UNL     1     -13.667  -8.353   1.931  1.00  0.00     0.031 A 
ATOM     56  C   UNL     1     -15.641  -1.714   2.809  1.00  0.00     0.031 A 
ATOM     57  C   UNL     1     -15.067  -8.108   1.720  1.00  0.00     0.049 A 
ATOM     58  C   UNL     1     -16.617  -2.783   2.402  1.00  0.00     0.074 A 
ATOM     59  C   UNL     1     -16.061  -9.012   1.389  1.00  0.00     0.029 A 
ATOM     60  N   UNL     1     -15.673  -6.866   1.828  1.00  0.00    -0.354 N 
ATOM     61  N   UNL     1     -16.410  -4.064   2.219  1.00  0.00    -0.248 NA
ATOM     62  C   UNL     1     -18.008  -2.359   2.179  1.00  0.00     0.031 C 
ATOM     63  C   UNL     1     -17.265  -8.311   1.266  1.00  0.00     0.029 A 
ATOM     64  C   UNL     1     -17.026  -6.979   1.560  1.00  0.00     0.049 A 
ATOM     65  H   UNL     1     -15.210  -6.029   2.060  1.00  0.00     0.167 HD
ATOM     66  C   UNL     1     -17.646  -4.603   1.887  1.00  0.00     0.074 A 
ATOM     67  C   UNL     1     -18.600  -3.513   1.907  1.00  0.00     0.031 C 
ATOM     68  C   UNL     1     -17.963  -5.887   1.593  1.00  0.00     0.031 A 
BRANCH  55  69
ATOM     69  C   UNL     1     -13.140  -9.742   1.710  1.00  0.00    -0.014 A 
ATOM     70  C   UNL     1     -12.732 -10.542   2.790  1.00  0.00     0.009 A 
ATOM     71  C   UNL     1     -13.060 -10.262   0.410  1.00  0.00     0.009 A 
ATOM     72  C   UNL     1     -12.212 -11.819   2.567  1.00  0.00     0.001 A 
ATOM     73  C   UNL     1     -12.568 -11.550   0.193  1.00  0.00     0.001 A 
ATOM     74  C   UNL     1     -12.134 -12.322   1.270  1.00  0.00     0.000 A 
ENDBRANCH  55  69
BRANCH  56  75
ATOM     75  C   UNL     1     -16.095  -0.309   2.978  1.00  0.00    -0.014 A 
ATOM     76  C   UNL     1     -16.907   0.045   4.067  1.00  0.00     0.009 A 
ATOM     77  C   UNL     1     -15.738   0.679   2.048  1.00  0.00     0.009 A 
ATOM     78  C   UNL     1     -17.375   1.354   4.206  1.00  0.00     0.001 A 
ATOM     79  C   UNL     1     -16.187   1.993   2.204  1.00  0.00     0.001 A 
ATOM     80  C   UNL     1     -17.012   2.327   3.277  1.00  0.00     0.000 A 
ENDBRANCH  56  75
BRANCH  68  81
ATOM     81  C   UNL     1     -19.404  -6.192   1.308  1.00  0.00    -0.014 A 
ATOM     82  C   UNL     1     -19.998  -5.825   0.091  1.00  0.00     0.009 A 
ATOM     83  C   UNL     1     -20.164  -6.899   2.253  1.00  0.00     0.009 A 
ATOM     84  C   UNL     1     -21.335  -6.138  -0.162  1.00  0.00     0.001 A 
ATOM     85  C   UNL     1     -21.492  -7.232   1.987  1.00  0.00     0.001 A 
ATOM     86  C   UNL     1     -22.079  -6.845   0.783  1.00  0.00     0.000 A 
ENDBRANCH  68  81
ENDBRANCH  42  43
ENDBRANCH  34  37
ENDBRANCH  32  33
ENDBRANCH  31  32
ENDBRANCH  30  31
ENDBRANCH   1  30
TORSDOF 14
