REMARK SMILES O=C(NCCCCNC(=O)[C@@H]1CC[C@@H](CNC(=O)c2ccc(Cl)cc2)O1)c1ccc(-c2c3nc(c(-c4ccccc4)c4ccc([nH]4)c(-c4ccccc4)c4nc(c(-c5ccccc5)c5ccc2[nH]5)C=C4)C=C3)cc1
REMARK SMILES IDX 6 1 5 2 4 3 3 4 1 5 2 6 27 8 28 9 74 10 29 11 73 12 30 13
REMARK SMILES IDX 31 14 32 15 67 16 33 17 72 18 66 19 68 20 34 21 71 22 65 23
REMARK SMILES IDX 64 24 35 26 57 27 42 28 56 29 43 30 46 31 55 32 69 33 44 34
REMARK SMILES IDX 45 35 54 37 70 38 47 39 36 40 37 41 41 42 38 43 40 44 39 45
REMARK SMILES IDX 58 46 59 47 63 48 60 49 62 50 61 51 48 52 49 53 53 54 50 55
REMARK SMILES IDX 52 56 51 57 7 58 8 59 9 60 10 62 11 63 12 64 26 65 13 66
REMARK SMILES IDX 14 67 15 68 16 69 17 70 18 72 19 73 20 74 25 75 21 76 24 77
REMARK SMILES IDX 22 78 23 79
REMARK H PARENT 3 7 68 25 46 36 8 61 16 71
REMARK Flexibility Score: inf
ROOT
ATOM      1  C   UNL     1       4.388  -3.896  -0.566  1.00  0.00     0.023 C 
ENDROOT
BRANCH   1   2
ATOM      2  C   UNL     1       4.851  -2.747   0.335  1.00  0.00     0.023 C 
BRANCH   2   3
ATOM      3  C   UNL     1       4.569  -1.345  -0.195  1.00  0.00     0.116 C 
BRANCH   3   4
ATOM      4  N   UNL     1       3.156  -1.093  -0.431  1.00  0.00    -0.352 N 
ATOM      5  O   UNL     1       1.200   0.028  -0.299  1.00  0.00    -0.269 OA
ATOM      6  C   UNL     1       2.416   0.026  -0.132  1.00  0.00     0.251 C 
ATOM      7  H   UNL     1       2.661  -1.825  -0.865  1.00  0.00     0.163 HD
BRANCH   6   8
ATOM      8  C   UNL     1       3.086   1.217   0.432  1.00  0.00     0.039 A 
ATOM      9  C   UNL     1       4.271   1.700  -0.126  1.00  0.00     0.014 A 
ATOM     10  C   UNL     1       2.529   1.842   1.551  1.00  0.00     0.014 A 
ATOM     11  C   UNL     1       4.980   2.702   0.526  1.00  0.00     0.010 A 
ATOM     12  C   UNL     1       3.204   2.903   2.160  1.00  0.00     0.010 A 
ATOM     13  C   UNL     1       4.458   3.311   1.679  1.00  0.00    -0.014 A 
BRANCH  13  14
ATOM     14  C   UNL     1       5.237   4.379   2.355  1.00  0.00     0.031 A 
ATOM     15  C   UNL     1       5.796   4.175   3.737  1.00  0.00     0.074 A 
ATOM     16  C   UNL     1       5.479   5.527   1.695  1.00  0.00     0.049 A 
ATOM     17  N   UNL     1       6.545   4.980   4.449  1.00  0.00    -0.248 NA
ATOM     18  C   UNL     1       5.470   2.909   4.411  1.00  0.00     0.031 C 
ATOM     19  C   UNL     1       4.993   5.846   0.350  1.00  0.00     0.029 A 
ATOM     20  N   UNL     1       6.216   6.627   2.052  1.00  0.00    -0.354 N 
ATOM     21  C   UNL     1       6.755   4.334   5.661  1.00  0.00     0.074 A 
ATOM     22  C   UNL     1       6.038   3.078   5.597  1.00  0.00     0.031 C 
ATOM     23  C   UNL     1       5.494   7.031  -0.027  1.00  0.00     0.029 A 
ATOM     24  C   UNL     1       6.287   7.580   1.067  1.00  0.00     0.049 A 
ATOM     25  H   UNL     1       6.652   6.723   2.930  1.00  0.00     0.167 HD
ATOM     26  C   UNL     1       7.480   4.746   6.729  1.00  0.00     0.031 A 
ATOM     27  C   UNL     1       6.919   8.767   1.043  1.00  0.00     0.031 A 
ATOM     28  C   UNL     1       8.203   5.989   6.790  1.00  0.00     0.049 A 
ATOM     29  C   UNL     1       7.704   9.205   2.244  1.00  0.00     0.074 A 
ATOM     30  C   UNL     1       8.999   6.476   7.814  1.00  0.00     0.029 A 
ATOM     31  N   UNL     1       8.217   6.945   5.786  1.00  0.00    -0.354 N 
ATOM     32  N   UNL     1       7.919   8.566   3.368  1.00  0.00    -0.248 NA
ATOM     33  C   UNL     1       8.335  10.530   2.170  1.00  0.00     0.031 C 
ATOM     34  C   UNL     1       9.457   7.746   7.447  1.00  0.00     0.029 A 
ATOM     35  C   UNL     1       8.988   8.028   6.174  1.00  0.00     0.049 A 
ATOM     36  H   UNL     1       7.747   6.866   4.924  1.00  0.00     0.167 HD
ATOM     37  C   UNL     1       8.729   9.399   4.126  1.00  0.00     0.074 A 
ATOM     38  C   UNL     1       8.978  10.583   3.328  1.00  0.00     0.031 C 
ATOM     39  C   UNL     1       9.224   9.200   5.371  1.00  0.00     0.031 A 
BRANCH  26  40
ATOM     40  C   UNL     1       7.499   3.853   7.939  1.00  0.00    -0.014 A 
ATOM     41  C   UNL     1       8.216   2.647   7.949  1.00  0.00     0.009 A 
ATOM     42  C   UNL     1       6.814   4.245   9.100  1.00  0.00     0.009 A 
ATOM     43  C   UNL     1       8.216   1.834   9.086  1.00  0.00     0.001 A 
ATOM     44  C   UNL     1       6.837   3.443  10.243  1.00  0.00     0.001 A 
ATOM     45  C   UNL     1       7.530   2.234  10.232  1.00  0.00     0.000 A 
ENDBRANCH  26  40
BRANCH  27  46
ATOM     46  C   UNL     1       6.845   9.616  -0.172  1.00  0.00    -0.014 A 
ATOM     47  C   UNL     1       7.968   9.776  -0.997  1.00  0.00     0.009 A 
ATOM     48  C   UNL     1       5.644  10.253  -0.524  1.00  0.00     0.009 A 
ATOM     49  C   UNL     1       7.895  10.571  -2.142  1.00  0.00     0.001 A 
ATOM     50  C   UNL     1       5.567  11.025  -1.684  1.00  0.00     0.001 A 
ATOM     51  C   UNL     1       6.694  11.190  -2.488  1.00  0.00     0.000 A 
ENDBRANCH  27  46
BRANCH  39  52
ATOM     52  C   UNL     1      10.116  10.272   5.928  1.00  0.00    -0.014 A 
ATOM     53  C   UNL     1       9.596  11.501   6.362  1.00  0.00     0.009 A 
ATOM     54  C   UNL     1      11.496  10.039   6.034  1.00  0.00     0.009 A 
ATOM     55  C   UNL     1      10.447  12.490   6.858  1.00  0.00     0.001 A 
ATOM     56  C   UNL     1      12.341  11.020   6.555  1.00  0.00     0.001 A 
ATOM     57  C   UNL     1      11.817  12.248   6.957  1.00  0.00     0.000 A 
ENDBRANCH  39  52
ENDBRANCH  13  14
ENDBRANCH   6   8
ENDBRANCH   3   4
ENDBRANCH   2   3
ENDBRANCH   1   2
BRANCH   1  58
ATOM     58  C   UNL     1       4.946  -3.856  -1.989  1.00  0.00     0.116 C 
BRANCH  58  59
ATOM     59  N   UNL     1       6.383  -4.037  -2.002  1.00  0.00    -0.354 N 
ATOM     60  C   UNL     1       7.083  -5.204  -2.154  1.00  0.00     0.249 C 
ATOM     61  H   UNL     1       6.922  -3.222  -1.887  1.00  0.00     0.163 HD
ATOM     62  O   UNL     1       8.312  -5.160  -2.081  1.00  0.00    -0.272 OA
BRANCH  60  63
ATOM     63  C   UNL     1       6.303  -6.507  -2.416  1.00  0.00     0.207 C 
ATOM     64  C   UNL     1       7.090  -7.767  -2.067  1.00  0.00     0.045 C 
ATOM     65  O   UNL     1       5.948  -6.609  -3.810  1.00  0.00    -0.363 OA
ATOM     66  C   UNL     1       6.749  -8.705  -3.201  1.00  0.00     0.037 C 
ATOM     67  C   UNL     1       6.662  -7.736  -4.364  1.00  0.00     0.138 C 
BRANCH  67  68
ATOM     68  C   UNL     1       5.937  -8.312  -5.587  1.00  0.00     0.148 C 
BRANCH  68  69
ATOM     69  N   UNL     1       5.330  -7.255  -6.384  1.00  0.00    -0.349 N 
ATOM     70  C   UNL     1       5.504  -6.862  -7.679  1.00  0.00     0.251 C 
ATOM     71  H   UNL     1       4.664  -6.721  -5.893  1.00  0.00     0.163 HD
ATOM     72  O   UNL     1       4.973  -5.829  -8.079  1.00  0.00    -0.269 OA
BRANCH  70  73
ATOM     73  C   UNL     1       6.352  -7.636  -8.608  1.00  0.00     0.039 A 
ATOM     74  C   UNL     1       6.215  -9.019  -8.765  1.00  0.00     0.015 A 
ATOM     75  C   UNL     1       7.256  -6.926  -9.409  1.00  0.00     0.015 A 
ATOM     76  C   UNL     1       7.024  -9.696  -9.683  1.00  0.00     0.021 A 
ATOM     77  C   UNL     1       8.059  -7.603 -10.329  1.00  0.00     0.021 A 
ATOM     78  C   UNL     1       7.945  -8.986 -10.456  1.00  0.00     0.041 A 
ATOM     79  Cl  UNL     1       8.940  -9.823 -11.583  1.00  0.00    -0.084 Cl
ENDBRANCH  70  73
ENDBRANCH  68  69
ENDBRANCH  67  68
ENDBRANCH  60  63
ENDBRANCH  58  59
ENDBRANCH   1  58
TORSDOF 14
