REMARK SMILES O=C(NCCCCNC(=O)c1ccc(-n2nc(Cl)ccc2=O)cc1)c1ccc(-c2c3nc(c(-c4ccccc4)c4ccc([nH]4)c(-c4ccccc4)c4nc(c(-c5ccccc5)c5ccc2[nH]5)C=C4)C=C3)cc1
REMARK SMILES IDX 5 1 4 2 3 3 1 4 2 5 25 7 26 8 72 9 27 10 71 11 28 12 29 13
REMARK SMILES IDX 30 14 65 15 31 16 70 17 64 18 66 19 32 20 69 21 63 22 62 23
REMARK SMILES IDX 33 25 55 26 40 27 54 28 41 29 44 30 53 31 67 32 42 33 43 34
REMARK SMILES IDX 52 36 68 37 45 38 34 39 35 40 39 41 36 42 38 43 37 44 56 45
REMARK SMILES IDX 57 46 61 47 58 48 60 49 59 50 46 51 47 52 51 53 48 54 50 55
REMARK SMILES IDX 49 56 6 57 7 58 8 59 9 60 10 62 11 63 12 64 24 65 13 66
REMARK SMILES IDX 23 67 14 68 15 69 16 70 21 71 17 72 20 73 22 74 18 75 19 76
REMARK H PARENT 3 6 66 24 44 35 8 61
REMARK Flexibility Score: inf
ROOT
ATOM      1  C   UNL     1       4.956  -1.863  -1.816  1.00  0.00     0.023 C 
ENDROOT
BRANCH   1   2
ATOM      2  C   UNL     1       4.633  -0.526  -1.162  1.00  0.00     0.116 C 
BRANCH   2   3
ATOM      3  N   UNL     1       3.204  -0.277  -1.046  1.00  0.00    -0.352 N 
ATOM      4  O   UNL     1       1.239   0.089   0.003  1.00  0.00    -0.269 OA
ATOM      5  C   UNL     1       2.464   0.037   0.069  1.00  0.00     0.251 C 
ATOM      6  H   UNL     1       2.695  -0.342  -1.886  1.00  0.00     0.163 HD
BRANCH   5   7
ATOM      7  C   UNL     1       3.143   0.283   1.360  1.00  0.00     0.039 A 
ATOM      8  C   UNL     1       4.281   1.089   1.426  1.00  0.00     0.014 A 
ATOM      9  C   UNL     1       2.635  -0.309   2.521  1.00  0.00     0.014 A 
ATOM     10  C   UNL     1       4.997   1.176   2.614  1.00  0.00     0.010 A 
ATOM     11  C   UNL     1       3.307  -0.146   3.735  1.00  0.00     0.010 A 
ATOM     12  C   UNL     1       4.513   0.569   3.785  1.00  0.00    -0.014 A 
BRANCH  12  13
ATOM     13  C   UNL     1       5.260   0.749   5.056  1.00  0.00     0.031 A 
ATOM     14  C   UNL     1       5.904  -0.415   5.758  1.00  0.00     0.074 A 
ATOM     15  C   UNL     1       5.384   1.992   5.559  1.00  0.00     0.049 A 
ATOM     16  N   UNL     1       6.623  -0.416   6.854  1.00  0.00    -0.248 NA
ATOM     17  C   UNL     1       5.716  -1.747   5.163  1.00  0.00     0.031 C 
ATOM     18  C   UNL     1       4.798   3.201   4.973  1.00  0.00     0.029 A 
ATOM     19  N   UNL     1       6.060   2.450   6.660  1.00  0.00    -0.354 N 
ATOM     20  C   UNL     1       6.954  -1.745   7.090  1.00  0.00     0.074 A 
ATOM     21  C   UNL     1       6.341  -2.525   6.037  1.00  0.00     0.031 C 
ATOM     22  C   UNL     1       5.183   4.267   5.689  1.00  0.00     0.029 A 
ATOM     23  C   UNL     1       5.989   3.813   6.816  1.00  0.00     0.049 A 
ATOM     24  H   UNL     1       6.549   1.861   7.278  1.00  0.00     0.167 HD
ATOM     25  C   UNL     1       7.704  -2.265   8.092  1.00  0.00     0.031 A 
ATOM     26  C   UNL     1       6.502   4.613   7.768  1.00  0.00     0.031 A 
ATOM     27  C   UNL     1       8.317  -1.487   9.138  1.00  0.00     0.049 A 
ATOM     28  C   UNL     1       7.310   4.007   8.876  1.00  0.00     0.074 A 
ATOM     29  C   UNL     1       9.123  -1.923  10.177  1.00  0.00     0.029 A 
ATOM     30  N   UNL     1       8.190  -0.115   9.281  1.00  0.00    -0.354 N 
ATOM     31  N   UNL     1       7.640   2.753   9.064  1.00  0.00    -0.248 NA
ATOM     32  C   UNL     1       7.816   4.928   9.902  1.00  0.00     0.031 C 
ATOM     33  C   UNL     1       9.443  -0.820  10.976  1.00  0.00     0.029 A 
ATOM     34  C   UNL     1       8.881   0.310  10.405  1.00  0.00     0.049 A 
ATOM     35  H   UNL     1       7.684   0.472   8.674  1.00  0.00     0.167 HD
ATOM     36  C   UNL     1       8.403   2.735  10.222  1.00  0.00     0.074 A 
ATOM     37  C   UNL     1       8.506   4.106  10.679  1.00  0.00     0.031 C 
ATOM     38  C   UNL     1       8.965   1.675  10.853  1.00  0.00     0.031 A 
BRANCH  25  39
ATOM     39  C   UNL     1       7.886  -3.757   8.124  1.00  0.00    -0.014 A 
ATOM     40  C   UNL     1       8.722  -4.412   7.206  1.00  0.00     0.009 A 
ATOM     41  C   UNL     1       7.254  -4.513   9.125  1.00  0.00     0.009 A 
ATOM     42  C   UNL     1       8.899  -5.796   7.272  1.00  0.00     0.001 A 
ATOM     43  C   UNL     1       7.452  -5.893   9.204  1.00  0.00     0.001 A 
ATOM     44  C   UNL     1       8.268  -6.535   8.274  1.00  0.00     0.000 A 
ENDBRANCH  25  39
BRANCH  26  45
ATOM     45  C   UNL     1       6.251   6.075   7.712  1.00  0.00    -0.014 A 
ATOM     46  C   UNL     1       7.287   6.968   7.402  1.00  0.00     0.009 A 
ATOM     47  C   UNL     1       4.963   6.582   7.950  1.00  0.00     0.009 A 
ATOM     48  C   UNL     1       7.041   8.342   7.348  1.00  0.00     0.001 A 
ATOM     49  C   UNL     1       4.714   7.953   7.866  1.00  0.00     0.001 A 
ATOM     50  C   UNL     1       5.755   8.832   7.574  1.00  0.00     0.000 A 
ENDBRANCH  26  45
BRANCH  38  51
ATOM     51  C   UNL     1       9.759   1.967  12.094  1.00  0.00    -0.014 A 
ATOM     52  C   UNL     1       9.124   2.319  13.295  1.00  0.00     0.009 A 
ATOM     53  C   UNL     1      11.158   1.868  12.064  1.00  0.00     0.009 A 
ATOM     54  C   UNL     1       9.880   2.602  14.434  1.00  0.00     0.001 A 
ATOM     55  C   UNL     1      11.909   2.125  13.212  1.00  0.00     0.001 A 
ATOM     56  C   UNL     1      11.270   2.501  14.393  1.00  0.00     0.000 A 
ENDBRANCH  38  51
ENDBRANCH  12  13
ENDBRANCH   5   7
ENDBRANCH   2   3
ENDBRANCH   1   2
BRANCH   1  57
ATOM     57  C   UNL     1       4.495  -2.009  -3.265  1.00  0.00     0.023 C 
BRANCH  57  58
ATOM     58  C   UNL     1       4.937  -0.890  -4.205  1.00  0.00     0.116 C 
BRANCH  58  59
ATOM     59  N   UNL     1       6.384  -0.750  -4.269  1.00  0.00    -0.352 N 
ATOM     60  C   UNL     1       7.203  -0.820  -5.369  1.00  0.00     0.251 C 
ATOM     61  H   UNL     1       6.836  -0.583  -3.410  1.00  0.00     0.163 HD
ATOM     62  O   UNL     1       8.422  -0.786  -5.255  1.00  0.00    -0.269 OA
BRANCH  60  63
ATOM     63  C   UNL     1       6.585  -0.968  -6.697  1.00  0.00     0.039 A 
ATOM     64  C   UNL     1       6.779  -2.155  -7.399  1.00  0.00     0.016 A 
ATOM     65  C   UNL     1       5.770   0.039  -7.213  1.00  0.00     0.016 A 
ATOM     66  C   UNL     1       6.069  -2.375  -8.583  1.00  0.00     0.029 A 
ATOM     67  C   UNL     1       5.079  -0.183  -8.407  1.00  0.00     0.029 A 
ATOM     68  C   UNL     1       5.178  -1.413  -9.087  1.00  0.00     0.069 A 
BRANCH  68  69
ATOM     69  N   UNL     1       4.364  -1.660 -10.239  1.00  0.00    -0.196 N 
ATOM     70  N   UNL     1       3.919  -0.507 -10.868  1.00  0.00    -0.153 NA
ATOM     71  C   UNL     1       4.013  -2.949 -10.664  1.00  0.00     0.271 A 
ATOM     72  C   UNL     1       3.172  -0.631 -11.915  1.00  0.00     0.150 A 
ATOM     73  C   UNL     1       3.132  -3.014 -11.854  1.00  0.00     0.077 A 
ATOM     74  O   UNL     1       4.312  -4.019 -10.139  1.00  0.00    -0.267 OA
ATOM     75  Cl  UNL     1       2.690   0.841 -12.674  1.00  0.00    -0.060 Cl
ATOM     76  C   UNL     1       2.719  -1.911 -12.474  1.00  0.00     0.049 A 
ENDBRANCH  68  69
ENDBRANCH  60  63
ENDBRANCH  58  59
ENDBRANCH  57  58
ENDBRANCH   1  57
TORSDOF 12
