REMARK SMILES C[C@H](NC(=O)N1CC[C@H](C(=O)NCCCCNC(=O)c2ccc(-c3c4nc(c(-c5ccccc5)c5ccc([nH]5)c(-c5ccccc5)c5nc(c(-c6ccccc6)c6ccc3[nH]6)C=C5)C=C4)cc2)[C@H]1C)c1ccsc1
REMARK SMILES IDX 14 1 13 2 12 3 10 4 11 5 9 7 6 8 7 9 68 10 8 11 69 12 4 13
REMARK SMILES IDX 3 14 5 16 2 17 1 18 70 19 71 20 74 21 72 22 73 23 15 24
REMARK SMILES IDX 16 25 17 26 18 27 19 29 20 30 21 31 67 32 22 33 66 34 23 35
REMARK SMILES IDX 24 36 25 37 60 38 26 39 65 40 59 41 61 42 27 43 64 44 58 45
REMARK SMILES IDX 57 46 28 48 50 49 35 50 49 51 36 52 39 53 48 54 62 55 37 56
REMARK SMILES IDX 38 57 47 59 63 60 40 61 29 62 30 63 34 64 31 65 33 66 32 67
REMARK SMILES IDX 51 68 52 69 56 70 53 71 55 72 54 73 41 74 42 75 46 76 43 77
REMARK SMILES IDX 45 78 44 79
REMARK H PARENT 12 6 3 15 17 28 61 47 39 58
REMARK Flexibility Score: inf
ROOT
ATOM      1  C   UNL     1       6.475   2.793   5.652  1.00  0.00     0.023 C 
ENDROOT
BRANCH   1   2
ATOM      2  C   UNL     1       5.896   3.760   4.619  1.00  0.00     0.116 C 
BRANCH   2   3
ATOM      3  N   UNL     1       6.161   3.301   3.268  1.00  0.00    -0.356 N 
ATOM      4  C   UNL     1       5.370   2.535   2.459  1.00  0.00     0.225 C 
ATOM      5  O   UNL     1       5.836   2.128   1.399  1.00  0.00    -0.275 OA
ATOM      6  H   UNL     1       7.024   3.577   2.884  1.00  0.00     0.163 HD
BRANCH   4   7
ATOM      7  C   UNL     1       3.938   2.288   2.895  1.00  0.00     0.102 C 
ATOM      8  N   UNL     1       2.186   1.636   1.402  1.00  0.00    -0.321 N 
ATOM      9  C   UNL     1       2.447   3.048   1.200  1.00  0.00     0.122 C 
ATOM     10  C   UNL     1       3.285   1.075   2.194  1.00  0.00     0.096 C 
ATOM     11  C   UNL     1       3.067   3.489   2.506  1.00  0.00     0.037 C 
ATOM     12  C   UNL     1       2.829   0.068   3.246  1.00  0.00     0.032 C 
BRANCH   8  13
ATOM     13  C   UNL     1       1.672   0.969   0.326  1.00  0.00     0.318 C 
ATOM     14  N   UNL     1       0.522   0.280   0.489  1.00  0.00    -0.331 N 
ATOM     15  H   UNL     1       0.127  -0.012  -0.365  1.00  0.00     0.165 HD
ATOM     16  O   UNL     1       2.136   1.078  -0.807  1.00  0.00    -0.249 OA
BRANCH  14  17
ATOM     17  C   UNL     1      -0.265  -0.127   1.644  1.00  0.00     0.112 C 
ATOM     18  C   UNL     1      -0.382   0.842   2.828  1.00  0.00     0.036 C 
BRANCH  17  19
ATOM     19  C   UNL     1      -1.655  -0.450   1.130  1.00  0.00    -0.015 A 
ATOM     20  C   UNL     1      -2.324  -1.709   1.291  1.00  0.00     0.017 A 
ATOM     21  C   UNL     1      -2.482   0.460   0.486  1.00  0.00     0.070 A 
ATOM     22  C   UNL     1      -3.620  -1.683   0.824  1.00  0.00     0.065 A 
ATOM     23  S   UNL     1      -4.031  -0.170   0.147  1.00  0.00    -0.152 S 
ENDBRANCH  17  19
ENDBRANCH  14  17
ENDBRANCH   8  13
ENDBRANCH   4   7
ENDBRANCH   2   3
ENDBRANCH   1   2
BRANCH   1  24
ATOM     24  C   UNL     1       7.998   2.642   5.590  1.00  0.00     0.023 C 
BRANCH  24  25
ATOM     25  C   UNL     1       8.776   3.952   5.611  1.00  0.00     0.116 C 
BRANCH  25  26
ATOM     26  N   UNL     1       8.512   4.755   6.793  1.00  0.00    -0.352 N 
ATOM     27  C   UNL     1       9.387   5.562   7.485  1.00  0.00     0.251 C 
ATOM     28  H   UNL     1       7.592   4.718   7.143  1.00  0.00     0.163 HD
ATOM     29  O   UNL     1       9.056   6.096   8.530  1.00  0.00    -0.269 OA
BRANCH  27  30
ATOM     30  C   UNL     1      10.756   5.736   6.955  1.00  0.00     0.039 A 
ATOM     31  C   UNL     1      11.842   5.489   7.797  1.00  0.00     0.014 A 
ATOM     32  C   UNL     1      10.957   6.089   5.618  1.00  0.00     0.014 A 
ATOM     33  C   UNL     1      13.137   5.534   7.279  1.00  0.00     0.010 A 
ATOM     34  C   UNL     1      12.242   6.065   5.088  1.00  0.00     0.010 A 
ATOM     35  C   UNL     1      13.344   5.788   5.913  1.00  0.00    -0.014 A 
BRANCH  35  36
ATOM     36  C   UNL     1      14.705   5.788   5.322  1.00  0.00     0.031 A 
ATOM     37  C   UNL     1      15.266   7.057   4.744  1.00  0.00     0.074 A 
ATOM     38  C   UNL     1      15.405   4.640   5.243  1.00  0.00     0.049 A 
ATOM     39  N   UNL     1      16.387   7.244   4.094  1.00  0.00    -0.248 NA
ATOM     40  C   UNL     1      14.447   8.271   4.894  1.00  0.00     0.031 C 
ATOM     41  C   UNL     1      14.965   3.337   5.746  1.00  0.00     0.029 A 
ATOM     42  N   UNL     1      16.639   4.385   4.698  1.00  0.00    -0.354 N 
ATOM     43  C   UNL     1      16.398   8.589   3.746  1.00  0.00     0.074 A 
ATOM     44  C   UNL     1      15.151   9.158   4.207  1.00  0.00     0.031 C 
ATOM     45  C   UNL     1      15.925   2.427   5.508  1.00  0.00     0.029 A 
ATOM     46  C   UNL     1      17.025   3.070   4.799  1.00  0.00     0.049 A 
ATOM     47  H   UNL     1      17.195   5.079   4.275  1.00  0.00     0.167 HD
ATOM     48  C   UNL     1      17.368   9.294   3.117  1.00  0.00     0.031 A 
ATOM     49  C   UNL     1      18.138   2.452   4.359  1.00  0.00     0.031 A 
ATOM     50  C   UNL     1      18.612   8.733   2.666  1.00  0.00     0.049 A 
ATOM     51  C   UNL     1      19.184   3.252   3.632  1.00  0.00     0.074 A 
ATOM     52  C   UNL     1      19.672   9.371   2.046  1.00  0.00     0.029 A 
ATOM     53  N   UNL     1      18.964   7.398   2.791  1.00  0.00    -0.354 N 
ATOM     54  N   UNL     1      19.199   4.531   3.349  1.00  0.00    -0.248 NA
ATOM     55  C   UNL     1      20.373   2.519   3.171  1.00  0.00     0.031 C 
ATOM     56  C   UNL     1      20.650   8.414   1.760  1.00  0.00     0.029 A 
ATOM     57  C   UNL     1      20.221   7.191   2.249  1.00  0.00     0.049 A 
ATOM     58  H   UNL     1      18.404   6.702   3.203  1.00  0.00     0.167 HD
ATOM     59  C   UNL     1      20.412   4.764   2.713  1.00  0.00     0.074 A 
ATOM     60  C   UNL     1      21.109   3.496   2.660  1.00  0.00     0.031 C 
ATOM     61  C   UNL     1      20.906   5.926   2.220  1.00  0.00     0.031 A 
BRANCH  48  62
ATOM     62  C   UNL     1      17.115  10.757   2.884  1.00  0.00    -0.014 A 
ATOM     63  C   UNL     1      17.104  11.669   3.952  1.00  0.00     0.009 A 
ATOM     64  C   UNL     1      16.913  11.236   1.581  1.00  0.00     0.009 A 
ATOM     65  C   UNL     1      16.859  13.024   3.724  1.00  0.00     0.001 A 
ATOM     66  C   UNL     1      16.699  12.596   1.352  1.00  0.00     0.001 A 
ATOM     67  C   UNL     1      16.662  13.487   2.424  1.00  0.00     0.000 A 
ENDBRANCH  48  62
BRANCH  49  68
ATOM     68  C   UNL     1      18.337   0.999   4.603  1.00  0.00    -0.014 A 
ATOM     69  C   UNL     1      19.323   0.559   5.500  1.00  0.00     0.009 A 
ATOM     70  C   UNL     1      17.565   0.044   3.922  1.00  0.00     0.009 A 
ATOM     71  C   UNL     1      19.555  -0.805   5.684  1.00  0.00     0.001 A 
ATOM     72  C   UNL     1      17.780  -1.320   4.131  1.00  0.00     0.001 A 
ATOM     73  C   UNL     1      18.782  -1.744   5.003  1.00  0.00     0.000 A 
ENDBRANCH  49  68
BRANCH  61  74
ATOM     74  C   UNL     1      22.288   5.893   1.633  1.00  0.00    -0.014 A 
ATOM     75  C   UNL     1      22.542   5.298   0.389  1.00  0.00     0.009 A 
ATOM     76  C   UNL     1      23.343   6.515   2.320  1.00  0.00     0.009 A 
ATOM     77  C   UNL     1      23.833   5.300  -0.143  1.00  0.00     0.001 A 
ATOM     78  C   UNL     1      24.627   6.540   1.773  1.00  0.00     0.001 A 
ATOM     79  C   UNL     1      24.872   5.925   0.547  1.00  0.00     0.000 A 
ENDBRANCH  61  74
ENDBRANCH  35  36
ENDBRANCH  27  30
ENDBRANCH  25  26
ENDBRANCH  24  25
ENDBRANCH   1  24
TORSDOF 14
