REMARK SMILES NS(=O)(=O)c1ccc(-n2nc(C(=O)NCCCCNC(=O)c3ccc(-c4c5nc(c(-c6ccccc6)c6ccc([nH]6)c(-c6ccccc6)c6nc(c(-c7ccccc7)c7ccc4[nH]7)C=C6)C=C5)cc3)cc2-c2cc3ccccc3s2)cc1
REMARK SMILES IDX 16 1 15 2 14 3 12 4 13 5 11 7 9 8 10 9 71 10 70 11 8 12 5 13
REMARK SMILES IDX 6 14 82 15 7 16 81 17 2 18 3 19 4 20 1 21 72 24 73 25 80 26
REMARK SMILES IDX 74 27 79 28 75 29 78 30 76 31 77 32 17 33 18 34 19 35 20 36
REMARK SMILES IDX 21 38 22 39 23 40 69 41 24 42 68 43 25 44 26 45 27 46 62 47
REMARK SMILES IDX 28 48 67 49 61 50 63 51 29 52 66 53 60 54 59 55 30 57 52 58
REMARK SMILES IDX 37 59 51 60 38 61 41 62 50 63 64 64 39 65 40 66 49 68 65 69
REMARK SMILES IDX 42 70 31 71 32 72 36 73 33 74 35 75 34 76 53 77 54 78 58 79
REMARK SMILES IDX 55 80 57 81 56 82 43 83 44 84 48 85 45 86 47 87 46 88
REMARK H PARENT 14 6 1 22 1 23 19 37 63 56 41 67
REMARK Flexibility Score: inf
ROOT
ATOM      1  C   UNL     1       1.267   6.040 -10.512  1.00  0.00     0.023 C 
ENDROOT
BRANCH   1   2
ATOM      2  C   UNL     1       2.595   5.409 -10.062  1.00  0.00     0.116 C 
BRANCH   2   3
ATOM      3  N   UNL     1       3.089   5.974  -8.814  1.00  0.00    -0.351 N 
ATOM      4  C   UNL     1       3.040   5.532  -7.500  1.00  0.00     0.271 C 
ATOM      5  O   UNL     1       3.683   6.196  -6.684  1.00  0.00    -0.267 OA
ATOM      6  H   UNL     1       3.547   6.838  -8.924  1.00  0.00     0.163 HD
BRANCH   4   7
ATOM      7  C   UNL     1       2.310   4.302  -7.125  1.00  0.00     0.151 A 
ATOM      8  N   UNL     1       1.947   2.434  -6.112  1.00  0.00    -0.231 N 
ATOM      9  N   UNL     1       2.539   3.652  -5.964  1.00  0.00    -0.162 NA
ATOM     10  C   UNL     1       1.367   2.318  -7.353  1.00  0.00     0.085 A 
ATOM     11  C   UNL     1       1.317   3.610  -7.840  1.00  0.00     0.066 A 
BRANCH   8  12
ATOM     12  C   UNL     1       1.685   1.618  -4.989  1.00  0.00     0.065 A 
ATOM     13  C   UNL     1       0.917   0.072  -2.818  1.00  0.00     0.082 A 
ATOM     14  C   UNL     1       1.557  -0.533  -3.907  1.00  0.00     0.024 A 
ATOM     15  C   UNL     1       0.669   1.447  -2.802  1.00  0.00     0.024 A 
ATOM     16  C   UNL     1       1.920   0.240  -5.015  1.00  0.00     0.030 A 
ATOM     17  C   UNL     1       1.082   2.227  -3.878  1.00  0.00     0.030 A 
BRANCH  13  18
ATOM     18  S   UNL     1       0.411  -0.898  -1.430  1.00  0.00     0.238 S 
ATOM     19  O   UNL     1       1.096  -2.179  -1.472  1.00  0.00    -0.207 OA
ATOM     20  O   UNL     1      -1.011  -0.781  -1.280  1.00  0.00    -0.207 OA
BRANCH  18  21
ATOM     21  N   UNL     1       1.102  -0.075  -0.139  1.00  0.00    -0.225 NA
ATOM     22  H   UNL     1       0.872  -0.553   0.732  1.00  0.00     0.137 HD
ATOM     23  H   UNL     1       0.738   0.878  -0.110  1.00  0.00     0.137 HD
ENDBRANCH  18  21
ENDBRANCH  13  18
ENDBRANCH   8  12
BRANCH  10  24
ATOM     24  C   UNL     1       1.013   1.152  -8.116  1.00  0.00     0.054 A 
ATOM     25  C   UNL     1      -0.136   1.026  -8.889  1.00  0.00     0.031 A 
ATOM     26  S   UNL     1       2.284   0.448  -9.079  1.00  0.00    -0.134 S 
ATOM     27  C   UNL     1       0.235   1.460 -10.228  1.00  0.00    -0.007 A 
ATOM     28  C   UNL     1       1.613   1.299 -10.438  1.00  0.00     0.035 A 
ATOM     29  C   UNL     1      -0.518   2.118 -11.226  1.00  0.00     0.009 A 
ATOM     30  C   UNL     1       2.268   1.809 -11.569  1.00  0.00     0.019 A 
ATOM     31  C   UNL     1       0.136   2.685 -12.325  1.00  0.00     0.001 A 
ATOM     32  C   UNL     1       1.512   2.545 -12.484  1.00  0.00     0.001 A 
ENDBRANCH  10  24
ENDBRANCH   4   7
ENDBRANCH   2   3
ENDBRANCH   1   2
BRANCH   1  33
ATOM     33  C   UNL     1       1.380   7.398 -11.227  1.00  0.00     0.023 C 
BRANCH  33  34
ATOM     34  C   UNL     1       2.040   7.352 -12.601  1.00  0.00     0.116 C 
BRANCH  34  35
ATOM     35  N   UNL     1       1.256   6.665 -13.638  1.00  0.00    -0.352 N 
ATOM     36  C   UNL     1       1.656   6.380 -14.941  1.00  0.00     0.251 C 
ATOM     37  H   UNL     1       0.350   6.376 -13.384  1.00  0.00     0.163 HD
ATOM     38  O   UNL     1       0.851   6.157 -15.834  1.00  0.00    -0.269 OA
BRANCH  36  39
ATOM     39  C   UNL     1       3.103   6.308 -15.200  1.00  0.00     0.039 A 
ATOM     40  C   UNL     1       3.737   6.931 -16.281  1.00  0.00     0.014 A 
ATOM     41  C   UNL     1       3.835   5.671 -14.211  1.00  0.00     0.014 A 
ATOM     42  C   UNL     1       5.133   6.977 -16.294  1.00  0.00     0.010 A 
ATOM     43  C   UNL     1       5.162   5.952 -14.098  1.00  0.00     0.010 A 
ATOM     44  C   UNL     1       5.837   6.497 -15.180  1.00  0.00    -0.014 A 
BRANCH  44  45
ATOM     45  C   UNL     1       7.283   6.596 -15.039  1.00  0.00     0.031 A 
ATOM     46  C   UNL     1       7.832   7.973 -15.135  1.00  0.00     0.074 A 
ATOM     47  C   UNL     1       8.017   5.559 -14.570  1.00  0.00     0.049 A 
ATOM     48  N   UNL     1       8.576   8.461 -16.069  1.00  0.00    -0.248 NA
ATOM     49  C   UNL     1       7.401   8.966 -14.136  1.00  0.00     0.031 C 
ATOM     50  C   UNL     1       7.548   4.242 -14.101  1.00  0.00     0.029 A 
ATOM     51  N   UNL     1       9.343   5.508 -14.282  1.00  0.00    -0.354 N 
ATOM     52  C   UNL     1       8.889   9.757 -15.670  1.00  0.00     0.074 A 
ATOM     53  C   UNL     1       7.991  10.074 -14.589  1.00  0.00     0.031 C 
ATOM     54  C   UNL     1       8.513   3.641 -13.371  1.00  0.00     0.029 A 
ATOM     55  C   UNL     1       9.725   4.421 -13.502  1.00  0.00     0.049 A 
ATOM     56  H   UNL     1       9.983   6.185 -14.601  1.00  0.00     0.167 HD
ATOM     57  C   UNL     1      10.046  10.357 -16.069  1.00  0.00     0.031 A 
ATOM     58  C   UNL     1      10.958   4.176 -13.000  1.00  0.00     0.031 A 
ATOM     59  C   UNL     1      10.678   9.620 -17.135  1.00  0.00     0.049 A 
ATOM     60  C   UNL     1      11.911   4.968 -13.803  1.00  0.00     0.074 A 
ATOM     61  C   UNL     1      10.363   9.291 -18.436  1.00  0.00     0.029 A 
ATOM     62  N   UNL     1      11.666   8.748 -16.745  1.00  0.00    -0.354 N 
ATOM     63  N   UNL     1      12.120   4.761 -15.072  1.00  0.00    -0.248 NA
ATOM     64  C   UNL     1      12.310   6.274 -13.309  1.00  0.00     0.031 C 
ATOM     65  C   UNL     1      10.865   7.965 -18.614  1.00  0.00     0.029 A 
ATOM     66  C   UNL     1      11.521   7.579 -17.442  1.00  0.00     0.049 A 
ATOM     67  H   UNL     1      12.363   8.934 -16.075  1.00  0.00     0.167 HD
ATOM     68  C   UNL     1      12.250   6.029 -15.618  1.00  0.00     0.074 A 
ATOM     69  C   UNL     1      12.496   6.904 -14.473  1.00  0.00     0.031 C 
ATOM     70  C   UNL     1      11.863   6.277 -16.905  1.00  0.00     0.031 A 
BRANCH  57  71
ATOM     71  C   UNL     1      10.841  11.307 -15.201  1.00  0.00    -0.014 A 
ATOM     72  C   UNL     1      12.010  11.885 -15.732  1.00  0.00     0.009 A 
ATOM     73  C   UNL     1      10.659  11.424 -13.810  1.00  0.00     0.009 A 
ATOM     74  C   UNL     1      12.974  12.477 -14.906  1.00  0.00     0.001 A 
ATOM     75  C   UNL     1      11.600  12.050 -12.986  1.00  0.00     0.001 A 
ATOM     76  C   UNL     1      12.772  12.551 -13.532  1.00  0.00     0.000 A 
ENDBRANCH  57  71
BRANCH  58  77
ATOM     77  C   UNL     1      11.331   3.561 -11.710  1.00  0.00    -0.014 A 
ATOM     78  C   UNL     1      12.611   3.022 -11.511  1.00  0.00     0.009 A 
ATOM     79  C   UNL     1      10.526   3.778 -10.576  1.00  0.00     0.009 A 
ATOM     80  C   UNL     1      13.086   2.753 -10.220  1.00  0.00     0.001 A 
ATOM     81  C   UNL     1      11.002   3.514  -9.287  1.00  0.00     0.001 A 
ATOM     82  C   UNL     1      12.288   3.016  -9.108  1.00  0.00     0.000 A 
ENDBRANCH  58  77
BRANCH  70  83
ATOM     83  C   UNL     1      11.559   5.081 -17.780  1.00  0.00    -0.014 A 
ATOM     84  C   UNL     1      10.495   4.191 -17.541  1.00  0.00     0.009 A 
ATOM     85  C   UNL     1      12.308   4.914 -18.952  1.00  0.00     0.009 A 
ATOM     86  C   UNL     1      10.213   3.149 -18.433  1.00  0.00     0.001 A 
ATOM     87  C   UNL     1      12.015   3.886 -19.852  1.00  0.00     0.001 A 
ATOM     88  C   UNL     1      10.973   3.000 -19.590  1.00  0.00     0.000 A 
ENDBRANCH  70  83
ENDBRANCH  44  45
ENDBRANCH  36  39
ENDBRANCH  34  35
ENDBRANCH  33  34
ENDBRANCH   1  33
TORSDOF 15
