REMARK SMILES CC1(C)NC(=O)N(CCC(=O)N2CCC[C@H]2C(=O)NCCCCNC(=O)c2ccc(-c3c4nc(c(-c5ccccc5)c5ccc([nH]5)c(-c5ccccc5)c5nc(c(-c6ccccc6)c6ccc3[nH]6)C=C5)C=C4)cc2)C1=O
REMARK SMILES IDX 20 1 19 2 17 3 18 4 16 6 12 7 13 8 14 9 15 10 10 11 11 12
REMARK SMILES IDX 9 13 8 14 7 15 1 16 2 17 3 18 4 19 75 20 5 21 76 23 6 24
REMARK SMILES IDX 21 25 22 26 23 27 24 28 25 29 26 31 27 32 28 33 74 34 29 35
REMARK SMILES IDX 73 36 30 37 31 38 32 39 67 40 33 41 72 42 66 43 68 44 34 45
REMARK SMILES IDX 71 46 65 47 64 48 35 50 57 51 42 52 56 53 43 54 46 55 55 56
REMARK SMILES IDX 69 57 44 58 45 59 54 61 70 62 47 63 36 64 37 65 41 66 38 67
REMARK SMILES IDX 40 68 39 69 58 70 59 71 63 72 60 73 62 74 61 75 48 76 49 77
REMARK SMILES IDX 53 78 50 79 52 80 51 81
REMARK H PARENT 19 5 4 22 24 30 68 49 46 60
REMARK Flexibility Score: inf
ROOT
ATOM      1  C   UNL     1      -1.939   2.723  -4.749  1.00  0.00     0.116 C 
ENDROOT
BRANCH   1   2
ATOM      2  N   UNL     1      -0.999   2.196  -3.799  1.00  0.00    -0.354 N 
ATOM      3  C   UNL     1      -0.674   2.793  -2.633  1.00  0.00     0.242 C 
ATOM      4  O   UNL     1       0.533   2.888  -2.410  1.00  0.00    -0.273 OA
ATOM      5  H   UNL     1      -0.562   1.340  -4.013  1.00  0.00     0.163 HD
BRANCH   3   6
ATOM      6  C   UNL     1      -1.733   3.327  -1.664  1.00  0.00     0.174 C 
ATOM      7  N   UNL     1      -1.944   4.754  -1.653  1.00  0.00    -0.331 N 
ATOM      8  C   UNL     1      -3.273   5.066  -2.144  1.00  0.00     0.120 C 
ATOM      9  C   UNL     1      -4.102   3.803  -1.950  1.00  0.00     0.024 C 
ATOM     10  C   UNL     1      -3.111   2.671  -1.701  1.00  0.00     0.037 C 
BRANCH   7  11
ATOM     11  C   UNL     1      -1.159   5.696  -1.016  1.00  0.00     0.225 C 
ATOM     12  O   UNL     1      -1.607   6.823  -0.775  1.00  0.00    -0.275 OA
BRANCH  11  13
ATOM     13  C   UNL     1       0.317   5.409  -0.720  1.00  0.00     0.122 C 
BRANCH  13  14
ATOM     14  C   UNL     1       0.717   4.731   0.601  1.00  0.00     0.140 C 
BRANCH  14  15
ATOM     15  N   UNL     1       0.633   3.273   0.658  1.00  0.00    -0.262 N 
ATOM     16  C   UNL     1       1.939   0.057   1.131  1.00  0.00     0.045 C 
ATOM     17  C   UNL     1       1.001   0.946   0.329  1.00  0.00     0.115 C 
ATOM     18  C   UNL     1       0.665   0.285  -1.009  1.00  0.00     0.045 C 
ATOM     19  N   UNL     1      -0.192   1.245   1.087  1.00  0.00    -0.324 N 
ATOM     20  C   UNL     1       1.562   2.384   0.169  1.00  0.00     0.255 C 
ATOM     21  C   UNL     1      -0.358   2.596   1.310  1.00  0.00     0.325 C 
ATOM     22  H   UNL     1      -0.819   0.559   1.410  1.00  0.00     0.166 HD
ATOM     23  O   UNL     1       2.659   2.662  -0.297  1.00  0.00    -0.272 OA
ATOM     24  O   UNL     1      -1.288   3.061   1.933  1.00  0.00    -0.248 OA
ENDBRANCH  14  15
ENDBRANCH  13  14
ENDBRANCH  11  13
ENDBRANCH   7  11
ENDBRANCH   3   6
ENDBRANCH   1   2
BRANCH   1  25
ATOM     25  C   UNL     1      -1.297   3.856  -5.549  1.00  0.00     0.023 C 
BRANCH  25  26
ATOM     26  C   UNL     1       0.009   3.478  -6.257  1.00  0.00     0.023 C 
BRANCH  26  27
ATOM     27  C   UNL     1      -0.017   2.139  -6.982  1.00  0.00     0.116 C 
BRANCH  27  28
ATOM     28  N   UNL     1      -1.202   1.972  -7.809  1.00  0.00    -0.352 N 
ATOM     29  C   UNL     1      -1.318   1.334  -9.013  1.00  0.00     0.251 C 
ATOM     30  H   UNL     1      -2.030   2.370  -7.455  1.00  0.00     0.163 HD
ATOM     31  O   UNL     1      -2.380   1.323  -9.622  1.00  0.00    -0.269 OA
BRANCH  29  32
ATOM     32  C   UNL     1      -0.117   0.709  -9.579  1.00  0.00     0.039 A 
ATOM     33  C   UNL     1       0.328   1.153 -10.823  1.00  0.00     0.014 A 
ATOM     34  C   UNL     1       0.603  -0.231  -8.837  1.00  0.00     0.014 A 
ATOM     35  C   UNL     1       1.537   0.677 -11.316  1.00  0.00     0.010 A 
ATOM     36  C   UNL     1       1.842  -0.651  -9.300  1.00  0.00     0.010 A 
ATOM     37  C   UNL     1       2.312  -0.206 -10.546  1.00  0.00    -0.014 A 
BRANCH  37  38
ATOM     38  C   UNL     1       3.618  -0.687 -11.044  1.00  0.00     0.031 A 
ATOM     39  C   UNL     1       3.793  -2.138 -11.381  1.00  0.00     0.074 A 
ATOM     40  C   UNL     1       4.644   0.177 -11.152  1.00  0.00     0.049 A 
ATOM     41  N   UNL     1       4.860  -2.760 -11.809  1.00  0.00    -0.248 NA
ATOM     42  C   UNL     1       2.623  -3.011 -11.187  1.00  0.00     0.031 C 
ATOM     43  C   UNL     1       4.594   1.602 -10.816  1.00  0.00     0.029 A 
ATOM     44  N   UNL     1       5.931  -0.020 -11.578  1.00  0.00    -0.354 N 
ATOM     45  C   UNL     1       4.494  -4.094 -11.923  1.00  0.00     0.074 A 
ATOM     46  C   UNL     1       3.126  -4.203 -11.467  1.00  0.00     0.031 C 
ATOM     47  C   UNL     1       5.787   2.157 -11.081  1.00  0.00     0.029 A 
ATOM     48  C   UNL     1       6.694   1.123 -11.568  1.00  0.00     0.049 A 
ATOM     49  H   UNL     1       6.277  -0.896 -11.865  1.00  0.00     0.167 HD
ATOM     50  C   UNL     1       5.225  -5.133 -12.390  1.00  0.00     0.031 A 
ATOM     51  C   UNL     1       7.981   1.310 -11.912  1.00  0.00     0.031 A 
ATOM     52  C   UNL     1       6.582  -5.014 -12.849  1.00  0.00     0.049 A 
ATOM     53  C   UNL     1       8.777   0.136 -12.409  1.00  0.00     0.074 A 
ATOM     54  C   UNL     1       7.398  -5.991 -13.389  1.00  0.00     0.029 A 
ATOM     55  N   UNL     1       7.322  -3.841 -12.819  1.00  0.00    -0.354 N 
ATOM     56  N   UNL     1       8.397  -1.108 -12.578  1.00  0.00    -0.248 NA
ATOM     57  C   UNL     1      10.176   0.395 -12.774  1.00  0.00     0.031 C 
ATOM     58  C   UNL     1       8.651  -5.421 -13.638  1.00  0.00     0.029 A 
ATOM     59  C   UNL     1       8.595  -4.076 -13.307  1.00  0.00     0.049 A 
ATOM     60  H   UNL     1       6.991  -2.972 -12.498  1.00  0.00     0.167 HD
ATOM     61  C   UNL     1       9.501  -1.774 -13.092  1.00  0.00     0.074 A 
ATOM     62  C   UNL     1      10.558  -0.792 -13.224  1.00  0.00     0.031 C 
ATOM     63  C   UNL     1       9.630  -3.082 -13.426  1.00  0.00     0.031 A 
BRANCH  50  64
ATOM     64  C   UNL     1       4.567  -6.484 -12.414  1.00  0.00    -0.014 A 
ATOM     65  C   UNL     1       3.520  -6.768 -13.307  1.00  0.00     0.009 A 
ATOM     66  C   UNL     1       5.012  -7.493 -11.547  1.00  0.00     0.009 A 
ATOM     67  C   UNL     1       2.907  -8.022 -13.303  1.00  0.00     0.001 A 
ATOM     68  C   UNL     1       4.418  -8.756 -11.566  1.00  0.00     0.001 A 
ATOM     69  C   UNL     1       3.360  -9.016 -12.437  1.00  0.00     0.000 A 
ENDBRANCH  50  64
BRANCH  51  70
ATOM     70  C   UNL     1       8.590   2.662 -11.816  1.00  0.00    -0.014 A 
ATOM     71  C   UNL     1       8.920   3.377 -12.978  1.00  0.00     0.009 A 
ATOM     72  C   UNL     1       8.845   3.245 -10.566  1.00  0.00     0.009 A 
ATOM     73  C   UNL     1       9.519   4.636 -12.888  1.00  0.00     0.001 A 
ATOM     74  C   UNL     1       9.418   4.515 -10.479  1.00  0.00     0.001 A 
ATOM     75  C   UNL     1       9.763   5.205 -11.639  1.00  0.00     0.000 A 
ENDBRANCH  51  70
BRANCH  63  76
ATOM     76  C   UNL     1      10.952  -3.515 -13.992  1.00  0.00    -0.014 A 
ATOM     77  C   UNL     1      12.092  -3.622 -13.181  1.00  0.00     0.009 A 
ATOM     78  C   UNL     1      11.044  -3.862 -15.349  1.00  0.00     0.009 A 
ATOM     79  C   UNL     1      13.308  -4.037 -13.727  1.00  0.00     0.001 A 
ATOM     80  C   UNL     1      12.253  -4.307 -15.884  1.00  0.00     0.001 A 
ATOM     81  C   UNL     1      13.386  -4.385 -15.075  1.00  0.00     0.000 A 
ENDBRANCH  63  76
ENDBRANCH  37  38
ENDBRANCH  29  32
ENDBRANCH  27  28
ENDBRANCH  26  27
ENDBRANCH  25  26
ENDBRANCH   1  25
TORSDOF 15
