REMARK SMILES Cc1ccc2c(=O)c3cccc(CC(=O)NCCCCNC(=O)c4ccc(-c5c6nc(c(-c7ccccc7)c7ccc([nH]7)c(-c7ccccc7)c7nc(c(-c8ccccc8)c8ccc5[nH]8)C=C7)C=C6)cc4)c3oc2c1C
REMARK SMILES IDX 19 1 18 2 17 3 16 4 14 5 15 6 13 8 12 9 1 10 2 11 3 12 75 13
REMARK SMILES IDX 4 14 74 15 76 16 5 17 73 18 6 19 72 20 7 21 8 22 9 23 11 24
REMARK SMILES IDX 10 25 20 26 21 27 22 28 23 30 24 31 25 32 71 33 26 34 70 35
REMARK SMILES IDX 27 36 28 37 29 38 64 39 30 40 69 41 63 42 65 43 31 44 68 45
REMARK SMILES IDX 62 46 61 47 32 49 54 50 39 51 53 52 40 53 43 54 52 55 66 56
REMARK SMILES IDX 41 57 42 58 51 60 67 61 44 62 33 63 34 64 38 65 35 66 37 67
REMARK SMILES IDX 36 68 55 69 56 70 60 71 57 72 59 73 58 74 45 75 46 76 50 77
REMARK SMILES IDX 47 78 49 79 48 80
REMARK H PARENT 16 7 21 29 65 48 43 59
REMARK Flexibility Score: inf
ROOT
ATOM      1  C   UNL     1      -3.145   7.655  -0.264  1.00  0.00     0.023 C 
ENDROOT
BRANCH   1   2
ATOM      2  C   UNL     1      -1.909   8.113  -1.040  1.00  0.00     0.023 C 
BRANCH   2   3
ATOM      3  C   UNL     1      -0.767   8.658  -0.181  1.00  0.00     0.116 C 
BRANCH   3   4
ATOM      4  N   UNL     1      -0.170   7.637   0.656  1.00  0.00    -0.356 N 
ATOM      5  C   UNL     1       0.978   6.922   0.464  1.00  0.00     0.224 C 
ATOM      6  O   UNL     1       1.315   6.122   1.340  1.00  0.00    -0.275 OA
ATOM      7  H   UNL     1      -0.662   7.428   1.483  1.00  0.00     0.163 HD
BRANCH   5   8
ATOM      8  C   UNL     1       1.848   7.167  -0.760  1.00  0.00     0.139 C 
BRANCH   8   9
ATOM      9  C   UNL     1       1.209   6.802  -2.083  1.00  0.00     0.005 A 
ATOM     10  C   UNL     1       0.986  -0.160   0.098  1.00  0.00     0.045 C 
ATOM     11  C   UNL     1       0.636   0.920  -0.891  1.00  0.00    -0.044 A 
ATOM     12  C   UNL     1      -0.037   0.555  -2.070  1.00  0.00     0.005 A 
ATOM     13  C   UNL     1       0.969   2.276  -0.671  1.00  0.00    -0.005 A 
ATOM     14  C   UNL     1      -0.376   1.511  -3.025  1.00  0.00     0.016 A 
ATOM     15  C   UNL     1       0.626   3.236  -1.648  1.00  0.00     0.141 A 
ATOM     16  C   UNL     1       1.668   2.737   0.584  1.00  0.00     0.049 C 
ATOM     17  C   UNL     1      -0.038   2.846  -2.810  1.00  0.00     0.066 A 
ATOM     18  O   UNL     1       0.974   4.543  -1.391  1.00  0.00    -0.455 OA
ATOM     19  C   UNL     1      -0.363   3.863  -3.818  1.00  0.00     0.200 A 
ATOM     20  C   UNL     1       0.758   5.498  -2.354  1.00  0.00     0.142 A 
ATOM     21  O   UNL     1      -0.995   3.587  -4.830  1.00  0.00    -0.288 OA
ATOM     22  C   UNL     1       0.117   5.226  -3.562  1.00  0.00     0.066 A 
ATOM     23  C   UNL     1      -0.069   6.228  -4.520  1.00  0.00     0.016 A 
ATOM     24  C   UNL     1       1.057   7.793  -3.072  1.00  0.00     0.008 A 
ATOM     25  C   UNL     1       0.413   7.510  -4.277  1.00  0.00     0.001 A 
ENDBRANCH   8   9
ENDBRANCH   5   8
ENDBRANCH   3   4
ENDBRANCH   2   3
ENDBRANCH   1   2
BRANCH   1  26
ATOM     26  C   UNL     1      -3.807   8.721   0.599  1.00  0.00     0.116 C 
BRANCH  26  27
ATOM     27  N   UNL     1      -4.282   9.878  -0.150  1.00  0.00    -0.352 N 
ATOM     28  C   UNL     1      -5.389  10.657   0.092  1.00  0.00     0.251 C 
ATOM     29  H   UNL     1      -3.739  10.135  -0.930  1.00  0.00     0.163 HD
ATOM     30  O   UNL     1      -5.702  11.554  -0.684  1.00  0.00    -0.269 OA
BRANCH  28  31
ATOM     31  C   UNL     1      -6.237  10.365   1.270  1.00  0.00     0.039 A 
ATOM     32  C   UNL     1      -5.662  10.148   2.522  1.00  0.00     0.014 A 
ATOM     33  C   UNL     1      -7.619  10.239   1.099  1.00  0.00     0.014 A 
ATOM     34  C   UNL     1      -6.437   9.624   3.551  1.00  0.00     0.010 A 
ATOM     35  C   UNL     1      -8.411   9.790   2.160  1.00  0.00     0.010 A 
ATOM     36  C   UNL     1      -7.816   9.418   3.376  1.00  0.00    -0.014 A 
BRANCH  36  37
ATOM     37  C   UNL     1      -8.595   8.780   4.468  1.00  0.00     0.031 A 
ATOM     38  C   UNL     1      -9.197   7.411   4.287  1.00  0.00     0.074 A 
ATOM     39  C   UNL     1      -8.688   9.399   5.661  1.00  0.00     0.049 A 
ATOM     40  N   UNL     1      -9.842   6.676   5.160  1.00  0.00    -0.248 NA
ATOM     41  C   UNL     1      -9.063   6.782   2.962  1.00  0.00     0.031 C 
ATOM     42  C   UNL     1      -8.141  10.723   5.966  1.00  0.00     0.029 A 
ATOM     43  N   UNL     1      -9.241   8.985   6.846  1.00  0.00    -0.354 N 
ATOM     44  C   UNL     1     -10.200   5.513   4.489  1.00  0.00     0.074 A 
ATOM     45  C   UNL     1      -9.726   5.645   3.129  1.00  0.00     0.031 C 
ATOM     46  C   UNL     1      -8.336  10.987   7.267  1.00  0.00     0.029 A 
ATOM     47  C   UNL     1      -9.064   9.877   7.875  1.00  0.00     0.049 A 
ATOM     48  H   UNL     1      -9.719   8.130   6.949  1.00  0.00     0.167 HD
ATOM     49  C   UNL     1     -10.853   4.427   4.965  1.00  0.00     0.031 A 
ATOM     50  C   UNL     1      -9.441   9.816   9.167  1.00  0.00     0.031 A 
ATOM     51  C   UNL     1     -11.313   4.283   6.321  1.00  0.00     0.049 A 
ATOM     52  C   UNL     1     -10.156   8.596   9.671  1.00  0.00     0.074 A 
ATOM     53  C   UNL     1     -11.995   3.219   6.886  1.00  0.00     0.029 A 
ATOM     54  N   UNL     1     -11.127   5.219   7.324  1.00  0.00    -0.354 N 
ATOM     55  N   UNL     1     -10.486   7.509   9.018  1.00  0.00    -0.248 NA
ATOM     56  C   UNL     1     -10.541   8.588  11.089  1.00  0.00     0.031 C 
ATOM     57  C   UNL     1     -12.252   3.526   8.224  1.00  0.00     0.029 A 
ATOM     58  C   UNL     1     -11.682   4.757   8.504  1.00  0.00     0.049 A 
ATOM     59  H   UNL     1     -10.668   6.083   7.213  1.00  0.00     0.167 HD
ATOM     60  C   UNL     1     -11.105   6.683   9.947  1.00  0.00     0.074 A 
ATOM     61  C   UNL     1     -11.083   7.384  11.214  1.00  0.00     0.031 C 
ATOM     62  C   UNL     1     -11.647   5.457   9.761  1.00  0.00     0.031 A 
BRANCH  49  63
ATOM     63  C   UNL     1     -11.121   3.290   4.020  1.00  0.00    -0.014 A 
ATOM     64  C   UNL     1     -12.432   3.036   3.587  1.00  0.00     0.009 A 
ATOM     65  C   UNL     1     -10.098   2.405   3.649  1.00  0.00     0.009 A 
ATOM     66  C   UNL     1     -12.717   1.908   2.815  1.00  0.00     0.001 A 
ATOM     67  C   UNL     1     -10.382   1.289   2.858  1.00  0.00     0.001 A 
ATOM     68  C   UNL     1     -11.692   1.037   2.451  1.00  0.00     0.000 A 
ENDBRANCH  49  63
BRANCH  50  69
ATOM     69  C   UNL     1      -9.128  10.953  10.071  1.00  0.00    -0.014 A 
ATOM     70  C   UNL     1      -9.781  12.186   9.909  1.00  0.00     0.009 A 
ATOM     71  C   UNL     1      -8.152  10.827  11.070  1.00  0.00     0.009 A 
ATOM     72  C   UNL     1      -9.449  13.275  10.715  1.00  0.00     0.001 A 
ATOM     73  C   UNL     1      -7.844  11.911  11.896  1.00  0.00     0.001 A 
ATOM     74  C   UNL     1      -8.485  13.135  11.712  1.00  0.00     0.000 A 
ENDBRANCH  50  69
BRANCH  62  75
ATOM     75  C   UNL     1     -12.247   4.767  10.952  1.00  0.00    -0.014 A 
ATOM     76  C   UNL     1     -11.612   3.638  11.495  1.00  0.00     0.009 A 
ATOM     77  C   UNL     1     -13.484   5.171  11.476  1.00  0.00     0.009 A 
ATOM     78  C   UNL     1     -12.207   2.924  12.535  1.00  0.00     0.001 A 
ATOM     79  C   UNL     1     -14.064   4.468  12.534  1.00  0.00     0.001 A 
ATOM     80  C   UNL     1     -13.430   3.342  13.056  1.00  0.00     0.000 A 
ENDBRANCH  62  75
ENDBRANCH  36  37
ENDBRANCH  28  31
ENDBRANCH  26  27
ENDBRANCH   1  26
TORSDOF 12
