REMARK SMILES CSCc1ccc(C(=O)N[C@H]2C=C[C@@H](C(=O)NCCCCNC(=O)c3ccc(-c4c5nc(c(-c6ccccc6)c6ccc([nH]6)c(-c6ccccc6)c6nc(c(-c7ccccc7)c7ccc4[nH]7)C=C6)C=C5)cc3)C2)o1
REMARK SMILES IDX 18 1 17 2 15 3 16 4 14 6 11 7 12 8 73 9 13 10 10 11 8 12
REMARK SMILES IDX 9 13 7 15 4 16 5 17 74 18 6 19 3 20 2 21 1 22 19 23 20 24
REMARK SMILES IDX 21 25 22 26 23 27 24 29 25 30 26 31 72 32 27 33 71 34 28 35
REMARK SMILES IDX 29 36 30 37 65 38 31 39 70 40 64 41 66 42 32 43 69 44 63 45
REMARK SMILES IDX 62 46 33 48 55 49 40 50 54 51 41 52 44 53 53 54 67 55 42 56
REMARK SMILES IDX 43 57 52 59 68 60 45 61 34 62 35 63 39 64 36 65 38 66 37 67
REMARK SMILES IDX 56 68 57 69 61 70 58 71 60 72 59 73 46 74 47 75 51 76 48 77
REMARK SMILES IDX 50 78 49 79
REMARK H PARENT 17 5 10 14 22 28 66 47 44 58
REMARK Flexibility Score: inf
ROOT
ATOM      1  C   UNL     1      -2.028  -0.319  -3.570  1.00  0.00     0.116 C 
ENDROOT
BRANCH   1   2
ATOM      2  N   UNL     1      -3.053  -1.137  -4.169  1.00  0.00    -0.356 N 
ATOM      3  C   UNL     1      -3.191  -1.532  -5.464  1.00  0.00     0.227 C 
ATOM      4  O   UNL     1      -3.826  -2.579  -5.647  1.00  0.00    -0.274 OA
ATOM      5  H   UNL     1      -3.754  -1.454  -3.554  1.00  0.00     0.163 HD
BRANCH   3   6
ATOM      6  C   UNL     1      -2.630  -0.773  -6.686  1.00  0.00     0.103 C 
ATOM      7  C   UNL     1      -0.651   0.672  -6.998  1.00  0.00     0.106 C 
ATOM      8  C   UNL     1      -0.418  -0.685  -7.530  1.00  0.00    -0.006 C 
ATOM      9  C   UNL     1      -2.139   0.676  -6.592  1.00  0.00     0.047 C 
ATOM     10  C   UNL     1      -1.486  -1.477  -7.359  1.00  0.00    -0.016 C 
BRANCH   7  11
ATOM     11  N   UNL     1       0.313   1.117  -6.000  1.00  0.00    -0.343 N 
ATOM     12  C   UNL     1       1.013   0.673  -4.901  1.00  0.00     0.287 C 
ATOM     13  O   UNL     1       1.552   1.595  -4.277  1.00  0.00    -0.266 OA
ATOM     14  H   UNL     1       0.542   2.059  -6.170  1.00  0.00     0.164 HD
BRANCH  12  15
ATOM     15  C   UNL     1       1.116  -0.707  -4.441  1.00  0.00     0.191 A 
ATOM     16  C   UNL     1       1.669  -2.225  -2.896  1.00  0.00     0.114 A 
ATOM     17  C   UNL     1       1.083  -2.916  -3.928  1.00  0.00     0.047 A 
ATOM     18  O   UNL     1       1.679  -0.892  -3.185  1.00  0.00    -0.455 OA
ATOM     19  C   UNL     1       0.794  -1.960  -4.926  1.00  0.00     0.056 A 
BRANCH  16  20
ATOM     20  C   UNL     1       2.338  -2.701  -1.661  1.00  0.00     0.144 C 
BRANCH  20  21
ATOM     21  S   UNL     1       1.601  -2.094  -0.129  1.00  0.00    -0.157 SA
ATOM     22  C   UNL     1       2.590  -0.590   0.075  1.00  0.00     0.085 C 
ENDBRANCH  20  21
ENDBRANCH  16  20
ENDBRANCH  12  15
ENDBRANCH   7  11
ENDBRANCH   3   6
ENDBRANCH   1   2
BRANCH   1  23
ATOM     23  C   UNL     1      -2.527   0.958  -2.905  1.00  0.00     0.023 C 
BRANCH  23  24
ATOM     24  C   UNL     1      -3.007   0.783  -1.467  1.00  0.00     0.023 C 
BRANCH  24  25
ATOM     25  C   UNL     1      -1.963   0.267  -0.477  1.00  0.00     0.116 C 
BRANCH  25  26
ATOM     26  N   UNL     1      -0.815   1.141  -0.307  1.00  0.00    -0.352 N 
ATOM     27  C   UNL     1      -0.064   1.396   0.819  1.00  0.00     0.251 C 
ATOM     28  H   UNL     1      -0.531   1.622  -1.117  1.00  0.00     0.163 HD
ATOM     29  O   UNL     1       0.836   2.231   0.763  1.00  0.00    -0.269 OA
BRANCH  27  30
ATOM     30  C   UNL     1      -0.329   0.708   2.110  1.00  0.00     0.039 A 
ATOM     31  C   UNL     1      -0.104   1.417   3.296  1.00  0.00     0.014 A 
ATOM     32  C   UNL     1      -0.765  -0.618   2.183  1.00  0.00     0.014 A 
ATOM     33  C   UNL     1      -0.411   0.838   4.529  1.00  0.00     0.010 A 
ATOM     34  C   UNL     1      -1.131  -1.177   3.403  1.00  0.00     0.010 A 
ATOM     35  C   UNL     1      -0.981  -0.444   4.584  1.00  0.00    -0.014 A 
BRANCH  35  36
ATOM     36  C   UNL     1      -1.543  -0.977   5.845  1.00  0.00     0.031 A 
ATOM     37  C   UNL     1      -0.955  -2.182   6.517  1.00  0.00     0.074 A 
ATOM     38  C   UNL     1      -2.667  -0.410   6.322  1.00  0.00     0.049 A 
ATOM     39  N   UNL     1      -1.320  -2.757   7.634  1.00  0.00    -0.248 NA
ATOM     40  C   UNL     1       0.171  -2.842   5.838  1.00  0.00     0.031 C 
ATOM     41  C   UNL     1      -3.380   0.708   5.695  1.00  0.00     0.029 A 
ATOM     42  N   UNL     1      -3.413  -0.696   7.435  1.00  0.00    -0.354 N 
ATOM     43  C   UNL     1      -0.471  -3.844   7.795  1.00  0.00     0.074 A 
ATOM     44  C   UNL     1       0.393  -3.879   6.634  1.00  0.00     0.031 C 
ATOM     45  C   UNL     1      -4.440   1.033   6.450  1.00  0.00     0.029 A 
ATOM     46  C   UNL     1      -4.496   0.134   7.596  1.00  0.00     0.049 A 
ATOM     47  H   UNL     1      -3.194  -1.425   8.060  1.00  0.00     0.167 HD
ATOM     48  C   UNL     1      -0.410  -4.721   8.826  1.00  0.00     0.031 A 
ATOM     49  C   UNL     1      -5.427   0.173   8.565  1.00  0.00     0.031 A 
ATOM     50  C   UNL     1      -1.292  -4.688   9.965  1.00  0.00     0.049 A 
ATOM     51  C   UNL     1      -5.322  -0.794   9.708  1.00  0.00     0.074 A 
ATOM     52  C   UNL     1      -1.276  -5.488  11.094  1.00  0.00     0.029 A 
ATOM     53  N   UNL     1      -2.357  -3.812  10.111  1.00  0.00    -0.354 N 
ATOM     54  N   UNL     1      -4.442  -1.746   9.905  1.00  0.00    -0.248 NA
ATOM     55  C   UNL     1      -6.323  -0.663  10.774  1.00  0.00     0.031 C 
ATOM     56  C   UNL     1      -2.363  -5.130  11.900  1.00  0.00     0.029 A 
ATOM     57  C   UNL     1      -3.020  -4.066  11.301  1.00  0.00     0.049 A 
ATOM     58  H   UNL     1      -2.606  -3.113   9.465  1.00  0.00     0.167 HD
ATOM     59  C   UNL     1      -4.763  -2.308  11.133  1.00  0.00     0.074 A 
ATOM     60  C   UNL     1      -5.907  -1.576  11.640  1.00  0.00     0.031 C 
ATOM     61  C   UNL     1      -4.163  -3.334  11.784  1.00  0.00     0.031 A 
BRANCH  48  62
ATOM     62  C   UNL     1       0.647  -5.791   8.767  1.00  0.00    -0.014 A 
ATOM     63  C   UNL     1       2.010  -5.472   8.892  1.00  0.00     0.009 A 
ATOM     64  C   UNL     1       0.279  -7.138   8.629  1.00  0.00     0.009 A 
ATOM     65  C   UNL     1       2.981  -6.475   8.843  1.00  0.00     0.001 A 
ATOM     66  C   UNL     1       1.251  -8.142   8.609  1.00  0.00     0.001 A 
ATOM     67  C   UNL     1       2.601  -7.809   8.707  1.00  0.00     0.000 A 
ENDBRANCH  48  62
BRANCH  49  68
ATOM     68  C   UNL     1      -6.500   1.199   8.520  1.00  0.00    -0.014 A 
ATOM     69  C   UNL     1      -6.489   2.278   9.417  1.00  0.00     0.009 A 
ATOM     70  C   UNL     1      -7.528   1.118   7.568  1.00  0.00     0.009 A 
ATOM     71  C   UNL     1      -7.501   3.239   9.381  1.00  0.00     0.001 A 
ATOM     72  C   UNL     1      -8.523   2.097   7.515  1.00  0.00     0.001 A 
ATOM     73  C   UNL     1      -8.514   3.151   8.428  1.00  0.00     0.000 A 
ENDBRANCH  49  68
BRANCH  61  74
ATOM     74  C   UNL     1      -4.721  -3.698  13.131  1.00  0.00    -0.014 A 
ATOM     75  C   UNL     1      -5.972  -4.321  13.262  1.00  0.00     0.009 A 
ATOM     76  C   UNL     1      -3.974  -3.421  14.286  1.00  0.00     0.009 A 
ATOM     77  C   UNL     1      -6.484  -4.616  14.527  1.00  0.00     0.001 A 
ATOM     78  C   UNL     1      -4.473  -3.747  15.547  1.00  0.00     0.001 A 
ATOM     79  C   UNL     1      -5.733  -4.332  15.667  1.00  0.00     0.000 A 
ENDBRANCH  61  74
ENDBRANCH  35  36
ENDBRANCH  27  30
ENDBRANCH  25  26
ENDBRANCH  24  25
ENDBRANCH  23  24
ENDBRANCH   1  23
TORSDOF 15
