REMARK SMILES C[C@@H]1CCC[C@H](S[C@@H]2CCC[C@]([NH2+]C3CC3)(C(=O)NCCCCNC(=O)c3ccc(-c4c5nc(c(-c6ccccc6)c6ccc([nH]6)c(-c6ccccc6)c6nc(c(-c7ccccc7)c7ccc4[nH]7)C=C6)C=C5)cc3)C2)C1
REMARK SMILES IDX 21 1 20 2 19 3 17 4 18 5 12 7 8 8 9 9 75 10 10 11 11 12 7 13
REMARK SMILES IDX 6 14 1 15 2 16 3 17 76 18 4 19 5 20 13 21 14 24 15 25 16 26
REMARK SMILES IDX 22 27 23 28 24 29 25 30 26 32 27 33 28 34 74 35 29 36 73 37
REMARK SMILES IDX 30 38 31 39 32 40 67 41 33 42 72 43 66 44 68 45 34 46 71 47
REMARK SMILES IDX 65 48 64 49 35 51 57 52 42 53 56 54 43 55 46 56 55 57 69 58
REMARK SMILES IDX 44 59 45 60 54 62 70 63 47 64 36 65 37 66 41 67 38 68 40 69
REMARK SMILES IDX 39 70 58 71 59 72 63 73 60 74 62 75 61 76 48 77 49 78 53 79
REMARK SMILES IDX 50 80 52 81 51 82
REMARK H PARENT 19 6 13 22 13 23 24 31 68 50 46 61
REMARK Flexibility Score: inf
ROOT
ATOM      1  C   UNL     1       4.534   3.869   5.037  1.00  0.00     0.023 C 
ENDROOT
BRANCH   1   2
ATOM      2  C   UNL     1       3.556   4.047   3.880  1.00  0.00     0.116 C 
BRANCH   2   3
ATOM      3  N   UNL     1       3.669   3.020   2.863  1.00  0.00    -0.351 N 
ATOM      4  C   UNL     1       2.832   2.011   2.470  1.00  0.00     0.281 C 
ATOM      5  O   UNL     1       3.228   1.339   1.512  1.00  0.00    -0.268 OA
ATOM      6  H   UNL     1       4.513   3.055   2.356  1.00  0.00     0.163 HD
BRANCH   4   7
ATOM      7  C   UNL     1       1.455   1.744   3.160  1.00  0.00     0.176 C 
ATOM      8  C   UNL     1      -0.756   0.384   2.882  1.00  0.00     0.053 C 
ATOM      9  C   UNL     1      -1.595   1.656   2.786  1.00  0.00     0.015 C 
ATOM     10  C   UNL     1       0.717   0.542   2.513  1.00  0.00     0.093 C 
ATOM     11  C   UNL     1      -0.873   2.850   3.399  1.00  0.00     0.008 C 
ATOM     12  C   UNL     1       0.554   2.985   2.879  1.00  0.00     0.079 C 
BRANCH   8  13
ATOM     13  S   UNL     1      -1.558  -1.113   2.142  1.00  0.00    -0.155 SA
BRANCH  13  14
ATOM     14  C   UNL     1      -1.595  -1.010   0.290  1.00  0.00     0.047 C 
ATOM     15  C   UNL     1       1.896  -1.467   0.139  1.00  0.00     0.007 C 
ATOM     16  C   UNL     1       0.764  -1.118  -0.832  1.00  0.00    -0.013 C 
ATOM     17  C   UNL     1       0.620   0.381  -1.168  1.00  0.00     0.003 C 
ATOM     18  C   UNL     1      -0.529  -1.839  -0.441  1.00  0.00     0.017 C 
ATOM     19  C   UNL     1      -0.619   1.139  -0.687  1.00  0.00     0.001 C 
ATOM     20  C   UNL     1      -1.855   0.296  -0.443  1.00  0.00     0.014 C 
ENDBRANCH  13  14
ENDBRANCH   8  13
BRANCH   7  21
ATOM     21  N   UNL     1       1.651   1.509   4.608  1.00  0.00    -0.331 N 
ATOM     22  H   UNL     1       0.718   1.453   5.016  1.00  0.00     0.347 HD
ATOM     23  H   UNL     1       2.263   2.282   4.868  1.00  0.00     0.347 HD
BRANCH  21  24
ATOM     24  C   UNL     1       2.395   0.344   5.122  1.00  0.00     0.183 C 
ATOM     25  C   UNL     1       3.087  -0.732   4.331  1.00  0.00     0.071 C 
ATOM     26  C   UNL     1       3.902   0.282   5.062  1.00  0.00     0.071 C 
ENDBRANCH  21  24
ENDBRANCH   7  21
ENDBRANCH   4   7
ENDBRANCH   2   3
ENDBRANCH   1   2
BRANCH   1  27
ATOM     27  C   UNL     1       6.009   3.952   4.654  1.00  0.00     0.023 C 
BRANCH  27  28
ATOM     28  C   UNL     1       6.389   5.179   3.835  1.00  0.00     0.116 C 
BRANCH  28  29
ATOM     29  N   UNL     1       5.914   6.426   4.417  1.00  0.00    -0.352 N 
ATOM     30  C   UNL     1       6.583   7.609   4.616  1.00  0.00     0.251 C 
ATOM     31  H   UNL     1       4.975   6.421   4.713  1.00  0.00     0.163 HD
ATOM     32  O   UNL     1       6.051   8.530   5.215  1.00  0.00    -0.269 OA
BRANCH  30  33
ATOM     33  C   UNL     1       7.970   7.736   4.130  1.00  0.00     0.039 A 
ATOM     34  C   UNL     1       8.945   8.208   5.009  1.00  0.00     0.014 A 
ATOM     35  C   UNL     1       8.308   7.345   2.832  1.00  0.00     0.014 A 
ATOM     36  C   UNL     1      10.281   8.217   4.609  1.00  0.00     0.010 A 
ATOM     37  C   UNL     1       9.645   7.278   2.464  1.00  0.00     0.010 A 
ATOM     38  C   UNL     1      10.644   7.712   3.349  1.00  0.00    -0.014 A 
BRANCH  38  39
ATOM     39  C   UNL     1      12.066   7.634   2.936  1.00  0.00     0.031 A 
ATOM     40  C   UNL     1      12.550   8.439   1.763  1.00  0.00     0.074 A 
ATOM     41  C   UNL     1      12.902   6.796   3.579  1.00  0.00     0.049 A 
ATOM     42  N   UNL     1      13.732   8.452   1.204  1.00  0.00    -0.248 NA
ATOM     43  C   UNL     1      11.570   9.330   1.118  1.00  0.00     0.031 C 
ATOM     44  C   UNL     1      12.542   5.931   4.706  1.00  0.00     0.029 A 
ATOM     45  N   UNL     1      14.232   6.528   3.370  1.00  0.00    -0.354 N 
ATOM     46  C   UNL     1      13.636   9.341   0.142  1.00  0.00     0.074 A 
ATOM     47  C   UNL     1      12.266   9.803   0.096  1.00  0.00     0.031 C 
ATOM     48  C   UNL     1      13.629   5.248   5.102  1.00  0.00     0.029 A 
ATOM     49  C   UNL     1      14.749   5.594   4.234  1.00  0.00     0.049 A 
ATOM     50  H   UNL     1      14.764   6.965   2.666  1.00  0.00     0.167 HD
ATOM     51  C   UNL     1      14.607   9.759  -0.703  1.00  0.00     0.031 A 
ATOM     52  C   UNL     1      15.986   5.069   4.311  1.00  0.00     0.031 A 
ATOM     53  C   UNL     1      15.970   9.307  -0.653  1.00  0.00     0.049 A 
ATOM     54  C   UNL     1      17.040   5.535   3.344  1.00  0.00     0.074 A 
ATOM     55  C   UNL     1      17.035   9.691  -1.448  1.00  0.00     0.029 A 
ATOM     56  N   UNL     1      16.457   8.373   0.248  1.00  0.00    -0.354 N 
ATOM     57  N   UNL     1      16.944   6.419   2.380  1.00  0.00    -0.248 NA
ATOM     58  C   UNL     1      18.377   4.941   3.486  1.00  0.00     0.031 C 
ATOM     59  C   UNL     1      18.160   8.960  -1.053  1.00  0.00     0.029 A 
ATOM     60  C   UNL     1      17.806   8.161   0.022  1.00  0.00     0.049 A 
ATOM     61  H   UNL     1      15.923   7.928   0.945  1.00  0.00     0.167 HD
ATOM     62  C   UNL     1      18.213   6.509   1.823  1.00  0.00     0.074 A 
ATOM     63  C   UNL     1      19.064   5.606   2.569  1.00  0.00     0.031 C 
ATOM     64  C   UNL     1      18.637   7.268   0.784  1.00  0.00     0.031 A 
BRANCH  51  65
ATOM     65  C   UNL     1      14.227  10.770  -1.748  1.00  0.00    -0.014 A 
ATOM     66  C   UNL     1      13.939  12.098  -1.392  1.00  0.00     0.009 A 
ATOM     67  C   UNL     1      14.203  10.408  -3.103  1.00  0.00     0.009 A 
ATOM     68  C   UNL     1      13.607  13.036  -2.371  1.00  0.00     0.001 A 
ATOM     69  C   UNL     1      13.898  11.356  -4.082  1.00  0.00     0.001 A 
ATOM     70  C   UNL     1      13.594  12.666  -3.715  1.00  0.00     0.000 A 
ENDBRANCH  51  65
BRANCH  52  71
ATOM     71  C   UNL     1      16.307   4.041   5.337  1.00  0.00    -0.014 A 
ATOM     72  C   UNL     1      17.186   4.333   6.392  1.00  0.00     0.009 A 
ATOM     73  C   UNL     1      15.767   2.749   5.245  1.00  0.00     0.009 A 
ATOM     74  C   UNL     1      17.550   3.342   7.306  1.00  0.00     0.001 A 
ATOM     75  C   UNL     1      16.108   1.769   6.180  1.00  0.00     0.001 A 
ATOM     76  C   UNL     1      17.010   2.062   7.201  1.00  0.00     0.000 A 
ENDBRANCH  52  71
BRANCH  64  77
ATOM     77  C   UNL     1      20.094   7.189   0.426  1.00  0.00    -0.014 A 
ATOM     78  C   UNL     1      20.631   6.056  -0.203  1.00  0.00     0.009 A 
ATOM     79  C   UNL     1      20.930   8.286   0.688  1.00  0.00     0.009 A 
ATOM     80  C   UNL     1      21.987   6.009  -0.531  1.00  0.00     0.001 A 
ATOM     81  C   UNL     1      22.278   8.248   0.331  1.00  0.00     0.001 A 
ATOM     82  C   UNL     1      22.808   7.106  -0.269  1.00  0.00     0.000 A 
ENDBRANCH  64  77
ENDBRANCH  38  39
ENDBRANCH  30  33
ENDBRANCH  28  29
ENDBRANCH  27  28
ENDBRANCH   1  27
TORSDOF 15
