REMARK SMILES COc1cccc(NC(=O)[C@@H]2[C@@H](C(=O)NCCCCNC(=O)c3ccc(-c4c5nc(c(-c6ccccc6)c6ccc([nH]6)c(-c6ccccc6)c6nc(c(-c7ccccc7)c7ccc4[nH]7)C=C6)C=C5)cc3)[C@H]3C=C[C@@H]2C3)c1
REMARK SMILES IDX 17 1 16 2 15 3 13 4 14 5 12 7 11 8 74 9 71 10 73 11 75 12
REMARK SMILES IDX 72 13 9 14 8 15 10 17 7 18 3 19 4 20 76 21 5 22 6 23 2 24
REMARK SMILES IDX 1 25 18 26 19 27 20 28 21 29 22 31 23 32 24 33 70 34 25 35
REMARK SMILES IDX 69 36 26 37 27 38 28 39 63 40 29 41 68 42 62 43 64 44 30 45
REMARK SMILES IDX 67 46 61 47 60 48 31 50 53 51 38 52 52 53 39 54 42 55 51 56
REMARK SMILES IDX 65 57 40 58 41 59 50 61 66 62 43 63 32 64 33 65 37 66 34 67
REMARK SMILES IDX 36 68 35 69 54 70 55 71 59 72 56 73 58 74 57 75 44 76 45 77
REMARK SMILES IDX 49 78 46 79 48 80 47 81
REMARK H PARENT 15 6 8 16 20 30 64 49 42 60
REMARK Flexibility Score: inf
ROOT
ATOM      1  C   UNL     1       2.916   8.007   6.338  1.00  0.00     0.023 C 
ENDROOT
BRANCH   1   2
ATOM      2  C   UNL     1       3.055   6.697   7.111  1.00  0.00     0.116 C 
BRANCH   2   3
ATOM      3  N   UNL     1       2.028   5.724   6.794  1.00  0.00    -0.356 N 
ATOM      4  C   UNL     1       2.089   4.362   6.832  1.00  0.00     0.224 C 
ATOM      5  O   UNL     1       1.025   3.752   6.742  1.00  0.00    -0.275 OA
ATOM      6  H   UNL     1       1.163   6.101   6.511  1.00  0.00     0.163 HD
BRANCH   4   7
ATOM      7  C   UNL     1       3.438   3.675   6.962  1.00  0.00     0.098 C 
ATOM      8  C   UNL     1       3.394   2.107   6.827  1.00  0.00     0.099 C 
ATOM      9  C   UNL     1       4.124   1.656   8.130  1.00  0.00     0.025 C 
ATOM     10  C   UNL     1       4.050   3.870   8.379  1.00  0.00     0.025 C 
ATOM     11  C   UNL     1       3.178   1.943   9.277  1.00  0.00    -0.027 C 
ATOM     12  C   UNL     1       5.127   2.787   8.380  1.00  0.00     0.017 C 
ATOM     13  C   UNL     1       3.129   3.276   9.421  1.00  0.00    -0.027 C 
BRANCH   8  14
ATOM     14  C   UNL     1       4.137   1.619   5.594  1.00  0.00     0.228 C 
ATOM     15  N   UNL     1       3.570   1.424   4.373  1.00  0.00    -0.326 N 
ATOM     16  H   UNL     1       4.245   1.186   3.697  1.00  0.00     0.169 HD
ATOM     17  O   UNL     1       5.358   1.419   5.644  1.00  0.00    -0.274 OA
BRANCH  15  18
ATOM     18  C   UNL     1       2.279   1.472   3.814  1.00  0.00     0.044 A 
ATOM     19  C   UNL     1       0.974   1.369   1.754  1.00  0.00     0.120 A 
ATOM     20  C   UNL     1      -0.195   1.627   2.456  1.00  0.00     0.046 A 
ATOM     21  C   UNL     1       2.203   1.309   2.419  1.00  0.00     0.072 A 
ATOM     22  C   UNL     1      -0.138   1.748   3.838  1.00  0.00     0.006 A 
ATOM     23  C   UNL     1       1.088   1.650   4.509  1.00  0.00     0.026 A 
BRANCH  19  24
ATOM     24  O   UNL     1       0.877   1.252   0.395  1.00  0.00    -0.497 OA
ATOM     25  C   UNL     1       1.250  -0.055  -0.042  1.00  0.00     0.278 C 
ENDBRANCH  19  24
ENDBRANCH  15  18
ENDBRANCH   8  14
ENDBRANCH   4   7
ENDBRANCH   2   3
ENDBRANCH   1   2
BRANCH   1  26
ATOM     26  C   UNL     1       1.541   8.674   6.383  1.00  0.00     0.023 C 
BRANCH  26  27
ATOM     27  C   UNL     1       0.945   8.872   7.773  1.00  0.00     0.116 C 
BRANCH  27  28
ATOM     28  N   UNL     1       1.711   9.798   8.592  1.00  0.00    -0.352 N 
ATOM     29  C   UNL     1       1.332  10.997   9.152  1.00  0.00     0.251 C 
ATOM     30  H   UNL     1       2.640   9.527   8.773  1.00  0.00     0.163 HD
ATOM     31  O   UNL     1       2.162  11.711   9.699  1.00  0.00    -0.269 OA
BRANCH  29  32
ATOM     32  C   UNL     1      -0.077  11.441   9.067  1.00  0.00     0.039 A 
ATOM     33  C   UNL     1      -0.351  12.752   8.667  1.00  0.00     0.014 A 
ATOM     34  C   UNL     1      -1.124  10.568   9.371  1.00  0.00     0.014 A 
ATOM     35  C   UNL     1      -1.676  13.164   8.493  1.00  0.00     0.010 A 
ATOM     36  C   UNL     1      -2.438  10.954   9.124  1.00  0.00     0.010 A 
ATOM     37  C   UNL     1      -2.728  12.254   8.679  1.00  0.00    -0.014 A 
BRANCH  37  38
ATOM     38  C   UNL     1      -4.142  12.625   8.412  1.00  0.00     0.031 A 
ATOM     39  C   UNL     1      -5.148  12.599   9.528  1.00  0.00     0.074 A 
ATOM     40  C   UNL     1      -4.545  12.872   7.151  1.00  0.00     0.049 A 
ATOM     41  N   UNL     1      -6.448  12.745   9.474  1.00  0.00    -0.248 NA
ATOM     42  C   UNL     1      -4.626  12.341  10.879  1.00  0.00     0.031 C 
ATOM     43  C   UNL     1      -3.679  12.889   5.971  1.00  0.00     0.029 A 
ATOM     44  N   UNL     1      -5.797  13.131   6.649  1.00  0.00    -0.354 N 
ATOM     45  C   UNL     1      -6.901  12.559  10.774  1.00  0.00     0.074 A 
ATOM     46  C   UNL     1      -5.742  12.253  11.586  1.00  0.00     0.031 C 
ATOM     47  C   UNL     1      -4.424  13.148   4.884  1.00  0.00     0.029 A 
ATOM     48  C   UNL     1      -5.823  13.271   5.283  1.00  0.00     0.049 A 
ATOM     49  H   UNL     1      -6.599  13.209   7.215  1.00  0.00     0.167 HD
ATOM     50  C   UNL     1      -8.165  12.644  11.252  1.00  0.00     0.031 A 
ATOM     51  C   UNL     1      -6.857  13.455   4.440  1.00  0.00     0.031 A 
ATOM     52  C   UNL     1      -9.313  12.965  10.448  1.00  0.00     0.049 A 
ATOM     53  C   UNL     1      -8.252  13.550   4.989  1.00  0.00     0.074 A 
ATOM     54  C   UNL     1     -10.623  13.154  10.853  1.00  0.00     0.029 A 
ATOM     55  N   UNL     1      -9.290  13.138   9.073  1.00  0.00    -0.354 N 
ATOM     56  N   UNL     1      -8.656  13.447   6.231  1.00  0.00    -0.248 NA
ATOM     57  C   UNL     1      -9.332  13.797   4.022  1.00  0.00     0.031 C 
ATOM     58  C   UNL     1     -11.402  13.388   9.716  1.00  0.00     0.029 A 
ATOM     59  C   UNL     1     -10.567  13.402   8.609  1.00  0.00     0.049 A 
ATOM     60  H   UNL     1      -8.484  13.081   8.509  1.00  0.00     0.167 HD
ATOM     61  C   UNL     1     -10.031  13.643   6.201  1.00  0.00     0.074 A 
ATOM     62  C   UNL     1     -10.391  13.877   4.817  1.00  0.00     0.031 C 
ATOM     63  C   UNL     1     -10.913  13.635   7.230  1.00  0.00     0.031 A 
BRANCH  50  64
ATOM     64  C   UNL     1      -8.369  12.357  12.714  1.00  0.00    -0.014 A 
ATOM     65  C   UNL     1      -7.885  13.224  13.707  1.00  0.00     0.009 A 
ATOM     66  C   UNL     1      -9.063  11.201  13.104  1.00  0.00     0.009 A 
ATOM     67  C   UNL     1      -8.047  12.913  15.059  1.00  0.00     0.001 A 
ATOM     68  C   UNL     1      -9.253  10.909  14.456  1.00  0.00     0.001 A 
ATOM     69  C   UNL     1      -8.732  11.757  15.432  1.00  0.00     0.000 A 
ENDBRANCH  50  64
BRANCH  51  70
ATOM     70  C   UNL     1      -6.599  13.565   2.981  1.00  0.00    -0.014 A 
ATOM     71  C   UNL     1      -6.689  14.806   2.333  1.00  0.00     0.009 A 
ATOM     72  C   UNL     1      -6.225  12.435   2.235  1.00  0.00     0.009 A 
ATOM     73  C   UNL     1      -6.421  14.911   0.966  1.00  0.00     0.001 A 
ATOM     74  C   UNL     1      -5.933  12.549   0.875  1.00  0.00     0.001 A 
ATOM     75  C   UNL     1      -6.036  13.785   0.240  1.00  0.00     0.000 A 
ENDBRANCH  51  70
BRANCH  63  76
ATOM     76  C   UNL     1     -12.353  13.923   6.915  1.00  0.00    -0.014 A 
ATOM     77  C   UNL     1     -13.169  12.968   6.291  1.00  0.00     0.009 A 
ATOM     78  C   UNL     1     -12.918  15.143   7.320  1.00  0.00     0.009 A 
ATOM     79  C   UNL     1     -14.521  13.237   6.065  1.00  0.00     0.001 A 
ATOM     80  C   UNL     1     -14.274  15.399   7.116  1.00  0.00     0.001 A 
ATOM     81  C   UNL     1     -15.074  14.448   6.484  1.00  0.00     0.000 A 
ENDBRANCH  63  76
ENDBRANCH  37  38
ENDBRANCH  29  32
ENDBRANCH  27  28
ENDBRANCH  26  27
ENDBRANCH   1  26
TORSDOF 14
