REMARK SMILES CC1(C)CCN(C(=O)[C@@H]([NH3+])CC(=O)NCCCCNC(=O)c2ccc(-c3c4nc(c(-c5ccccc5)c5ccc([nH]5)c(-c5ccccc5)c5nc(c(-c6ccccc6)c6ccc3[nH]6)C=C5)C=C4)cc2)C1
REMARK SMILES IDX 16 1 15 2 14 3 12 4 13 5 11 7 9 8 7 9 8 10 6 11 1 12 2 13
REMARK SMILES IDX 3 14 4 15 70 16 5 17 10 18 17 22 18 23 19 24 20 25 21 27
REMARK SMILES IDX 22 28 23 29 69 30 24 31 68 32 25 33 26 34 27 35 62 36 28 37
REMARK SMILES IDX 67 38 61 39 63 40 29 41 66 42 60 43 59 44 30 46 52 47 37 48
REMARK SMILES IDX 51 49 38 50 41 51 50 52 64 53 39 54 40 55 49 57 65 58 42 59
REMARK SMILES IDX 31 60 32 61 36 62 33 63 35 64 34 65 53 66 54 67 58 68 55 69
REMARK SMILES IDX 57 70 56 71 43 72 44 73 48 74 45 75 47 76 46 77
REMARK H PARENT 14 6 10 19 10 20 10 21 19 26 63 45 41 56
REMARK Flexibility Score: inf
ROOT
ATOM      1  C   UNL     1       4.413   0.341   1.055  1.00  0.00     0.023 C 
ENDROOT
BRANCH   1   2
ATOM      2  C   UNL     1       3.535   1.060   2.080  1.00  0.00     0.116 C 
BRANCH   2   3
ATOM      3  N   UNL     1       3.907   2.458   2.169  1.00  0.00    -0.356 N 
ATOM      4  C   UNL     1       3.334   3.545   1.582  1.00  0.00     0.226 C 
ATOM      5  O   UNL     1       3.911   4.630   1.668  1.00  0.00    -0.275 OA
ATOM      6  H   UNL     1       4.687   2.651   2.738  1.00  0.00     0.163 HD
BRANCH   4   7
ATOM      7  C   UNL     1       2.004   3.423   0.868  1.00  0.00     0.175 C 
BRANCH   7   8
ATOM      8  C   UNL     1       2.172   3.085  -0.614  1.00  0.00     0.280 C 
BRANCH   8   9
ATOM      9  C   UNL     1       2.114   1.570  -0.940  1.00  0.00     0.281 C 
ATOM     10  O   UNL     1       3.052   1.060  -1.565  1.00  0.00    -0.268 OA
BRANCH   9  11
ATOM     11  N   UNL     1       1.040   0.799  -0.549  1.00  0.00    -0.337 N 
ATOM     12  C   UNL     1      -1.758   0.024  -1.750  1.00  0.00     0.013 C 
ATOM     13  C   UNL     1      -1.200   0.035  -0.318  1.00  0.00    -0.016 C 
ATOM     14  C   UNL     1      -2.354   0.009   0.684  1.00  0.00     0.013 C 
ATOM     15  C   UNL     1      -0.229  -1.136  -0.099  1.00  0.00     0.030 C 
ATOM     16  C   UNL     1      -0.275   1.247  -0.098  1.00  0.00     0.126 C 
ATOM     17  C   UNL     1       1.056  -0.644  -0.746  1.00  0.00     0.120 C 
ENDBRANCH   9  11
ENDBRANCH   8   9
BRANCH   8  18
ATOM     18  N   UNL     1       1.169   3.787  -1.453  1.00  0.00    -0.347 N 
ATOM     19  H   UNL     1       0.235   3.450  -1.218  1.00  0.00     0.345 HD
ATOM     20  H   UNL     1       1.360   3.601  -2.438  1.00  0.00     0.345 HD
ATOM     21  H   UNL     1       1.223   4.790  -1.279  1.00  0.00     0.345 HD
ENDBRANCH   8  18
ENDBRANCH   7   8
ENDBRANCH   4   7
ENDBRANCH   2   3
ENDBRANCH   1   2
BRANCH   1  22
ATOM     22  C   UNL     1       5.527  -0.512   1.647  1.00  0.00     0.023 C 
BRANCH  22  23
ATOM     23  C   UNL     1       5.046  -1.687   2.489  1.00  0.00     0.116 C 
BRANCH  23  24
ATOM     24  N   UNL     1       4.178  -2.625   1.789  1.00  0.00    -0.352 N 
ATOM     25  C   UNL     1       4.043  -3.980   2.004  1.00  0.00     0.251 C 
ATOM     26  H   UNL     1       3.618  -2.244   1.074  1.00  0.00     0.163 HD
ATOM     27  O   UNL     1       3.290  -4.658   1.319  1.00  0.00    -0.269 OA
BRANCH  25  28
ATOM     28  C   UNL     1       4.885  -4.611   3.043  1.00  0.00     0.039 A 
ATOM     29  C   UNL     1       5.706  -5.681   2.682  1.00  0.00     0.014 A 
ATOM     30  C   UNL     1       4.953  -4.062   4.324  1.00  0.00     0.014 A 
ATOM     31  C   UNL     1       6.676  -6.132   3.579  1.00  0.00     0.010 A 
ATOM     32  C   UNL     1       5.976  -4.452   5.180  1.00  0.00     0.010 A 
ATOM     33  C   UNL     1       6.856  -5.482   4.811  1.00  0.00    -0.014 A 
BRANCH  33  34
ATOM     34  C   UNL     1       7.974  -5.841   5.718  1.00  0.00     0.031 A 
ATOM     35  C   UNL     1       7.688  -6.366   7.096  1.00  0.00     0.074 A 
ATOM     36  C   UNL     1       9.245  -5.609   5.335  1.00  0.00     0.049 A 
ATOM     37  N   UNL     1       8.526  -6.666   8.055  1.00  0.00    -0.248 NA
ATOM     38  C   UNL     1       6.272  -6.544   7.457  1.00  0.00     0.031 C 
ATOM     39  C   UNL     1       9.658  -5.038   4.051  1.00  0.00     0.029 A 
ATOM     40  N   UNL     1      10.428  -5.819   5.999  1.00  0.00    -0.354 N 
ATOM     41  C   UNL     1       7.740  -7.038   9.137  1.00  0.00     0.074 A 
ATOM     42  C   UNL     1       6.360  -6.879   8.734  1.00  0.00     0.031 C 
ATOM     43  C   UNL     1      10.999  -4.976   4.007  1.00  0.00     0.029 A 
ATOM     44  C   UNL     1      11.539  -5.469   5.270  1.00  0.00     0.049 A 
ATOM     45  H   UNL     1      10.476  -6.186   6.911  1.00  0.00     0.167 HD
ATOM     46  C   UNL     1       8.129  -7.492  10.352  1.00  0.00     0.031 A 
ATOM     47  C   UNL     1      12.846  -5.541   5.581  1.00  0.00     0.031 A 
ATOM     48  C   UNL     1       9.498  -7.681  10.745  1.00  0.00     0.049 A 
ATOM     49  C   UNL     1      13.255  -6.084   6.921  1.00  0.00     0.074 A 
ATOM     50  C   UNL     1       9.993  -8.208  11.925  1.00  0.00     0.029 A 
ATOM     51  N   UNL     1      10.594  -7.350   9.963  1.00  0.00    -0.354 N 
ATOM     52  N   UNL     1      12.499  -6.505   7.906  1.00  0.00    -0.248 NA
ATOM     53  C   UNL     1      14.698  -6.173   7.186  1.00  0.00     0.031 C 
ATOM     54  C   UNL     1      11.390  -8.165  11.870  1.00  0.00     0.029 A 
ATOM     55  C   UNL     1      11.764  -7.648  10.640  1.00  0.00     0.049 A 
ATOM     56  H   UNL     1      10.547  -6.961   9.059  1.00  0.00     0.167 HD
ATOM     57  C   UNL     1      13.373  -6.930   8.897  1.00  0.00     0.074 A 
ATOM     58  C   UNL     1      14.715  -6.730   8.389  1.00  0.00     0.031 C 
ATOM     59  C   UNL     1      13.089  -7.441  10.120  1.00  0.00     0.031 A 
BRANCH  46  60
ATOM     60  C   UNL     1       7.045  -7.817  11.339  1.00  0.00    -0.014 A 
ATOM     61  C   UNL     1       6.213  -8.935  11.163  1.00  0.00     0.009 A 
ATOM     62  C   UNL     1       6.857  -7.001  12.465  1.00  0.00     0.009 A 
ATOM     63  C   UNL     1       5.187  -9.203  12.070  1.00  0.00     0.001 A 
ATOM     64  C   UNL     1       5.848  -7.287  13.386  1.00  0.00     0.001 A 
ATOM     65  C   UNL     1       5.007  -8.381  13.182  1.00  0.00     0.000 A 
ENDBRANCH  46  60
BRANCH  47  66
ATOM     66  C   UNL     1      13.870  -5.121   4.591  1.00  0.00    -0.014 A 
ATOM     67  C   UNL     1      14.637  -6.083   3.916  1.00  0.00     0.009 A 
ATOM     68  C   UNL     1      14.086  -3.763   4.314  1.00  0.00     0.009 A 
ATOM     69  C   UNL     1      15.616  -5.692   3.000  1.00  0.00     0.001 A 
ATOM     70  C   UNL     1      15.050  -3.376   3.380  1.00  0.00     0.001 A 
ATOM     71  C   UNL     1      15.819  -4.340   2.730  1.00  0.00     0.000 A 
ENDBRANCH  47  66
BRANCH  59  72
ATOM     72  C   UNL     1      14.252  -7.843  10.979  1.00  0.00    -0.014 A 
ATOM     73  C   UNL     1      15.049  -6.882  11.618  1.00  0.00     0.009 A 
ATOM     74  C   UNL     1      14.530  -9.204  11.179  1.00  0.00     0.009 A 
ATOM     75  C   UNL     1      16.121  -7.277  12.421  1.00  0.00     0.001 A 
ATOM     76  C   UNL     1      15.587  -9.596  12.001  1.00  0.00     0.001 A 
ATOM     77  C   UNL     1      16.386  -8.633  12.614  1.00  0.00     0.000 A 
ENDBRANCH  59  72
ENDBRANCH  33  34
ENDBRANCH  25  28
ENDBRANCH  23  24
ENDBRANCH  22  23
ENDBRANCH   1  22
TORSDOF 15
