REMARK SMILES COc1ccc2c(c1)c(CC(=O)NCCCCNC(=O)c1ccc(-c3c4nc(c(-c5ccccc5)c5ccc([nH]5)c(-c5ccccc5)c5nc(c(-c6ccccc6)c6ccc3[nH]6)C=C5)C=C4)cc1)c(C(F)(F)F)n2C(=O)c1ccc(Cl)cc1
REMARK SMILES IDX 15 1 14 2 13 3 11 4 12 5 10 7 9 8 3 9 4 10 8 11 5 12 7 13
REMARK SMILES IDX 6 14 74 15 69 16 2 17 1 18 75 19 76 20 77 21 78 22 83 23
REMARK SMILES IDX 79 24 82 25 80 26 81 27 70 28 71 29 72 30 73 31 16 32 17 33
REMARK SMILES IDX 18 34 19 35 20 37 21 38 22 39 68 40 23 41 67 42 24 43 25 44
REMARK SMILES IDX 26 45 61 46 27 47 66 48 60 49 62 50 28 51 65 52 59 53 58 54
REMARK SMILES IDX 29 56 51 57 36 58 50 59 37 60 40 61 49 62 63 63 38 64 39 65
REMARK SMILES IDX 48 67 64 68 41 69 30 70 31 71 35 72 32 73 34 74 33 75 52 76
REMARK SMILES IDX 53 77 57 78 54 79 56 80 55 81 42 82 43 83 47 84 44 85 46 86
REMARK SMILES IDX 45 87
REMARK H PARENT 13 6 18 36 62 55 40 66
REMARK Flexibility Score: inf
ROOT
ATOM      1  C   UNL     1       0.724  -2.406   7.382  1.00  0.00     0.023 C 
ENDROOT
BRANCH   1   2
ATOM      2  C   UNL     1      -0.664  -3.037   7.283  1.00  0.00     0.116 C 
BRANCH   2   3
ATOM      3  N   UNL     1      -1.561  -2.251   6.461  1.00  0.00    -0.356 N 
ATOM      4  C   UNL     1      -2.150  -2.598   5.278  1.00  0.00     0.224 C 
ATOM      5  O   UNL     1      -2.919  -1.794   4.748  1.00  0.00    -0.275 OA
ATOM      6  H   UNL     1      -1.773  -1.350   6.798  1.00  0.00     0.163 HD
BRANCH   4   7
ATOM      7  C   UNL     1      -1.887  -3.969   4.671  1.00  0.00     0.138 C 
BRANCH   7   8
ATOM      8  C   UNL     1      -0.459  -4.165   4.236  1.00  0.00     0.000 A 
ATOM      9  C   UNL     1       0.864  -1.528   1.811  1.00  0.00     0.119 A 
ATOM     10  C   UNL     1       2.097  -2.125   1.601  1.00  0.00     0.048 A 
ATOM     11  C   UNL     1      -0.049  -2.119   2.685  1.00  0.00     0.057 A 
ATOM     12  C   UNL     1       2.444  -3.308   2.266  1.00  0.00     0.031 A 
ATOM     13  C   UNL     1       0.275  -3.313   3.365  1.00  0.00     0.008 A 
ATOM     14  C   UNL     1       1.543  -3.876   3.187  1.00  0.00     0.057 A 
ATOM     15  N   UNL     1       1.659  -4.936   4.099  1.00  0.00    -0.271 N 
ATOM     16  C   UNL     1       0.374  -5.237   4.548  1.00  0.00     0.135 A 
BRANCH   9  17
ATOM     17  O   UNL     1       0.445  -0.358   1.240  1.00  0.00    -0.497 OA
ATOM     18  C   UNL     1       1.026  -0.044  -0.020  1.00  0.00     0.278 C 
ENDBRANCH   9  17
BRANCH  15  19
ATOM     19  C   UNL     1       2.862  -5.552   4.540  1.00  0.00     0.262 C 
ATOM     20  O   UNL     1       2.800  -6.322   5.495  1.00  0.00    -0.268 OA
BRANCH  19  21
ATOM     21  C   UNL     1       4.197  -5.300   3.977  1.00  0.00     0.040 A 
ATOM     22  C   UNL     1       4.874  -4.109   4.266  1.00  0.00     0.015 A 
ATOM     23  C   UNL     1       4.749  -6.248   3.109  1.00  0.00     0.015 A 
ATOM     24  C   UNL     1       6.077  -3.833   3.614  1.00  0.00     0.021 A 
ATOM     25  C   UNL     1       5.958  -5.969   2.469  1.00  0.00     0.021 A 
ATOM     26  C   UNL     1       6.606  -4.756   2.709  1.00  0.00     0.041 A 
ATOM     27  Cl  UNL     1       8.057  -4.384   1.863  1.00  0.00    -0.084 Cl
ENDBRANCH  19  21
ENDBRANCH  15  19
BRANCH  16  28
ATOM     28  C   UNL     1       0.048  -6.494   5.284  1.00  0.00     0.432 C 
ATOM     29  F   UNL     1       0.188  -6.348   6.623  1.00  0.00    -0.165 F 
ATOM     30  F   UNL     1      -1.255  -6.835   5.078  1.00  0.00    -0.165 F 
ATOM     31  F   UNL     1       0.763  -7.570   4.882  1.00  0.00    -0.165 F 
ENDBRANCH  16  28
ENDBRANCH   7   8
ENDBRANCH   4   7
ENDBRANCH   2   3
ENDBRANCH   1   2
BRANCH   1  32
ATOM     32  C   UNL     1       0.789  -1.141   8.249  1.00  0.00     0.023 C 
BRANCH  32  33
ATOM     33  C   UNL     1       0.160  -1.284   9.637  1.00  0.00     0.116 C 
BRANCH  33  34
ATOM     34  N   UNL     1       0.659  -2.425  10.379  1.00  0.00    -0.352 N 
ATOM     35  C   UNL     1       1.655  -2.626  11.289  1.00  0.00     0.251 C 
ATOM     36  H   UNL     1       0.161  -3.250  10.179  1.00  0.00     0.163 HD
ATOM     37  O   UNL     1       1.690  -3.741  11.816  1.00  0.00    -0.269 OA
BRANCH  35  38
ATOM     38  C   UNL     1       2.711  -1.641  11.642  1.00  0.00     0.039 A 
ATOM     39  C   UNL     1       2.849  -0.366  11.094  1.00  0.00     0.014 A 
ATOM     40  C   UNL     1       3.688  -2.091  12.554  1.00  0.00     0.014 A 
ATOM     41  C   UNL     1       3.973   0.401  11.377  1.00  0.00     0.010 A 
ATOM     42  C   UNL     1       4.808  -1.325  12.847  1.00  0.00     0.010 A 
ATOM     43  C   UNL     1       4.972  -0.100  12.215  1.00  0.00    -0.014 A 
BRANCH  43  44
ATOM     44  C   UNL     1       6.143   0.740  12.439  1.00  0.00     0.031 A 
ATOM     45  C   UNL     1       5.864   2.042  13.098  1.00  0.00     0.074 A 
ATOM     46  C   UNL     1       7.401   0.355  12.149  1.00  0.00     0.049 A 
ATOM     47  N   UNL     1       6.058   3.230  12.627  1.00  0.00    -0.248 NA
ATOM     48  C   UNL     1       5.195   2.014  14.408  1.00  0.00     0.031 C 
ATOM     49  C   UNL     1       7.859  -0.989  11.784  1.00  0.00     0.029 A 
ATOM     50  N   UNL     1       8.562   1.070  12.226  1.00  0.00    -0.354 N 
ATOM     51  C   UNL     1       5.693   4.108  13.646  1.00  0.00     0.074 A 
ATOM     52  C   UNL     1       5.050   3.315  14.661  1.00  0.00     0.031 C 
ATOM     53  C   UNL     1       9.204  -1.050  11.912  1.00  0.00     0.029 A 
ATOM     54  C   UNL     1       9.704   0.284  12.195  1.00  0.00     0.049 A 
ATOM     55  H   UNL     1       8.586   2.052  12.297  1.00  0.00     0.167 HD
ATOM     56  C   UNL     1       6.157   5.387  13.682  1.00  0.00     0.031 A 
ATOM     57  C   UNL     1      10.972   0.689  12.435  1.00  0.00     0.031 A 
ATOM     58  C   UNL     1       6.700   5.796  12.417  1.00  0.00     0.049 A 
ATOM     59  C   UNL     1      11.050   2.145  12.199  1.00  0.00     0.074 A 
ATOM     60  C   UNL     1       6.203   6.192  11.197  1.00  0.00     0.029 A 
ATOM     61  N   UNL     1       8.022   5.481  12.242  1.00  0.00    -0.354 N 
ATOM     62  N   UNL     1      10.883   2.693  11.030  1.00  0.00    -0.248 NA
ATOM     63  C   UNL     1      11.028   3.065  13.329  1.00  0.00     0.031 C 
ATOM     64  C   UNL     1       7.212   5.871  10.242  1.00  0.00     0.029 A 
ATOM     65  C   UNL     1       8.305   5.320  10.911  1.00  0.00     0.049 A 
ATOM     66  H   UNL     1       8.677   5.384  12.971  1.00  0.00     0.167 HD
ATOM     67  C   UNL     1      10.315   3.921  11.305  1.00  0.00     0.074 A 
ATOM     68  C   UNL     1      10.603   4.170  12.711  1.00  0.00     0.031 C 
ATOM     69  C   UNL     1       9.396   4.476  10.465  1.00  0.00     0.031 A 
BRANCH  56  70
ATOM     70  C   UNL     1       6.545   6.099  14.960  1.00  0.00    -0.014 A 
ATOM     71  C   UNL     1       6.709   5.441  16.193  1.00  0.00     0.009 A 
ATOM     72  C   UNL     1       7.051   7.411  14.878  1.00  0.00     0.009 A 
ATOM     73  C   UNL     1       7.353   6.043  17.279  1.00  0.00     0.001 A 
ATOM     74  C   UNL     1       7.729   8.005  15.952  1.00  0.00     0.001 A 
ATOM     75  C   UNL     1       7.884   7.317  17.150  1.00  0.00     0.000 A 
ENDBRANCH  56  70
BRANCH  57  76
ATOM     76  C   UNL     1      12.028  -0.044  13.162  1.00  0.00    -0.014 A 
ATOM     77  C   UNL     1      11.676  -0.895  14.226  1.00  0.00     0.009 A 
ATOM     78  C   UNL     1      13.377   0.315  13.023  1.00  0.00     0.009 A 
ATOM     79  C   UNL     1      12.629  -1.328  15.151  1.00  0.00     0.001 A 
ATOM     80  C   UNL     1      14.332  -0.121  13.951  1.00  0.00     0.001 A 
ATOM     81  C   UNL     1      13.954  -0.925  15.024  1.00  0.00     0.000 A 
ENDBRANCH  57  76
BRANCH  69  82
ATOM     82  C   UNL     1       9.364   4.004   9.036  1.00  0.00    -0.014 A 
ATOM     83  C   UNL     1       9.517   4.966   8.026  1.00  0.00     0.009 A 
ATOM     84  C   UNL     1       9.074   2.682   8.660  1.00  0.00     0.009 A 
ATOM     85  C   UNL     1       9.370   4.627   6.681  1.00  0.00     0.001 A 
ATOM     86  C   UNL     1       8.955   2.335   7.310  1.00  0.00     0.001 A 
ATOM     87  C   UNL     1       9.091   3.310   6.322  1.00  0.00     0.000 A 
ENDBRANCH  69  82
ENDBRANCH  43  44
ENDBRANCH  35  38
ENDBRANCH  33  34
ENDBRANCH  32  33
ENDBRANCH   1  32
TORSDOF 16
