REMARK SMILES O=C(NCCCCNC(=O)c1ccc(-c2c3nc(c(-c4ccccc4)c4ccc([nH]4)c(-c4ccccc4)c4nc(c(-c5ccccc5)c5ccc2[nH]5)C=C4)C=C3)cc1)C1=Cc2cc(Cl)cc(-c3ccc(Cl)cc3)c2O[C@@H]1C(F)(F)F
REMARK SMILES IDX 6 1 5 2 4 3 3 4 1 5 2 6 59 8 60 9 76 10 61 11 75 12 62 13
REMARK SMILES IDX 74 14 63 15 66 16 64 17 65 18 77 19 78 20 79 21 80 22 67 23
REMARK SMILES IDX 68 24 73 25 69 26 72 27 70 28 71 29 7 30 8 31 9 32 10 34
REMARK SMILES IDX 11 35 12 36 58 37 13 38 57 39 14 40 15 41 16 42 51 43 17 44
REMARK SMILES IDX 56 45 50 46 52 47 18 48 55 49 49 50 48 51 19 53 41 54 26 55
REMARK SMILES IDX 40 56 27 57 30 58 39 59 53 60 28 61 29 62 38 64 54 65 31 66
REMARK SMILES IDX 20 67 21 68 25 69 22 70 24 71 23 72 42 73 43 74 47 75 44 76
REMARK SMILES IDX 46 77 45 78 32 79 33 80 37 81 34 82 36 83 35 84
REMARK H PARENT 3 7 8 33 52 52 30 63
REMARK Flexibility Score: inf
ROOT
ATOM      1  C   UNL     1       4.235  -4.418   1.459  1.00  0.00     0.023 C 
ENDROOT
BRANCH   1   2
ATOM      2  C   UNL     1       4.201  -2.896   1.664  1.00  0.00     0.023 C 
BRANCH   2   3
ATOM      3  C   UNL     1       3.381  -2.132   0.616  1.00  0.00     0.116 C 
BRANCH   3   4
ATOM      4  N   UNL     1       2.399  -1.210   1.197  1.00  0.00    -0.352 N 
ATOM      5  O   UNL     1       1.079   0.613   1.322  1.00  0.00    -0.270 OA
ATOM      6  C   UNL     1       2.157   0.129   0.996  1.00  0.00     0.251 C 
ATOM      7  H   UNL     1       1.800  -1.629   1.856  1.00  0.00     0.163 HD
BRANCH   6   8
ATOM      8  C   UNL     1       3.149   0.926   0.247  1.00  0.00     0.067 C 
ATOM      9  C   UNL     1       4.397   1.157   0.675  1.00  0.00     0.025 C 
ATOM     10  C   UNL     1       2.827   1.257  -1.176  1.00  0.00     0.314 C 
ATOM     11  C   UNL     1       5.387   0.628  -0.288  1.00  0.00     0.019 A 
ATOM     12  O   UNL     1       3.701   0.530  -2.067  1.00  0.00    -0.475 OA
ATOM     13  C   UNL     1       6.632   0.199   0.189  1.00  0.00     0.032 A 
ATOM     14  C   UNL     1       4.959   0.229  -1.579  1.00  0.00     0.135 A 
ATOM     15  C   UNL     1       7.422  -0.642  -0.595  1.00  0.00     0.042 A 
ATOM     16  C   UNL     1       5.732  -0.661  -2.347  1.00  0.00     0.026 A 
ATOM     17  Cl  UNL     1       8.891  -1.269   0.046  1.00  0.00    -0.084 Cl
ATOM     18  C   UNL     1       6.977  -1.077  -1.843  1.00  0.00     0.033 A 
BRANCH  10  19
ATOM     19  C   UNL     1       2.888   2.786  -1.417  1.00  0.00     0.429 C 
ATOM     20  F   UNL     1       2.511   3.102  -2.679  1.00  0.00    -0.167 F 
ATOM     21  F   UNL     1       2.060   3.460  -0.581  1.00  0.00    -0.167 F 
ATOM     22  F   UNL     1       4.130   3.299  -1.236  1.00  0.00    -0.167 F 
ENDBRANCH  10  19
BRANCH  16  23
ATOM     23  C   UNL     1       5.196  -1.331  -3.540  1.00  0.00    -0.015 A 
ATOM     24  C   UNL     1       4.411  -2.490  -3.390  1.00  0.00     0.010 A 
ATOM     25  C   UNL     1       5.492  -0.884  -4.832  1.00  0.00     0.010 A 
ATOM     26  C   UNL     1       3.972  -3.212  -4.501  1.00  0.00     0.021 A 
ATOM     27  C   UNL     1       5.051  -1.604  -5.947  1.00  0.00     0.021 A 
ATOM     28  C   UNL     1       4.309  -2.772  -5.776  1.00  0.00     0.041 A 
ATOM     29  Cl  UNL     1       3.818  -3.689  -7.146  1.00  0.00    -0.084 Cl
ENDBRANCH  16  23
ENDBRANCH   6   8
ENDBRANCH   3   4
ENDBRANCH   2   3
ENDBRANCH   1   2
BRANCH   1  30
ATOM     30  C   UNL     1       4.767  -4.925   0.119  1.00  0.00     0.116 C 
BRANCH  30  31
ATOM     31  N   UNL     1       6.191  -4.730  -0.092  1.00  0.00    -0.352 N 
ATOM     32  C   UNL     1       7.037  -5.515  -0.853  1.00  0.00     0.251 C 
ATOM     33  H   UNL     1       6.598  -3.954   0.356  1.00  0.00     0.163 HD
ATOM     34  O   UNL     1       8.241  -5.279  -0.906  1.00  0.00    -0.269 OA
BRANCH  32  35
ATOM     35  C   UNL     1       6.482  -6.689  -1.565  1.00  0.00     0.039 A 
ATOM     36  C   UNL     1       6.997  -7.958  -1.290  1.00  0.00     0.014 A 
ATOM     37  C   UNL     1       5.398  -6.544  -2.434  1.00  0.00     0.014 A 
ATOM     38  C   UNL     1       6.353  -9.091  -1.801  1.00  0.00     0.010 A 
ATOM     39  C   UNL     1       4.726  -7.674  -2.898  1.00  0.00     0.010 A 
ATOM     40  C   UNL     1       5.178  -8.959  -2.561  1.00  0.00    -0.014 A 
BRANCH  40  41
ATOM     41  C   UNL     1       4.368 -10.150  -2.934  1.00  0.00     0.031 A 
ATOM     42  C   UNL     1       4.187 -10.547  -4.372  1.00  0.00     0.074 A 
ATOM     43  C   UNL     1       3.720 -10.834  -1.968  1.00  0.00     0.049 A 
ATOM     44  N   UNL     1       3.489 -11.537  -4.870  1.00  0.00    -0.248 NA
ATOM     45  C   UNL     1       4.857  -9.714  -5.381  1.00  0.00     0.031 C 
ATOM     46  C   UNL     1       3.759 -10.524  -0.536  1.00  0.00     0.029 A 
ATOM     47  N   UNL     1       2.892 -11.928  -2.045  1.00  0.00    -0.354 N 
ATOM     48  C   UNL     1       3.630 -11.443  -6.249  1.00  0.00     0.074 A 
ATOM     49  C   UNL     1       4.442 -10.273  -6.510  1.00  0.00     0.031 C 
ATOM     50  C   UNL     1       3.010 -11.418   0.129  1.00  0.00     0.029 A 
ATOM     51  C   UNL     1       2.413 -12.345  -0.826  1.00  0.00     0.049 A 
ATOM     52  H   UNL     1       2.664 -12.371  -2.894  1.00  0.00     0.167 HD
ATOM     53  C   UNL     1       3.143 -12.264  -7.211  1.00  0.00     0.031 A 
ATOM     54  C   UNL     1       1.586 -13.359  -0.508  1.00  0.00     0.031 A 
ATOM     55  C   UNL     1       2.338 -13.430  -6.959  1.00  0.00     0.049 A 
ATOM     56  C   UNL     1       1.058 -14.253  -1.594  1.00  0.00     0.074 A 
ATOM     57  C   UNL     1       1.853 -14.355  -7.869  1.00  0.00     0.029 A 
ATOM     58  N   UNL     1       1.894 -13.829  -5.709  1.00  0.00    -0.354 N 
ATOM     59  N   UNL     1       1.276 -14.201  -2.885  1.00  0.00    -0.248 NA
ATOM     60  C   UNL     1       0.181 -15.357  -1.176  1.00  0.00     0.031 C 
ATOM     61  C   UNL     1       1.078 -15.289  -7.174  1.00  0.00     0.029 A 
ATOM     62  C   UNL     1       1.123 -14.974  -5.826  1.00  0.00     0.049 A 
ATOM     63  H   UNL     1       2.096 -13.368  -4.863  1.00  0.00     0.167 HD
ATOM     64  C   UNL     1       0.594 -15.282  -3.428  1.00  0.00     0.074 A 
ATOM     65  C   UNL     1      -0.038 -15.978  -2.327  1.00  0.00     0.031 C 
ATOM     66  C   UNL     1       0.505 -15.664  -4.724  1.00  0.00     0.031 A 
BRANCH  53  67
ATOM     67  C   UNL     1       3.471 -11.929  -8.639  1.00  0.00    -0.014 A 
ATOM     68  C   UNL     1       4.769 -12.108  -9.143  1.00  0.00     0.009 A 
ATOM     69  C   UNL     1       2.461 -11.483  -9.504  1.00  0.00     0.009 A 
ATOM     70  C   UNL     1       5.055 -11.815 -10.478  1.00  0.00     0.001 A 
ATOM     71  C   UNL     1       2.744 -11.216 -10.845  1.00  0.00     0.001 A 
ATOM     72  C   UNL     1       4.042 -11.374 -11.329  1.00  0.00     0.000 A 
ENDBRANCH  53  67
BRANCH  54  73
ATOM     73  C   UNL     1       1.220 -13.606   0.911  1.00  0.00    -0.014 A 
ATOM     74  C   UNL     1       1.730 -14.721   1.593  1.00  0.00     0.009 A 
ATOM     75  C   UNL     1       0.346 -12.739   1.585  1.00  0.00     0.009 A 
ATOM     76  C   UNL     1       1.350 -14.979   2.912  1.00  0.00     0.001 A 
ATOM     77  C   UNL     1      -0.010 -12.984   2.913  1.00  0.00     0.001 A 
ATOM     78  C   UNL     1       0.484 -14.109   3.572  1.00  0.00     0.000 A 
ENDBRANCH  54  73
BRANCH  66  79
ATOM     79  C   UNL     1      -0.268 -16.918  -5.023  1.00  0.00    -0.014 A 
ATOM     80  C   UNL     1      -1.669 -16.945  -4.961  1.00  0.00     0.009 A 
ATOM     81  C   UNL     1       0.419 -18.077  -5.416  1.00  0.00     0.009 A 
ATOM     82  C   UNL     1      -2.365 -18.118  -5.259  1.00  0.00     0.001 A 
ATOM     83  C   UNL     1      -0.281 -19.240  -5.739  1.00  0.00     0.001 A 
ATOM     84  C   UNL     1      -1.671 -19.262  -5.652  1.00  0.00     0.000 A 
ENDBRANCH  66  79
ENDBRANCH  40  41
ENDBRANCH  32  35
ENDBRANCH  30  31
ENDBRANCH   1  30
TORSDOF 13
