REMARK SMILES Cc1cccc(NC(=O)COc2ccc(N3C[C@@H](C(=O)NCCCCNC(=O)c4ccc(-c5c6nc(c(-c7ccccc7)c7ccc([nH]7)c(-c7ccccc7)c7nc(c(-c8ccccc8)c8ccc5[nH]8)C=C7)C=C6)cc4)CC3=O)cc2)c1
REMARK SMILES IDX 22 1 21 2 19 3 20 4 18 6 16 7 17 8 78 9 77 10 79 11 15 12
REMARK SMILES IDX 12 13 13 14 81 15 14 16 80 17 11 18 10 19 8 20 7 21 9 23
REMARK SMILES IDX 6 24 1 25 2 26 3 27 82 28 4 29 5 30 23 31 24 32 25 33 26 34
REMARK SMILES IDX 27 35 28 37 29 38 30 39 76 40 31 41 75 42 32 43 33 44 34 45
REMARK SMILES IDX 69 46 35 47 74 48 68 49 70 50 36 51 73 52 67 53 66 54 37 56
REMARK SMILES IDX 59 57 44 58 58 59 45 60 48 61 57 62 71 63 46 64 47 65 56 67
REMARK SMILES IDX 72 68 49 69 38 70 39 71 43 72 40 73 42 74 41 75 60 76 61 77
REMARK SMILES IDX 65 78 62 79 64 80 63 81 50 82 51 83 55 84 52 85 54 86 53 87
REMARK H PARENT 21 5 7 22 26 36 70 55 48 66
REMARK Flexibility Score: inf
ROOT
ATOM      1  C   UNL     1      -6.842   5.437  -7.483  1.00  0.00     0.116 C 
ENDROOT
BRANCH   1   2
ATOM      2  N   UNL     1      -7.399   4.583  -8.522  1.00  0.00    -0.356 N 
ATOM      3  C   UNL     1      -7.027   3.378  -9.023  1.00  0.00     0.225 C 
ATOM      4  O   UNL     1      -7.746   2.893  -9.902  1.00  0.00    -0.275 OA
ATOM      5  H   UNL     1      -8.206   4.954  -8.947  1.00  0.00     0.163 HD
BRANCH   3   6
ATOM      6  C   UNL     1      -5.825   2.599  -8.532  1.00  0.00     0.107 C 
ATOM      7  N   UNL     1      -4.791   2.353  -6.429  1.00  0.00    -0.312 N 
ATOM      8  C   UNL     1      -6.020   2.068  -7.127  1.00  0.00     0.139 C 
ATOM      9  C   UNL     1      -3.927   3.166  -7.163  1.00  0.00     0.227 C 
ATOM     10  C   UNL     1      -4.505   3.346  -8.544  1.00  0.00     0.116 C 
ATOM     11  O   UNL     1      -2.864   3.643  -6.827  1.00  0.00    -0.274 OA
BRANCH   7  12
ATOM     12  C   UNL     1      -4.587   1.939  -5.094  1.00  0.00     0.044 A 
ATOM     13  C   UNL     1      -4.249   1.135  -2.416  1.00  0.00     0.120 A 
ATOM     14  C   UNL     1      -4.899   0.303  -3.324  1.00  0.00     0.048 A 
ATOM     15  C   UNL     1      -3.735   2.352  -2.853  1.00  0.00     0.048 A 
ATOM     16  C   UNL     1      -5.095   0.714  -4.645  1.00  0.00     0.030 A 
ATOM     17  C   UNL     1      -3.885   2.740  -4.189  1.00  0.00     0.030 A 
BRANCH  13  18
ATOM     18  O   UNL     1      -4.099   0.624  -1.162  1.00  0.00    -0.484 OA
BRANCH  18  19
ATOM     19  C   UNL     1      -4.264   1.522  -0.079  1.00  0.00     0.329 C 
BRANCH  19  20
ATOM     20  C   UNL     1      -3.153   2.512   0.263  1.00  0.00     0.262 C 
ATOM     21  N   UNL     1      -1.835   2.178   0.321  1.00  0.00    -0.323 N 
ATOM     22  H   UNL     1      -1.251   2.958   0.460  1.00  0.00     0.170 HD
ATOM     23  O   UNL     1      -3.441   3.697   0.484  1.00  0.00    -0.271 OA
BRANCH  21  24
ATOM     24  C   UNL     1      -1.118   0.973   0.227  1.00  0.00     0.041 A 
ATOM     25  C   UNL     1       2.597   0.112  -0.070  1.00  0.00     0.044 C 
ATOM     26  C   UNL     1       1.107  -0.031   0.027  1.00  0.00    -0.049 A 
ATOM     27  C   UNL     1       0.527  -1.301   0.035  1.00  0.00     0.003 A 
ATOM     28  C   UNL     1       0.277   1.095   0.120  1.00  0.00     0.029 A 
ATOM     29  C   UNL     1      -0.853  -1.435   0.158  1.00  0.00     0.002 A 
ATOM     30  C   UNL     1      -1.669  -0.305   0.269  1.00  0.00     0.026 A 
ENDBRANCH  21  24
ENDBRANCH  19  20
ENDBRANCH  18  19
ENDBRANCH  13  18
ENDBRANCH   7  12
ENDBRANCH   3   6
ENDBRANCH   1   2
BRANCH   1  31
ATOM     31  C   UNL     1      -6.130   6.681  -8.035  1.00  0.00     0.023 C 
BRANCH  31  32
ATOM     32  C   UNL     1      -6.949   7.547  -8.992  1.00  0.00     0.023 C 
BRANCH  32  33
ATOM     33  C   UNL     1      -8.150   8.227  -8.361  1.00  0.00     0.116 C 
BRANCH  33  34
ATOM     34  N   UNL     1      -7.860   9.485  -7.688  1.00  0.00    -0.352 N 
ATOM     35  C   UNL     1      -8.718  10.392  -7.088  1.00  0.00     0.251 C 
ATOM     36  H   UNL     1      -6.906   9.729  -7.654  1.00  0.00     0.163 HD
ATOM     37  O   UNL     1      -8.273  11.461  -6.676  1.00  0.00    -0.269 OA
BRANCH  35  38
ATOM     38  C   UNL     1     -10.118  10.008  -6.761  1.00  0.00     0.039 A 
ATOM     39  C   UNL     1     -10.595  10.397  -5.501  1.00  0.00     0.014 A 
ATOM     40  C   UNL     1     -10.765   9.002  -7.463  1.00  0.00     0.014 A 
ATOM     41  C   UNL     1     -11.443   9.546  -4.809  1.00  0.00     0.010 A 
ATOM     42  C   UNL     1     -11.474   8.079  -6.741  1.00  0.00     0.010 A 
ATOM     43  C   UNL     1     -11.736   8.323  -5.394  1.00  0.00    -0.014 A 
BRANCH  43  44
ATOM     44  C   UNL     1     -12.323   7.199  -4.703  1.00  0.00     0.031 A 
ATOM     45  C   UNL     1     -13.767   7.003  -4.844  1.00  0.00     0.074 A 
ATOM     46  C   UNL     1     -11.490   6.301  -4.134  1.00  0.00     0.049 A 
ATOM     47  N   UNL     1     -14.477   6.272  -4.067  1.00  0.00    -0.248 NA
ATOM     48  C   UNL     1     -14.551   7.686  -5.873  1.00  0.00     0.031 C 
ATOM     49  C   UNL     1     -11.775   4.954  -3.657  1.00  0.00     0.029 A 
ATOM     50  N   UNL     1     -10.195   6.551  -3.687  1.00  0.00    -0.354 N 
ATOM     51  C   UNL     1     -15.707   6.127  -4.665  1.00  0.00     0.074 A 
ATOM     52  C   UNL     1     -15.749   7.122  -5.704  1.00  0.00     0.031 C 
ATOM     53  C   UNL     1     -10.828   4.600  -2.767  1.00  0.00     0.029 A 
ATOM     54  C   UNL     1      -9.992   5.770  -2.537  1.00  0.00     0.049 A 
ATOM     55  H   UNL     1      -9.542   7.162  -4.100  1.00  0.00     0.167 HD
ATOM     56  C   UNL     1     -16.468   5.059  -4.305  1.00  0.00     0.031 A 
ATOM     57  C   UNL     1      -9.857   6.400  -1.329  1.00  0.00     0.031 A 
ATOM     58  C   UNL     1     -15.871   4.381  -3.152  1.00  0.00     0.049 A 
ATOM     59  C   UNL     1     -11.050   6.156  -0.423  1.00  0.00     0.074 A 
ATOM     60  C   UNL     1     -15.072   3.255  -3.040  1.00  0.00     0.029 A 
ATOM     61  N   UNL     1     -15.721   5.093  -1.965  1.00  0.00    -0.354 N 
ATOM     62  N   UNL     1     -12.231   5.787  -0.848  1.00  0.00    -0.248 NA
ATOM     63  C   UNL     1     -10.996   6.276   1.031  1.00  0.00     0.031 C 
ATOM     64  C   UNL     1     -14.331   3.374  -1.828  1.00  0.00     0.029 A 
ATOM     65  C   UNL     1     -14.720   4.539  -1.187  1.00  0.00     0.049 A 
ATOM     66  H   UNL     1     -16.254   5.881  -1.713  1.00  0.00     0.167 HD
ATOM     67  C   UNL     1     -13.063   5.585   0.220  1.00  0.00     0.074 A 
ATOM     68  C   UNL     1     -12.244   5.911   1.375  1.00  0.00     0.031 C 
ATOM     69  C   UNL     1     -14.354   5.156   0.085  1.00  0.00     0.031 A 
BRANCH  56  70
ATOM     70  C   UNL     1     -17.577   4.472  -5.147  1.00  0.00    -0.014 A 
ATOM     71  C   UNL     1     -18.076   3.198  -4.820  1.00  0.00     0.009 A 
ATOM     72  C   UNL     1     -18.110   5.054  -6.311  1.00  0.00     0.009 A 
ATOM     73  C   UNL     1     -19.015   2.536  -5.624  1.00  0.00     0.001 A 
ATOM     74  C   UNL     1     -19.050   4.401  -7.121  1.00  0.00     0.001 A 
ATOM     75  C   UNL     1     -19.498   3.135  -6.780  1.00  0.00     0.000 A 
ENDBRANCH  56  70
BRANCH  57  76
ATOM     76  C   UNL     1      -9.087   7.681  -1.449  1.00  0.00    -0.014 A 
ATOM     77  C   UNL     1      -7.746   7.588  -1.889  1.00  0.00     0.009 A 
ATOM     78  C   UNL     1      -9.744   8.911  -1.590  1.00  0.00     0.009 A 
ATOM     79  C   UNL     1      -7.152   8.625  -2.616  1.00  0.00     0.001 A 
ATOM     80  C   UNL     1      -9.128   9.961  -2.290  1.00  0.00     0.001 A 
ATOM     81  C   UNL     1      -7.862   9.797  -2.853  1.00  0.00     0.000 A 
ENDBRANCH  57  76
BRANCH  69  82
ATOM     82  C   UNL     1     -15.401   5.213   1.172  1.00  0.00    -0.014 A 
ATOM     83  C   UNL     1     -15.329   6.061   2.284  1.00  0.00     0.009 A 
ATOM     84  C   UNL     1     -16.603   4.488   1.006  1.00  0.00     0.009 A 
ATOM     85  C   UNL     1     -16.374   6.133   3.215  1.00  0.00     0.001 A 
ATOM     86  C   UNL     1     -17.672   4.605   1.896  1.00  0.00     0.001 A 
ATOM     87  C   UNL     1     -17.548   5.415   3.014  1.00  0.00     0.000 A 
ENDBRANCH  69  82
ENDBRANCH  43  44
ENDBRANCH  35  38
ENDBRANCH  33  34
ENDBRANCH  32  33
ENDBRANCH  31  32
ENDBRANCH   1  31
TORSDOF 16
