REMARK SMILES O=C(NCCCCNC(=O)c1cccn1CC(=O)N1CC[C@H]2CCCC[C@H]2C1)c1ccc(-c2c3nc(c(-c4ccccc4)c4ccc([nH]4)c(-c4ccccc4)c4nc(c(-c5ccccc5)c5ccc2[nH]5)C=C4)C=C3)cc1
REMARK SMILES IDX 6 1 5 2 4 3 3 4 1 5 2 6 29 8 30 9 76 10 31 11 75 12 32 13
REMARK SMILES IDX 33 14 34 15 69 16 35 17 74 18 68 19 70 20 36 21 73 22 67 23
REMARK SMILES IDX 66 24 37 26 59 27 44 28 58 29 45 30 48 31 57 32 71 33 46 34
REMARK SMILES IDX 47 35 56 37 72 38 49 39 38 40 39 41 43 42 40 43 42 44 41 45
REMARK SMILES IDX 60 46 61 47 65 48 62 49 64 50 63 51 50 52 51 53 55 54 52 55
REMARK SMILES IDX 54 56 53 57 7 58 8 59 9 60 10 62 11 63 12 64 15 65 13 66
REMARK SMILES IDX 14 67 16 68 17 69 18 70 19 71 20 72 28 73 21 74 27 75 22 76
REMARK SMILES IDX 26 77 23 78 25 79 24 80
REMARK H PARENT 3 7 70 25 48 36 8 61
REMARK Flexibility Score: inf
ROOT
ATOM      1  C   UNL     1       4.645   0.954  -2.804  1.00  0.00     0.023 C 
ENDROOT
BRANCH   1   2
ATOM      2  C   UNL     1       5.188   0.378  -1.511  1.00  0.00     0.023 C 
BRANCH   2   3
ATOM      3  C   UNL     1       4.625   1.000  -0.242  1.00  0.00     0.116 C 
BRANCH   3   4
ATOM      4  N   UNL     1       3.183   0.945  -0.090  1.00  0.00    -0.352 N 
ATOM      5  O   UNL     1       1.148   0.301   0.526  1.00  0.00    -0.269 OA
ATOM      6  C   UNL     1       2.292  -0.048   0.226  1.00  0.00     0.251 C 
ATOM      7  H   UNL     1       2.748   1.814  -0.249  1.00  0.00     0.163 HD
BRANCH   6   8
ATOM      8  C   UNL     1       2.588  -1.502   0.121  1.00  0.00     0.039 A 
ATOM      9  C   UNL     1       3.867  -2.055   0.136  1.00  0.00     0.014 A 
ATOM     10  C   UNL     1       1.485  -2.362  -0.039  1.00  0.00     0.014 A 
ATOM     11  C   UNL     1       4.062  -3.397  -0.171  1.00  0.00     0.010 A 
ATOM     12  C   UNL     1       1.663  -3.725  -0.278  1.00  0.00     0.010 A 
ATOM     13  C   UNL     1       2.960  -4.237  -0.365  1.00  0.00    -0.014 A 
BRANCH  13  14
ATOM     14  C   UNL     1       3.215  -5.693  -0.283  1.00  0.00     0.031 A 
ATOM     15  C   UNL     1       3.439  -6.095   1.204  1.00  0.00     0.074 A 
ATOM     16  C   UNL     1       3.280  -6.396  -1.461  1.00  0.00     0.049 A 
ATOM     17  N   UNL     1       4.032  -7.132   1.706  1.00  0.00    -0.248 NA
ATOM     18  C   UNL     1       2.977  -5.185   2.301  1.00  0.00     0.031 C 
ATOM     19  C   UNL     1       2.991  -5.843  -2.808  1.00  0.00     0.029 A 
ATOM     20  N   UNL     1       3.604  -7.702  -1.785  1.00  0.00    -0.354 N 
ATOM     21  C   UNL     1       3.850  -7.105   3.111  1.00  0.00     0.074 A 
ATOM     22  C   UNL     1       3.278  -5.837   3.425  1.00  0.00     0.031 C 
ATOM     23  C   UNL     1       3.238  -6.757  -3.780  1.00  0.00     0.029 A 
ATOM     24  C   UNL     1       3.689  -7.998  -3.180  1.00  0.00     0.049 A 
ATOM     25  H   UNL     1       3.766  -8.386  -1.096  1.00  0.00     0.167 HD
ATOM     26  C   UNL     1       4.058  -8.195   3.907  1.00  0.00     0.031 A 
ATOM     27  C   UNL     1       4.125  -9.149  -3.793  1.00  0.00     0.031 A 
ATOM     28  C   UNL     1       4.649  -9.238   3.146  1.00  0.00     0.049 A 
ATOM     29  C   UNL     1       4.275 -10.117  -2.703  1.00  0.00     0.074 A 
ATOM     30  C   UNL     1       5.892  -9.371   2.587  1.00  0.00     0.029 A 
ATOM     31  N   UNL     1       3.775 -10.105   2.540  1.00  0.00    -0.354 N 
ATOM     32  N   UNL     1       3.287 -10.695  -2.094  1.00  0.00    -0.248 NA
ATOM     33  C   UNL     1       5.623 -10.448  -2.225  1.00  0.00     0.031 C 
ATOM     34  C   UNL     1       5.594  -9.894   1.313  1.00  0.00     0.029 A 
ATOM     35  C   UNL     1       4.261 -10.321   1.279  1.00  0.00     0.049 A 
ATOM     36  H   UNL     1       2.960 -10.494   2.933  1.00  0.00     0.167 HD
ATOM     37  C   UNL     1       3.879 -11.094  -0.926  1.00  0.00     0.074 A 
ATOM     38  C   UNL     1       5.293 -11.241  -1.208  1.00  0.00     0.031 C 
ATOM     39  C   UNL     1       3.330 -10.712   0.255  1.00  0.00     0.031 A 
BRANCH  26  40
ATOM     40  C   UNL     1       3.533  -8.559   5.269  1.00  0.00    -0.014 A 
ATOM     41  C   UNL     1       4.032  -9.753   5.851  1.00  0.00     0.009 A 
ATOM     42  C   UNL     1       2.358  -8.029   5.808  1.00  0.00     0.009 A 
ATOM     43  C   UNL     1       3.308 -10.468   6.805  1.00  0.00     0.001 A 
ATOM     44  C   UNL     1       1.653  -8.726   6.801  1.00  0.00     0.001 A 
ATOM     45  C   UNL     1       2.102  -9.962   7.264  1.00  0.00     0.000 A 
ENDBRANCH  26  40
BRANCH  27  46
ATOM     46  C   UNL     1       4.519  -9.704  -5.152  1.00  0.00    -0.014 A 
ATOM     47  C   UNL     1       4.477  -9.038  -6.376  1.00  0.00     0.009 A 
ATOM     48  C   UNL     1       5.101 -11.011  -5.199  1.00  0.00     0.009 A 
ATOM     49  C   UNL     1       5.077  -9.603  -7.532  1.00  0.00     0.001 A 
ATOM     50  C   UNL     1       5.747 -11.546  -6.317  1.00  0.00     0.001 A 
ATOM     51  C   UNL     1       5.749 -10.828  -7.492  1.00  0.00     0.000 A 
ENDBRANCH  27  46
BRANCH  39  52
ATOM     52  C   UNL     1       1.848 -10.353   0.212  1.00  0.00    -0.014 A 
ATOM     53  C   UNL     1       0.918 -11.290  -0.268  1.00  0.00     0.009 A 
ATOM     54  C   UNL     1       1.350  -9.076   0.531  1.00  0.00     0.009 A 
ATOM     55  C   UNL     1      -0.434 -10.963  -0.443  1.00  0.00     0.001 A 
ATOM     56  C   UNL     1      -0.004  -8.742   0.356  1.00  0.00     0.001 A 
ATOM     57  C   UNL     1      -0.897  -9.688  -0.134  1.00  0.00     0.000 A 
ENDBRANCH  39  52
ENDBRANCH  13  14
ENDBRANCH   6   8
ENDBRANCH   3   4
ENDBRANCH   2   3
ENDBRANCH   1   2
BRANCH   1  58
ATOM     58  C   UNL     1       5.048   2.387  -3.140  1.00  0.00     0.116 C 
BRANCH  58  59
ATOM     59  N   UNL     1       6.477   2.520  -3.367  1.00  0.00    -0.351 N 
ATOM     60  C   UNL     1       7.170   2.963  -4.470  1.00  0.00     0.267 C 
ATOM     61  H   UNL     1       7.042   2.249  -2.608  1.00  0.00     0.163 HD
ATOM     62  O   UNL     1       8.389   2.814  -4.463  1.00  0.00    -0.268 OA
BRANCH  60  63
ATOM     63  C   UNL     1       6.455   3.560  -5.584  1.00  0.00     0.107 A 
ATOM     64  C   UNL     1       5.466   4.535  -5.545  1.00  0.00     0.033 A 
ATOM     65  N   UNL     1       6.712   3.321  -6.931  1.00  0.00    -0.334 N 
ATOM     66  C   UNL     1       5.121   4.884  -6.869  1.00  0.00     0.020 A 
ATOM     67  C   UNL     1       5.926   4.147  -7.704  1.00  0.00     0.087 A 
BRANCH  65  68
ATOM     68  C   UNL     1       7.729   2.428  -7.476  1.00  0.00     0.222 C 
BRANCH  68  69
ATOM     69  C   UNL     1       7.320   1.301  -8.425  1.00  0.00     0.242 C 
ATOM     70  O   UNL     1       8.038   1.065  -9.405  1.00  0.00    -0.273 OA
BRANCH  69  71
ATOM     71  N   UNL     1       6.342   0.395  -8.054  1.00  0.00    -0.341 N 
ATOM     72  C   UNL     1       5.097   0.711  -7.393  1.00  0.00     0.120 C 
ATOM     73  C   UNL     1       6.559  -1.041  -8.232  1.00  0.00     0.123 C 
ATOM     74  C   UNL     1       5.152   0.172  -5.984  1.00  0.00     0.025 C 
ATOM     75  C   UNL     1       6.615  -1.721  -6.842  1.00  0.00     0.012 C 
ATOM     76  C   UNL     1       5.429  -1.341  -5.931  1.00  0.00    -0.005 C 
ATOM     77  C   UNL     1       6.739  -3.241  -6.907  1.00  0.00     0.006 C 
ATOM     78  C   UNL     1       4.126  -2.121  -6.157  1.00  0.00     0.004 C 
ATOM     79  C   UNL     1       5.503  -3.891  -7.501  1.00  0.00     0.000 C 
ATOM     80  C   UNL     1       4.197  -3.488  -6.830  1.00  0.00     0.000 C 
ENDBRANCH  69  71
ENDBRANCH  68  69
ENDBRANCH  65  68
ENDBRANCH  60  63
ENDBRANCH  58  59
ENDBRANCH   1  58
TORSDOF 14
