REMARK SMILES O=C(NCCCCNC(=O)c1cc(N2C(=O)C[C@H](Nc3ccccc3O)C2=O)ccc1O)c1ccc(-c2c3nc(c(-c4ccccc4)c4ccc([nH]4)c(-c4ccccc4)c4nc(c(-c5ccccc5)c5ccc2[nH]5)C=C4)C=C3)cc1
REMARK SMILES IDX 6 1 5 2 4 3 3 4 1 5 2 6 33 8 34 9 80 10 35 11 79 12 36 13
REMARK SMILES IDX 37 14 38 15 73 16 39 17 78 18 72 19 74 20 40 21 77 22 71 23
REMARK SMILES IDX 70 24 41 26 63 27 48 28 62 29 49 30 52 31 61 32 75 33 50 34
REMARK SMILES IDX 51 35 60 37 76 38 53 39 42 40 43 41 47 42 44 43 46 44 45 45
REMARK SMILES IDX 64 46 65 47 69 48 66 49 68 50 67 51 54 52 55 53 59 54 56 55
REMARK SMILES IDX 58 56 57 57 7 58 8 59 9 60 10 62 11 63 12 64 31 65 13 66
REMARK SMILES IDX 30 67 29 68 32 69 14 71 15 72 27 73 16 74 17 75 18 76 28 77
REMARK SMILES IDX 19 78 20 80 21 81 25 82 22 83 24 84 23 85 26 86
REMARK H PARENT 3 7 74 25 52 36 8 61 32 70 19 79 26 87
REMARK Flexibility Score: inf
ROOT
ATOM      1  C   UNL     1       4.368  -1.609   3.310  1.00  0.00     0.023 C 
ENDROOT
BRANCH   1   2
ATOM      2  C   UNL     1       4.881  -0.543   2.339  1.00  0.00     0.023 C 
BRANCH   2   3
ATOM      3  C   UNL     1       4.569  -0.799   0.868  1.00  0.00     0.116 C 
BRANCH   3   4
ATOM      4  N   UNL     1       3.140  -0.877   0.607  1.00  0.00    -0.352 N 
ATOM      5  O   UNL     1       1.117  -0.192  -0.108  1.00  0.00    -0.269 OA
ATOM      6  C   UNL     1       2.336  -0.060  -0.147  1.00  0.00     0.251 C 
ATOM      7  H   UNL     1       2.679  -1.633   1.037  1.00  0.00     0.163 HD
BRANCH   6   8
ATOM      8  C   UNL     1       2.932   0.998  -0.991  1.00  0.00     0.039 A 
ATOM      9  C   UNL     1       4.028   0.731  -1.816  1.00  0.00     0.014 A 
ATOM     10  C   UNL     1       2.360   2.272  -0.973  1.00  0.00     0.014 A 
ATOM     11  C   UNL     1       4.632   1.768  -2.523  1.00  0.00     0.010 A 
ATOM     12  C   UNL     1       2.924   3.295  -1.736  1.00  0.00     0.010 A 
ATOM     13  C   UNL     1       4.082   3.058  -2.494  1.00  0.00    -0.014 A 
BRANCH  13  14
ATOM     14  C   UNL     1       4.694   4.154  -3.284  1.00  0.00     0.031 A 
ATOM     15  C   UNL     1       5.310   5.340  -2.599  1.00  0.00     0.074 A 
ATOM     16  C   UNL     1       4.662   4.093  -4.628  1.00  0.00     0.049 A 
ATOM     17  N   UNL     1       5.808   6.430  -3.126  1.00  0.00    -0.248 NA
ATOM     18  C   UNL     1       5.365   5.301  -1.130  1.00  0.00     0.031 C 
ATOM     19  C   UNL     1       4.098   2.991  -5.410  1.00  0.00     0.029 A 
ATOM     20  N   UNL     1       5.102   4.984  -5.573  1.00  0.00    -0.354 N 
ATOM     21  C   UNL     1       6.210   7.219  -2.056  1.00  0.00     0.074 A 
ATOM     22  C   UNL     1       5.880   6.490  -0.849  1.00  0.00     0.031 C 
ATOM     23  C   UNL     1       4.233   3.267  -6.715  1.00  0.00     0.029 A 
ATOM     24  C   UNL     1       4.837   4.587  -6.860  1.00  0.00     0.049 A 
ATOM     25  H   UNL     1       5.563   5.824  -5.350  1.00  0.00     0.167 HD
ATOM     26  C   UNL     1       6.798   8.439  -2.078  1.00  0.00     0.031 A 
ATOM     27  C   UNL     1       5.024   5.226  -8.029  1.00  0.00     0.031 A 
ATOM     28  C   UNL     1       7.119   9.162  -3.281  1.00  0.00     0.049 A 
ATOM     29  C   UNL     1       5.635   6.596  -8.029  1.00  0.00     0.074 A 
ATOM     30  C   UNL     1       7.749  10.388  -3.408  1.00  0.00     0.029 A 
ATOM     31  N   UNL     1       6.826   8.728  -4.565  1.00  0.00    -0.354 N 
ATOM     32  N   UNL     1       6.039   7.316  -7.011  1.00  0.00    -0.248 NA
ATOM     33  C   UNL     1       5.820   7.239  -9.337  1.00  0.00     0.031 C 
ATOM     34  C   UNL     1       7.788  10.720  -4.766  1.00  0.00     0.029 A 
ATOM     35  C   UNL     1       7.236   9.674  -5.489  1.00  0.00     0.049 A 
ATOM     36  H   UNL     1       6.390   7.873  -4.787  1.00  0.00     0.167 HD
ATOM     37  C   UNL     1       6.548   8.487  -7.555  1.00  0.00     0.074 A 
ATOM     38  C   UNL     1       6.407   8.378  -8.993  1.00  0.00     0.031 C 
ATOM     39  C   UNL     1       7.090   9.553  -6.917  1.00  0.00     0.031 A 
BRANCH  26  40
ATOM     40  C   UNL     1       7.092   9.088  -0.753  1.00  0.00    -0.014 A 
ATOM     41  C   UNL     1       8.105   8.607   0.091  1.00  0.00     0.009 A 
ATOM     42  C   UNL     1       6.353  10.212  -0.353  1.00  0.00     0.009 A 
ATOM     43  C   UNL     1       8.341   9.213   1.328  1.00  0.00     0.001 A 
ATOM     44  C   UNL     1       6.610  10.833   0.870  1.00  0.00     0.001 A 
ATOM     45  C   UNL     1       7.595  10.326   1.715  1.00  0.00     0.000 A 
ENDBRANCH  26  40
BRANCH  27  46
ATOM     46  C   UNL     1       4.602   4.566  -9.290  1.00  0.00    -0.014 A 
ATOM     47  C   UNL     1       5.555   4.042 -10.175  1.00  0.00     0.009 A 
ATOM     48  C   UNL     1       3.238   4.409  -9.585  1.00  0.00     0.009 A 
ATOM     49  C   UNL     1       5.149   3.378 -11.335  1.00  0.00     0.001 A 
ATOM     50  C   UNL     1       2.836   3.723 -10.732  1.00  0.00     0.001 A 
ATOM     51  C   UNL     1       3.791   3.212 -11.608  1.00  0.00     0.000 A 
ENDBRANCH  27  46
BRANCH  39  52
ATOM     52  C   UNL     1       7.614  10.674  -7.768  1.00  0.00    -0.014 A 
ATOM     53  C   UNL     1       6.747  11.579  -8.398  1.00  0.00     0.009 A 
ATOM     54  C   UNL     1       9.000  10.861  -7.886  1.00  0.00     0.009 A 
ATOM     55  C   UNL     1       7.261  12.640  -9.146  1.00  0.00     0.001 A 
ATOM     56  C   UNL     1       9.510  11.937  -8.614  1.00  0.00     0.001 A 
ATOM     57  C   UNL     1       8.640  12.822  -9.248  1.00  0.00     0.000 A 
ENDBRANCH  39  52
ENDBRANCH  13  14
ENDBRANCH   6   8
ENDBRANCH   3   4
ENDBRANCH   2   3
ENDBRANCH   1   2
BRANCH   1  58
ATOM     58  C   UNL     1       4.776  -3.041   2.979  1.00  0.00     0.116 C 
BRANCH  58  59
ATOM     59  N   UNL     1       6.214  -3.216   2.994  1.00  0.00    -0.352 N 
ATOM     60  C   UNL     1       6.934  -4.246   3.539  1.00  0.00     0.255 C 
ATOM     61  H   UNL     1       6.739  -2.506   2.559  1.00  0.00     0.163 HD
ATOM     62  O   UNL     1       8.162  -4.207   3.538  1.00  0.00    -0.269 OA
BRANCH  60  63
ATOM     63  C   UNL     1       6.249  -5.386   4.180  1.00  0.00     0.083 A 
ATOM     64  C   UNL     1       6.581  -5.661   5.514  1.00  0.00     0.044 A 
ATOM     65  C   UNL     1       5.394  -6.242   3.480  1.00  0.00     0.128 A 
ATOM     66  C   UNL     1       6.095  -6.814   6.144  1.00  0.00     0.053 A 
ATOM     67  C   UNL     1       4.872  -7.370   4.111  1.00  0.00     0.049 A 
ATOM     68  C   UNL     1       5.243  -7.665   5.427  1.00  0.00     0.031 A 
BRANCH  65  69
ATOM     69  O   UNL     1       5.073  -5.996   2.175  1.00  0.00    -0.507 OA
ATOM     70  H   UNL     1       5.418  -5.241   1.742  1.00  0.00     0.293 HD
ENDBRANCH  65  69
BRANCH  66  71
ATOM     71  N   UNL     1       6.498  -7.131   7.463  1.00  0.00    -0.249 N 
ATOM     72  C   UNL     1       6.805  -8.400   7.886  1.00  0.00     0.236 C 
ATOM     73  C   UNL     1       6.596  -6.203   8.474  1.00  0.00     0.256 C 
ATOM     74  O   UNL     1       6.761  -9.438   7.245  1.00  0.00    -0.274 OA
ATOM     75  C   UNL     1       7.331  -8.339   9.288  1.00  0.00     0.136 C 
ATOM     76  C   UNL     1       7.075  -6.910   9.738  1.00  0.00     0.179 C 
ATOM     77  O   UNL     1       6.244  -5.029   8.413  1.00  0.00    -0.272 OA
BRANCH  76  78
ATOM     78  N   UNL     1       6.050  -6.918  10.794  1.00  0.00    -0.370 N 
ATOM     79  H   UNL     1       5.153  -7.286  10.626  1.00  0.00     0.161 HD
BRANCH  78  80
ATOM     80  C   UNL     1       6.389  -6.386  12.045  1.00  0.00     0.077 A 
ATOM     81  C   UNL     1       6.091  -7.131  13.191  1.00  0.00     0.029 A 
ATOM     82  C   UNL     1       6.833  -5.065  12.221  1.00  0.00     0.138 A 
ATOM     83  C   UNL     1       6.288  -6.598  14.470  1.00  0.00     0.002 A 
ATOM     84  C   UNL     1       7.024  -4.520  13.492  1.00  0.00     0.048 A 
ATOM     85  C   UNL     1       6.755  -5.293  14.619  1.00  0.00     0.004 A 
BRANCH  82  86
ATOM     86  O   UNL     1       7.066  -4.292  11.117  1.00  0.00    -0.506 OA
ATOM     87  H   UNL     1       6.941  -4.648  10.260  1.00  0.00     0.293 HD
ENDBRANCH  82  86
ENDBRANCH  78  80
ENDBRANCH  76  78
ENDBRANCH  66  71
ENDBRANCH  60  63
ENDBRANCH  58  59
ENDBRANCH   1  58
TORSDOF 16
