REMARK SMILES Cc1cc(OC(F)(F)F)cc2c1O[C@H](C(F)(F)F)C(C(=O)NCCCCNC(=O)c1ccc(-c3c4nc(c(-c5ccccc5)c5ccc([nH]5)c(-c5ccccc5)c5nc(c(-c6ccccc6)c6ccc3[nH]6)C=C5)C=C4)cc1)=C2
REMARK SMILES IDX 24 1 23 2 22 3 20 4 21 5 19 7 1 8 2 9 3 10 12 11 4 12 11 13
REMARK SMILES IDX 13 14 10 15 78 16 14 17 5 18 6 19 7 20 8 21 9 22 15 23 16 24
REMARK SMILES IDX 17 25 18 26 25 27 26 28 27 29 28 30 29 32 30 33 31 34 77 35
REMARK SMILES IDX 32 36 76 37 33 38 34 39 35 40 70 41 36 42 75 43 69 44 71 45
REMARK SMILES IDX 37 46 74 47 68 48 67 49 38 51 60 52 45 53 59 54 46 55 49 56
REMARK SMILES IDX 58 57 72 58 47 59 48 60 57 62 73 63 50 64 39 65 40 66 44 67
REMARK SMILES IDX 41 68 43 69 42 70 61 71 62 72 66 73 63 74 65 75 64 76 51 77
REMARK SMILES IDX 52 78 56 79 53 80 55 81 54 82
REMARK H PARENT 22 6 27 31 71 50 49 61
REMARK Flexibility Score: inf
ROOT
ATOM      1  C   UNL     1      -3.168  -4.623  -4.159  1.00  0.00     0.023 C 
ENDROOT
BRANCH   1   2
ATOM      2  C   UNL     1      -1.853  -4.178  -4.791  1.00  0.00     0.116 C 
BRANCH   2   3
ATOM      3  N   UNL     1      -2.020  -2.987  -5.603  1.00  0.00    -0.352 N 
ATOM      4  C   UNL     1      -1.740  -1.667  -5.488  1.00  0.00     0.251 C 
ATOM      5  O   UNL     1      -2.078  -0.975  -6.454  1.00  0.00    -0.270 OA
ATOM      6  H   UNL     1      -2.451  -3.192  -6.464  1.00  0.00     0.163 HD
BRANCH   4   7
ATOM      7  C   UNL     1      -1.078  -1.025  -4.314  1.00  0.00     0.067 C 
ATOM      8  C   UNL     1       0.982   0.228   0.250  1.00  0.00     0.048 C 
ATOM      9  C   UNL     1       0.564   0.967  -0.991  1.00  0.00    -0.005 A 
ATOM     10  C   UNL     1       0.818   2.345  -1.081  1.00  0.00     0.054 A 
ATOM     11  C   UNL     1      -0.021   0.313  -2.082  1.00  0.00     0.131 A 
ATOM     12  C   UNL     1       0.468   3.064  -2.227  1.00  0.00     0.130 A 
ATOM     13  C   UNL     1      -0.376   1.019  -3.233  1.00  0.00     0.021 A 
ATOM     14  O   UNL     1      -0.274  -1.023  -1.954  1.00  0.00    -0.475 OA
ATOM     15  C   UNL     1      -0.130   2.393  -3.299  1.00  0.00     0.058 A 
ATOM     16  C   UNL     1      -1.033   0.320  -4.332  1.00  0.00     0.025 C 
ATOM     17  C   UNL     1      -0.445  -1.779  -3.180  1.00  0.00     0.314 C 
BRANCH  12  18
ATOM     18  O   UNL     1       0.650   4.403  -2.428  1.00  0.00    -0.406 OA
BRANCH  18  19
ATOM     19  C   UNL     1       1.174   5.167  -1.355  1.00  0.00     0.573 C 
ATOM     20  F   UNL     1       0.382   5.083  -0.264  1.00  0.00    -0.132 F 
ATOM     21  F   UNL     1       2.423   4.765  -1.037  1.00  0.00    -0.132 F 
ATOM     22  F   UNL     1       1.232   6.463  -1.732  1.00  0.00    -0.132 F 
ENDBRANCH  18  19
ENDBRANCH  12  18
BRANCH  17  23
ATOM     23  C   UNL     1       0.899  -2.424  -3.568  1.00  0.00     0.429 C 
ATOM     24  F   UNL     1       1.265  -3.345  -2.642  1.00  0.00    -0.167 F 
ATOM     25  F   UNL     1       0.838  -3.078  -4.752  1.00  0.00    -0.167 F 
ATOM     26  F   UNL     1       1.902  -1.524  -3.666  1.00  0.00    -0.167 F 
ENDBRANCH  17  23
ENDBRANCH   4   7
ENDBRANCH   2   3
ENDBRANCH   1   2
BRANCH   1  27
ATOM     27  C   UNL     1      -4.002  -5.543  -5.053  1.00  0.00     0.023 C 
BRANCH  27  28
ATOM     28  C   UNL     1      -3.290  -6.809  -5.525  1.00  0.00     0.116 C 
BRANCH  28  29
ATOM     29  N   UNL     1      -2.706  -7.582  -4.439  1.00  0.00    -0.352 N 
ATOM     30  C   UNL     1      -2.628  -8.948  -4.329  1.00  0.00     0.251 C 
ATOM     31  H   UNL     1      -2.322  -7.064  -3.695  1.00  0.00     0.163 HD
ATOM     32  O   UNL     1      -2.186  -9.482  -3.319  1.00  0.00    -0.269 OA
BRANCH  30  33
ATOM     33  C   UNL     1      -3.115  -9.764  -5.452  1.00  0.00     0.039 A 
ATOM     34  C   UNL     1      -4.163 -10.660  -5.231  1.00  0.00     0.014 A 
ATOM     35  C   UNL     1      -2.571  -9.584  -6.727  1.00  0.00     0.014 A 
ATOM     36  C   UNL     1      -4.707 -11.351  -6.312  1.00  0.00     0.010 A 
ATOM     37  C   UNL     1      -3.140 -10.244  -7.808  1.00  0.00     0.010 A 
ATOM     38  C   UNL     1      -4.209 -11.133  -7.606  1.00  0.00    -0.014 A 
BRANCH  38  39
ATOM     39  C   UNL     1      -4.747 -11.869  -8.769  1.00  0.00     0.031 A 
ATOM     40  C   UNL     1      -3.907 -12.932  -9.410  1.00  0.00     0.074 A 
ATOM     41  C   UNL     1      -5.950 -11.547  -9.277  1.00  0.00     0.049 A 
ATOM     42  N   UNL     1      -4.128 -13.606 -10.508  1.00  0.00    -0.248 NA
ATOM     43  C   UNL     1      -2.642 -13.269  -8.735  1.00  0.00     0.031 C 
ATOM     44  C   UNL     1      -6.859 -10.534  -8.737  1.00  0.00     0.029 A 
ATOM     45  N   UNL     1      -6.610 -12.039 -10.374  1.00  0.00    -0.354 N 
ATOM     46  C   UNL     1      -3.025 -14.434 -10.663  1.00  0.00     0.074 A 
ATOM     47  C   UNL     1      -2.122 -14.158  -9.568  1.00  0.00     0.031 C 
ATOM     48  C   UNL     1      -7.967 -10.493  -9.496  1.00  0.00     0.029 A 
ATOM     49  C   UNL     1      -7.828 -11.447 -10.593  1.00  0.00     0.049 A 
ATOM     50  H   UNL     1      -6.244 -12.750 -10.949  1.00  0.00     0.167 HD
ATOM     51  C   UNL     1      -2.792 -15.353 -11.627  1.00  0.00     0.031 A 
ATOM     52  C   UNL     1      -8.726 -11.645 -11.577  1.00  0.00     0.031 A 
ATOM     53  C   UNL     1      -3.693 -15.636 -12.708  1.00  0.00     0.049 A 
ATOM     54  C   UNL     1      -8.428 -12.645 -12.657  1.00  0.00     0.074 A 
ATOM     55  C   UNL     1      -3.553 -16.564 -13.724  1.00  0.00     0.029 A 
ATOM     56  N   UNL     1      -4.907 -14.999 -12.906  1.00  0.00    -0.354 N 
ATOM     57  N   UNL     1      -7.376 -13.415 -12.799  1.00  0.00    -0.248 NA
ATOM     58  C   UNL     1      -9.436 -12.798 -13.716  1.00  0.00     0.031 C 
ATOM     59  C   UNL     1      -4.673 -16.469 -14.556  1.00  0.00     0.029 A 
ATOM     60  C   UNL     1      -5.524 -15.507 -14.035  1.00  0.00     0.049 A 
ATOM     61  H   UNL     1      -5.276 -14.291 -12.330  1.00  0.00     0.167 HD
ATOM     62  C   UNL     1      -7.599 -14.151 -13.954  1.00  0.00     0.074 A 
ATOM     63  C   UNL     1      -8.891 -13.745 -14.470  1.00  0.00     0.031 C 
ATOM     64  C   UNL     1      -6.804 -15.080 -14.536  1.00  0.00     0.031 A 
BRANCH  51  65
ATOM     65  C   UNL     1      -1.506 -16.117 -11.550  1.00  0.00    -0.014 A 
ATOM     66  C   UNL     1      -1.342 -17.154 -10.619  1.00  0.00     0.009 A 
ATOM     67  C   UNL     1      -0.462 -15.825 -12.441  1.00  0.00     0.009 A 
ATOM     68  C   UNL     1      -0.146 -17.872 -10.568  1.00  0.00     0.001 A 
ATOM     69  C   UNL     1       0.725 -16.557 -12.400  1.00  0.00     0.001 A 
ATOM     70  C   UNL     1       0.883 -17.576 -11.461  1.00  0.00     0.000 A 
ENDBRANCH  51  65
BRANCH  52  71
ATOM     71  C   UNL     1      -9.998 -10.882 -11.577  1.00  0.00    -0.014 A 
ATOM     72  C   UNL     1     -11.189 -11.500 -11.169  1.00  0.00     0.009 A 
ATOM     73  C   UNL     1     -10.025  -9.532 -11.958  1.00  0.00     0.009 A 
ATOM     74  C   UNL     1     -12.386 -10.783 -11.152  1.00  0.00     0.001 A 
ATOM     75  C   UNL     1     -11.222  -8.813 -11.923  1.00  0.00     0.001 A 
ATOM     76  C   UNL     1     -12.401  -9.439 -11.524  1.00  0.00     0.000 A 
ENDBRANCH  52  71
BRANCH  64  77
ATOM     77  C   UNL     1      -7.302 -15.729 -15.792  1.00  0.00    -0.014 A 
ATOM     78  C   UNL     1      -7.224 -15.062 -17.024  1.00  0.00     0.009 A 
ATOM     79  C   UNL     1      -7.773 -17.050 -15.755  1.00  0.00     0.009 A 
ATOM     80  C   UNL     1      -7.621 -15.706 -18.197  1.00  0.00     0.001 A 
ATOM     81  C   UNL     1      -8.151 -17.697 -16.932  1.00  0.00     0.001 A 
ATOM     82  C   UNL     1      -8.078 -17.023 -18.151  1.00  0.00     0.000 A 
ENDBRANCH  64  77
ENDBRANCH  38  39
ENDBRANCH  30  33
ENDBRANCH  28  29
ENDBRANCH  27  28
ENDBRANCH   1  27
TORSDOF 14
