REMARK SMILES CCC[C@@]1(C(=O)NCCCCNC(=O)c2ccc(-c3c4nc(c(-c5ccccc5)c5ccc([nH]5)c(-c5ccccc5)c5nc(c(-c6ccccc6)c6ccc3[nH]6)C=C5)C=C4)cc2)CCN(C(=O)[C@@H]2CC[NH2+][C@@H]2C)C1
REMARK SMILES IDX 9 1 8 2 7 3 5 4 6 5 4 7 63 8 74 9 64 10 65 11 3 12 2 13 1 14
REMARK SMILES IDX 66 15 67 16 68 17 69 18 72 19 70 20 71 21 73 22 10 25 11 26
REMARK SMILES IDX 12 27 13 28 14 30 15 31 16 32 62 33 17 34 61 35 18 36 19 37
REMARK SMILES IDX 20 38 55 39 21 40 60 41 54 42 56 43 22 44 59 45 53 46 52 47
REMARK SMILES IDX 23 49 45 50 30 51 44 52 31 53 34 54 43 55 57 56 32 57 33 58
REMARK SMILES IDX 42 60 58 61 35 62 24 63 25 64 29 65 26 66 28 67 27 68 46 69
REMARK SMILES IDX 47 70 51 71 48 72 50 73 49 74 36 75 37 76 41 77 38 78 40 79
REMARK SMILES IDX 39 80
REMARK H PARENT 7 6 71 23 71 24 12 29 56 48 34 59
REMARK Flexibility Score: inf
ROOT
ATOM      1  C   UNL     1       4.112   1.228   0.672  1.00  0.00     0.023 C 
ENDROOT
BRANCH   1   2
ATOM      2  C   UNL     1       2.751   0.534   0.558  1.00  0.00     0.116 C 
BRANCH   2   3
ATOM      3  N   UNL     1       1.868   0.950   1.628  1.00  0.00    -0.356 N 
ATOM      4  C   UNL     1       0.945   1.939   1.753  1.00  0.00     0.228 C 
ATOM      5  O   UNL     1       0.418   2.012   2.869  1.00  0.00    -0.274 OA
ATOM      6  H   UNL     1       1.955   0.398   2.439  1.00  0.00     0.163 HD
BRANCH   4   7
ATOM      7  C   UNL     1       0.432   2.813   0.583  1.00  0.00     0.068 C 
ATOM      8  C   UNL     1       1.466   3.256  -0.462  1.00  0.00     0.040 C 
ATOM      9  C   UNL     1       0.051   4.219   1.179  1.00  0.00     0.136 C 
ATOM     10  C   UNL     1       2.230   4.335   0.257  1.00  0.00     0.120 C 
ATOM     11  N   UNL     1       1.172   5.107   0.839  1.00  0.00    -0.341 N 
BRANCH   7  12
ATOM     12  C   UNL     1      -0.822   2.075   0.031  1.00  0.00     0.018 C 
BRANCH  12  13
ATOM     13  C   UNL     1      -1.141   2.166  -1.466  1.00  0.00    -0.002 C 
ATOM     14  C   UNL     1      -0.298   1.233  -2.325  1.00  0.00     0.004 C 
ENDBRANCH  12  13
ENDBRANCH   7  12
BRANCH  11  15
ATOM     15  C   UNL     1       1.100   6.467   0.991  1.00  0.00     0.231 C 
ATOM     16  O   UNL     1       0.149   6.978   1.591  1.00  0.00    -0.274 OA
BRANCH  15  17
ATOM     17  C   UNL     1       2.137   7.390   0.334  1.00  0.00     0.142 C 
ATOM     18  C   UNL     1       2.173   7.277  -1.190  1.00  0.00     0.081 C 
ATOM     19  C   UNL     1       3.600   7.364   0.776  1.00  0.00     0.192 C 
ATOM     20  C   UNL     1       3.625   7.019  -1.570  1.00  0.00     0.261 C 
ATOM     21  N   UNL     1       4.366   6.782  -0.334  1.00  0.00    -0.343 N 
ATOM     22  C   UNL     1       3.928   6.658   2.084  1.00  0.00     0.076 C 
ATOM     23  H   UNL     1       5.283   7.225  -0.391  1.00  0.00     0.346 HD
ATOM     24  H   UNL     1       4.498   5.781  -0.187  1.00  0.00     0.346 HD
ENDBRANCH  15  17
ENDBRANCH  11  15
ENDBRANCH   4   7
ENDBRANCH   2   3
ENDBRANCH   1   2
BRANCH   1  25
ATOM     25  C   UNL     1       5.073   0.560   1.658  1.00  0.00     0.023 C 
BRANCH  25  26
ATOM     26  C   UNL     1       5.502  -0.843   1.257  1.00  0.00     0.116 C 
BRANCH  26  27
ATOM     27  N   UNL     1       6.152  -0.897  -0.042  1.00  0.00    -0.352 N 
ATOM     28  C   UNL     1       7.091  -1.805  -0.483  1.00  0.00     0.251 C 
ATOM     29  H   UNL     1       5.888  -0.201  -0.686  1.00  0.00     0.163 HD
ATOM     30  O   UNL     1       7.628  -1.681  -1.565  1.00  0.00    -0.269 OA
BRANCH  28  31
ATOM     31  C   UNL     1       7.465  -2.910   0.424  1.00  0.00     0.039 A 
ATOM     32  C   UNL     1       8.813  -3.094   0.737  1.00  0.00     0.014 A 
ATOM     33  C   UNL     1       6.478  -3.702   1.014  1.00  0.00     0.014 A 
ATOM     34  C   UNL     1       9.167  -4.038   1.700  1.00  0.00     0.010 A 
ATOM     35  C   UNL     1       6.826  -4.587   2.025  1.00  0.00     0.010 A 
ATOM     36  C   UNL     1       8.173  -4.764   2.376  1.00  0.00    -0.014 A 
BRANCH  36  37
ATOM     37  C   UNL     1       8.514  -5.729   3.447  1.00  0.00     0.031 A 
ATOM     38  C   UNL     1       8.222  -7.189   3.253  1.00  0.00     0.074 A 
ATOM     39  C   UNL     1       9.015  -5.285   4.615  1.00  0.00     0.049 A 
ATOM     40  N   UNL     1       8.364  -8.179   4.096  1.00  0.00    -0.248 NA
ATOM     41  C   UNL     1       7.668  -7.583   1.947  1.00  0.00     0.031 C 
ATOM     42  C   UNL     1       9.313  -3.888   4.937  1.00  0.00     0.029 A 
ATOM     43  N   UNL     1       9.356  -5.970   5.753  1.00  0.00    -0.354 N 
ATOM     44  C   UNL     1       7.899  -9.306   3.432  1.00  0.00     0.074 A 
ATOM     45  C   UNL     1       7.420  -8.870   2.138  1.00  0.00     0.031 C 
ATOM     46  C   UNL     1       9.824  -3.824   6.178  1.00  0.00     0.029 A 
ATOM     47  C   UNL     1       9.851  -5.166   6.750  1.00  0.00     0.049 A 
ATOM     48  H   UNL     1       9.256  -6.944   5.846  1.00  0.00     0.167 HD
ATOM     49  C   UNL     1       7.889 -10.593   3.850  1.00  0.00     0.031 A 
ATOM     50  C   UNL     1      10.277  -5.478   7.988  1.00  0.00     0.031 A 
ATOM     51  C   UNL     1       8.376 -11.028   5.131  1.00  0.00     0.049 A 
ATOM     52  C   UNL     1      10.240  -6.910   8.439  1.00  0.00     0.074 A 
ATOM     53  C   UNL     1       8.455 -12.315   5.633  1.00  0.00     0.029 A 
ATOM     54  N   UNL     1       8.869 -10.183   6.112  1.00  0.00    -0.354 N 
ATOM     55  N   UNL     1       9.844  -7.973   7.781  1.00  0.00    -0.248 NA
ATOM     56  C   UNL     1      10.716  -7.186   9.802  1.00  0.00     0.031 C 
ATOM     57  C   UNL     1       8.960 -12.244   6.935  1.00  0.00     0.029 A 
ATOM     58  C   UNL     1       9.240 -10.918   7.225  1.00  0.00     0.049 A 
ATOM     59  H   UNL     1       8.945  -9.205   6.030  1.00  0.00     0.167 HD
ATOM     60  C   UNL     1      10.051  -9.047   8.637  1.00  0.00     0.074 A 
ATOM     61  C   UNL     1      10.615  -8.507   9.858  1.00  0.00     0.031 C 
ATOM     62  C   UNL     1       9.802 -10.362   8.429  1.00  0.00     0.031 A 
BRANCH  49  63
ATOM     63  C   UNL     1       7.322 -11.614   2.904  1.00  0.00    -0.014 A 
ATOM     64  C   UNL     1       7.996 -11.960   1.721  1.00  0.00     0.009 A 
ATOM     65  C   UNL     1       6.099 -12.235   3.195  1.00  0.00     0.009 A 
ATOM     66  C   UNL     1       7.433 -12.871   0.826  1.00  0.00     0.001 A 
ATOM     67  C   UNL     1       5.552 -13.169   2.313  1.00  0.00     0.001 A 
ATOM     68  C   UNL     1       6.213 -13.476   1.124  1.00  0.00     0.000 A 
ENDBRANCH  49  63
BRANCH  50  69
ATOM     69  C   UNL     1      10.812  -4.416   8.879  1.00  0.00    -0.014 A 
ATOM     70  C   UNL     1      12.189  -4.341   9.137  1.00  0.00     0.009 A 
ATOM     71  C   UNL     1       9.957  -3.473   9.469  1.00  0.00     0.009 A 
ATOM     72  C   UNL     1      12.698  -3.356   9.985  1.00  0.00     0.001 A 
ATOM     73  C   UNL     1      10.472  -2.474  10.298  1.00  0.00     0.001 A 
ATOM     74  C   UNL     1      11.840  -2.420  10.561  1.00  0.00     0.000 A 
ENDBRANCH  50  69
BRANCH  62  75
ATOM     75  C   UNL     1      10.176 -11.313   9.529  1.00  0.00    -0.014 A 
ATOM     76  C   UNL     1       9.414 -11.405  10.703  1.00  0.00     0.009 A 
ATOM     77  C   UNL     1      11.282 -12.161   9.364  1.00  0.00     0.009 A 
ATOM     78  C   UNL     1       9.771 -12.309  11.705  1.00  0.00     0.001 A 
ATOM     79  C   UNL     1      11.622 -13.082  10.356  1.00  0.00     0.001 A 
ATOM     80  C   UNL     1      10.871 -13.150  11.528  1.00  0.00     0.000 A 
ENDBRANCH  62  75
ENDBRANCH  36  37
ENDBRANCH  28  31
ENDBRANCH  26  27
ENDBRANCH  25  26
ENDBRANCH   1  25
TORSDOF 15
