REMARK SMILES CC(C)Oc1ccc(/C=C(\NC(=O)c2ccccc2)C(=O)NCCCCNC(=O)c2ccc(-c3c4nc(c(-c5ccccc5)c5ccc([nH]5)c(-c5ccccc5)c5nc(c(-c6ccccc6)c6ccc3[nH]6)C=C5)C=C4)cc2)cc1
REMARK SMILES IDX 24 1 23 2 22 3 20 4 21 5 10 7 9 8 8 9 5 10 6 11 79 12 7 13
REMARK SMILES IDX 78 14 4 15 2 16 1 17 3 18 11 19 12 20 13 22 14 23 15 24
REMARK SMILES IDX 19 25 16 26 18 27 17 28 25 29 26 30 27 31 28 32 29 34 30 35
REMARK SMILES IDX 31 36 77 37 32 38 76 39 33 40 34 41 35 42 70 43 36 44 75 45
REMARK SMILES IDX 69 46 71 47 37 48 74 49 68 50 67 51 38 53 60 54 45 55 59 56
REMARK SMILES IDX 46 57 49 58 58 59 72 60 47 61 48 62 57 64 73 65 50 66 39 67
REMARK SMILES IDX 40 68 44 69 41 70 43 71 42 72 61 73 62 74 66 75 63 76 65 77
REMARK SMILES IDX 64 78 51 79 52 80 56 81 53 82 55 83 54 84
REMARK H PARENT 22 6 11 21 27 33 71 52 49 63
REMARK Flexibility Score: inf
ROOT
ATOM      1  C   UNL     1      -7.131   7.693  -1.210  1.00  0.00     0.023 C 
ENDROOT
BRANCH   1   2
ATOM      2  C   UNL     1      -7.010   5.939  -2.255  1.00  0.00     0.116 C 
BRANCH   2   3
ATOM      3  N   UNL     1      -5.647   6.368  -3.548  1.00  0.00    -0.351 N 
ATOM      4  C   UNL     1      -4.386   5.854  -3.683  1.00  0.00     0.267 C 
ATOM      5  O   UNL     1      -3.712   6.066  -4.673  1.00  0.00    -0.268 OA
ATOM      6  H   UNL     1      -5.894   7.056  -4.206  1.00  0.00     0.163 HD
BRANCH   4   7
ATOM      7  C   UNL     1      -3.919   5.020  -2.533  1.00  0.00     0.107 C 
ATOM      8  C   UNL     1      -3.024   4.047  -2.786  1.00  0.00     0.040 C 
BRANCH   8   9
ATOM      9  C   UNL     1      -2.449   3.023  -1.883  1.00  0.00    -0.023 A 
ATOM     10  C   UNL     1      -1.204   1.071  -0.271  1.00  0.00     0.119 A 
ATOM     11  C   UNL     1      -2.425   1.617   0.111  1.00  0.00     0.047 A 
ATOM     12  C   UNL     1      -0.653   1.413  -1.498  1.00  0.00     0.047 A 
ATOM     13  C   UNL     1      -3.052   2.573  -0.698  1.00  0.00     0.012 A 
ATOM     14  C   UNL     1      -1.262   2.395  -2.288  1.00  0.00     0.012 A 
BRANCH  10  15
ATOM     15  O   UNL     1      -0.642   0.150   0.562  1.00  0.00    -0.491 OA
BRANCH  15  16
ATOM     16  C   UNL     1       0.649   0.466   1.120  1.00  0.00     0.167 C 
ATOM     17  C   UNL     1       1.760  -0.226   0.336  1.00  0.00     0.052 C 
ATOM     18  C   UNL     1       0.944   1.949   1.359  1.00  0.00     0.052 C 
ENDBRANCH  15  16
ENDBRANCH  10  15
ENDBRANCH   8   9
BRANCH   7  19
ATOM     19  N   UNL     1      -4.392   5.291  -1.283  1.00  0.00    -0.317 N 
ATOM     20  C   UNL     1      -5.571   5.898  -0.903  1.00  0.00     0.255 C 
ATOM     21  H   UNL     1      -3.805   5.013  -0.542  1.00  0.00     0.170 HD
ATOM     22  O   UNL     1      -5.764   6.039   0.296  1.00  0.00    -0.269 OA
BRANCH  20  23
ATOM     23  C   UNL     1      -7.010   5.939  -2.255  1.00  0.00     0.040 A 
ATOM     24  C   UNL     1      -8.199   6.949  -3.288  1.00  0.00     0.014 A 
ATOM     25  C   UNL     1      -6.942   4.329  -3.220  1.00  0.00     0.014 A 
ATOM     26  C   UNL     1      -8.817   6.448  -4.463  1.00  0.00     0.001 A 
ATOM     27  C   UNL     1      -7.669   4.116  -4.414  1.00  0.00     0.001 A 
ATOM     28  C   UNL     1      -8.534   5.130  -4.970  1.00  0.00     0.000 A 
ENDBRANCH  20  23
ENDBRANCH   7  19
ENDBRANCH   4   7
ENDBRANCH   2   3
ENDBRANCH   1   2
BRANCH   1  29
ATOM     29  C   UNL     1      -7.106   9.117  -1.892  1.00  0.00     0.023 C 
BRANCH  29  30
ATOM     30  C   UNL     1      -8.405   9.959  -1.831  1.00  0.00     0.116 C 
BRANCH  30  31
ATOM     31  N   UNL     1      -9.269   9.617  -0.714  1.00  0.00    -0.352 N 
ATOM     32  C   UNL     1     -10.630   9.731  -0.574  1.00  0.00     0.251 C 
ATOM     33  H   UNL     1      -8.803   9.244   0.069  1.00  0.00     0.163 HD
ATOM     34  O   UNL     1     -11.158   9.518   0.512  1.00  0.00    -0.269 OA
BRANCH  32  35
ATOM     35  C   UNL     1     -11.471  10.168  -1.706  1.00  0.00     0.039 A 
ATOM     36  C   UNL     1     -12.249  11.316  -1.535  1.00  0.00     0.014 A 
ATOM     37  C   UNL     1     -11.537   9.446  -2.901  1.00  0.00     0.014 A 
ATOM     38  C   UNL     1     -13.031  11.789  -2.590  1.00  0.00     0.010 A 
ATOM     39  C   UNL     1     -12.299   9.935  -3.968  1.00  0.00     0.010 A 
ATOM     40  C   UNL     1     -13.033  11.122  -3.827  1.00  0.00    -0.014 A 
BRANCH  40  41
ATOM     41  C   UNL     1     -13.712  11.742  -4.990  1.00  0.00     0.031 A 
ATOM     42  C   UNL     1     -15.026  11.237  -5.504  1.00  0.00     0.074 A 
ATOM     43  C   UNL     1     -13.117  12.788  -5.595  1.00  0.00     0.049 A 
ATOM     44  N   UNL     1     -15.782  11.738  -6.450  1.00  0.00    -0.248 NA
ATOM     45  C   UNL     1     -15.555  10.009  -4.894  1.00  0.00     0.031 C 
ATOM     46  C   UNL     1     -11.816  13.350  -5.225  1.00  0.00     0.029 A 
ATOM     47  N   UNL     1     -13.536  13.573  -6.639  1.00  0.00    -0.354 N 
ATOM     48  C   UNL     1     -16.872  10.887  -6.555  1.00  0.00     0.074 A 
ATOM     49  C   UNL     1     -16.671   9.825  -5.590  1.00  0.00     0.031 C 
ATOM     50  C   UNL     1     -11.559  14.410  -6.007  1.00  0.00     0.029 A 
ATOM     51  C   UNL     1     -12.672  14.598  -6.933  1.00  0.00     0.049 A 
ATOM     52  H   UNL     1     -14.375  13.416  -7.130  1.00  0.00     0.167 HD
ATOM     53  C   UNL     1     -17.948  10.986  -7.373  1.00  0.00     0.031 A 
ATOM     54  C   UNL     1     -12.770  15.595  -7.830  1.00  0.00     0.031 A 
ATOM     55  C   UNL     1     -18.168  12.047  -8.321  1.00  0.00     0.049 A 
ATOM     56  C   UNL     1     -13.989  15.705  -8.693  1.00  0.00     0.074 A 
ATOM     57  C   UNL     1     -19.267  12.261  -9.137  1.00  0.00     0.029 A 
ATOM     58  N   UNL     1     -17.271  13.068  -8.585  1.00  0.00    -0.354 N 
ATOM     59  N   UNL     1     -15.047  14.934  -8.724  1.00  0.00    -0.248 NA
ATOM     60  C   UNL     1     -14.031  16.834  -9.634  1.00  0.00     0.031 C 
ATOM     61  C   UNL     1     -19.025  13.403  -9.911  1.00  0.00     0.029 A 
ATOM     62  C   UNL     1     -17.784  13.907  -9.561  1.00  0.00     0.049 A 
ATOM     63  H   UNL     1     -16.398  13.182  -8.144  1.00  0.00     0.167 HD
ATOM     64  C   UNL     1     -15.889  15.492  -9.675  1.00  0.00     0.074 A 
ATOM     65  C   UNL     1     -15.221  16.668 -10.196  1.00  0.00     0.031 C 
ATOM     66  C   UNL     1     -17.110  15.067 -10.076  1.00  0.00     0.031 A 
BRANCH  53  67
ATOM     67  C   UNL     1     -18.985   9.908  -7.279  1.00  0.00    -0.014 A 
ATOM     68  C   UNL     1     -19.948   9.927  -6.260  1.00  0.00     0.009 A 
ATOM     69  C   UNL     1     -19.034   8.899  -8.252  1.00  0.00     0.009 A 
ATOM     70  C   UNL     1     -20.934   8.940  -6.206  1.00  0.00     0.001 A 
ATOM     71  C   UNL     1     -20.029   7.920  -8.201  1.00  0.00     0.001 A 
ATOM     72  C   UNL     1     -20.975   7.940  -7.177  1.00  0.00     0.000 A 
ENDBRANCH  53  67
BRANCH  54  73
ATOM     73  C   UNL     1     -11.691  16.604  -7.919  1.00  0.00    -0.014 A 
ATOM     74  C   UNL     1     -11.825  17.836  -7.261  1.00  0.00     0.009 A 
ATOM     75  C   UNL     1     -10.521  16.333  -8.641  1.00  0.00     0.009 A 
ATOM     76  C   UNL     1     -10.807  18.787  -7.336  1.00  0.00     0.001 A 
ATOM     77  C   UNL     1      -9.500  17.283  -8.705  1.00  0.00     0.001 A 
ATOM     78  C   UNL     1      -9.645  18.509  -8.056  1.00  0.00     0.000 A 
ENDBRANCH  54  73
BRANCH  66  79
ATOM     79  C   UNL     1     -17.803  15.889 -11.119  1.00  0.00    -0.014 A 
ATOM     80  C   UNL     1     -17.479  15.747 -12.476  1.00  0.00     0.009 A 
ATOM     81  C   UNL     1     -18.796  16.806 -10.742  1.00  0.00     0.009 A 
ATOM     82  C   UNL     1     -18.122  16.528 -13.438  1.00  0.00     0.001 A 
ATOM     83  C   UNL     1     -19.445  17.576 -11.707  1.00  0.00     0.001 A 
ATOM     84  C   UNL     1     -19.104  17.441 -13.053  1.00  0.00     0.000 A 
ENDBRANCH  66  79
ENDBRANCH  40  41
ENDBRANCH  32  35
ENDBRANCH  30  31
ENDBRANCH  29  30
ENDBRANCH   1  29
TORSDOF 16
