REMARK SMILES Cc1ccc(C(=O)NCCCCNC(=O)c2ccc(-c3c4nc(c(-c5ccccc5)c5ccc([nH]5)c(-c5ccccc5)c5nc(c(-c6ccccc6)c6ccc3[nH]6)C=C5)C=C4)cc2)cc1S(=O)(=O)N(C)[C@H]1CCSC1
REMARK SMILES IDX 10 1 9 2 8 3 6 4 7 5 5 7 1 8 2 9 3 10 65 11 4 12 64 13 66 14
REMARK SMILES IDX 67 15 68 16 69 17 70 18 71 19 72 20 75 21 73 22 74 23 11 24
REMARK SMILES IDX 12 25 13 26 14 27 15 29 16 30 17 31 63 32 18 33 62 34 19 35
REMARK SMILES IDX 20 36 21 37 56 38 22 39 61 40 55 41 57 42 23 43 60 44 54 45
REMARK SMILES IDX 53 46 24 48 46 49 31 50 45 51 32 52 35 53 44 54 58 55 33 56
REMARK SMILES IDX 34 57 43 59 59 60 36 61 25 62 26 63 30 64 27 65 29 66 28 67
REMARK SMILES IDX 47 68 48 69 52 70 49 71 51 72 50 73 37 74 38 75 42 76 39 77
REMARK SMILES IDX 41 78 40 79
REMARK H PARENT 8 6 13 28 57 47 35 58
REMARK Flexibility Score: inf
ROOT
ATOM      1  C   UNL     1      -2.581   5.706  -3.428  1.00  0.00     0.023 C 
ENDROOT
BRANCH   1   2
ATOM      2  C   UNL     1      -2.886   5.352  -1.962  1.00  0.00     0.116 C 
BRANCH   2   3
ATOM      3  N   UNL     1      -3.515   4.048  -1.843  1.00  0.00    -0.352 N 
ATOM      4  C   UNL     1      -3.034   2.779  -1.648  1.00  0.00     0.251 C 
ATOM      5  O   UNL     1      -3.871   1.878  -1.560  1.00  0.00    -0.269 OA
ATOM      6  H   UNL     1      -4.496   4.083  -1.919  1.00  0.00     0.163 HD
BRANCH   4   7
ATOM      7  C   UNL     1      -1.589   2.430  -1.508  1.00  0.00     0.041 A 
ATOM      8  C   UNL     1       2.477   0.975  -1.013  1.00  0.00     0.046 C 
ATOM      9  C   UNL     1       1.131   1.610  -1.162  1.00  0.00    -0.031 A 
ATOM     10  C   UNL     1       0.049   0.747  -0.888  1.00  0.00     0.005 A 
ATOM     11  C   UNL     1       0.825   2.900  -1.615  1.00  0.00     0.086 A 
ATOM     12  C   UNL     1      -1.280   1.151  -1.041  1.00  0.00     0.014 A 
ATOM     13  C   UNL     1      -0.524   3.266  -1.824  1.00  0.00     0.035 A 
BRANCH  11  14
ATOM     14  S   UNL     1       1.946   4.256  -1.970  1.00  0.00     0.243 S 
ATOM     15  O   UNL     1       2.131   4.260  -3.394  1.00  0.00    -0.207 OA
ATOM     16  O   UNL     1       1.378   5.414  -1.286  1.00  0.00    -0.207 OA
BRANCH  14  17
ATOM     17  N   UNL     1       3.413   3.939  -1.217  1.00  0.00    -0.197 NA
ATOM     18  C   UNL     1       4.549   3.611  -2.084  1.00  0.00     0.125 C 
BRANCH  17  19
ATOM     19  C   UNL     1       3.559   4.216   0.228  1.00  0.00     0.083 C 
ATOM     20  C   UNL     1       4.493   3.261   0.969  1.00  0.00     0.032 C 
ATOM     21  C   UNL     1       4.088   5.617   0.535  1.00  0.00     0.089 C 
ATOM     22  C   UNL     1       4.464   3.727   2.415  1.00  0.00     0.071 C 
ATOM     23  S   UNL     1       4.569   5.536   2.296  1.00  0.00    -0.160 SA
ENDBRANCH  17  19
ENDBRANCH  14  17
ENDBRANCH  11  14
ENDBRANCH   4   7
ENDBRANCH   2   3
ENDBRANCH   1   2
BRANCH   1  24
ATOM     24  C   UNL     1      -3.811   6.022  -4.285  1.00  0.00     0.023 C 
BRANCH  24  25
ATOM     25  C   UNL     1      -4.571   7.252  -3.827  1.00  0.00     0.116 C 
BRANCH  25  26
ATOM     26  N   UNL     1      -3.955   8.528  -4.152  1.00  0.00    -0.352 N 
ATOM     27  C   UNL     1      -4.375   9.818  -3.870  1.00  0.00     0.251 C 
ATOM     28  H   UNL     1      -3.108   8.466  -4.650  1.00  0.00     0.163 HD
ATOM     29  O   UNL     1      -3.792  10.759  -4.405  1.00  0.00    -0.269 OA
BRANCH  27  30
ATOM     30  C   UNL     1      -5.369  10.096  -2.792  1.00  0.00     0.039 A 
ATOM     31  C   UNL     1      -5.222  11.304  -2.092  1.00  0.00     0.014 A 
ATOM     32  C   UNL     1      -6.098   9.069  -2.217  1.00  0.00     0.014 A 
ATOM     33  C   UNL     1      -5.468  11.329  -0.726  1.00  0.00     0.010 A 
ATOM     34  C   UNL     1      -6.127   9.005  -0.852  1.00  0.00     0.010 A 
ATOM     35  C   UNL     1      -5.754  10.123  -0.110  1.00  0.00    -0.014 A 
BRANCH  35  36
ATOM     36  C   UNL     1      -5.829   9.905   1.315  1.00  0.00     0.031 A 
ATOM     37  C   UNL     1      -7.174   9.932   1.904  1.00  0.00     0.074 A 
ATOM     38  C   UNL     1      -4.730   9.424   1.935  1.00  0.00     0.049 A 
ATOM     39  N   UNL     1      -7.418   9.914   3.161  1.00  0.00    -0.248 NA
ATOM     40  C   UNL     1      -8.388  10.028   1.085  1.00  0.00     0.031 C 
ATOM     41  C   UNL     1      -4.625   8.729   3.212  1.00  0.00     0.029 A 
ATOM     42  N   UNL     1      -3.406   9.694   1.588  1.00  0.00    -0.354 N 
ATOM     43  C   UNL     1      -8.759   9.643   3.301  1.00  0.00     0.074 A 
ATOM     44  C   UNL     1      -9.341   9.864   2.005  1.00  0.00     0.031 C 
ATOM     45  C   UNL     1      -3.373   8.874   3.685  1.00  0.00     0.029 A 
ATOM     46  C   UNL     1      -2.695   9.810   2.799  1.00  0.00     0.049 A 
ATOM     47  H   UNL     1      -3.041   9.785   0.678  1.00  0.00     0.167 HD
ATOM     48  C   UNL     1      -9.175   9.087   4.469  1.00  0.00     0.031 A 
ATOM     49  C   UNL     1      -2.228  11.037   3.189  1.00  0.00     0.031 A 
ATOM     50  C   UNL     1      -8.098   9.132   5.456  1.00  0.00     0.049 A 
ATOM     51  C   UNL     1      -2.918  11.526   4.446  1.00  0.00     0.074 A 
ATOM     52  C   UNL     1      -7.187   8.184   5.889  1.00  0.00     0.029 A 
ATOM     53  N   UNL     1      -7.589  10.374   5.826  1.00  0.00    -0.354 N 
ATOM     54  N   UNL     1      -4.130  11.186   4.798  1.00  0.00    -0.248 NA
ATOM     55  C   UNL     1      -2.269  12.387   5.431  1.00  0.00     0.031 C 
ATOM     56  C   UNL     1      -6.054   8.884   6.395  1.00  0.00     0.029 A 
ATOM     57  C   UNL     1      -6.304  10.244   6.315  1.00  0.00     0.049 A 
ATOM     58  H   UNL     1      -8.077  11.226   5.750  1.00  0.00     0.167 HD
ATOM     59  C   UNL     1      -4.400  11.692   6.042  1.00  0.00     0.074 A 
ATOM     60  C   UNL     1      -3.215  12.459   6.384  1.00  0.00     0.031 C 
ATOM     61  C   UNL     1      -5.553  11.424   6.724  1.00  0.00     0.031 A 
BRANCH  48  62
ATOM     62  C   UNL     1     -10.435   8.277   4.636  1.00  0.00    -0.014 A 
ATOM     63  C   UNL     1     -10.648   7.606   5.854  1.00  0.00     0.009 A 
ATOM     64  C   UNL     1     -11.386   8.033   3.627  1.00  0.00     0.009 A 
ATOM     65  C   UNL     1     -11.727   6.731   6.043  1.00  0.00     0.001 A 
ATOM     66  C   UNL     1     -12.478   7.174   3.814  1.00  0.00     0.001 A 
ATOM     67  C   UNL     1     -12.644   6.515   5.022  1.00  0.00     0.000 A 
ENDBRANCH  48  62
BRANCH  49  68
ATOM     68  C   UNL     1      -1.835  11.884   2.015  1.00  0.00    -0.014 A 
ATOM     69  C   UNL     1      -0.798  11.390   1.190  1.00  0.00     0.009 A 
ATOM     70  C   UNL     1      -2.731  12.815   1.471  1.00  0.00     0.009 A 
ATOM     71  C   UNL     1      -0.797  11.645  -0.185  1.00  0.00     0.001 A 
ATOM     72  C   UNL     1      -2.692  13.104   0.099  1.00  0.00     0.001 A 
ATOM     73  C   UNL     1      -1.772  12.468  -0.737  1.00  0.00     0.000 A 
ENDBRANCH  49  68
BRANCH  61  74
ATOM     74  C   UNL     1      -6.054  12.204   7.915  1.00  0.00    -0.014 A 
ATOM     75  C   UNL     1      -5.639  13.505   8.227  1.00  0.00     0.009 A 
ATOM     76  C   UNL     1      -7.116  11.677   8.685  1.00  0.00     0.009 A 
ATOM     77  C   UNL     1      -6.207  14.215   9.292  1.00  0.00     0.001 A 
ATOM     78  C   UNL     1      -7.728  12.405   9.706  1.00  0.00     0.001 A 
ATOM     79  C   UNL     1      -7.257  13.670  10.023  1.00  0.00     0.000 A 
ENDBRANCH  61  74
ENDBRANCH  35  36
ENDBRANCH  27  30
ENDBRANCH  25  26
ENDBRANCH  24  25
ENDBRANCH   1  24
TORSDOF 14
