REMARK SMILES [NH3+][C@]1(C(=O)NCCCCNC(=O)c2ccc(-c3c4nc(c(-c5ccccc5)c5ccc([nH]5)c(-c5ccccc5)c5nc(c(-c6ccccc6)c6ccc3[nH]6)C=C5)C=C4)cc2)CC[N@H+](Cc2ccccc2O)C1
REMARK SMILES IDX 7 1 6 2 5 3 3 4 4 5 2 7 61 8 72 9 62 10 63 11 1 13 64 17
REMARK SMILES IDX 65 18 66 19 70 20 67 21 69 22 68 23 71 24 8 26 9 27 10 28
REMARK SMILES IDX 11 29 12 31 13 32 14 33 60 34 15 35 59 36 16 37 17 38 18 39
REMARK SMILES IDX 53 40 19 41 58 42 52 43 54 44 20 45 57 46 51 47 50 48 21 50
REMARK SMILES IDX 43 51 28 52 42 53 29 54 32 55 41 56 55 57 30 58 31 59 40 61
REMARK SMILES IDX 56 62 33 63 22 64 23 65 27 66 24 67 26 68 25 69 44 70 45 71
REMARK SMILES IDX 49 72 46 73 48 74 47 75 34 76 35 77 39 78 36 79 38 80 37 81
REMARK H PARENT 5 6 63 12 1 14 1 15 1 16 71 25 10 30 54 49 32 60
REMARK Flexibility Score: inf
ROOT
ATOM      1  C   UNL     1       4.416  -1.115   0.659  1.00  0.00     0.023 C 
ENDROOT
BRANCH   1   2
ATOM      2  C   UNL     1       3.608   0.178   0.749  1.00  0.00     0.116 C 
BRANCH   2   3
ATOM      3  N   UNL     1       2.566   0.245  -0.260  1.00  0.00    -0.350 N 
ATOM      4  C   UNL     1       1.210   0.170  -0.151  1.00  0.00     0.287 C 
ATOM      5  O   UNL     1       0.568   0.266  -1.205  1.00  0.00    -0.268 OA
ATOM      6  H   UNL     1       2.895   0.366  -1.180  1.00  0.00     0.163 HD
BRANCH   4   7
ATOM      7  C   UNL     1       0.482  -0.013   1.212  1.00  0.00     0.228 C 
ATOM      8  C   UNL     1       0.928  -1.245   1.984  1.00  0.00     0.146 C 
ATOM      9  C   UNL     1       0.742   1.178   2.152  1.00  0.00     0.342 C 
ATOM     10  C   UNL     1       1.002  -0.815   3.439  1.00  0.00     0.270 C 
ATOM     11  N   UNL     1       1.041   0.644   3.488  1.00  0.00    -0.325 N 
ATOM     12  H   UNL     1       1.990   0.927   3.731  1.00  0.00     0.348 HD
BRANCH   7  13
ATOM     13  N   UNL     1      -0.981  -0.143   0.947  1.00  0.00    -0.340 N 
ATOM     14  H   UNL     1      -1.477  -0.265   1.830  1.00  0.00     0.345 HD
ATOM     15  H   UNL     1      -1.148  -0.953   0.350  1.00  0.00     0.345 HD
ATOM     16  H   UNL     1      -1.319   0.698   0.480  1.00  0.00     0.345 HD
ENDBRANCH   7  13
BRANCH  11  17
ATOM     17  C   UNL     1       0.285   1.253   4.594  1.00  0.00     0.303 C 
BRANCH  17  18
ATOM     18  C   UNL     1      -1.230   1.163   4.521  1.00  0.00     0.048 A 
ATOM     19  C   UNL     1      -1.934   2.225   3.916  1.00  0.00     0.013 A 
ATOM     20  C   UNL     1      -1.980   0.063   4.960  1.00  0.00     0.124 A 
ATOM     21  C   UNL     1      -3.305   2.144   3.669  1.00  0.00     0.001 A 
ATOM     22  C   UNL     1      -3.346  -0.033   4.691  1.00  0.00     0.046 A 
ATOM     23  C   UNL     1      -4.007   1.000   4.032  1.00  0.00     0.004 A 
BRANCH  20  24
ATOM     24  O   UNL     1      -1.459  -0.976   5.681  1.00  0.00    -0.507 OA
ATOM     25  H   UNL     1      -0.548  -0.983   5.901  1.00  0.00     0.293 HD
ENDBRANCH  20  24
ENDBRANCH  17  18
ENDBRANCH  11  17
ENDBRANCH   4   7
ENDBRANCH   2   3
ENDBRANCH   1   2
BRANCH   1  26
ATOM     26  C   UNL     1       5.228  -1.278  -0.624  1.00  0.00     0.023 C 
BRANCH  26  27
ATOM     27  C   UNL     1       6.167  -0.125  -0.942  1.00  0.00     0.116 C 
BRANCH  27  28
ATOM     28  N   UNL     1       7.107   0.163   0.131  1.00  0.00    -0.352 N 
ATOM     29  C   UNL     1       8.446   0.465   0.041  1.00  0.00     0.251 C 
ATOM     30  H   UNL     1       6.736   0.138   1.042  1.00  0.00     0.163 HD
ATOM     31  O   UNL     1       9.130   0.577   1.048  1.00  0.00    -0.269 OA
BRANCH  29  32
ATOM     32  C   UNL     1       9.056   0.612  -1.296  1.00  0.00     0.039 A 
ATOM     33  C   UNL     1      10.224  -0.097  -1.584  1.00  0.00     0.014 A 
ATOM     34  C   UNL     1       8.445   1.403  -2.272  1.00  0.00     0.014 A 
ATOM     35  C   UNL     1      10.742  -0.069  -2.880  1.00  0.00     0.010 A 
ATOM     36  C   UNL     1       8.918   1.368  -3.578  1.00  0.00     0.010 A 
ATOM     37  C   UNL     1      10.070   0.632  -3.894  1.00  0.00    -0.014 A 
BRANCH  37  38
ATOM     38  C   UNL     1      10.554   0.609  -5.296  1.00  0.00     0.031 A 
ATOM     39  C   UNL     1      11.024   1.878  -5.949  1.00  0.00     0.074 A 
ATOM     40  C   UNL     1      10.501  -0.537  -6.002  1.00  0.00     0.049 A 
ATOM     41  N   UNL     1      11.418   2.074  -7.181  1.00  0.00    -0.248 NA
ATOM     42  C   UNL     1      11.022   3.092  -5.116  1.00  0.00     0.031 C 
ATOM     43  C   UNL     1      10.024  -1.827  -5.497  1.00  0.00     0.029 A 
ATOM     44  N   UNL     1      10.849  -0.799  -7.303  1.00  0.00    -0.354 N 
ATOM     45  C   UNL     1      11.688   3.433  -7.276  1.00  0.00     0.074 A 
ATOM     46  C   UNL     1      11.369   4.021  -5.994  1.00  0.00     0.031 C 
ATOM     47  C   UNL     1      10.136  -2.748  -6.468  1.00  0.00     0.029 A 
ATOM     48  C   UNL     1      10.656  -2.108  -7.671  1.00  0.00     0.049 A 
ATOM     49  H   UNL     1      11.203  -0.114  -7.915  1.00  0.00     0.167 HD
ATOM     50  C   UNL     1      12.177   4.128  -8.331  1.00  0.00     0.031 A 
ATOM     51  C   UNL     1      10.872  -2.724  -8.849  1.00  0.00     0.031 A 
ATOM     52  C   UNL     1      12.515   3.541  -9.598  1.00  0.00     0.049 A 
ATOM     53  C   UNL     1      11.418  -1.931 -10.003  1.00  0.00     0.074 A 
ATOM     54  C   UNL     1      13.080   4.148 -10.706  1.00  0.00     0.029 A 
ATOM     55  N   UNL     1      12.319   2.209  -9.926  1.00  0.00    -0.354 N 
ATOM     56  N   UNL     1      11.735  -0.660 -10.055  1.00  0.00    -0.248 NA
ATOM     57  C   UNL     1      11.644  -2.662 -11.258  1.00  0.00     0.031 C 
ATOM     58  C   UNL     1      13.186   3.191 -11.721  1.00  0.00     0.029 A 
ATOM     59  C   UNL     1      12.732   1.978 -11.227  1.00  0.00     0.049 A 
ATOM     60  H   UNL     1      11.942   1.528  -9.324  1.00  0.00     0.167 HD
ATOM     61  C   UNL     1      12.224  -0.445 -11.337  1.00  0.00     0.074 A 
ATOM     62  C   UNL     1      12.173  -1.719 -12.025  1.00  0.00     0.031 C 
ATOM     63  C   UNL     1      12.676   0.704 -11.895  1.00  0.00     0.031 A 
BRANCH  50  64
ATOM     64  C   UNL     1      12.370   5.607  -8.151  1.00  0.00    -0.014 A 
ATOM     65  C   UNL     1      13.385   6.114  -7.324  1.00  0.00     0.009 A 
ATOM     66  C   UNL     1      11.540   6.507  -8.838  1.00  0.00     0.009 A 
ATOM     67  C   UNL     1      13.541   7.491  -7.158  1.00  0.00     0.001 A 
ATOM     68  C   UNL     1      11.717   7.885  -8.693  1.00  0.00     0.001 A 
ATOM     69  C   UNL     1      12.710   8.375  -7.846  1.00  0.00     0.000 A 
ENDBRANCH  50  64
BRANCH  51  70
ATOM     70  C   UNL     1      10.597  -4.176  -8.992  1.00  0.00    -0.014 A 
ATOM     71  C   UNL     1      11.656  -5.091  -9.095  1.00  0.00     0.009 A 
ATOM     72  C   UNL     1       9.279  -4.656  -9.033  1.00  0.00     0.009 A 
ATOM     73  C   UNL     1      11.401  -6.454  -9.263  1.00  0.00     0.001 A 
ATOM     74  C   UNL     1       9.027  -6.023  -9.174  1.00  0.00     0.001 A 
ATOM     75  C   UNL     1      10.088  -6.919  -9.298  1.00  0.00     0.000 A 
ENDBRANCH  51  70
BRANCH  63  76
ATOM     76  C   UNL     1      13.184   0.628 -13.306  1.00  0.00    -0.014 A 
ATOM     77  C   UNL     1      12.303   0.492 -14.389  1.00  0.00     0.009 A 
ATOM     78  C   UNL     1      14.561   0.737 -13.554  1.00  0.00     0.009 A 
ATOM     79  C   UNL     1      12.797   0.435 -15.694  1.00  0.00     0.001 A 
ATOM     80  C   UNL     1      15.049   0.706 -14.860  1.00  0.00     0.001 A 
ATOM     81  C   UNL     1      14.167   0.547 -15.929  1.00  0.00     0.000 A 
ENDBRANCH  63  76
ENDBRANCH  37  38
ENDBRANCH  29  32
ENDBRANCH  27  28
ENDBRANCH  26  27
ENDBRANCH   1  26
TORSDOF 15
