REMARK SMILES Cc1cccc(-c2cc(OCC(=O)NCCCCNC(=O)c3ccc(-c4c5nc(c(-c6ccccc6)c6ccc([nH]6)c(-c6ccccc6)c6nc(c(-c7ccccc7)c7ccc4[nH]7)C=C6)C=C5)cc3)nc(Nc3ccccc3C)n2)c1
REMARK SMILES IDX 15 1 14 2 12 3 13 4 11 6 10 7 9 8 7 9 8 10 80 11 71 12 70 13
REMARK SMILES IDX 6 14 1 15 2 16 3 17 81 18 4 19 5 20 72 21 73 23 74 24 78 25
REMARK SMILES IDX 75 26 77 27 79 28 76 29 16 30 17 31 18 32 19 33 20 34 21 36
REMARK SMILES IDX 22 37 23 38 69 39 24 40 68 41 25 42 26 43 27 44 62 45 28 46
REMARK SMILES IDX 67 47 61 48 63 49 29 50 66 51 60 52 59 53 30 55 52 56 37 57
REMARK SMILES IDX 51 58 38 59 41 60 50 61 64 62 39 63 40 64 49 66 65 67 42 68
REMARK SMILES IDX 31 69 32 70 36 71 33 72 35 73 34 74 53 75 54 76 58 77 55 78
REMARK SMILES IDX 57 79 56 80 43 81 44 82 48 83 45 84 47 85 46 86
REMARK H PARENT 14 5 72 22 19 35 63 54 41 65
REMARK Flexibility Score: inf
ROOT
ATOM      1  C   UNL     1      -0.104   7.570  -1.472  1.00  0.00     0.116 C 
ENDROOT
BRANCH   1   2
ATOM      2  N   UNL     1       0.577   6.364  -1.908  1.00  0.00    -0.353 N 
ATOM      3  C   UNL     1       0.086   5.311  -2.621  1.00  0.00     0.258 C 
ATOM      4  O   UNL     1       0.845   4.381  -2.899  1.00  0.00    -0.271 OA
ATOM      5  H   UNL     1       1.526   6.298  -1.653  1.00  0.00     0.163 HD
BRANCH   3   6
ATOM      6  C   UNL     1      -1.381   5.302  -3.071  1.00  0.00     0.331 C 
BRANCH   6   7
ATOM      7  O   UNL     1      -2.363   5.381  -2.054  1.00  0.00    -0.467 OA
BRANCH   7   8
ATOM      8  C   UNL     1      -2.416   4.371  -1.135  1.00  0.00     0.219 A 
ATOM      9  C   UNL     1      -1.855   2.332  -0.154  1.00  0.00     0.080 A 
ATOM     10  C   UNL     1      -1.731   3.185  -1.225  1.00  0.00     0.097 A 
ATOM     11  N   UNL     1      -2.631   2.618   0.901  1.00  0.00    -0.212 NA
ATOM     12  C   UNL     1      -3.281   3.787   0.909  1.00  0.00     0.231 A 
ATOM     13  N   UNL     1      -3.206   4.675  -0.089  1.00  0.00    -0.177 NA
BRANCH   9  14
ATOM     14  C   UNL     1      -1.112   1.073  -0.071  1.00  0.00     0.001 A 
ATOM     15  C   UNL     1       2.517  -0.121  -0.042  1.00  0.00     0.044 C 
ATOM     16  C   UNL     1       1.018  -0.130  -0.021  1.00  0.00    -0.050 A 
ATOM     17  C   UNL     1       0.323  -1.339   0.081  1.00  0.00     0.003 A 
ATOM     18  C   UNL     1       0.294   1.066  -0.109  1.00  0.00     0.013 A 
ATOM     19  C   UNL     1      -1.071  -1.351   0.124  1.00  0.00     0.001 A 
ATOM     20  C   UNL     1      -1.782  -0.152   0.061  1.00  0.00     0.010 A 
ENDBRANCH   9  14
BRANCH  12  21
ATOM     21  N   UNL     1      -4.109   4.111   1.983  1.00  0.00    -0.324 N 
ATOM     22  H   UNL     1      -4.542   4.995   1.956  1.00  0.00     0.170 HD
BRANCH  21  23
ATOM     23  C   UNL     1      -4.388   3.309   3.098  1.00  0.00     0.044 A 
ATOM     24  C   UNL     1      -5.675   2.763   3.225  1.00  0.00     0.026 A 
ATOM     25  C   UNL     1      -3.396   2.941   4.031  1.00  0.00    -0.027 A 
ATOM     26  C   UNL     1      -5.968   1.838   4.229  1.00  0.00     0.002 A 
ATOM     27  C   UNL     1      -3.700   2.001   5.029  1.00  0.00     0.005 A 
ATOM     28  C   UNL     1      -2.019   3.551   4.004  1.00  0.00     0.046 C 
ATOM     29  C   UNL     1      -4.976   1.448   5.123  1.00  0.00     0.000 A 
ENDBRANCH  21  23
ENDBRANCH  12  21
ENDBRANCH   7   8
ENDBRANCH   6   7
ENDBRANCH   3   6
ENDBRANCH   1   2
BRANCH   1  30
ATOM     30  C   UNL     1      -0.539   7.527  -0.002  1.00  0.00     0.023 C 
BRANCH  30  31
ATOM     31  C   UNL     1       0.554   7.167   1.006  1.00  0.00     0.023 C 
BRANCH  31  32
ATOM     32  C   UNL     1       1.696   8.169   1.095  1.00  0.00     0.116 C 
BRANCH  32  33
ATOM     33  N   UNL     1       1.461   9.287   1.996  1.00  0.00    -0.352 N 
ATOM     34  C   UNL     1       2.233  10.416   2.239  1.00  0.00     0.251 C 
ATOM     35  H   UNL     1       0.625   9.236   2.513  1.00  0.00     0.163 HD
ATOM     36  O   UNL     1       1.895  11.206   3.097  1.00  0.00    -0.269 OA
BRANCH  34  37
ATOM     37  C   UNL     1       3.385  10.736   1.349  1.00  0.00     0.039 A 
ATOM     38  C   UNL     1       3.555  12.076   0.972  1.00  0.00     0.014 A 
ATOM     39  C   UNL     1       4.147   9.748   0.735  1.00  0.00     0.014 A 
ATOM     40  C   UNL     1       4.260  12.377  -0.191  1.00  0.00     0.010 A 
ATOM     41  C   UNL     1       4.763  10.026  -0.468  1.00  0.00     0.010 A 
ATOM     42  C   UNL     1       4.743  11.327  -0.969  1.00  0.00    -0.014 A 
BRANCH  42  43
ATOM     43  C   UNL     1       5.128  11.482  -2.364  1.00  0.00     0.031 A 
ATOM     44  C   UNL     1       6.558  11.554  -2.733  1.00  0.00     0.074 A 
ATOM     45  C   UNL     1       4.172  11.512  -3.323  1.00  0.00     0.049 A 
ATOM     46  N   UNL     1       7.003  12.173  -3.775  1.00  0.00    -0.248 NA
ATOM     47  C   UNL     1       7.617  10.955  -1.925  1.00  0.00     0.031 C 
ATOM     48  C   UNL     1       4.384  11.470  -4.770  1.00  0.00     0.029 A 
ATOM     49  N   UNL     1       2.799  11.746  -3.222  1.00  0.00    -0.354 N 
ATOM     50  C   UNL     1       8.317  11.806  -3.942  1.00  0.00     0.074 A 
ATOM     51  C   UNL     1       8.680  11.128  -2.718  1.00  0.00     0.031 C 
ATOM     52  C   UNL     1       3.307  11.998  -5.375  1.00  0.00     0.029 A 
ATOM     53  C   UNL     1       2.457  12.536  -4.327  1.00  0.00     0.049 A 
ATOM     54  H   UNL     1       2.194  11.421  -2.517  1.00  0.00     0.167 HD
ATOM     55  C   UNL     1       8.915  11.978  -5.154  1.00  0.00     0.031 A 
ATOM     56  C   UNL     1       2.037  13.835  -4.261  1.00  0.00     0.031 A 
ATOM     57  C   UNL     1       8.015  12.606  -6.119  1.00  0.00     0.049 A 
ATOM     58  C   UNL     1       2.901  14.791  -5.072  1.00  0.00     0.074 A 
ATOM     59  C   UNL     1       7.240  12.099  -7.150  1.00  0.00     0.029 A 
ATOM     60  N   UNL     1       7.577  13.905  -5.900  1.00  0.00    -0.354 N 
ATOM     61  N   UNL     1       4.106  14.505  -5.485  1.00  0.00    -0.248 NA
ATOM     62  C   UNL     1       2.506  16.149  -5.442  1.00  0.00     0.031 C 
ATOM     63  C   UNL     1       6.291  13.089  -7.516  1.00  0.00     0.029 A 
ATOM     64  C   UNL     1       6.511  14.204  -6.727  1.00  0.00     0.049 A 
ATOM     65  H   UNL     1       7.971  14.527  -5.247  1.00  0.00     0.167 HD
ATOM     66  C   UNL     1       4.639  15.572  -6.160  1.00  0.00     0.074 A 
ATOM     67  C   UNL     1       3.593  16.578  -6.112  1.00  0.00     0.031 C 
ATOM     68  C   UNL     1       5.900  15.528  -6.687  1.00  0.00     0.031 A 
BRANCH  55  69
ATOM     69  C   UNL     1      10.207  11.302  -5.544  1.00  0.00    -0.014 A 
ATOM     70  C   UNL     1      10.438  10.962  -6.891  1.00  0.00     0.009 A 
ATOM     71  C   UNL     1      11.214  10.934  -4.636  1.00  0.00     0.009 A 
ATOM     72  C   UNL     1      11.550  10.207  -7.288  1.00  0.00     0.001 A 
ATOM     73  C   UNL     1      12.308  10.145  -5.018  1.00  0.00     0.001 A 
ATOM     74  C   UNL     1      12.469   9.770  -6.345  1.00  0.00     0.000 A 
ENDBRANCH  55  69
BRANCH  56  75
ATOM     75  C   UNL     1       1.339  14.201  -3.000  1.00  0.00    -0.014 A 
ATOM     76  C   UNL     1       0.079  13.627  -2.743  1.00  0.00     0.009 A 
ATOM     77  C   UNL     1       2.037  14.789  -1.937  1.00  0.00     0.009 A 
ATOM     78  C   UNL     1      -0.407  13.525  -1.436  1.00  0.00     0.001 A 
ATOM     79  C   UNL     1       1.539  14.695  -0.630  1.00  0.00     0.001 A 
ATOM     80  C   UNL     1       0.341  14.029  -0.377  1.00  0.00     0.000 A 
ENDBRANCH  56  75
BRANCH  68  81
ATOM     81  C   UNL     1       6.691  16.678  -7.274  1.00  0.00    -0.014 A 
ATOM     82  C   UNL     1       6.395  18.034  -7.092  1.00  0.00     0.009 A 
ATOM     83  C   UNL     1       7.895  16.390  -7.964  1.00  0.00     0.009 A 
ATOM     84  C   UNL     1       7.234  19.041  -7.596  1.00  0.00     0.001 A 
ATOM     85  C   UNL     1       8.757  17.387  -8.426  1.00  0.00     0.001 A 
ATOM     86  C   UNL     1       8.419  18.718  -8.250  1.00  0.00     0.000 A 
ENDBRANCH  68  81
ENDBRANCH  42  43
ENDBRANCH  34  37
ENDBRANCH  32  33
ENDBRANCH  31  32
ENDBRANCH  30  31
ENDBRANCH   1  30
TORSDOF 16
