REMARK SMILES O=C(NCCCCNC(=O)c1cc(S(=O)(=O)NCc2ccncc2)c(Cl)cc1Cl)c1ccc(-c2c3nc(c(-c4ccccc4)c4ccc([nH]4)c(-c4ccccc4)c4nc(c(-c5ccccc5)c5ccc2[nH]5)C=C4)C=C3)cc1
REMARK SMILES IDX 6 1 5 2 4 3 3 4 1 5 2 6 30 8 31 9 77 10 32 11 76 12 33 13
REMARK SMILES IDX 34 14 35 15 70 16 36 17 75 18 69 19 71 20 37 21 74 22 68 23
REMARK SMILES IDX 67 24 38 26 60 27 45 28 59 29 46 30 49 31 58 32 72 33 47 34
REMARK SMILES IDX 48 35 57 37 73 38 50 39 39 40 40 41 44 42 41 43 43 44 42 45
REMARK SMILES IDX 61 46 62 47 66 48 63 49 65 50 64 51 51 52 52 53 56 54 53 55
REMARK SMILES IDX 55 56 54 57 7 58 8 59 9 60 10 62 11 63 12 64 28 65 13 66
REMARK SMILES IDX 27 67 29 68 25 69 26 70 14 71 15 72 16 73 17 74 18 76 19 77
REMARK SMILES IDX 20 78 24 79 21 80 23 81 22 82
REMARK H PARENT 3 7 71 25 49 36 8 61 17 75
REMARK Flexibility Score: inf
ROOT
ATOM      1  C   UNL     1       4.450   2.971   2.734  1.00  0.00     0.023 C 
ENDROOT
BRANCH   1   2
ATOM      2  C   UNL     1       4.954   2.408   1.405  1.00  0.00     0.023 C 
BRANCH   2   3
ATOM      3  C   UNL     1       4.645   0.936   1.155  1.00  0.00     0.116 C 
BRANCH   3   4
ATOM      4  N   UNL     1       3.219   0.668   1.073  1.00  0.00    -0.352 N 
ATOM      5  O   UNL     1       1.269   0.090   0.104  1.00  0.00    -0.269 OA
ATOM      6  C   UNL     1       2.496   0.094   0.057  1.00  0.00     0.251 C 
ATOM      7  H   UNL     1       2.696   0.938   1.862  1.00  0.00     0.163 HD
BRANCH   6   8
ATOM      8  C   UNL     1       3.185  -0.504  -1.107  1.00  0.00     0.039 A 
ATOM      9  C   UNL     1       4.287  -1.347  -0.941  1.00  0.00     0.014 A 
ATOM     10  C   UNL     1       2.685  -0.250  -2.389  1.00  0.00     0.014 A 
ATOM     11  C   UNL     1       4.953  -1.848  -2.057  1.00  0.00     0.010 A 
ATOM     12  C   UNL     1       3.315  -0.807  -3.505  1.00  0.00     0.010 A 
ATOM     13  C   UNL     1       4.464  -1.596  -3.349  1.00  0.00    -0.014 A 
BRANCH  13  14
ATOM     14  C   UNL     1       5.108  -2.240  -4.519  1.00  0.00     0.031 A 
ATOM     15  C   UNL     1       5.835  -1.430  -5.554  1.00  0.00     0.074 A 
ATOM     16  C   UNL     1       5.017  -3.578  -4.649  1.00  0.00     0.049 A 
ATOM     17  N   UNL     1       6.434  -1.840  -6.644  1.00  0.00    -0.248 NA
ATOM     18  C   UNL     1       5.893   0.025  -5.347  1.00  0.00     0.031 C 
ATOM     19  C   UNL     1       4.322  -4.471  -3.717  1.00  0.00     0.029 A 
ATOM     20  N   UNL     1       5.508  -4.421  -5.612  1.00  0.00    -0.354 N 
ATOM     21  C   UNL     1       6.921  -0.697  -7.263  1.00  0.00     0.074 A 
ATOM     22  C   UNL     1       6.537   0.427  -6.436  1.00  0.00     0.031 C 
ATOM     23  C   UNL     1       4.451  -5.736  -4.142  1.00  0.00     0.029 A 
ATOM     24  C   UNL     1       5.190  -5.739  -5.399  1.00  0.00     0.049 A 
ATOM     25  H   UNL     1       6.038  -4.110  -6.382  1.00  0.00     0.167 HD
ATOM     26  C   UNL     1       7.625  -0.597  -8.416  1.00  0.00     0.031 A 
ATOM     27  C   UNL     1       5.439  -6.831  -6.144  1.00  0.00     0.031 A 
ATOM     28  C   UNL     1       8.018  -1.717  -9.230  1.00  0.00     0.049 A 
ATOM     29  C   UNL     1       6.191  -6.683  -7.433  1.00  0.00     0.074 A 
ATOM     30  C   UNL     1       8.798  -1.718 -10.374  1.00  0.00     0.029 A 
ATOM     31  N   UNL     1       7.649  -3.031  -8.997  1.00  0.00    -0.354 N 
ATOM     32  N   UNL     1       6.702  -5.602  -7.968  1.00  0.00    -0.248 NA
ATOM     33  C   UNL     1       6.394  -7.905  -8.224  1.00  0.00     0.031 C 
ATOM     34  C   UNL     1       8.858  -3.027 -10.862  1.00  0.00     0.029 A 
ATOM     35  C   UNL     1       8.150  -3.846  -9.998  1.00  0.00     0.049 A 
ATOM     36  H   UNL     1       7.110  -3.340  -8.232  1.00  0.00     0.167 HD
ATOM     37  C   UNL     1       7.290  -6.012  -9.155  1.00  0.00     0.074 A 
ATOM     38  C   UNL     1       7.094  -7.444  -9.251  1.00  0.00     0.031 C 
ATOM     39  C   UNL     1       7.932  -5.266 -10.086  1.00  0.00     0.031 A 
BRANCH  26  40
ATOM     40  C   UNL     1       8.004   0.777  -8.889  1.00  0.00    -0.014 A 
ATOM     41  C   UNL     1       9.053   1.491  -8.291  1.00  0.00     0.009 A 
ATOM     42  C   UNL     1       7.348   1.333  -9.999  1.00  0.00     0.009 A 
ATOM     43  C   UNL     1       9.426   2.743  -8.785  1.00  0.00     0.001 A 
ATOM     44  C   UNL     1       7.735   2.576 -10.502  1.00  0.00     0.001 A 
ATOM     45  C   UNL     1       8.771   3.282  -9.892  1.00  0.00     0.000 A 
ENDBRANCH  26  40
BRANCH  27  46
ATOM     46  C   UNL     1       4.935  -8.155  -5.701  1.00  0.00    -0.014 A 
ATOM     47  C   UNL     1       5.818  -9.133  -5.223  1.00  0.00     0.009 A 
ATOM     48  C   UNL     1       3.561  -8.438  -5.743  1.00  0.00     0.009 A 
ATOM     49  C   UNL     1       5.335 -10.376  -4.809  1.00  0.00     0.001 A 
ATOM     50  C   UNL     1       3.078  -9.672  -5.305  1.00  0.00     0.001 A 
ATOM     51  C   UNL     1       3.966 -10.642  -4.846  1.00  0.00     0.000 A 
ENDBRANCH  27  46
BRANCH  39  52
ATOM     52  C   UNL     1       8.467  -5.989 -11.286  1.00  0.00    -0.014 A 
ATOM     53  C   UNL     1       7.608  -6.410 -12.312  1.00  0.00     0.009 A 
ATOM     54  C   UNL     1       9.845  -6.225 -11.406  1.00  0.00     0.009 A 
ATOM     55  C   UNL     1       8.117  -7.076 -13.428  1.00  0.00     0.001 A 
ATOM     56  C   UNL     1      10.353  -6.872 -12.532  1.00  0.00     0.001 A 
ATOM     57  C   UNL     1       9.489  -7.303 -13.539  1.00  0.00     0.000 A 
ENDBRANCH  39  52
ENDBRANCH  13  14
ENDBRANCH   6   8
ENDBRANCH   3   4
ENDBRANCH   2   3
ENDBRANCH   1   2
BRANCH   1  58
ATOM     58  C   UNL     1       4.861   2.191   3.980  1.00  0.00     0.116 C 
BRANCH  58  59
ATOM     59  N   UNL     1       6.302   2.029   4.088  1.00  0.00    -0.352 N 
ATOM     60  C   UNL     1       7.157   2.329   5.116  1.00  0.00     0.252 C 
ATOM     61  H   UNL     1       6.734   1.641   3.293  1.00  0.00     0.163 HD
ATOM     62  O   UNL     1       8.360   2.132   4.982  1.00  0.00    -0.269 OA
BRANCH  60  63
ATOM     63  C   UNL     1       6.637   2.824   6.408  1.00  0.00     0.059 A 
ATOM     64  C   UNL     1       5.647   2.082   7.062  1.00  0.00     0.038 A 
ATOM     65  C   UNL     1       7.172   3.951   7.035  1.00  0.00     0.055 A 
ATOM     66  C   UNL     1       5.163   2.474   8.323  1.00  0.00     0.101 A 
ATOM     67  C   UNL     1       6.737   4.300   8.321  1.00  0.00     0.043 A 
ATOM     68  Cl  UNL     1       8.334   4.980   6.280  1.00  0.00    -0.083 Cl
ATOM     69  C   UNL     1       5.750   3.551   8.980  1.00  0.00     0.062 A 
ATOM     70  Cl  UNL     1       5.381   4.018  10.598  1.00  0.00    -0.083 Cl
BRANCH  66  71
ATOM     71  S   UNL     1       3.796   1.536   8.944  1.00  0.00     0.242 S 
ATOM     72  O   UNL     1       3.056   1.090   7.783  1.00  0.00    -0.207 OA
ATOM     73  O   UNL     1       4.341   0.589   9.889  1.00  0.00    -0.207 OA
BRANCH  71  74
ATOM     74  N   UNL     1       2.786   2.540   9.805  1.00  0.00    -0.207 NA
ATOM     75  H   UNL     1       3.297   2.785  10.653  1.00  0.00     0.141 HD
BRANCH  74  76
ATOM     76  C   UNL     1       2.251   3.793   9.290  1.00  0.00     0.134 C 
BRANCH  76  77
ATOM     77  C   UNL     1       1.014   3.743   8.437  1.00  0.00    -0.030 A 
ATOM     78  C   UNL     1       0.547   4.941   7.876  1.00  0.00     0.025 A 
ATOM     79  C   UNL     1       0.290   2.578   8.181  1.00  0.00     0.025 A 
ATOM     80  C   UNL     1      -0.585   4.917   7.076  1.00  0.00     0.111 A 
ATOM     81  C   UNL     1      -0.824   2.652   7.358  1.00  0.00     0.111 A 
ATOM     82  N   UNL     1      -1.276   3.795   6.799  1.00  0.00    -0.265 NA
ENDBRANCH  76  77
ENDBRANCH  74  76
ENDBRANCH  71  74
ENDBRANCH  66  71
ENDBRANCH  60  63
ENDBRANCH  58  59
ENDBRANCH   1  58
TORSDOF 15
