REMARK SMILES COC(=O)C1=C(C)N(c2ccc(Br)cc2)C(=O)/C1=C\c1ccc(C(=O)NCCCCNC(=O)c2ccc(-c3c4nc(c(-c5ccccc5)c5ccc([nH]5)c(-c5ccccc5)c5nc(c(-c6ccccc6)c6ccc3[nH]6)C=C5)C=C4)cc2)cc1
REMARK SMILES IDX 28 1 27 2 26 3 24 4 25 5 23 7 20 8 21 9 83 10 22 11 82 12
REMARK SMILES IDX 19 13 5 14 6 15 18 16 7 17 8 18 16 19 17 20 3 21 4 22 2 23
REMARK SMILES IDX 1 24 9 25 10 26 15 27 11 28 14 29 12 30 13 31 29 32 30 33
REMARK SMILES IDX 31 34 32 35 33 37 34 38 35 39 81 40 36 41 80 42 37 43 38 44
REMARK SMILES IDX 39 45 74 46 40 47 79 48 73 49 75 50 41 51 78 52 72 53 71 54
REMARK SMILES IDX 42 56 64 57 49 58 63 59 50 60 53 61 62 62 76 63 51 64 52 65
REMARK SMILES IDX 61 67 77 68 54 69 43 70 44 71 48 72 45 73 47 74 46 75 65 76
REMARK SMILES IDX 66 77 70 78 67 79 69 80 68 81 55 82 56 83 60 84 57 85 59 86
REMARK SMILES IDX 58 87
REMARK H PARENT 26 6 31 36 75 55 53 66
REMARK Flexibility Score: inf
ROOT
ATOM      1  C   UNL     1       4.406   9.271  -6.820  1.00  0.00     0.023 C 
ENDROOT
BRANCH   1   2
ATOM      2  C   UNL     1       3.898   8.258  -7.850  1.00  0.00     0.116 C 
BRANCH   2   3
ATOM      3  N   UNL     1       4.981   7.400  -8.288  1.00  0.00    -0.352 N 
ATOM      4  C   UNL     1       5.353   6.133  -7.911  1.00  0.00     0.251 C 
ATOM      5  O   UNL     1       6.324   5.632  -8.480  1.00  0.00    -0.269 OA
ATOM      6  H   UNL     1       5.554   7.798  -8.982  1.00  0.00     0.163 HD
BRANCH   4   7
ATOM      7  C   UNL     1       4.615   5.333  -6.893  1.00  0.00     0.039 A 
ATOM      8  C   UNL     1       3.206   3.688  -5.096  1.00  0.00    -0.025 A 
ATOM      9  C   UNL     1       3.973   3.112  -6.110  1.00  0.00     0.009 A 
ATOM     10  C   UNL     1       3.184   5.075  -4.952  1.00  0.00     0.009 A 
ATOM     11  C   UNL     1       4.668   3.934  -7.006  1.00  0.00     0.014 A 
ATOM     12  C   UNL     1       3.909   5.887  -5.823  1.00  0.00     0.014 A 
BRANCH   8  13
ATOM     13  C   UNL     1       2.462   2.891  -4.125  1.00  0.00     0.023 C 
ATOM     14  C   UNL     1       0.353   1.981  -3.145  1.00  0.00     0.092 C 
ATOM     15  C   UNL     1      -0.907   1.821  -3.607  1.00  0.00     0.039 C 
ATOM     16  C   UNL     1       1.144   2.639  -4.169  1.00  0.00     0.057 C 
ATOM     17  C   UNL     1      -2.002   1.107  -2.881  1.00  0.00     0.066 C 
ATOM     18  N   UNL     1      -1.019   2.349  -4.899  1.00  0.00    -0.280 N 
ATOM     19  C   UNL     1       0.210   2.932  -5.306  1.00  0.00     0.263 C 
ATOM     20  O   UNL     1       0.479   3.537  -6.324  1.00  0.00    -0.268 OA
BRANCH  14  21
ATOM     21  C   UNL     1       0.881   1.616  -1.818  1.00  0.00     0.340 C 
ATOM     22  O   UNL     1       1.649   2.323  -1.182  1.00  0.00    -0.246 OA
BRANCH  21  23
ATOM     23  O   UNL     1       0.447   0.389  -1.443  1.00  0.00    -0.465 OA
ATOM     24  C   UNL     1       0.968  -0.041  -0.184  1.00  0.00     0.282 C 
ENDBRANCH  21  23
ENDBRANCH  14  21
BRANCH  18  25
ATOM     25  C   UNL     1      -2.126   2.301  -5.792  1.00  0.00     0.049 A 
ATOM     26  C   UNL     1      -1.907   1.971  -7.139  1.00  0.00     0.028 A 
ATOM     27  C   UNL     1      -3.441   2.534  -5.370  1.00  0.00     0.028 A 
ATOM     28  C   UNL     1      -2.975   1.805  -8.024  1.00  0.00     0.018 A 
ATOM     29  C   UNL     1      -4.514   2.380  -6.257  1.00  0.00     0.018 A 
ATOM     30  C   UNL     1      -4.276   1.999  -7.575  1.00  0.00     0.018 A 
ATOM     31  Br  UNL     1      -5.725   1.738  -8.760  1.00  0.00    -0.051 Br
ENDBRANCH  18  25
ENDBRANCH   8  13
ENDBRANCH   4   7
ENDBRANCH   2   3
ENDBRANCH   1   2
BRANCH   1  32
ATOM     32  C   UNL     1       5.149  10.460  -7.433  1.00  0.00     0.023 C 
BRANCH  32  33
ATOM     33  C   UNL     1       4.310  11.320  -8.369  1.00  0.00     0.116 C 
BRANCH  33  34
ATOM     34  N   UNL     1       3.110  11.847  -7.737  1.00  0.00    -0.352 N 
ATOM     35  C   UNL     1       2.506  13.066  -7.921  1.00  0.00     0.251 C 
ATOM     36  H   UNL     1       2.672  11.248  -7.091  1.00  0.00     0.163 HD
ATOM     37  O   UNL     1       1.569  13.406  -7.207  1.00  0.00    -0.269 OA
BRANCH  35  38
ATOM     38  C   UNL     1       3.020  13.982  -8.958  1.00  0.00     0.039 A 
ATOM     39  C   UNL     1       3.221  15.322  -8.624  1.00  0.00     0.014 A 
ATOM     40  C   UNL     1       3.328  13.520 -10.241  1.00  0.00     0.014 A 
ATOM     41  C   UNL     1       3.788  16.186  -9.560  1.00  0.00     0.010 A 
ATOM     42  C   UNL     1       3.970  14.361 -11.144  1.00  0.00     0.010 A 
ATOM     43  C   UNL     1       4.204  15.703 -10.814  1.00  0.00    -0.014 A 
BRANCH  43  44
ATOM     44  C   UNL     1       4.907  16.597 -11.768  1.00  0.00     0.031 A 
ATOM     45  C   UNL     1       4.296  16.933 -13.099  1.00  0.00     0.074 A 
ATOM     46  C   UNL     1       6.118  17.087 -11.438  1.00  0.00     0.049 A 
ATOM     47  N   UNL     1       4.748  17.729 -14.035  1.00  0.00    -0.248 NA
ATOM     48  C   UNL     1       3.023  16.275 -13.436  1.00  0.00     0.031 C 
ATOM     49  C   UNL     1       6.843  16.790 -10.199  1.00  0.00     0.029 A 
ATOM     50  N   UNL     1       6.949  17.947 -12.110  1.00  0.00    -0.354 N 
ATOM     51  C   UNL     1       3.821  17.665 -15.067  1.00  0.00     0.074 A 
ATOM     52  C   UNL     1       2.814  16.706 -14.671  1.00  0.00     0.031 C 
ATOM     53  C   UNL     1       7.985  17.495 -10.179  1.00  0.00     0.029 A 
ATOM     54  C   UNL     1       8.093  18.259 -11.417  1.00  0.00     0.049 A 
ATOM     55  H   UNL     1       6.745  18.305 -13.004  1.00  0.00     0.167 HD
ATOM     56  C   UNL     1       3.797  18.358 -16.231  1.00  0.00     0.031 A 
ATOM     57  C   UNL     1       9.115  19.074 -11.739  1.00  0.00     0.031 A 
ATOM     58  C   UNL     1       4.805  19.306 -16.627  1.00  0.00     0.049 A 
ATOM     59  C   UNL     1       9.072  19.818 -13.044  1.00  0.00     0.074 A 
ATOM     60  C   UNL     1       4.845  20.098 -17.762  1.00  0.00     0.029 A 
ATOM     61  N   UNL     1       5.957  19.583 -15.906  1.00  0.00    -0.354 N 
ATOM     62  N   UNL     1       8.143  19.812 -13.970  1.00  0.00    -0.248 NA
ATOM     63  C   UNL     1      10.213  20.694 -13.339  1.00  0.00     0.031 C 
ATOM     64  C   UNL     1       6.052  20.806 -17.759  1.00  0.00     0.029 A 
ATOM     65  C   UNL     1       6.730  20.510 -16.587  1.00  0.00     0.049 A 
ATOM     66  H   UNL     1       6.190  19.181 -15.038  1.00  0.00     0.167 HD
ATOM     67  C   UNL     1       8.578  20.700 -14.946  1.00  0.00     0.074 A 
ATOM     68  C   UNL     1       9.836  21.247 -14.482  1.00  0.00     0.031 C 
ATOM     69  C   UNL     1       7.990  21.032 -16.122  1.00  0.00     0.031 A 
BRANCH  56  70
ATOM     70  C   UNL     1       2.645  18.104 -17.165  1.00  0.00    -0.014 A 
ATOM     71  C   UNL     1       1.338  18.500 -16.836  1.00  0.00     0.009 A 
ATOM     72  C   UNL     1       2.873  17.492 -18.407  1.00  0.00     0.009 A 
ATOM     73  C   UNL     1       0.279  18.254 -17.713  1.00  0.00     0.001 A 
ATOM     74  C   UNL     1       1.818  17.277 -19.297  1.00  0.00     0.001 A 
ATOM     75  C   UNL     1       0.521  17.648 -18.945  1.00  0.00     0.000 A 
ENDBRANCH  56  70
BRANCH  57  76
ATOM     76  C   UNL     1      10.259  19.244 -10.804  1.00  0.00    -0.014 A 
ATOM     77  C   UNL     1      10.476  20.469 -10.154  1.00  0.00     0.009 A 
ATOM     78  C   UNL     1      11.149  18.185 -10.567  1.00  0.00     0.009 A 
ATOM     79  C   UNL     1      11.578  20.639  -9.313  1.00  0.00     0.001 A 
ATOM     80  C   UNL     1      12.230  18.347  -9.698  1.00  0.00     0.001 A 
ATOM     81  C   UNL     1      12.451  19.577  -9.082  1.00  0.00     0.000 A 
ENDBRANCH  57  76
BRANCH  69  82
ATOM     82  C   UNL     1       8.697  22.052 -16.973  1.00  0.00    -0.014 A 
ATOM     83  C   UNL     1       9.918  21.761 -17.602  1.00  0.00     0.009 A 
ATOM     84  C   UNL     1       8.127  23.322 -17.153  1.00  0.00     0.009 A 
ATOM     85  C   UNL     1      10.579  22.738 -18.349  1.00  0.00     0.001 A 
ATOM     86  C   UNL     1       8.771  24.285 -17.932  1.00  0.00     0.001 A 
ATOM     87  C   UNL     1      10.004  23.997 -18.516  1.00  0.00     0.000 A 
ENDBRANCH  69  82
ENDBRANCH  43  44
ENDBRANCH  35  38
ENDBRANCH  33  34
ENDBRANCH  32  33
ENDBRANCH   1  32
TORSDOF 15
