REMARK SMILES C[C@H]1[C@@H](C(=O)NCCCCNC(=O)c2ccc(-c3c4nc(c(-c5ccccc5)c5ccc([nH]5)c(-c5ccccc5)c5nc(c(-c6ccccc6)c6ccc3[nH]6)C=C5)C=C4)cc2)CCN1C(=O)N1CCn2cnnc2C1
REMARK SMILES IDX 8 1 7 2 6 3 4 4 5 5 3 7 1 8 2 9 64 10 62 11 63 12 65 13
REMARK SMILES IDX 66 14 67 15 68 16 75 17 69 18 74 19 70 20 73 21 71 22 72 23
REMARK SMILES IDX 9 24 10 25 11 26 12 27 13 29 14 30 15 31 61 32 16 33 60 34
REMARK SMILES IDX 17 35 18 36 19 37 54 38 20 39 59 40 53 41 55 42 21 43 58 44
REMARK SMILES IDX 52 45 51 46 22 48 44 49 29 50 43 51 30 52 33 53 42 54 56 55
REMARK SMILES IDX 31 56 32 57 41 59 57 60 34 61 23 62 24 63 28 64 25 65 27 66
REMARK SMILES IDX 26 67 45 68 46 69 50 70 47 71 49 72 48 73 35 74 36 75 40 76
REMARK SMILES IDX 37 77 39 78 38 79
REMARK H PARENT 6 6 11 28 55 47 33 58
REMARK Flexibility Score: inf
ROOT
ATOM      1  C   UNL     1       3.389   0.629  -1.973  1.00  0.00     0.023 C 
ENDROOT
BRANCH   1   2
ATOM      2  C   UNL     1       2.721   1.920  -1.495  1.00  0.00     0.116 C 
BRANCH   2   3
ATOM      3  N   UNL     1       1.384   1.967  -2.021  1.00  0.00    -0.356 N 
ATOM      4  C   UNL     1       0.234   1.405  -1.576  1.00  0.00     0.225 C 
ATOM      5  O   UNL     1      -0.656   1.344  -2.433  1.00  0.00    -0.275 OA
ATOM      6  H   UNL     1       1.287   2.498  -2.845  1.00  0.00     0.163 HD
BRANCH   4   7
ATOM      7  C   UNL     1      -0.035   1.044  -0.097  1.00  0.00     0.102 C 
ATOM      8  C   UNL     1       2.039  -0.485   0.600  1.00  0.00     0.032 C 
ATOM      9  C   UNL     1       0.555  -0.192   0.638  1.00  0.00     0.096 C 
ATOM     10  N   UNL     1      -0.286  -1.314   0.204  1.00  0.00    -0.321 N 
ATOM     11  C   UNL     1      -1.535   0.642  -0.023  1.00  0.00     0.037 C 
ATOM     12  C   UNL     1      -1.488  -0.828  -0.443  1.00  0.00     0.122 C 
BRANCH  10  13
ATOM     13  C   UNL     1      -0.014  -2.658   0.262  1.00  0.00     0.320 C 
ATOM     14  O   UNL     1      -0.400  -3.443  -0.602  1.00  0.00    -0.248 OA
BRANCH  13  15
ATOM     15  N   UNL     1       0.718  -3.086   1.359  1.00  0.00    -0.315 N 
ATOM     16  C   UNL     1       1.437  -4.364   1.268  1.00  0.00     0.144 C 
ATOM     17  C   UNL     1       0.223  -2.726   2.695  1.00  0.00     0.199 C 
ATOM     18  C   UNL     1       0.862  -5.479   2.162  1.00  0.00     0.146 C 
ATOM     19  C   UNL     1      -0.709  -3.818   3.074  1.00  0.00     0.152 A 
ATOM     20  N   UNL     1      -0.402  -5.108   2.746  1.00  0.00    -0.314 N 
ATOM     21  N   UNL     1      -1.927  -3.779   3.563  1.00  0.00    -0.134 NA
ATOM     22  C   UNL     1      -1.515  -5.840   2.968  1.00  0.00     0.226 A 
ATOM     23  N   UNL     1      -2.436  -5.063   3.499  1.00  0.00    -0.139 NA
ENDBRANCH  13  15
ENDBRANCH  10  13
ENDBRANCH   4   7
ENDBRANCH   2   3
ENDBRANCH   1   2
BRANCH   1  24
ATOM     24  C   UNL     1       4.232   0.776  -3.229  1.00  0.00     0.023 C 
BRANCH  24  25
ATOM     25  C   UNL     1       5.540   1.504  -2.985  1.00  0.00     0.116 C 
BRANCH  25  26
ATOM     26  N   UNL     1       6.423   0.830  -2.036  1.00  0.00    -0.352 N 
ATOM     27  C   UNL     1       7.795   0.748  -2.070  1.00  0.00     0.251 C 
ATOM     28  H   UNL     1       5.982   0.379  -1.280  1.00  0.00     0.163 HD
ATOM     29  O   UNL     1       8.416   0.094  -1.239  1.00  0.00    -0.269 OA
BRANCH  27  30
ATOM     30  C   UNL     1       8.496   1.424  -3.176  1.00  0.00     0.039 A 
ATOM     31  C   UNL     1       9.329   0.675  -4.006  1.00  0.00     0.014 A 
ATOM     32  C   UNL     1       8.183   2.751  -3.477  1.00  0.00     0.014 A 
ATOM     33  C   UNL     1       9.775   1.235  -5.202  1.00  0.00     0.010 A 
ATOM     34  C   UNL     1       8.532   3.261  -4.716  1.00  0.00     0.010 A 
ATOM     35  C   UNL     1       9.333   2.511  -5.591  1.00  0.00    -0.014 A 
BRANCH  35  36
ATOM     36  C   UNL     1       9.701   3.096  -6.903  1.00  0.00     0.031 A 
ATOM     37  C   UNL     1      10.459   4.394  -6.946  1.00  0.00     0.074 A 
ATOM     38  C   UNL     1       9.280   2.516  -8.044  1.00  0.00     0.049 A 
ATOM     39  N   UNL     1      10.785   5.126  -7.979  1.00  0.00    -0.248 NA
ATOM     40  C   UNL     1      10.862   4.969  -5.651  1.00  0.00     0.031 C 
ATOM     41  C   UNL     1       8.479   1.292  -8.138  1.00  0.00     0.029 A 
ATOM     42  N   UNL     1       9.465   2.889  -9.351  1.00  0.00    -0.354 N 
ATOM     43  C   UNL     1      11.391   6.260  -7.456  1.00  0.00     0.074 A 
ATOM     44  C   UNL     1      11.335   6.150  -6.016  1.00  0.00     0.031 C 
ATOM     45  C   UNL     1       8.279   0.995  -9.432  1.00  0.00     0.029 A 
ATOM     46  C   UNL     1       8.903   2.023 -10.258  1.00  0.00     0.049 A 
ATOM     47  H   UNL     1       9.955   3.701  -9.616  1.00  0.00     0.167 HD
ATOM     48  C   UNL     1      11.972   7.291  -8.112  1.00  0.00     0.031 A 
ATOM     49  C   UNL     1       8.896   2.054 -11.603  1.00  0.00     0.031 A 
ATOM     50  C   UNL     1      12.076   7.375  -9.541  1.00  0.00     0.049 A 
ATOM     51  C   UNL     1       9.592   3.183 -12.312  1.00  0.00     0.074 A 
ATOM     52  C   UNL     1      12.716   8.334 -10.305  1.00  0.00     0.029 A 
ATOM     53  N   UNL     1      11.534   6.452 -10.422  1.00  0.00    -0.354 N 
ATOM     54  N   UNL     1      10.223   4.213 -11.802  1.00  0.00    -0.248 NA
ATOM     55  C   UNL     1       9.586   3.144 -13.781  1.00  0.00     0.031 C 
ATOM     56  C   UNL     1      12.536   8.006 -11.653  1.00  0.00     0.029 A 
ATOM     57  C   UNL     1      11.818   6.823 -11.724  1.00  0.00     0.049 A 
ATOM     58  H   UNL     1      11.023   5.652 -10.160  1.00  0.00     0.167 HD
ATOM     59  C   UNL     1      10.709   4.932 -12.886  1.00  0.00     0.074 A 
ATOM     60  C   UNL     1      10.314   4.212 -14.079  1.00  0.00     0.031 C 
ATOM     61  C   UNL     1      11.419   6.086 -12.894  1.00  0.00     0.031 A 
BRANCH  48  62
ATOM     62  C   UNL     1      12.547   8.398  -7.276  1.00  0.00    -0.014 A 
ATOM     63  C   UNL     1      13.699   8.197  -6.498  1.00  0.00     0.009 A 
ATOM     64  C   UNL     1      11.931   9.658  -7.266  1.00  0.00     0.009 A 
ATOM     65  C   UNL     1      14.195   9.223  -5.691  1.00  0.00     0.001 A 
ATOM     66  C   UNL     1      12.447  10.691  -6.481  1.00  0.00     0.001 A 
ATOM     67  C   UNL     1      13.571  10.469  -5.686  1.00  0.00     0.000 A 
ENDBRANCH  48  62
BRANCH  49  68
ATOM     68  C   UNL     1       8.245   0.964 -12.374  1.00  0.00    -0.014 A 
ATOM     69  C   UNL     1       9.025   0.016 -13.054  1.00  0.00     0.009 A 
ATOM     70  C   UNL     1       6.847   0.866 -12.440  1.00  0.00     0.009 A 
ATOM     71  C   UNL     1       8.419  -0.992 -13.808  1.00  0.00     0.001 A 
ATOM     72  C   UNL     1       6.244  -0.158 -13.175  1.00  0.00     0.001 A 
ATOM     73  C   UNL     1       7.030  -1.080 -13.865  1.00  0.00     0.000 A 
ENDBRANCH  49  68
BRANCH  61  74
ATOM     74  C   UNL     1      11.841   6.621 -14.231  1.00  0.00    -0.014 A 
ATOM     75  C   UNL     1      10.920   7.247 -15.084  1.00  0.00     0.009 A 
ATOM     76  C   UNL     1      13.188   6.539 -14.617  1.00  0.00     0.009 A 
ATOM     77  C   UNL     1      11.338   7.759 -16.313  1.00  0.00     0.001 A 
ATOM     78  C   UNL     1      13.606   7.074 -15.835  1.00  0.00     0.001 A 
ATOM     79  C   UNL     1      12.680   7.676 -16.685  1.00  0.00     0.000 A 
ENDBRANCH  61  74
ENDBRANCH  35  36
ENDBRANCH  27  30
ENDBRANCH  25  26
ENDBRANCH  24  25
ENDBRANCH   1  24
TORSDOF 13
