REMARK SMILES O=C(NCCCCNC(=O)c1ccc(-c2cccc(F)c2)o1)c1ccc(-c2c3nc(c(-c4ccccc4)c4ccc([nH]4)c(-c4ccccc4)c4nc(c(-c5ccccc5)c5ccc2[nH]5)C=C4)C=C3)cc1
REMARK SMILES IDX 5 1 4 2 3 3 1 4 2 5 23 7 24 8 70 9 25 10 69 11 26 12 27 13
REMARK SMILES IDX 28 14 63 15 29 16 68 17 62 18 64 19 30 20 67 21 61 22 60 23
REMARK SMILES IDX 31 25 53 26 38 27 52 28 39 29 42 30 51 31 65 32 40 33 41 34
REMARK SMILES IDX 50 36 66 37 43 38 32 39 33 40 37 41 34 42 36 43 35 44 54 45
REMARK SMILES IDX 55 46 59 47 56 48 58 49 57 50 44 51 45 52 49 53 46 54 48 55
REMARK SMILES IDX 47 56 6 57 7 58 8 59 9 60 10 62 11 63 12 64 22 65 13 66
REMARK SMILES IDX 14 67 15 68 16 69 21 70 17 71 19 72 18 73 20 74
REMARK H PARENT 3 6 64 24 42 35 8 61
REMARK Flexibility Score: inf
ROOT
ATOM      1  C   UNL     1       4.873   1.574  -2.276  1.00  0.00     0.023 C 
ENDROOT
BRANCH   1   2
ATOM      2  C   UNL     1       4.562   1.057  -0.878  1.00  0.00     0.116 C 
BRANCH   2   3
ATOM      3  N   UNL     1       3.136   0.977  -0.603  1.00  0.00    -0.352 N 
ATOM      4  O   UNL     1       1.185  -0.024  -0.060  1.00  0.00    -0.269 OA
ATOM      5  C   UNL     1       2.409  -0.082  -0.112  1.00  0.00     0.251 C 
ATOM      6  H   UNL     1       2.620   1.793  -0.795  1.00  0.00     0.163 HD
BRANCH   5   7
ATOM      7  C   UNL     1       3.112  -1.306   0.328  1.00  0.00     0.039 A 
ATOM      8  C   UNL     1       4.250  -1.216   1.131  1.00  0.00     0.014 A 
ATOM      9  C   UNL     1       2.635  -2.555  -0.079  1.00  0.00     0.014 A 
ATOM     10  C   UNL     1       4.994  -2.357   1.400  1.00  0.00     0.010 A 
ATOM     11  C   UNL     1       3.335  -3.713   0.270  1.00  0.00     0.010 A 
ATOM     12  C   UNL     1       4.537  -3.620   0.988  1.00  0.00    -0.014 A 
BRANCH  12  13
ATOM     13  C   UNL     1       5.302  -4.825   1.395  1.00  0.00     0.031 A 
ATOM     14  C   UNL     1       5.987  -5.702   0.386  1.00  0.00     0.074 A 
ATOM     15  C   UNL     1       5.415  -5.091   2.711  1.00  0.00     0.049 A 
ATOM     16  N   UNL     1       6.742  -6.753   0.592  1.00  0.00    -0.248 NA
ATOM     17  C   UNL     1       5.803  -5.366  -1.035  1.00  0.00     0.031 C 
ATOM     18  C   UNL     1       4.787  -4.315   3.785  1.00  0.00     0.029 A 
ATOM     19  N   UNL     1       6.120  -6.062   3.374  1.00  0.00    -0.354 N 
ATOM     20  C   UNL     1       7.111  -7.211  -0.666  1.00  0.00     0.074 A 
ATOM     21  C   UNL     1       6.478  -6.339  -1.634  1.00  0.00     0.031 C 
ATOM     22  C   UNL     1       5.183  -4.801   4.969  1.00  0.00     0.029 A 
ATOM     23  C   UNL     1       6.038  -5.959   4.741  1.00  0.00     0.049 A 
ATOM     24  H   UNL     1       6.634  -6.764   2.914  1.00  0.00     0.167 HD
ATOM     25  C   UNL     1       7.907  -8.261  -0.984  1.00  0.00     0.031 A 
ATOM     26  C   UNL     1       6.579  -6.719   5.709  1.00  0.00     0.031 A 
ATOM     27  C   UNL     1       8.535  -9.127  -0.020  1.00  0.00     0.049 A 
ATOM     28  C   UNL     1       7.434  -7.888   5.324  1.00  0.00     0.074 A 
ATOM     29  C   UNL     1       9.376 -10.204  -0.247  1.00  0.00     0.029 A 
ATOM     30  N   UNL     1       8.390  -9.018   1.354  1.00  0.00    -0.354 N 
ATOM     31  N   UNL     1       7.793  -8.288   4.128  1.00  0.00    -0.248 NA
ATOM     32  C   UNL     1       7.958  -8.710   6.422  1.00  0.00     0.031 C 
ATOM     33  C   UNL     1       9.702 -10.775   0.988  1.00  0.00     0.029 A 
ATOM     34  C   UNL     1       9.106 -10.022   1.986  1.00  0.00     0.049 A 
ATOM     35  H   UNL     1       7.856  -8.330   1.813  1.00  0.00     0.167 HD
ATOM     36  C   UNL     1       8.590  -9.405   4.330  1.00  0.00     0.074 A 
ATOM     37  C   UNL     1       8.688  -9.598   5.763  1.00  0.00     0.031 C 
ATOM     38  C   UNL     1       9.182 -10.206   3.412  1.00  0.00     0.031 A 
BRANCH  25  39
ATOM     39  C   UNL     1       8.135  -8.550  -2.442  1.00  0.00    -0.014 A 
ATOM     40  C   UNL     1       8.976  -7.740  -3.222  1.00  0.00     0.009 A 
ATOM     41  C   UNL     1       7.556  -9.688  -3.026  1.00  0.00     0.009 A 
ATOM     42  C   UNL     1       9.216  -8.054  -4.562  1.00  0.00     0.001 A 
ATOM     43  C   UNL     1       7.816 -10.011  -4.360  1.00  0.00     0.001 A 
ATOM     44  C   UNL     1       8.640  -9.191  -5.128  1.00  0.00     0.000 A 
ENDBRANCH  25  39
BRANCH  26  45
ATOM     45  C   UNL     1       6.307  -6.406   7.135  1.00  0.00    -0.014 A 
ATOM     46  C   UNL     1       7.325  -5.926   7.971  1.00  0.00     0.009 A 
ATOM     47  C   UNL     1       5.019  -6.586   7.665  1.00  0.00     0.009 A 
ATOM     48  C   UNL     1       7.064  -5.655   9.316  1.00  0.00     0.001 A 
ATOM     49  C   UNL     1       4.754  -6.284   9.002  1.00  0.00     0.001 A 
ATOM     50  C   UNL     1       5.779  -5.829   9.828  1.00  0.00     0.000 A 
ENDBRANCH  26  45
BRANCH  38  51
ATOM     51  C   UNL     1       9.997 -11.350   3.940  1.00  0.00    -0.014 A 
ATOM     52  C   UNL     1       9.382 -12.474   4.512  1.00  0.00     0.009 A 
ATOM     53  C   UNL     1      11.397 -11.304   3.860  1.00  0.00     0.009 A 
ATOM     54  C   UNL     1      10.155 -13.514   5.031  1.00  0.00     0.001 A 
ATOM     55  C   UNL     1      12.167 -12.358   4.355  1.00  0.00     0.001 A 
ATOM     56  C   UNL     1      11.546 -13.456   4.949  1.00  0.00     0.000 A 
ENDBRANCH  38  51
ENDBRANCH  12  13
ENDBRANCH   5   7
ENDBRANCH   2   3
ENDBRANCH   1   2
BRANCH   1  57
ATOM     57  C   UNL     1       4.376   2.988  -2.568  1.00  0.00     0.023 C 
BRANCH  57  58
ATOM     58  C   UNL     1       4.837   4.048  -1.570  1.00  0.00     0.116 C 
BRANCH  58  59
ATOM     59  N   UNL     1       6.281   4.204  -1.579  1.00  0.00    -0.349 N 
ATOM     60  C   UNL     1       7.015   5.303  -1.963  1.00  0.00     0.287 C 
ATOM     61  H   UNL     1       6.800   3.425  -1.271  1.00  0.00     0.163 HD
ATOM     62  O   UNL     1       8.227   5.156  -2.125  1.00  0.00    -0.266 OA
BRANCH  60  63
ATOM     63  C   UNL     1       6.325   6.558  -2.129  1.00  0.00     0.192 A 
ATOM     64  C   UNL     1       5.480   7.261  -1.289  1.00  0.00     0.057 A 
ATOM     65  O   UNL     1       6.474   7.241  -3.304  1.00  0.00    -0.451 OA
ATOM     66  C   UNL     1       5.086   8.423  -1.990  1.00  0.00     0.052 A 
ATOM     67  C   UNL     1       5.715   8.369  -3.216  1.00  0.00     0.135 A 
BRANCH  67  68
ATOM     68  C   UNL     1       5.732   9.250  -4.370  1.00  0.00     0.020 A 
ATOM     69  C   UNL     1       5.821  10.639  -4.189  1.00  0.00     0.012 A 
ATOM     70  C   UNL     1       5.628   8.738  -5.667  1.00  0.00     0.051 A 
ATOM     71  C   UNL     1       5.801  11.504  -5.286  1.00  0.00     0.004 A 
ATOM     72  C   UNL     1       5.595   9.608  -6.752  1.00  0.00     0.123 A 
ATOM     73  C   UNL     1       5.680  10.985  -6.573  1.00  0.00     0.039 A 
ATOM     74  F   UNL     1       5.467   9.114  -7.990  1.00  0.00    -0.207 F 
ENDBRANCH  67  68
ENDBRANCH  60  63
ENDBRANCH  58  59
ENDBRANCH  57  58
ENDBRANCH   1  57
TORSDOF 12
