REMARK SMILES CN(CC(C)(C)O)S(=O)(=O)c1ccc(C(=O)NCCCCNC(=O)c2ccc(-c3c4nc(c(-c5ccccc5)c5ccc([nH]5)c(-c5ccccc5)c5nc(c(-c6ccccc6)c6ccc3[nH]6)C=C5)C=C4)cc2)s1
REMARK SMILES IDX 18 1 17 2 15 3 16 4 14 6 11 7 12 8 73 9 13 10 8 11 9 12
REMARK SMILES IDX 10 13 2 14 1 15 3 16 4 17 5 18 6 19 7 20 19 22 20 23 21 24
REMARK SMILES IDX 22 25 23 26 24 28 25 29 26 30 72 31 27 32 71 33 28 34 29 35
REMARK SMILES IDX 30 36 65 37 31 38 70 39 64 40 66 41 32 42 69 43 63 44 62 45
REMARK SMILES IDX 33 47 55 48 40 49 54 50 41 51 44 52 53 53 67 54 42 55 43 56
REMARK SMILES IDX 52 58 68 59 45 60 34 61 35 62 39 63 36 64 38 65 37 66 56 67
REMARK SMILES IDX 57 68 61 69 58 70 60 71 59 72 46 73 47 74 51 75 48 76 50 77
REMARK SMILES IDX 49 78
REMARK H PARENT 17 5 7 21 22 27 66 46 44 57
REMARK Flexibility Score: inf
ROOT
ATOM      1  C   UNL     1      -0.663  -6.023   6.747  1.00  0.00     0.116 C 
ENDROOT
BRANCH   1   2
ATOM      2  N   UNL     1      -0.817  -4.603   6.976  1.00  0.00    -0.351 N 
ATOM      3  C   UNL     1      -0.477  -3.490   6.243  1.00  0.00     0.261 C 
ATOM      4  O   UNL     1      -0.770  -2.422   6.791  1.00  0.00    -0.268 OA
ATOM      5  H   UNL     1      -1.255  -4.390   7.832  1.00  0.00     0.163 HD
BRANCH   3   6
ATOM      6  C   UNL     1       0.156  -3.560   4.926  1.00  0.00     0.093 A 
ATOM      7  C   UNL     1       1.119  -2.794   2.747  1.00  0.00     0.135 A 
ATOM      8  C   UNL     1       1.039  -4.166   2.838  1.00  0.00     0.034 A 
ATOM      9  S   UNL     1       0.596  -2.050   4.186  1.00  0.00    -0.117 S 
ATOM     10  C   UNL     1       0.512  -4.603   4.088  1.00  0.00     0.027 A 
BRANCH   7  11
ATOM     11  S   UNL     1       1.715  -1.750   1.437  1.00  0.00     0.252 S 
ATOM     12  O   UNL     1       1.818  -2.648   0.304  1.00  0.00    -0.206 OA
ATOM     13  O   UNL     1       2.906  -1.124   1.970  1.00  0.00    -0.206 OA
BRANCH  11  14
ATOM     14  N   UNL     1       0.616  -0.533   1.045  1.00  0.00    -0.197 NA
ATOM     15  C   UNL     1       1.083   0.381  -0.016  1.00  0.00     0.124 C 
BRANCH  14  16
ATOM     16  C   UNL     1      -0.856  -0.724   1.098  1.00  0.00     0.136 C 
BRANCH  16  17
ATOM     17  C   UNL     1      -1.570  -1.389  -0.107  1.00  0.00     0.073 C 
ATOM     18  C   UNL     1      -1.262  -2.878  -0.253  1.00  0.00     0.043 C 
ATOM     19  C   UNL     1      -3.087  -1.220   0.092  1.00  0.00     0.043 C 
BRANCH  17  20
ATOM     20  O   UNL     1      -1.246  -0.713  -1.326  1.00  0.00    -0.389 OA
ATOM     21  H   UNL     1      -0.295  -0.792  -1.496  1.00  0.00     0.211 HD
ENDBRANCH  17  20
ENDBRANCH  16  17
ENDBRANCH  14  16
ENDBRANCH  11  14
ENDBRANCH   7  11
ENDBRANCH   3   6
ENDBRANCH   1   2
BRANCH   1  22
ATOM     22  C   UNL     1       0.702  -6.529   7.213  1.00  0.00     0.023 C 
BRANCH  22  23
ATOM     23  C   UNL     1       0.776  -6.850   8.713  1.00  0.00     0.023 C 
BRANCH  23  24
ATOM     24  C   UNL     1      -0.179  -7.940   9.202  1.00  0.00     0.116 C 
BRANCH  24  25
ATOM     25  N   UNL     1      -0.047  -9.198   8.483  1.00  0.00    -0.352 N 
ATOM     26  C   UNL     1      -0.352 -10.467   8.912  1.00  0.00     0.251 C 
ATOM     27  H   UNL     1       0.307  -9.131   7.567  1.00  0.00     0.163 HD
ATOM     28  O   UNL     1      -0.102 -11.437   8.204  1.00  0.00    -0.269 OA
BRANCH  26  29
ATOM     29  C   UNL     1      -0.938 -10.665  10.254  1.00  0.00     0.039 A 
ATOM     30  C   UNL     1      -0.350 -11.601  11.109  1.00  0.00     0.014 A 
ATOM     31  C   UNL     1      -2.045  -9.923  10.675  1.00  0.00     0.014 A 
ATOM     32  C   UNL     1      -0.826 -11.742  12.414  1.00  0.00     0.010 A 
ATOM     33  C   UNL     1      -2.485 -10.026  11.992  1.00  0.00     0.010 A 
ATOM     34  C   UNL     1      -1.873 -10.929  12.875  1.00  0.00    -0.014 A 
BRANCH  34  35
ATOM     35  C   UNL     1      -2.326 -10.990  14.286  1.00  0.00     0.031 A 
ATOM     36  C   UNL     1      -3.702 -11.491  14.621  1.00  0.00     0.074 A 
ATOM     37  C   UNL     1      -1.524 -10.519  15.260  1.00  0.00     0.049 A 
ATOM     38  N   UNL     1      -4.298 -11.547  15.785  1.00  0.00    -0.248 NA
ATOM     39  C   UNL     1      -4.524 -11.969  13.499  1.00  0.00     0.031 C 
ATOM     40  C   UNL     1      -0.183  -9.964  15.061  1.00  0.00     0.029 A 
ATOM     41  N   UNL     1      -1.727 -10.421  16.613  1.00  0.00    -0.354 N 
ATOM     42  C   UNL     1      -5.570 -12.043  15.534  1.00  0.00     0.074 A 
ATOM     43  C   UNL     1      -5.672 -12.240  14.103  1.00  0.00     0.031 C 
ATOM     44  C   UNL     1       0.322  -9.601  16.252  1.00  0.00     0.029 A 
ATOM     45  C   UNL     1      -0.668  -9.868  17.290  1.00  0.00     0.049 A 
ATOM     46  H   UNL     1      -2.554 -10.719  17.057  1.00  0.00     0.167 HD
ATOM     47  C   UNL     1      -6.560 -12.321  16.414  1.00  0.00     0.031 A 
ATOM     48  C   UNL     1      -0.512  -9.601  18.599  1.00  0.00     0.031 A 
ATOM     49  C   UNL     1      -6.455 -12.146  17.838  1.00  0.00     0.049 A 
ATOM     50  C   UNL     1      -1.619  -9.935  19.558  1.00  0.00     0.074 A 
ATOM     51  C   UNL     1      -7.382 -12.461  18.816  1.00  0.00     0.029 A 
ATOM     52  N   UNL     1      -5.354 -11.610  18.486  1.00  0.00    -0.354 N 
ATOM     53  N   UNL     1      -2.792 -10.463  19.310  1.00  0.00    -0.248 NA
ATOM     54  C   UNL     1      -1.373  -9.646  20.978  1.00  0.00     0.031 C 
ATOM     55  C   UNL     1      -6.854 -12.083  20.056  1.00  0.00     0.029 A 
ATOM     56  C   UNL     1      -5.584 -11.570  19.851  1.00  0.00     0.049 A 
ATOM     57  H   UNL     1      -4.531 -11.303  18.042  1.00  0.00     0.167 HD
ATOM     58  C   UNL     1      -3.416 -10.591  20.544  1.00  0.00     0.074 A 
ATOM     59  C   UNL     1      -2.487 -10.097  21.539  1.00  0.00     0.031 C 
ATOM     60  C   UNL     1      -4.649 -11.076  20.826  1.00  0.00     0.031 A 
BRANCH  47  61
ATOM     61  C   UNL     1      -7.851 -12.844  15.854  1.00  0.00    -0.014 A 
ATOM     62  C   UNL     1      -7.949 -14.153  15.358  1.00  0.00     0.009 A 
ATOM     63  C   UNL     1      -8.992 -12.026  15.847  1.00  0.00     0.009 A 
ATOM     64  C   UNL     1      -9.156 -14.622  14.835  1.00  0.00     0.001 A 
ATOM     65  C   UNL     1     -10.203 -12.505  15.345  1.00  0.00     0.001 A 
ATOM     66  C   UNL     1     -10.281 -13.799  14.831  1.00  0.00     0.000 A 
ENDBRANCH  47  61
BRANCH  48  67
ATOM     67  C   UNL     1       0.755  -9.001  19.088  1.00  0.00    -0.014 A 
ATOM     68  C   UNL     1       1.682  -9.784  19.793  1.00  0.00     0.009 A 
ATOM     69  C   UNL     1       1.042  -7.648  18.855  1.00  0.00     0.009 A 
ATOM     70  C   UNL     1       2.863  -9.216  20.275  1.00  0.00     0.001 A 
ATOM     71  C   UNL     1       2.234  -7.089  19.319  1.00  0.00     0.001 A 
ATOM     72  C   UNL     1       3.140  -7.871  20.035  1.00  0.00     0.000 A 
ENDBRANCH  48  67
BRANCH  60  73
ATOM     73  C   UNL     1      -5.050 -11.123  22.271  1.00  0.00    -0.014 A 
ATOM     74  C   UNL     1      -5.425  -9.957  22.957  1.00  0.00     0.009 A 
ATOM     75  C   UNL     1      -5.088 -12.354  22.943  1.00  0.00     0.009 A 
ATOM     76  C   UNL     1      -5.806 -10.023  24.299  1.00  0.00     0.001 A 
ATOM     77  C   UNL     1      -5.490 -12.419  24.277  1.00  0.00     0.001 A 
ATOM     78  C   UNL     1      -5.841 -11.253  24.956  1.00  0.00     0.000 A 
ENDBRANCH  60  73
ENDBRANCH  34  35
ENDBRANCH  26  29
ENDBRANCH  24  25
ENDBRANCH  23  24
ENDBRANCH  22  23
ENDBRANCH   1  22
TORSDOF 16
