REMARK SMILES O=C(NCCCCNC(=O)c1cc(/N=C/c2ccc([N+](=O)[O-])cc2)ccc1O)c1ccc(-c2c3nc(c(-c4ccccc4)c4ccc([nH]4)c(-c4ccccc4)c4nc(c(-c5ccccc5)c5ccc2[nH]5)C=C4)C=C3)cc1
REMARK SMILES IDX 6 1 5 2 4 3 3 4 1 5 2 6 29 8 30 9 76 10 31 11 75 12 32 13
REMARK SMILES IDX 33 14 34 15 69 16 35 17 74 18 68 19 70 20 36 21 73 22 67 23
REMARK SMILES IDX 66 24 37 26 59 27 44 28 58 29 45 30 48 31 57 32 71 33 46 34
REMARK SMILES IDX 47 35 56 37 72 38 49 39 38 40 39 41 43 42 40 43 42 44 41 45
REMARK SMILES IDX 60 46 61 47 65 48 62 49 64 50 63 51 50 52 51 53 55 54 52 55
REMARK SMILES IDX 54 56 53 57 7 58 8 59 9 60 10 62 11 63 12 64 27 65 13 66
REMARK SMILES IDX 26 67 25 68 28 69 14 71 15 72 16 73 17 74 24 75 18 76 23 77
REMARK SMILES IDX 19 78 20 79 21 80 22 81
REMARK H PARENT 3 7 70 25 48 36 8 61 28 70
REMARK Flexibility Score: inf
ROOT
ATOM      1  C   UNL     1       4.360   3.355  -1.928  1.00  0.00     0.023 C 
ENDROOT
BRANCH   1   2
ATOM      2  C   UNL     1       4.851   1.919  -1.768  1.00  0.00     0.023 C 
BRANCH   2   3
ATOM      3  C   UNL     1       4.519   1.265  -0.432  1.00  0.00     0.116 C 
BRANCH   3   4
ATOM      4  N   UNL     1       3.087   1.139  -0.202  1.00  0.00    -0.352 N 
ATOM      5  O   UNL     1       1.108   0.086   0.065  1.00  0.00    -0.269 OA
ATOM      6  C   UNL     1       2.333   0.013   0.027  1.00  0.00     0.251 C 
ATOM      7  H   UNL     1       2.584   1.986  -0.210  1.00  0.00     0.163 HD
BRANCH   6   8
ATOM      8  C   UNL     1       2.997  -1.297   0.202  1.00  0.00     0.039 A 
ATOM      9  C   UNL     1       4.120  -1.423   1.022  1.00  0.00     0.014 A 
ATOM     10  C   UNL     1       2.485  -2.415  -0.463  1.00  0.00     0.014 A 
ATOM     11  C   UNL     1       4.819  -2.623   1.055  1.00  0.00     0.010 A 
ATOM     12  C   UNL     1       3.140  -3.646  -0.357  1.00  0.00     0.010 A 
ATOM     13  C   UNL     1       4.331  -3.752   0.376  1.00  0.00    -0.014 A 
BRANCH  13  14
ATOM     14  C   UNL     1       5.052  -5.042   0.505  1.00  0.00     0.031 A 
ATOM     15  C   UNL     1       5.713  -5.693  -0.678  1.00  0.00     0.074 A 
ATOM     16  C   UNL     1       5.136  -5.613   1.723  1.00  0.00     0.049 A 
ATOM     17  N   UNL     1       6.410  -6.801  -0.722  1.00  0.00    -0.248 NA
ATOM     18  C   UNL     1       5.572  -5.022  -1.979  1.00  0.00     0.031 C 
ATOM     19  C   UNL     1       4.531  -5.079   2.947  1.00  0.00     0.029 A 
ATOM     20  N   UNL     1       5.778  -6.750   2.138  1.00  0.00    -0.354 N 
ATOM     21  C   UNL     1       6.774  -6.971  -2.052  1.00  0.00     0.074 A 
ATOM     22  C   UNL     1       6.202  -5.863  -2.788  1.00  0.00     0.031 C 
ATOM     23  C   UNL     1       4.876  -5.858   3.982  1.00  0.00     0.029 A 
ATOM     24  C   UNL     1       5.669  -6.977   3.488  1.00  0.00     0.049 A 
ATOM     25  H   UNL     1       6.269  -7.347   1.528  1.00  0.00     0.167 HD
ATOM     26  C   UNL     1       7.520  -7.957  -2.607  1.00  0.00     0.031 A 
ATOM     27  C   UNL     1       6.142  -7.981   4.248  1.00  0.00     0.031 A 
ATOM     28  C   UNL     1       8.090  -9.057  -1.872  1.00  0.00     0.049 A 
ATOM     29  C   UNL     1       6.938  -9.074   3.602  1.00  0.00     0.074 A 
ATOM     30  C   UNL     1       8.886 -10.087  -2.343  1.00  0.00     0.029 A 
ATOM     31  N   UNL     1       7.920  -9.273  -0.514  1.00  0.00    -0.354 N 
ATOM     32  N   UNL     1       7.298  -9.200   2.348  1.00  0.00    -0.248 NA
ATOM     33  C   UNL     1       7.391 -10.164   4.476  1.00  0.00     0.031 C 
ATOM     34  C   UNL     1       9.158 -10.953  -1.278  1.00  0.00     0.029 A 
ATOM     35  C   UNL     1       8.575 -10.434  -0.134  1.00  0.00     0.049 A 
ATOM     36  H   UNL     1       7.410  -8.688   0.092  1.00  0.00     0.167 HD
ATOM     37  C   UNL     1       8.032 -10.376   2.284  1.00  0.00     0.074 A 
ATOM     38  C   UNL     1       8.084 -10.912   3.629  1.00  0.00     0.031 C 
ATOM     39  C   UNL     1       8.608 -10.960   1.206  1.00  0.00     0.031 A 
BRANCH  26  40
ATOM     40  C   UNL     1       7.744  -7.908  -4.093  1.00  0.00    -0.014 A 
ATOM     41  C   UNL     1       8.614  -6.971  -4.670  1.00  0.00     0.009 A 
ATOM     42  C   UNL     1       7.115  -8.851  -4.922  1.00  0.00     0.009 A 
ATOM     43  C   UNL     1       8.827  -6.961  -6.051  1.00  0.00     0.001 A 
ATOM     44  C   UNL     1       7.349  -8.854  -6.299  1.00  0.00     0.001 A 
ATOM     45  C   UNL     1       8.199  -7.905  -6.863  1.00  0.00     0.000 A 
ENDBRANCH  26  40
BRANCH  27  46
ATOM     46  C   UNL     1       5.857  -7.997   5.705  1.00  0.00    -0.014 A 
ATOM     47  C   UNL     1       6.879  -7.761   6.636  1.00  0.00     0.009 A 
ATOM     48  C   UNL     1       4.553  -8.229   6.170  1.00  0.00     0.009 A 
ATOM     49  C   UNL     1       6.603  -7.774   8.005  1.00  0.00     0.001 A 
ATOM     50  C   UNL     1       4.275  -8.213   7.537  1.00  0.00     0.001 A 
ATOM     51  C   UNL     1       5.301  -7.994   8.454  1.00  0.00     0.000 A 
ENDBRANCH  27  46
BRANCH  39  52
ATOM     52  C   UNL     1       9.361 -12.236   1.448  1.00  0.00    -0.014 A 
ATOM     53  C   UNL     1       8.687 -13.439   1.708  1.00  0.00     0.009 A 
ATOM     54  C   UNL     1      10.764 -12.237   1.394  1.00  0.00     0.009 A 
ATOM     55  C   UNL     1       9.405 -14.612   1.944  1.00  0.00     0.001 A 
ATOM     56  C   UNL     1      11.478 -13.417   1.604  1.00  0.00     0.001 A 
ATOM     57  C   UNL     1      10.799 -14.601   1.888  1.00  0.00     0.000 A 
ENDBRANCH  39  52
ENDBRANCH  13  14
ENDBRANCH   6   8
ENDBRANCH   3   4
ENDBRANCH   2   3
ENDBRANCH   1   2
BRANCH   1  58
ATOM     58  C   UNL     1       4.772   4.311  -0.814  1.00  0.00     0.116 C 
BRANCH  58  59
ATOM     59  N   UNL     1       6.212   4.450  -0.690  1.00  0.00    -0.352 N 
ATOM     60  C   UNL     1       6.939   5.611  -0.569  1.00  0.00     0.255 C 
ATOM     61  H   UNL     1       6.730   3.612  -0.694  1.00  0.00     0.163 HD
ATOM     62  O   UNL     1       8.164   5.580  -0.505  1.00  0.00    -0.269 OA
BRANCH  60  63
ATOM     63  C   UNL     1       6.235   6.906  -0.601  1.00  0.00     0.083 A 
ATOM     64  C   UNL     1       6.486   7.747  -1.691  1.00  0.00     0.046 A 
ATOM     65  C   UNL     1       5.304   7.272   0.377  1.00  0.00     0.128 A 
ATOM     66  C   UNL     1       5.766   8.932  -1.843  1.00  0.00     0.064 A 
ATOM     67  C   UNL     1       4.570   8.444   0.227  1.00  0.00     0.049 A 
ATOM     68  C   UNL     1       4.786   9.254  -0.892  1.00  0.00     0.032 A 
BRANCH  65  69
ATOM     69  O   UNL     1       5.081   6.467   1.458  1.00  0.00    -0.507 OA
ATOM     70  H   UNL     1       5.573   5.676   1.563  1.00  0.00     0.293 HD
ENDBRANCH  65  69
BRANCH  66  71
ATOM     71  N   UNL     1       5.995   9.713  -2.986  1.00  0.00    -0.256 NA
ATOM     72  C   UNL     1       6.122  10.992  -2.833  1.00  0.00     0.119 C 
BRANCH  72  73
ATOM     73  C   UNL     1       6.363  11.898  -3.973  1.00  0.00    -0.007 A 
ATOM     74  C   UNL     1       6.332  13.278  -3.746  1.00  0.00     0.017 A 
ATOM     75  C   UNL     1       6.631  11.394  -5.251  1.00  0.00     0.017 A 
ATOM     76  C   UNL     1       6.576  14.163  -4.799  1.00  0.00     0.086 A 
ATOM     77  C   UNL     1       6.883  12.274  -6.308  1.00  0.00     0.086 A 
ATOM     78  C   UNL     1       6.858  13.657  -6.077  1.00  0.00     0.269 A 
BRANCH  78  79
ATOM     79  N   UNL     1       7.135  14.587  -7.180  1.00  0.00     0.062 N 
ATOM     80  O   UNL     1       7.107  15.800  -6.929  1.00  0.00    -0.258 OA
ATOM     81  O   UNL     1       7.381  14.104  -8.294  1.00  0.00    -0.258 OA
ENDBRANCH  78  79
ENDBRANCH  72  73
ENDBRANCH  66  71
ENDBRANCH  60  63
ENDBRANCH  58  59
ENDBRANCH   1  58
TORSDOF 15
