REMARK SMILES COc1ccccc1N1CCN(C(=O)COCC(=O)NCCCCNC(=O)c2ccc(-c3c4nc(c(-c5ccccc5)c5ccc([nH]5)c(-c5ccccc5)c5nc(c(-c6ccccc6)c6ccc3[nH]6)C=C5)C=C4)cc2)CC1
REMARK SMILES IDX 21 1 20 2 18 3 19 4 17 6 16 7 15 8 13 9 9 10 10 11 77 12
REMARK SMILES IDX 11 13 76 14 12 15 14 16 8 17 3 18 4 19 5 20 7 21 6 22 2 23
REMARK SMILES IDX 1 24 22 25 23 26 24 27 25 28 26 29 27 31 28 32 29 33 75 34
REMARK SMILES IDX 30 35 74 36 31 37 32 38 33 39 68 40 34 41 73 42 67 43 69 44
REMARK SMILES IDX 35 45 72 46 66 47 65 48 36 50 58 51 43 52 57 53 44 54 47 55
REMARK SMILES IDX 56 56 70 57 45 58 46 59 55 61 71 62 48 63 37 64 38 65 42 66
REMARK SMILES IDX 39 67 41 68 40 69 59 70 60 71 64 72 61 73 63 74 62 75 49 76
REMARK SMILES IDX 50 77 54 78 51 79 53 80 52 81
REMARK H PARENT 20 5 25 30 69 49 47 60
REMARK Flexibility Score: inf
ROOT
ATOM      1  C   UNL     1       4.397   6.186   2.505  1.00  0.00     0.116 C 
ENDROOT
BRANCH   1   2
ATOM      2  N   UNL     1       4.923   6.371   1.166  1.00  0.00    -0.354 N 
ATOM      3  C   UNL     1       4.721   5.585   0.066  1.00  0.00     0.246 C 
ATOM      4  O   UNL     1       5.217   5.926  -1.008  1.00  0.00    -0.272 OA
ATOM      5  H   UNL     1       5.497   7.160   1.034  1.00  0.00     0.163 HD
BRANCH   3   6
ATOM      6  C   UNL     1       3.864   4.324   0.203  1.00  0.00     0.260 C 
BRANCH   6   7
ATOM      7  O   UNL     1       4.294   3.410   1.207  1.00  0.00    -0.362 OA
BRANCH   7   8
ATOM      8  C   UNL     1       5.508   2.749   0.864  1.00  0.00     0.260 C 
BRANCH   8   9
ATOM      9  C   UNL     1       5.396   1.754  -0.299  1.00  0.00     0.248 C 
ATOM     10  N   UNL     1       3.018  -1.698   0.084  1.00  0.00    -0.365 N 
ATOM     11  C   UNL     1       3.968  -1.588  -1.023  1.00  0.00     0.138 C 
ATOM     12  C   UNL     1       3.374  -0.971   1.305  1.00  0.00     0.138 C 
ATOM     13  C   UNL     1       4.183  -0.101  -1.358  1.00  0.00     0.141 C 
ATOM     14  C   UNL     1       3.594   0.517   0.984  1.00  0.00     0.141 C 
ATOM     15  N   UNL     1       4.482   0.721  -0.176  1.00  0.00    -0.337 N 
ATOM     16  O   UNL     1       6.102   1.895  -1.300  1.00  0.00    -0.272 OA
BRANCH  10  17
ATOM     17  C   UNL     1       2.066  -2.696   0.148  1.00  0.00     0.079 A 
ATOM     18  C   UNL     1       0.745  -2.435   0.573  1.00  0.00     0.142 A 
ATOM     19  C   UNL     1      -0.205  -3.453   0.686  1.00  0.00     0.048 A 
ATOM     20  C   UNL     1       0.136  -4.758   0.342  1.00  0.00     0.004 A 
ATOM     21  C   UNL     1       2.376  -4.017  -0.204  1.00  0.00     0.030 A 
ATOM     22  C   UNL     1       1.425  -5.040  -0.105  1.00  0.00     0.002 A 
BRANCH  18  23
ATOM     23  O   UNL     1       0.337  -1.168   0.930  1.00  0.00    -0.495 OA
ATOM     24  C   UNL     1       0.107  -0.373  -0.234  1.00  0.00     0.278 C 
ENDBRANCH  18  23
ENDBRANCH  10  17
ENDBRANCH   8   9
ENDBRANCH   7   8
ENDBRANCH   6   7
ENDBRANCH   3   6
ENDBRANCH   1   2
BRANCH   1  25
ATOM     25  C   UNL     1       5.463   5.707   3.489  1.00  0.00     0.023 C 
BRANCH  25  26
ATOM     26  C   UNL     1       6.652   6.656   3.665  1.00  0.00     0.023 C 
BRANCH  26  27
ATOM     27  C   UNL     1       6.297   8.100   4.000  1.00  0.00     0.116 C 
BRANCH  27  28
ATOM     28  N   UNL     1       5.548   8.234   5.238  1.00  0.00    -0.352 N 
ATOM     29  C   UNL     1       5.707   9.148   6.256  1.00  0.00     0.251 C 
ATOM     30  H   UNL     1       4.825   7.578   5.368  1.00  0.00     0.163 HD
ATOM     31  O   UNL     1       5.057   9.042   7.285  1.00  0.00    -0.269 OA
BRANCH  29  32
ATOM     32  C   UNL     1       6.696  10.240   6.114  1.00  0.00     0.039 A 
ATOM     33  C   UNL     1       7.560  10.504   7.180  1.00  0.00     0.014 A 
ATOM     34  C   UNL     1       6.782  10.991   4.939  1.00  0.00     0.014 A 
ATOM     35  C   UNL     1       8.556  11.474   7.042  1.00  0.00     0.010 A 
ATOM     36  C   UNL     1       7.820  11.906   4.777  1.00  0.00     0.010 A 
ATOM     37  C   UNL     1       8.719  12.156   5.825  1.00  0.00    -0.014 A 
BRANCH  37  38
ATOM     38  C   UNL     1       9.825  13.127   5.627  1.00  0.00     0.031 A 
ATOM     39  C   UNL     1       9.524  14.578   5.372  1.00  0.00     0.074 A 
ATOM     40  C   UNL     1      11.101  12.692   5.609  1.00  0.00     0.049 A 
ATOM     41  N   UNL     1      10.351  15.559   5.110  1.00  0.00    -0.248 NA
ATOM     42  C   UNL     1       8.107  14.975   5.389  1.00  0.00     0.031 C 
ATOM     43  C   UNL     1      11.528  11.306   5.806  1.00  0.00     0.029 A 
ATOM     44  N   UNL     1      12.274  13.375   5.407  1.00  0.00    -0.354 N 
ATOM     45  C   UNL     1       9.556  16.681   4.914  1.00  0.00     0.074 A 
ATOM     46  C   UNL     1       8.180  16.251   5.040  1.00  0.00     0.031 C 
ATOM     47  C   UNL     1      12.868  11.245   5.740  1.00  0.00     0.029 A 
ATOM     48  C   UNL     1      13.392  12.577   5.454  1.00  0.00     0.049 A 
ATOM     49  H   UNL     1      12.312  14.345   5.243  1.00  0.00     0.167 HD
ATOM     50  C   UNL     1       9.934  17.958   4.670  1.00  0.00     0.031 A 
ATOM     51  C   UNL     1      14.692  12.880   5.278  1.00  0.00     0.031 A 
ATOM     52  C   UNL     1      11.301  18.391   4.553  1.00  0.00     0.049 A 
ATOM     53  C   UNL     1      15.085  14.302   4.989  1.00  0.00     0.074 A 
ATOM     54  C   UNL     1      11.786  19.674   4.362  1.00  0.00     0.029 A 
ATOM     55  N   UNL     1      12.402  17.552   4.614  1.00  0.00    -0.354 N 
ATOM     56  N   UNL     1      14.323  15.363   4.874  1.00  0.00    -0.248 NA
ATOM     57  C   UNL     1      16.520  14.569   4.816  1.00  0.00     0.031 C 
ATOM     58  C   UNL     1      13.178  19.603   4.255  1.00  0.00     0.029 A 
ATOM     59  C   UNL     1      13.564  18.285   4.438  1.00  0.00     0.049 A 
ATOM     60  H   UNL     1      12.364  16.579   4.759  1.00  0.00     0.167 HD
ATOM     61  C   UNL     1      15.188  16.426   4.645  1.00  0.00     0.074 A 
ATOM     62  C   UNL     1      16.531  15.884   4.653  1.00  0.00     0.031 C 
ATOM     63  C   UNL     1      14.894  17.734   4.449  1.00  0.00     0.031 A 
BRANCH  50  64
ATOM     64  C   UNL     1       8.845  18.982   4.502  1.00  0.00    -0.014 A 
ATOM     65  C   UNL     1       8.058  19.393   5.590  1.00  0.00     0.009 A 
ATOM     66  C   UNL     1       8.626  19.569   3.246  1.00  0.00     0.009 A 
ATOM     67  C   UNL     1       7.049  20.342   5.415  1.00  0.00     0.001 A 
ATOM     68  C   UNL     1       7.636  20.540   3.080  1.00  0.00     0.001 A 
ATOM     69  C   UNL     1       6.842  20.918   4.162  1.00  0.00     0.000 A 
ENDBRANCH  50  64
BRANCH  51  70
ATOM     70  C   UNL     1      15.726  11.817   5.384  1.00  0.00    -0.014 A 
ATOM     71  C   UNL     1      16.613  11.793   6.471  1.00  0.00     0.009 A 
ATOM     72  C   UNL     1      15.838  10.828   4.394  1.00  0.00     0.009 A 
ATOM     73  C   UNL     1      17.609  10.817   6.550  1.00  0.00     0.001 A 
ATOM     74  C   UNL     1      16.816   9.836   4.492  1.00  0.00     0.001 A 
ATOM     75  C   UNL     1      17.707   9.837   5.564  1.00  0.00     0.000 A 
ENDBRANCH  51  70
BRANCH  63  76
ATOM     76  C   UNL     1      16.049  18.679   4.265  1.00  0.00    -0.014 A 
ATOM     77  C   UNL     1      16.807  18.686   3.084  1.00  0.00     0.009 A 
ATOM     78  C   UNL     1      16.355  19.604   5.276  1.00  0.00     0.009 A 
ATOM     79  C   UNL     1      17.869  19.581   2.934  1.00  0.00     0.001 A 
ATOM     80  C   UNL     1      17.398  20.516   5.111  1.00  0.00     0.001 A 
ATOM     81  C   UNL     1      18.160  20.497   3.944  1.00  0.00     0.000 A 
ENDBRANCH  63  76
ENDBRANCH  37  38
ENDBRANCH  29  32
ENDBRANCH  27  28
ENDBRANCH  26  27
ENDBRANCH  25  26
ENDBRANCH   1  25
TORSDOF 16
