REMARK SMILES Cc1ccc(C(=O)NCCCCNC(=O)c2ccc(-c3c4nc(c(-c5ccccc5)c5ccc([nH]5)c(-c5ccccc5)c5nc(c(-c6ccccc6)c6ccc3[nH]6)C=C5)C=C4)cc2)cc1O[C@@H](C)C(=O)N[C@@H]1CCS(=O)(=O)C1
REMARK SMILES IDX 9 1 8 2 6 3 7 4 5 6 1 7 2 8 3 9 65 10 4 11 64 12 66 13 67 14
REMARK SMILES IDX 68 15 69 16 70 17 71 18 72 20 73 21 78 22 74 23 75 24 76 25
REMARK SMILES IDX 77 26 10 27 11 28 12 29 13 30 14 31 15 33 16 34 17 35 63 36
REMARK SMILES IDX 18 37 62 38 19 39 20 40 21 41 56 42 22 43 61 44 55 45 57 46
REMARK SMILES IDX 23 47 60 48 54 49 53 50 24 52 46 53 31 54 45 55 32 56 35 57
REMARK SMILES IDX 44 58 58 59 33 60 34 61 43 63 59 64 36 65 25 66 26 67 30 68
REMARK SMILES IDX 27 69 29 70 28 71 47 72 48 73 52 74 49 75 51 76 50 77 37 78
REMARK SMILES IDX 38 79 42 80 39 81 41 82 40 83
REMARK H PARENT 8 5 71 19 13 32 57 51 35 62
REMARK Flexibility Score: inf
ROOT
ATOM      1  C   UNL     1      -3.125   2.665  -0.190  1.00  0.00     0.116 C 
ENDROOT
BRANCH   1   2
ATOM      2  N   UNL     1      -3.672   1.348   0.100  1.00  0.00    -0.352 N 
ATOM      3  C   UNL     1      -3.171   0.211   0.696  1.00  0.00     0.251 C 
ATOM      4  O   UNL     1      -3.951  -0.737   0.822  1.00  0.00    -0.269 OA
ATOM      5  H   UNL     1      -4.606   1.247  -0.195  1.00  0.00     0.163 HD
BRANCH   3   6
ATOM      6  C   UNL     1      -1.744   0.003   1.109  1.00  0.00     0.043 A 
ATOM      7  C   UNL     1       2.457  -0.971   1.735  1.00  0.00     0.048 C 
ATOM      8  C   UNL     1       1.027  -0.575   1.504  1.00  0.00    -0.009 A 
ATOM      9  C   UNL     1       0.074  -1.603   1.373  1.00  0.00     0.008 A 
ATOM     10  C   UNL     1       0.575   0.742   1.415  1.00  0.00     0.124 A 
ATOM     11  C   UNL     1      -1.276  -1.318   1.129  1.00  0.00     0.014 A 
ATOM     12  C   UNL     1      -0.816   1.011   1.369  1.00  0.00     0.060 A 
BRANCH  10  13
ATOM     13  O   UNL     1       1.310   1.874   1.307  1.00  0.00    -0.481 OA
BRANCH  13  14
ATOM     14  C   UNL     1       2.507   2.067   0.576  1.00  0.00     0.258 C 
ATOM     15  C   UNL     1       3.582   2.323   1.654  1.00  0.00     0.064 C 
BRANCH  14  16
ATOM     16  C   UNL     1       3.227   1.512  -0.745  1.00  0.00     0.261 C 
ATOM     17  O   UNL     1       4.384   1.869  -1.014  1.00  0.00    -0.271 OA
ATOM     18  N   UNL     1       2.645   0.752  -1.715  1.00  0.00    -0.349 N 
ATOM     19  H   UNL     1       3.157   0.687  -2.553  1.00  0.00     0.163 HD
BRANCH  18  20
ATOM     20  C   UNL     1       1.395   0.026  -1.709  1.00  0.00     0.098 C 
ATOM     21  C   UNL     1       1.252  -1.010  -2.841  1.00  0.00     0.042 C 
ATOM     22  C   UNL     1       0.191   0.942  -1.702  1.00  0.00     0.161 C 
ATOM     23  C   UNL     1       0.067  -0.669  -3.733  1.00  0.00     0.139 C 
ATOM     24  S   UNL     1      -0.433   0.972  -3.339  1.00  0.00     0.152 S 
ATOM     25  O   UNL     1       0.347   1.921  -4.113  1.00  0.00    -0.229 OA
ATOM     26  O   UNL     1      -1.871   1.001  -3.294  1.00  0.00    -0.229 OA
ENDBRANCH  18  20
ENDBRANCH  14  16
ENDBRANCH  13  14
ENDBRANCH  10  13
ENDBRANCH   3   6
ENDBRANCH   1   2
BRANCH   1  27
ATOM     27  C   UNL     1      -3.498   3.252  -1.557  1.00  0.00     0.023 C 
BRANCH  27  28
ATOM     28  C   UNL     1      -4.965   3.465  -1.888  1.00  0.00     0.023 C 
BRANCH  28  29
ATOM     29  C   UNL     1      -5.672   4.459  -1.000  1.00  0.00     0.116 C 
BRANCH  29  30
ATOM     30  N   UNL     1      -5.302   5.852  -1.190  1.00  0.00    -0.352 N 
ATOM     31  C   UNL     1      -5.885   7.001  -0.680  1.00  0.00     0.251 C 
ATOM     32  H   UNL     1      -4.519   6.001  -1.768  1.00  0.00     0.163 HD
ATOM     33  O   UNL     1      -5.482   8.095  -1.072  1.00  0.00    -0.269 OA
BRANCH  31  34
ATOM     34  C   UNL     1      -6.836   6.942   0.470  1.00  0.00     0.039 A 
ATOM     35  C   UNL     1      -6.809   8.028   1.359  1.00  0.00     0.014 A 
ATOM     36  C   UNL     1      -7.317   5.725   0.914  1.00  0.00     0.014 A 
ATOM     37  C   UNL     1      -6.885   7.782   2.721  1.00  0.00     0.010 A 
ATOM     38  C   UNL     1      -7.130   5.425   2.229  1.00  0.00     0.010 A 
ATOM     39  C   UNL     1      -6.866   6.458   3.123  1.00  0.00    -0.014 A 
BRANCH  39  40
ATOM     40  C   UNL     1      -6.768   5.987   4.481  1.00  0.00     0.031 A 
ATOM     41  C   UNL     1      -8.049   5.689   5.132  1.00  0.00     0.074 A 
ATOM     42  C   UNL     1      -5.553   5.562   4.891  1.00  0.00     0.049 A 
ATOM     43  N   UNL     1      -8.184   5.402   6.371  1.00  0.00    -0.248 NA
ATOM     44  C   UNL     1      -9.330   5.729   4.412  1.00  0.00     0.031 C 
ATOM     45  C   UNL     1      -5.203   4.659   5.978  1.00  0.00     0.029 A 
ATOM     46  N   UNL     1      -4.326   6.087   4.484  1.00  0.00    -0.354 N 
ATOM     47  C   UNL     1      -9.447   4.874   6.518  1.00  0.00     0.074 A 
ATOM     48  C   UNL     1     -10.165   5.233   5.326  1.00  0.00     0.031 C 
ATOM     49  C   UNL     1      -3.937   4.912   6.362  1.00  0.00     0.029 A 
ATOM     50  C   UNL     1      -3.503   6.094   5.628  1.00  0.00     0.049 A 
ATOM     51  H   UNL     1      -4.083   6.392   3.580  1.00  0.00     0.167 HD
ATOM     52  C   UNL     1      -9.659   4.034   7.564  1.00  0.00     0.031 A 
ATOM     53  C   UNL     1      -3.191   7.295   6.211  1.00  0.00     0.031 A 
ATOM     54  C   UNL     1      -8.503   4.057   8.459  1.00  0.00     0.049 A 
ATOM     55  C   UNL     1      -3.831   7.424   7.579  1.00  0.00     0.074 A 
ATOM     56  C   UNL     1      -7.418   3.210   8.599  1.00  0.00     0.029 A 
ATOM     57  N   UNL     1      -8.143   5.269   9.041  1.00  0.00    -0.354 N 
ATOM     58  N   UNL     1      -4.952   6.845   7.924  1.00  0.00    -0.248 NA
ATOM     59  C   UNL     1      -3.211   8.151   8.682  1.00  0.00     0.031 C 
ATOM     60  C   UNL     1      -6.349   3.976   9.146  1.00  0.00     0.029 A 
ATOM     61  C   UNL     1      -6.802   5.266   9.373  1.00  0.00     0.049 A 
ATOM     62  H   UNL     1      -8.757   6.022   9.195  1.00  0.00     0.167 HD
ATOM     63  C   UNL     1      -5.164   7.032   9.264  1.00  0.00     0.074 A 
ATOM     64  C   UNL     1      -4.062   7.881   9.687  1.00  0.00     0.031 C 
ATOM     65  C   UNL     1      -6.191   6.454   9.955  1.00  0.00     0.031 A 
BRANCH  52  66
ATOM     66  C   UNL     1     -10.762   3.011   7.646  1.00  0.00    -0.014 A 
ATOM     67  C   UNL     1     -10.747   2.097   8.714  1.00  0.00     0.009 A 
ATOM     68  C   UNL     1     -11.768   2.814   6.683  1.00  0.00     0.009 A 
ATOM     69  C   UNL     1     -11.664   1.042   8.805  1.00  0.00     0.001 A 
ATOM     70  C   UNL     1     -12.700   1.770   6.774  1.00  0.00     0.001 A 
ATOM     71  C   UNL     1     -12.643   0.878   7.833  1.00  0.00     0.000 A 
ENDBRANCH  52  66
BRANCH  53  72
ATOM     72  C   UNL     1      -3.057   8.387   5.189  1.00  0.00    -0.014 A 
ATOM     73  C   UNL     1      -2.057   8.214   4.203  1.00  0.00     0.009 A 
ATOM     74  C   UNL     1      -4.137   9.231   4.896  1.00  0.00     0.009 A 
ATOM     75  C   UNL     1      -2.256   8.667   2.895  1.00  0.00     0.001 A 
ATOM     76  C   UNL     1      -4.300   9.730   3.594  1.00  0.00     0.001 A 
ATOM     77  C   UNL     1      -3.404   9.386   2.581  1.00  0.00     0.000 A 
ENDBRANCH  53  72
BRANCH  65  78
ATOM     78  C   UNL     1      -6.677   6.906  11.311  1.00  0.00    -0.014 A 
ATOM     79  C   UNL     1      -6.408   8.168  11.854  1.00  0.00     0.009 A 
ATOM     80  C   UNL     1      -7.585   6.091  12.024  1.00  0.00     0.009 A 
ATOM     81  C   UNL     1      -6.956   8.565  13.079  1.00  0.00     0.001 A 
ATOM     82  C   UNL     1      -8.188   6.509  13.210  1.00  0.00     0.001 A 
ATOM     83  C   UNL     1      -7.854   7.741  13.751  1.00  0.00     0.000 A 
ENDBRANCH  65  78
ENDBRANCH  39  40
ENDBRANCH  31  34
ENDBRANCH  29  30
ENDBRANCH  28  29
ENDBRANCH  27  28
ENDBRANCH   1  27
TORSDOF 15
