REMARK SMILES O=C(NCCCCNC(=O)[C@@H](Cc1ccccc1)Nc1ccc(Cl)c(Br)c1)c1ccc(-c2c3nc(c(-c4ccccc4)c4ccc([nH]4)c(-c4ccccc4)c4nc(c(-c5ccccc5)c5ccc2[nH]5)C=C4)C=C3)cc1
REMARK SMILES IDX 5 1 4 2 3 3 1 4 2 5 28 7 29 8 75 9 30 10 74 11 31 12 32 13
REMARK SMILES IDX 33 14 68 15 34 16 73 17 67 18 69 19 35 20 72 21 66 22 65 23
REMARK SMILES IDX 36 25 58 26 43 27 57 28 44 29 47 30 56 31 70 32 45 33 46 34
REMARK SMILES IDX 55 36 71 37 48 38 37 39 38 40 42 41 39 42 41 43 40 44 59 45
REMARK SMILES IDX 60 46 64 47 61 48 63 49 62 50 49 51 50 52 54 53 51 54 53 55
REMARK SMILES IDX 52 56 6 57 7 58 8 59 9 60 10 62 11 63 12 64 13 65 14 66
REMARK SMILES IDX 18 67 15 68 17 69 16 70 19 71 20 73 21 74 27 75 22 76 25 77
REMARK SMILES IDX 23 78 26 79 24 80
REMARK H PARENT 3 6 69 24 47 35 8 61 19 72
REMARK Flexibility Score: inf
ROOT
ATOM      1  C   UNL     1       5.461   1.715   1.597  1.00  0.00     0.023 C 
ENDROOT
BRANCH   1   2
ATOM      2  C   UNL     1       4.830   0.575   0.811  1.00  0.00     0.116 C 
BRANCH   2   3
ATOM      3  N   UNL     1       3.381   0.476   0.952  1.00  0.00    -0.352 N 
ATOM      4  O   UNL     1       1.261   0.095   0.236  1.00  0.00    -0.269 OA
ATOM      5  C   UNL     1       2.465   0.080   0.004  1.00  0.00     0.251 C 
ATOM      6  H   UNL     1       3.014   0.723   1.831  1.00  0.00     0.163 HD
BRANCH   5   7
ATOM      7  C   UNL     1       2.967  -0.313  -1.326  1.00  0.00     0.039 A 
ATOM      8  C   UNL     1       4.014  -1.230  -1.428  1.00  0.00     0.014 A 
ATOM      9  C   UNL     1       2.468   0.332  -2.460  1.00  0.00     0.014 A 
ATOM     10  C   UNL     1       4.684  -1.362  -2.634  1.00  0.00     0.010 A 
ATOM     11  C   UNL     1       3.085   0.121  -3.695  1.00  0.00     0.010 A 
ATOM     12  C   UNL     1       4.227  -0.690  -3.781  1.00  0.00    -0.014 A 
BRANCH  12  13
ATOM     13  C   UNL     1       4.951  -0.880  -5.061  1.00  0.00     0.031 A 
ATOM     14  C   UNL     1       5.664   0.260  -5.734  1.00  0.00     0.074 A 
ATOM     15  C   UNL     1       5.008  -2.119  -5.584  1.00  0.00     0.049 A 
ATOM     16  N   UNL     1       6.356   0.251  -6.846  1.00  0.00    -0.248 NA
ATOM     17  C   UNL     1       5.591   1.578  -5.084  1.00  0.00     0.031 C 
ATOM     18  C   UNL     1       4.365  -3.306  -5.011  1.00  0.00     0.029 A 
ATOM     19  N   UNL     1       5.660  -2.595  -6.690  1.00  0.00    -0.354 N 
ATOM     20  C   UNL     1       6.772   1.561  -7.046  1.00  0.00     0.074 A 
ATOM     21  C   UNL     1       6.250   2.343  -5.945  1.00  0.00     0.031 C 
ATOM     22  C   UNL     1       4.712  -4.382  -5.731  1.00  0.00     0.029 A 
ATOM     23  C   UNL     1       5.535  -3.952  -6.854  1.00  0.00     0.049 A 
ATOM     24  H   UNL     1       6.168  -2.021  -7.307  1.00  0.00     0.167 HD
ATOM     25  C   UNL     1       7.519   2.065  -8.058  1.00  0.00     0.031 A 
ATOM     26  C   UNL     1       6.015  -4.765  -7.811  1.00  0.00     0.031 A 
ATOM     27  C   UNL     1       8.050   1.282  -9.143  1.00  0.00     0.049 A 
ATOM     28  C   UNL     1       6.821  -4.177  -8.927  1.00  0.00     0.074 A 
ATOM     29  C   UNL     1       8.834   1.700 -10.205  1.00  0.00     0.029 A 
ATOM     30  N   UNL     1       7.853  -0.080  -9.303  1.00  0.00    -0.354 N 
ATOM     31  N   UNL     1       7.196  -2.934  -9.104  1.00  0.00    -0.248 NA
ATOM     32  C   UNL     1       7.256  -5.101  -9.982  1.00  0.00     0.031 C 
ATOM     33  C   UNL     1       9.080   0.595 -11.029  1.00  0.00     0.029 A 
ATOM     34  C   UNL     1       8.484  -0.517 -10.456  1.00  0.00     0.049 A 
ATOM     35  H   UNL     1       7.340  -0.653  -8.688  1.00  0.00     0.167 HD
ATOM     36  C   UNL     1       7.911  -2.924 -10.292  1.00  0.00     0.074 A 
ATOM     37  C   UNL     1       7.940  -4.290 -10.777  1.00  0.00     0.031 C 
ATOM     38  C   UNL     1       8.486  -1.876 -10.929  1.00  0.00     0.031 A 
BRANCH  25  39
ATOM     39  C   UNL     1       7.784   3.544  -8.059  1.00  0.00    -0.014 A 
ATOM     40  C   UNL     1       8.720   4.120  -7.186  1.00  0.00     0.009 A 
ATOM     41  C   UNL     1       7.124   4.366  -8.986  1.00  0.00     0.009 A 
ATOM     42  C   UNL     1       8.972   5.494  -7.227  1.00  0.00     0.001 A 
ATOM     43  C   UNL     1       7.393   5.735  -9.039  1.00  0.00     0.001 A 
ATOM     44  C   UNL     1       8.312   6.299  -8.156  1.00  0.00     0.000 A 
ENDBRANCH  25  39
BRANCH  26  45
ATOM     45  C   UNL     1       5.715  -6.216  -7.753  1.00  0.00    -0.014 A 
ATOM     46  C   UNL     1       6.717  -7.138  -7.417  1.00  0.00     0.009 A 
ATOM     47  C   UNL     1       4.412  -6.681  -7.990  1.00  0.00     0.009 A 
ATOM     48  C   UNL     1       6.420  -8.499  -7.327  1.00  0.00     0.001 A 
ATOM     49  C   UNL     1       4.112  -8.038  -7.873  1.00  0.00     0.001 A 
ATOM     50  C   UNL     1       5.117  -8.947  -7.547  1.00  0.00     0.000 A 
ENDBRANCH  26  45
BRANCH  38  51
ATOM     51  C   UNL     1       9.196  -2.177 -12.214  1.00  0.00    -0.014 A 
ATOM     52  C   UNL     1       8.476  -2.418 -13.394  1.00  0.00     0.009 A 
ATOM     53  C   UNL     1      10.598  -2.206 -12.248  1.00  0.00     0.009 A 
ATOM     54  C   UNL     1       9.149  -2.713 -14.581  1.00  0.00     0.001 A 
ATOM     55  C   UNL     1      11.268  -2.481 -13.441  1.00  0.00     0.001 A 
ATOM     56  C   UNL     1      10.544  -2.742 -14.603  1.00  0.00     0.000 A 
ENDBRANCH  38  51
ENDBRANCH  12  13
ENDBRANCH   5   7
ENDBRANCH   2   3
ENDBRANCH   1   2
BRANCH   1  57
ATOM     57  C   UNL     1       5.183   1.662   3.092  1.00  0.00     0.023 C 
BRANCH  57  58
ATOM     58  C   UNL     1       5.804   0.475   3.823  1.00  0.00     0.116 C 
BRANCH  58  59
ATOM     59  N   UNL     1       7.049   0.868   4.443  1.00  0.00    -0.354 N 
ATOM     60  C   UNL     1       7.299   1.329   5.699  1.00  0.00     0.242 C 
ATOM     61  H   UNL     1       7.842   0.790   3.865  1.00  0.00     0.163 HD
ATOM     62  O   UNL     1       8.407   1.851   5.876  1.00  0.00    -0.273 OA
BRANCH  60  63
ATOM     63  C   UNL     1       6.305   1.189   6.880  1.00  0.00     0.173 C 
BRANCH  63  64
ATOM     64  C   UNL     1       5.189   2.256   6.948  1.00  0.00     0.070 C 
BRANCH  64  65
ATOM     65  C   UNL     1       3.924   2.181   6.117  1.00  0.00    -0.045 A 
ATOM     66  C   UNL     1       3.487   3.323   5.420  1.00  0.00     0.004 A 
ATOM     67  C   UNL     1       3.107   1.043   6.089  1.00  0.00     0.004 A 
ATOM     68  C   UNL     1       2.315   3.300   4.657  1.00  0.00     0.000 A 
ATOM     69  C   UNL     1       1.940   1.015   5.316  1.00  0.00     0.000 A 
ATOM     70  C   UNL     1       1.549   2.139   4.593  1.00  0.00     0.000 A 
ENDBRANCH  64  65
ENDBRANCH  63  64
BRANCH  63  71
ATOM     71  N   UNL     1       5.865  -0.205   7.065  1.00  0.00    -0.373 N 
ATOM     72  H   UNL     1       5.628  -0.722   6.261  1.00  0.00     0.161 HD
BRANCH  71  73
ATOM     73  C   UNL     1       5.763  -0.839   8.293  1.00  0.00     0.036 A 
ATOM     74  C   UNL     1       5.535  -2.221   8.318  1.00  0.00     0.027 A 
ATOM     75  C   UNL     1       5.825  -0.174   9.523  1.00  0.00     0.043 A 
ATOM     76  C   UNL     1       5.432  -2.923   9.525  1.00  0.00     0.024 A 
ATOM     77  C   UNL     1       5.729  -0.868  10.739  1.00  0.00     0.038 A 
ATOM     78  C   UNL     1       5.539  -2.249  10.740  1.00  0.00     0.055 A 
ATOM     79  Br  UNL     1       5.875   0.149  12.338  1.00  0.00    -0.049 Br
ATOM     80  Cl  UNL     1       5.426  -3.181  12.189  1.00  0.00    -0.083 Cl
ENDBRANCH  71  73
ENDBRANCH  63  71
ENDBRANCH  60  63
ENDBRANCH  58  59
ENDBRANCH  57  58
ENDBRANCH   1  57
TORSDOF 15
