REMARK SMILES O=C(C[C@H](c1ccccc1)N1C(=O)CCCCC1=O)NCCCCNC(=O)c1ccc(-c2c3nc(c(-c4ccccc4)c4ccc([nH]4)c(-c4ccccc4)c4nc(c(-c5ccccc5)c5ccc2[nH]5)C=C4)C=C3)cc1
REMARK SMILES IDX 21 1 20 2 1 3 2 4 3 6 4 7 11 8 12 9 13 10 14 11 15 12 18 14
REMARK SMILES IDX 19 15 17 16 16 17 5 19 6 20 10 21 7 22 9 23 8 24 22 25 23 26
REMARK SMILES IDX 24 27 25 28 26 29 27 31 28 32 29 33 75 34 30 35 74 36 31 37
REMARK SMILES IDX 32 38 33 39 68 40 34 41 73 42 67 43 69 44 35 45 72 46 66 47
REMARK SMILES IDX 65 48 36 50 58 51 43 52 57 53 44 54 47 55 56 56 70 57 45 58
REMARK SMILES IDX 46 59 55 61 71 62 48 63 37 64 38 65 42 66 39 67 41 68 40 69
REMARK SMILES IDX 59 70 60 71 64 72 61 73 63 74 62 75 49 76 50 77 54 78 51 79
REMARK SMILES IDX 53 80 52 81
REMARK H PARENT 20 5 25 30 69 49 47 60
REMARK Flexibility Score: 90.00
ROOT
ATOM      1  C   UNL     1       5.880   1.029   5.096  1.00  0.00     0.116 C 
ENDROOT
BRANCH   1   2
ATOM      2  N   UNL     1       5.497   1.235   3.708  1.00  0.00    -0.356 N 
ATOM      3  O   UNL     1       6.128  -0.835   3.009  1.00  0.00    -0.275 OA
ATOM      4  C   UNL     1       5.656   0.271   2.739  1.00  0.00     0.222 C 
ATOM      5  H   UNL     1       5.107   2.102   3.451  1.00  0.00     0.163 HD
BRANCH   4   6
ATOM      6  C   UNL     1       5.240   0.589   1.295  1.00  0.00     0.130 C 
BRANCH   6   7
ATOM      7  C   UNL     1       4.265   1.761   1.041  1.00  0.00     0.133 C 
BRANCH   7   8
ATOM      8  N   UNL     1       4.833   3.141   0.960  1.00  0.00    -0.274 N 
BRANCH   8   9
ATOM      9  C   UNL     1       6.014   3.478   1.588  1.00  0.00     0.229 C 
ATOM     10  O   UNL     1       6.968   2.727   1.692  1.00  0.00    -0.274 OA
BRANCH   9  11
ATOM     11  C   UNL     1       6.059   4.847   2.253  1.00  0.00     0.101 C 
BRANCH  11  12
ATOM     12  C   UNL     1       6.079   6.012   1.285  1.00  0.00     0.010 CG0
ATOM     13  G   UNL     1       4.699   6.408   0.763  1.00  0.00     0.000 G0
ENDBRANCH  11  12
ENDBRANCH   9  11
ENDBRANCH   8   9
BRANCH   8  14
ATOM     14  C   UNL     1       4.391   4.041   0.011  1.00  0.00     0.229 C 
ATOM     15  O   UNL     1       4.637   3.958  -1.190  1.00  0.00    -0.274 OA
BRANCH  14  16
ATOM     16  C   UNL     1       3.714   5.258   0.591  1.00  0.00     0.101 C 
BRANCH  16  17
ATOM     17  C   UNL     1       4.699   6.408   0.763  1.00  0.00     0.010 CG0
ATOM     18  G   UNL     1       6.079   6.012   1.285  1.00  0.00     0.000 G0
ENDBRANCH  16  17
ENDBRANCH  14  16
ENDBRANCH   8  14
ENDBRANCH   7   8
BRANCH   7  19
ATOM     19  C   UNL     1       3.297   1.426  -0.101  1.00  0.00    -0.024 A 
ATOM     20  C   UNL     1       3.768   1.161  -1.398  1.00  0.00     0.006 A 
ATOM     21  C   UNL     1       1.909   1.408   0.122  1.00  0.00     0.006 A 
ATOM     22  C   UNL     1       2.877   0.925  -2.447  1.00  0.00     0.000 A 
ATOM     23  C   UNL     1       1.021   1.157  -0.927  1.00  0.00     0.000 A 
ATOM     24  C   UNL     1       1.504   0.926  -2.213  1.00  0.00     0.000 A 
ENDBRANCH   7  19
ENDBRANCH   6   7
ENDBRANCH   4   6
ENDBRANCH   1   2
BRANCH   1  25
ATOM     25  C   UNL     1       7.325   1.423   5.420  1.00  0.00     0.023 C 
BRANCH  25  26
ATOM     26  C   UNL     1       7.744   2.869   5.123  1.00  0.00     0.023 C 
BRANCH  26  27
ATOM     27  C   UNL     1       6.831   3.983   5.631  1.00  0.00     0.116 C 
BRANCH  27  28
ATOM     28  N   UNL     1       6.866   4.159   7.069  1.00  0.00    -0.352 N 
ATOM     29  C   UNL     1       6.782   5.323   7.799  1.00  0.00     0.251 C 
ATOM     30  H   UNL     1       6.962   3.332   7.595  1.00  0.00     0.163 HD
ATOM     31  O   UNL     1       6.968   5.290   9.012  1.00  0.00    -0.269 OA
BRANCH  29  32
ATOM     32  C   UNL     1       6.494   6.629   7.147  1.00  0.00     0.039 A 
ATOM     33  C   UNL     1       7.230   7.750   7.552  1.00  0.00     0.014 A 
ATOM     34  C   UNL     1       5.471   6.785   6.208  1.00  0.00     0.014 A 
ATOM     35  C   UNL     1       6.972   9.008   6.992  1.00  0.00     0.010 A 
ATOM     36  C   UNL     1       5.234   8.038   5.624  1.00  0.00     0.010 A 
ATOM     37  C   UNL     1       5.981   9.163   6.010  1.00  0.00    -0.014 A 
BRANCH  37  38
ATOM     38  C   UNL     1       5.731  10.489   5.382  1.00  0.00     0.031 A 
ATOM     39  C   UNL     1       4.473  11.263   5.673  1.00  0.00     0.074 A 
ATOM     40  C   UNL     1       6.627  10.999   4.513  1.00  0.00     0.049 A 
ATOM     41  N   UNL     1       4.086  12.420   5.195  1.00  0.00    -0.248 NA
ATOM     42  C   UNL     1       3.522  10.653   6.614  1.00  0.00     0.031 C 
ATOM     43  C   UNL     1       7.885  10.363   4.123  1.00  0.00     0.029 A 
ATOM     44  N   UNL     1       6.611  12.173   3.799  1.00  0.00    -0.354 N 
ATOM     45  C   UNL     1       2.846  12.674   5.767  1.00  0.00     0.074 A 
ATOM     46  C   UNL     1       2.531  11.534   6.604  1.00  0.00     0.031 C 
ATOM     47  C   UNL     1       8.528  11.160   3.254  1.00  0.00     0.029 A 
ATOM     48  C   UNL     1       7.716  12.348   3.003  1.00  0.00     0.049 A 
ATOM     49  H   UNL     1       5.877  12.827   3.853  1.00  0.00     0.167 HD
ATOM     50  C   UNL     1       2.045  13.758   5.622  1.00  0.00     0.031 A 
ATOM     51  C   UNL     1       8.044  13.348   2.162  1.00  0.00     0.031 A 
ATOM     52  C   UNL     1       2.346  14.904   4.804  1.00  0.00     0.049 A 
ATOM     53  C   UNL     1       7.125  14.524   1.995  1.00  0.00     0.074 A 
ATOM     54  C   UNL     1       1.611  16.069   4.648  1.00  0.00     0.029 A 
ATOM     55  N   UNL     1       3.468  15.032   4.002  1.00  0.00    -0.354 N 
ATOM     56  N   UNL     1       5.982  14.769   2.586  1.00  0.00    -0.248 NA
ATOM     57  C   UNL     1       7.550  15.567   1.048  1.00  0.00     0.031 C 
ATOM     58  C   UNL     1       2.267  16.883   3.718  1.00  0.00     0.029 A 
ATOM     59  C   UNL     1       3.431  16.242   3.328  1.00  0.00     0.049 A 
ATOM     60  H   UNL     1       4.185  14.362   3.922  1.00  0.00     0.167 HD
ATOM     61  C   UNL     1       5.563  16.002   2.102  1.00  0.00     0.074 A 
ATOM     62  C   UNL     1       6.578  16.460   1.176  1.00  0.00     0.031 C 
ATOM     63  C   UNL     1       4.438  16.693   2.404  1.00  0.00     0.031 A 
BRANCH  50  64
ATOM     64  C   UNL     1       0.738  13.755   6.363  1.00  0.00    -0.014 A 
ATOM     65  C   UNL     1       0.690  13.969   7.749  1.00  0.00     0.009 A 
ATOM     66  C   UNL     1      -0.464  13.589   5.657  1.00  0.00     0.009 A 
ATOM     67  C   UNL     1      -0.535  13.987   8.418  1.00  0.00     0.001 A 
ATOM     68  C   UNL     1      -1.689  13.630   6.326  1.00  0.00     0.001 A 
ATOM     69  C   UNL     1      -1.723  13.821   7.706  1.00  0.00     0.000 A 
ENDBRANCH  50  64
BRANCH  51  70
ATOM     70  C   UNL     1       9.320  13.287   1.406  1.00  0.00    -0.014 A 
ATOM     71  C   UNL     1      10.397  14.112   1.766  1.00  0.00     0.009 A 
ATOM     72  C   UNL     1       9.463  12.413   0.318  1.00  0.00     0.009 A 
ATOM     73  C   UNL     1      11.587  14.076   1.036  1.00  0.00     0.001 A 
ATOM     74  C   UNL     1      10.663  12.364  -0.395  1.00  0.00     0.001 A 
ATOM     75  C   UNL     1      11.720  13.200  -0.040  1.00  0.00     0.000 A 
ENDBRANCH  51  70
BRANCH  63  76
ATOM     76  C   UNL     1       4.254  18.031   1.747  1.00  0.00    -0.014 A 
ATOM     77  C   UNL     1       3.880  18.132   0.399  1.00  0.00     0.009 A 
ATOM     78  C   UNL     1       4.426  19.205   2.496  1.00  0.00     0.009 A 
ATOM     79  C   UNL     1       3.709  19.386  -0.194  1.00  0.00     0.001 A 
ATOM     80  C   UNL     1       4.234  20.456   1.907  1.00  0.00     0.001 A 
ATOM     81  C   UNL     1       3.884  20.545   0.560  1.00  0.00     0.000 A 
ENDBRANCH  63  76
ENDBRANCH  37  38
ENDBRANCH  29  32
ENDBRANCH  27  28
ENDBRANCH  26  27
ENDBRANCH  25  26
ENDBRANCH   1  25
TORSDOF 14
