REMARK SMILES Cc1cc(C(=O)N[C@@H](Cc2ccccc2)C(=O)NCCCCNC(=O)c2ccc(-c3c4nc(c(-c5ccccc5)c5ccc([nH]5)c(-c5ccccc5)c5nc(c(-c6ccccc6)c6ccc3[nH]6)C=C5)C=C4)cc2)c(C)o1
REMARK SMILES IDX 20 1 19 2 18 3 16 4 17 5 8 7 7 8 5 9 6 10 4 12 1 13 2 14
REMARK SMILES IDX 3 15 76 16 74 17 75 18 9 19 10 20 11 21 15 22 12 23 14 24
REMARK SMILES IDX 13 25 21 26 22 27 23 28 24 29 25 31 26 32 27 33 73 34 28 35
REMARK SMILES IDX 72 36 29 37 30 38 31 39 66 40 32 41 71 42 65 43 67 44 33 45
REMARK SMILES IDX 70 46 64 47 63 48 34 50 56 51 41 52 55 53 42 54 45 55 54 56
REMARK SMILES IDX 68 57 43 58 44 59 53 61 69 62 46 63 35 64 36 65 40 66 37 67
REMARK SMILES IDX 39 68 38 69 57 70 58 71 62 72 59 73 61 74 60 75 47 76 48 77
REMARK SMILES IDX 52 78 49 79 51 80 50 81
REMARK H PARENT 18 6 7 11 23 30 67 49 45 60
REMARK Flexibility Score: inf
ROOT
ATOM      1  C   UNL     1      -2.156   6.732   2.316  1.00  0.00     0.023 C 
ENDROOT
BRANCH   1   2
ATOM      2  C   UNL     1      -1.060   6.489   1.290  1.00  0.00     0.116 C 
BRANCH   2   3
ATOM      3  N   UNL     1       0.083   5.741   1.769  1.00  0.00    -0.354 N 
ATOM      4  C   UNL     1       0.871   4.845   1.099  1.00  0.00     0.242 C 
ATOM      5  O   UNL     1       2.001   4.641   1.560  1.00  0.00    -0.273 OA
ATOM      6  H   UNL     1       0.327   5.899   2.710  1.00  0.00     0.163 HD
BRANCH   4   7
ATOM      7  C   UNL     1       0.443   4.149  -0.220  1.00  0.00     0.176 C 
BRANCH   7   8
ATOM      8  N   UNL     1      -0.896   3.570  -0.125  1.00  0.00    -0.340 N 
ATOM      9  C   UNL     1      -1.360   2.310   0.145  1.00  0.00     0.255 C 
ATOM     10  O   UNL     1      -2.579   2.239   0.323  1.00  0.00    -0.269 OA
ATOM     11  H   UNL     1      -1.614   4.222  -0.290  1.00  0.00     0.164 HD
BRANCH   9  12
ATOM     12  C   UNL     1      -0.514   1.118   0.150  1.00  0.00     0.081 A 
ATOM     13  C   UNL     1       2.378  -1.237   0.105  1.00  0.00     0.087 C 
ATOM     14  C   UNL     1       1.147  -0.424   0.135  1.00  0.00     0.101 A 
ATOM     15  C   UNL     1       0.893   0.919   0.309  1.00  0.00     0.059 A 
ATOM     16  O   UNL     1      -0.018  -1.093  -0.028  1.00  0.00    -0.466 OA
ATOM     17  C   UNL     1      -1.022  -0.175   0.009  1.00  0.00     0.113 A 
ATOM     18  C   UNL     1      -2.377  -0.761  -0.115  1.00  0.00     0.088 C 
ENDBRANCH   9  12
ENDBRANCH   7   8
BRANCH   7  19
ATOM     19  C   UNL     1       0.719   4.941  -1.516  1.00  0.00     0.070 C 
BRANCH  19  20
ATOM     20  C   UNL     1       0.054   6.280  -1.714  1.00  0.00    -0.045 A 
ATOM     21  C   UNL     1       0.790   7.463  -1.541  1.00  0.00     0.004 A 
ATOM     22  C   UNL     1      -1.298   6.373  -2.075  1.00  0.00     0.004 A 
ATOM     23  C   UNL     1       0.175   8.709  -1.673  1.00  0.00     0.000 A 
ATOM     24  C   UNL     1      -1.917   7.621  -2.183  1.00  0.00     0.000 A 
ATOM     25  C   UNL     1      -1.183   8.788  -1.975  1.00  0.00     0.000 A 
ENDBRANCH  19  20
ENDBRANCH   7  19
ENDBRANCH   4   7
ENDBRANCH   2   3
ENDBRANCH   1   2
BRANCH   1  26
ATOM     26  C   UNL     1      -1.867   7.811   3.354  1.00  0.00     0.023 C 
BRANCH  26  27
ATOM     27  C   UNL     1      -1.348   9.147   2.827  1.00  0.00     0.116 C 
BRANCH  27  28
ATOM     28  N   UNL     1      -2.154   9.743   1.772  1.00  0.00    -0.352 N 
ATOM     29  C   UNL     1      -2.481  11.066   1.569  1.00  0.00     0.251 C 
ATOM     30  H   UNL     1      -2.517   9.111   1.109  1.00  0.00     0.163 HD
ATOM     31  O   UNL     1      -3.194  11.389   0.627  1.00  0.00    -0.269 OA
BRANCH  29  32
ATOM     32  C   UNL     1      -2.002  12.096   2.519  1.00  0.00     0.039 A 
ATOM     33  C   UNL     1      -2.914  13.031   3.017  1.00  0.00     0.014 A 
ATOM     34  C   UNL     1      -0.670  12.126   2.940  1.00  0.00     0.014 A 
ATOM     35  C   UNL     1      -2.508  13.944   3.994  1.00  0.00     0.010 A 
ATOM     36  C   UNL     1      -0.288  12.981   3.971  1.00  0.00     0.010 A 
ATOM     37  C   UNL     1      -1.201  13.901   4.508  1.00  0.00    -0.014 A 
BRANCH  37  38
ATOM     38  C   UNL     1      -0.773  14.815   5.599  1.00  0.00     0.031 A 
ATOM     39  C   UNL     1       0.309  15.832   5.355  1.00  0.00     0.074 A 
ATOM     40  C   UNL     1      -1.314  14.692   6.827  1.00  0.00     0.049 A 
ATOM     41  N   UNL     1       0.831  16.698   6.188  1.00  0.00    -0.248 NA
ATOM     42  C   UNL     1       0.905  15.860   4.010  1.00  0.00     0.031 C 
ATOM     43  C   UNL     1      -2.322  13.705   7.220  1.00  0.00     0.029 A 
ATOM     44  N   UNL     1      -1.085  15.406   7.978  1.00  0.00    -0.354 N 
ATOM     45  C   UNL     1       1.829  17.352   5.476  1.00  0.00     0.074 A 
ATOM     46  C   UNL     1       1.873  16.752   4.161  1.00  0.00     0.031 C 
ATOM     47  C   UNL     1      -2.647  13.896   8.509  1.00  0.00     0.029 A 
ATOM     48  C   UNL     1      -1.855  15.001   9.041  1.00  0.00     0.049 A 
ATOM     49  H   UNL     1      -0.430  16.139   8.036  1.00  0.00     0.167 HD
ATOM     50  C   UNL     1       2.623  18.376   5.870  1.00  0.00     0.031 A 
ATOM     51  C   UNL     1      -1.926  15.474  10.299  1.00  0.00     0.031 A 
ATOM     52  C   UNL     1       2.562  18.998   7.164  1.00  0.00     0.049 A 
ATOM     53  C   UNL     1      -1.075  16.649  10.694  1.00  0.00     0.074 A 
ATOM     54  C   UNL     1       3.281  20.084   7.634  1.00  0.00     0.029 A 
ATOM     55  N   UNL     1       1.727  18.594   8.193  1.00  0.00    -0.354 N 
ATOM     56  N   UNL     1      -0.194  17.308   9.981  1.00  0.00    -0.248 NA
ATOM     57  C   UNL     1      -1.249  17.161  12.061  1.00  0.00     0.031 C 
ATOM     58  C   UNL     1       2.900  20.319   8.960  1.00  0.00     0.029 A 
ATOM     59  C   UNL     1       1.915  19.405   9.299  1.00  0.00     0.049 A 
ATOM     60  H   UNL     1       1.094  17.841   8.145  1.00  0.00     0.167 HD
ATOM     61  C   UNL     1       0.266  18.330  10.801  1.00  0.00     0.074 A 
ATOM     62  C   UNL     1      -0.444  18.213  12.058  1.00  0.00     0.031 C 
ATOM     63  C   UNL     1       1.194  19.282  10.537  1.00  0.00     0.031 A 
BRANCH  50  64
ATOM     64  C   UNL     1       3.624  18.891   4.875  1.00  0.00    -0.014 A 
ATOM     65  C   UNL     1       3.216  19.629   3.752  1.00  0.00     0.009 A 
ATOM     66  C   UNL     1       4.993  18.660   5.076  1.00  0.00     0.009 A 
ATOM     67  C   UNL     1       4.157  20.092   2.830  1.00  0.00     0.001 A 
ATOM     68  C   UNL     1       5.934  19.148   4.167  1.00  0.00     0.001 A 
ATOM     69  C   UNL     1       5.515  19.855   3.041  1.00  0.00     0.000 A 
ENDBRANCH  50  64
BRANCH  51  70
ATOM     70  C   UNL     1      -2.870  14.870  11.275  1.00  0.00    -0.014 A 
ATOM     71  C   UNL     1      -4.028  15.562  11.663  1.00  0.00     0.009 A 
ATOM     72  C   UNL     1      -2.608  13.614  11.840  1.00  0.00     0.009 A 
ATOM     73  C   UNL     1      -4.887  15.023  12.623  1.00  0.00     0.001 A 
ATOM     74  C   UNL     1      -3.483  13.065  12.780  1.00  0.00     0.001 A 
ATOM     75  C   UNL     1      -4.615  13.775  13.179  1.00  0.00     0.000 A 
ENDBRANCH  51  70
BRANCH  63  76
ATOM     76  C   UNL     1       1.457  20.297  11.612  1.00  0.00    -0.014 A 
ATOM     77  C   UNL     1       2.168  19.962  12.774  1.00  0.00     0.009 A 
ATOM     78  C   UNL     1       1.005  21.615  11.444  1.00  0.00     0.009 A 
ATOM     79  C   UNL     1       2.385  20.919  13.767  1.00  0.00     0.001 A 
ATOM     80  C   UNL     1       1.247  22.576  12.426  1.00  0.00     0.001 A 
ATOM     81  C   UNL     1       1.928  22.225  13.591  1.00  0.00     0.000 A 
ENDBRANCH  63  76
ENDBRANCH  37  38
ENDBRANCH  29  32
ENDBRANCH  27  28
ENDBRANCH  26  27
ENDBRANCH   1  26
TORSDOF 15
