REMARK SMILES CCC(C)(C)[C@@H]1CCc2c(sc(=O)n2CCCC(=O)NCCCCNC(=O)c2ccc(-c3c4nc(c(-c5ccccc5)c5ccc([nH]5)c(-c5ccccc5)c5nc(c(-c6ccccc6)c6ccc3[nH]6)C=C5)C=C4)cc2)C1
REMARK SMILES IDX 21 1 20 2 18 3 19 4 17 6 16 7 15 8 14 9 6 10 7 11 76 12 8 13
REMARK SMILES IDX 10 14 9 15 11 16 12 17 13 18 3 19 4 20 5 21 2 22 1 23 22 24
REMARK SMILES IDX 23 25 24 26 25 27 26 28 27 30 28 31 29 32 75 33 30 34 74 35
REMARK SMILES IDX 31 36 32 37 33 38 68 39 34 40 73 41 67 42 69 43 35 44 72 45
REMARK SMILES IDX 66 46 65 47 36 49 58 50 43 51 57 52 44 53 47 54 56 55 70 56
REMARK SMILES IDX 45 57 46 58 55 60 71 61 48 62 37 63 38 64 42 65 39 66 41 67
REMARK SMILES IDX 40 68 59 69 60 70 64 71 61 72 63 73 62 74 49 75 50 76 54 77
REMARK SMILES IDX 51 78 53 79 52 80
REMARK H PARENT 20 5 25 29 69 48 47 59
REMARK Flexibility Score: inf
ROOT
ATOM      1  C   UNL     1       0.386  -4.916   1.286  1.00  0.00     0.116 C 
ENDROOT
BRANCH   1   2
ATOM      2  N   UNL     1       0.715  -6.159   0.620  1.00  0.00    -0.356 N 
ATOM      3  C   UNL     1       1.880  -6.752   0.263  1.00  0.00     0.220 C 
ATOM      4  O   UNL     1       1.769  -7.888  -0.218  1.00  0.00    -0.275 OA
ATOM      5  H   UNL     1      -0.079  -6.687   0.373  1.00  0.00     0.163 HD
BRANCH   3   6
ATOM      6  C   UNL     1       3.273  -6.179   0.478  1.00  0.00     0.102 C 
BRANCH   6   7
ATOM      7  C   UNL     1       3.733  -4.904  -0.218  1.00  0.00     0.032 C 
BRANCH   7   8
ATOM      8  C   UNL     1       3.215  -3.521   0.166  1.00  0.00     0.127 C 
BRANCH   8   9
ATOM      9  N   UNL     1       3.468  -2.907   1.480  1.00  0.00    -0.303 N 
ATOM     10  C   UNL     1       2.538   1.196   2.166  1.00  0.00     0.000 C 
ATOM     11  C   UNL     1       3.294   0.907   0.848  1.00  0.00     0.011 C 
ATOM     12  C   UNL     1       3.180   0.331   3.285  1.00  0.00     0.053 C 
ATOM     13  C   UNL     1       3.370  -0.577   0.446  1.00  0.00     0.055 C 
ATOM     14  C   UNL     1       3.379  -1.083   2.879  1.00  0.00     0.030 A 
ATOM     15  C   UNL     1       3.434  -1.515   1.613  1.00  0.00     0.035 A 
ATOM     16  S   UNL     1       3.465  -2.371   4.015  1.00  0.00    -0.079 S 
ATOM     17  C   UNL     1       3.446  -3.571   2.713  1.00  0.00     0.307 A 
ATOM     18  O   UNL     1       3.339  -4.747   2.971  1.00  0.00    -0.257 OA
BRANCH  10  19
ATOM     19  C   UNL     1       0.946   1.227   2.079  1.00  0.00    -0.032 C 
ATOM     20  C   UNL     1       0.535   2.609   1.514  1.00  0.00     0.011 C 
ATOM     21  C   UNL     1       0.332   1.143   3.502  1.00  0.00     0.011 C 
BRANCH  19  22
ATOM     22  C   UNL     1       0.263   0.099   1.248  1.00  0.00     0.003 C 
ATOM     23  C   UNL     1       0.121   0.312  -0.258  1.00  0.00     0.004 C 
ENDBRANCH  19  22
ENDBRANCH  10  19
ENDBRANCH   8   9
ENDBRANCH   7   8
ENDBRANCH   6   7
ENDBRANCH   3   6
ENDBRANCH   1   2
BRANCH   1  24
ATOM     24  C   UNL     1      -0.338  -3.935   0.351  1.00  0.00     0.023 C 
BRANCH  24  25
ATOM     25  C   UNL     1      -1.846  -4.151   0.183  1.00  0.00     0.023 C 
BRANCH  25  26
ATOM     26  C   UNL     1      -2.670  -3.898   1.440  1.00  0.00     0.116 C 
BRANCH  26  27
ATOM     27  N   UNL     1      -2.660  -2.502   1.874  1.00  0.00    -0.352 N 
ATOM     28  C   UNL     1      -3.253  -1.986   3.012  1.00  0.00     0.251 C 
ATOM     29  H   UNL     1      -2.183  -1.864   1.296  1.00  0.00     0.163 HD
ATOM     30  O   UNL     1      -3.565  -0.803   3.086  1.00  0.00    -0.269 OA
BRANCH  28  31
ATOM     31  C   UNL     1      -3.479  -2.891   4.154  1.00  0.00     0.039 A 
ATOM     32  C   UNL     1      -4.688  -2.899   4.855  1.00  0.00     0.014 A 
ATOM     33  C   UNL     1      -2.451  -3.773   4.488  1.00  0.00     0.014 A 
ATOM     34  C   UNL     1      -4.880  -3.865   5.843  1.00  0.00     0.010 A 
ATOM     35  C   UNL     1      -2.683  -4.795   5.378  1.00  0.00     0.010 A 
ATOM     36  C   UNL     1      -3.881  -4.827   6.083  1.00  0.00    -0.014 A 
BRANCH  36  37
ATOM     37  C   UNL     1      -4.161  -6.001   6.909  1.00  0.00     0.031 A 
ATOM     38  C   UNL     1      -5.335  -6.777   6.418  1.00  0.00     0.074 A 
ATOM     39  C   UNL     1      -3.330  -6.471   7.868  1.00  0.00     0.049 A 
ATOM     40  N   UNL     1      -6.500  -6.851   6.968  1.00  0.00    -0.248 NA
ATOM     41  C   UNL     1      -5.276  -7.379   5.072  1.00  0.00     0.031 C 
ATOM     42  C   UNL     1      -1.997  -5.974   8.228  1.00  0.00     0.029 A 
ATOM     43  N   UNL     1      -3.452  -7.569   8.670  1.00  0.00    -0.354 N 
ATOM     44  C   UNL     1      -7.241  -7.718   6.171  1.00  0.00     0.074 A 
ATOM     45  C   UNL     1      -6.526  -7.825   4.926  1.00  0.00     0.031 C 
ATOM     46  C   UNL     1      -1.352  -6.893   8.985  1.00  0.00     0.029 A 
ATOM     47  C   UNL     1      -2.272  -7.971   9.300  1.00  0.00     0.049 A 
ATOM     48  H   UNL     1      -4.307  -8.041   8.795  1.00  0.00     0.167 HD
ATOM     49  C   UNL     1      -8.196  -8.517   6.726  1.00  0.00     0.031 A 
ATOM     50  C   UNL     1      -2.064  -9.112  10.012  1.00  0.00     0.031 A 
ATOM     51  C   UNL     1      -8.521  -8.076   8.062  1.00  0.00     0.049 A 
ATOM     52  C   UNL     1      -3.392  -9.639  10.388  1.00  0.00     0.074 A 
ATOM     53  C   UNL     1      -9.000  -6.912   8.627  1.00  0.00     0.029 A 
ATOM     54  N   UNL     1      -7.938  -8.787   9.083  1.00  0.00    -0.354 N 
ATOM     55  N   UNL     1      -4.174  -9.059  11.248  1.00  0.00    -0.248 NA
ATOM     56  C   UNL     1      -4.035 -10.566   9.474  1.00  0.00     0.031 C 
ATOM     57  C   UNL     1      -8.288  -6.779   9.856  1.00  0.00     0.029 A 
ATOM     58  C   UNL     1      -7.491  -7.911  10.031  1.00  0.00     0.049 A 
ATOM     59  H   UNL     1      -7.856  -9.767   9.125  1.00  0.00     0.167 HD
ATOM     60  C   UNL     1      -5.434  -9.156  10.679  1.00  0.00     0.074 A 
ATOM     61  C   UNL     1      -5.303 -10.187   9.647  1.00  0.00     0.031 C 
ATOM     62  C   UNL     1      -6.367  -8.184  10.897  1.00  0.00     0.031 A 
BRANCH  49  63
ATOM     63  C   UNL     1      -8.437  -9.952   6.298  1.00  0.00    -0.014 A 
ATOM     64  C   UNL     1      -9.375 -10.710   7.027  1.00  0.00     0.009 A 
ATOM     65  C   UNL     1      -7.582 -10.671   5.444  1.00  0.00     0.009 A 
ATOM     66  C   UNL     1      -9.375 -12.110   6.988  1.00  0.00     0.001 A 
ATOM     67  C   UNL     1      -7.607 -12.067   5.370  1.00  0.00     0.001 A 
ATOM     68  C   UNL     1      -8.481 -12.788   6.168  1.00  0.00     0.000 A 
ENDBRANCH  49  63
BRANCH  50  69
ATOM     69  C   UNL     1      -0.851  -9.941  10.222  1.00  0.00    -0.014 A 
ATOM     70  C   UNL     1      -0.825 -10.923  11.233  1.00  0.00     0.009 A 
ATOM     71  C   UNL     1       0.148 -10.001   9.237  1.00  0.00     0.009 A 
ATOM     72  C   UNL     1       0.124 -11.957  11.221  1.00  0.00     0.001 A 
ATOM     73  C   UNL     1       1.098 -11.033   9.227  1.00  0.00     0.001 A 
ATOM     74  C   UNL     1       1.074 -12.021  10.207  1.00  0.00     0.000 A 
ENDBRANCH  50  69
BRANCH  62  75
ATOM     75  C   UNL     1      -6.116  -7.193  12.007  1.00  0.00    -0.014 A 
ATOM     76  C   UNL     1      -5.006  -6.331  12.066  1.00  0.00     0.009 A 
ATOM     77  C   UNL     1      -7.123  -7.046  12.973  1.00  0.00     0.009 A 
ATOM     78  C   UNL     1      -4.898  -5.376  13.084  1.00  0.00     0.001 A 
ATOM     79  C   UNL     1      -7.027  -6.078  13.972  1.00  0.00     0.001 A 
ATOM     80  C   UNL     1      -5.911  -5.248  14.033  1.00  0.00     0.000 A 
ENDBRANCH  62  75
ENDBRANCH  36  37
ENDBRANCH  28  31
ENDBRANCH  26  27
ENDBRANCH  25  26
ENDBRANCH  24  25
ENDBRANCH   1  24
TORSDOF 16
