REMARK SMILES O=C(NCCCCNC(=O)[C@H]1C=C[C@H](NC(=O)c2cc(F)c(Cl)cc2Cl)C1)c1ccc(-c2c3nc(c(-c4ccccc4)c4ccc([nH]4)c(-c4ccccc4)c4nc(c(-c5ccccc5)c5ccc2[nH]5)C=C4)C=C3)cc1
REMARK SMILES IDX 5 1 4 2 3 3 1 4 2 5 28 7 29 8 75 9 30 10 74 11 31 12 32 13
REMARK SMILES IDX 33 14 68 15 34 16 73 17 67 18 69 19 35 20 72 21 66 22 65 23
REMARK SMILES IDX 36 25 58 26 43 27 57 28 44 29 47 30 56 31 70 32 45 33 46 34
REMARK SMILES IDX 55 36 71 37 48 38 37 39 38 40 42 41 39 42 41 43 40 44 59 45
REMARK SMILES IDX 60 46 64 47 61 48 63 49 62 50 49 51 50 52 54 53 51 54 53 55
REMARK SMILES IDX 52 56 6 57 7 58 8 59 9 60 10 62 11 63 12 64 27 65 13 66
REMARK SMILES IDX 14 67 15 68 16 69 17 71 18 72 19 73 25 74 20 75 24 76 26 77
REMARK SMILES IDX 21 78 22 79 23 80
REMARK H PARENT 3 6 69 24 47 35 8 61 15 70
REMARK Flexibility Score: inf
ROOT
ATOM      1  C   UNL     1       5.035  -0.475   2.516  1.00  0.00     0.023 C 
ENDROOT
BRANCH   1   2
ATOM      2  C   UNL     1       4.664  -0.688   1.053  1.00  0.00     0.116 C 
BRANCH   2   3
ATOM      3  N   UNL     1       3.229  -0.801   0.844  1.00  0.00    -0.352 N 
ATOM      4  O   UNL     1       1.205  -0.246   0.019  1.00  0.00    -0.269 OA
ATOM      5  C   UNL     1       2.425  -0.123  -0.037  1.00  0.00     0.251 C 
ATOM      6  H   UNL     1       2.769  -1.458   1.416  1.00  0.00     0.163 HD
BRANCH   5   7
ATOM      7  C   UNL     1       3.030   0.780  -1.036  1.00  0.00     0.039 A 
ATOM      8  C   UNL     1       4.123   0.370  -1.806  1.00  0.00     0.014 A 
ATOM      9  C   UNL     1       2.487   2.056  -1.203  1.00  0.00     0.014 A 
ATOM     10  C   UNL     1       4.748   1.276  -2.657  1.00  0.00     0.010 A 
ATOM     11  C   UNL     1       3.072   2.940  -2.110  1.00  0.00     0.010 A 
ATOM     12  C   UNL     1       4.222   2.565  -2.824  1.00  0.00    -0.014 A 
BRANCH  12  13
ATOM     13  C   UNL     1       4.839   3.509  -3.787  1.00  0.00     0.031 A 
ATOM     14  C   UNL     1       5.464   4.788  -3.313  1.00  0.00     0.074 A 
ATOM     15  C   UNL     1       4.787   3.227  -5.101  1.00  0.00     0.049 A 
ATOM     16  N   UNL     1       5.956   5.776  -4.017  1.00  0.00    -0.248 NA
ATOM     17  C   UNL     1       5.537   4.989  -1.858  1.00  0.00     0.031 C 
ATOM     18  C   UNL     1       4.210   2.014  -5.682  1.00  0.00     0.029 A 
ATOM     19  N   UNL     1       5.211   3.950  -6.187  1.00  0.00    -0.354 N 
ATOM     20  C   UNL     1       6.370   6.728  -3.095  1.00  0.00     0.074 A 
ATOM     21  C   UNL     1       6.051   6.208  -1.781  1.00  0.00     0.031 C 
ATOM     22  C   UNL     1       4.317   2.074  -7.017  1.00  0.00     0.029 A 
ATOM     23  C   UNL     1       4.909   3.355  -7.387  1.00  0.00     0.049 A 
ATOM     24  H   UNL     1       5.684   4.810  -6.114  1.00  0.00     0.167 HD
ATOM     25  C   UNL     1       6.957   7.928  -3.324  1.00  0.00     0.031 A 
ATOM     26  C   UNL     1       5.050   3.803  -8.647  1.00  0.00     0.031 A 
ATOM     27  C   UNL     1       7.254   8.444  -4.636  1.00  0.00     0.049 A 
ATOM     28  C   UNL     1       5.652   5.157  -8.881  1.00  0.00     0.074 A 
ATOM     29  C   UNL     1       7.883   9.629  -4.974  1.00  0.00     0.029 A 
ATOM     30  N   UNL     1       6.926   7.811  -5.826  1.00  0.00    -0.354 N 
ATOM     31  N   UNL     1       6.077   6.031  -8.001  1.00  0.00    -0.248 NA
ATOM     32  C   UNL     1       5.797   5.586 -10.278  1.00  0.00     0.031 C 
ATOM     33  C   UNL     1       7.874   9.745  -6.368  1.00  0.00     0.029 A 
ATOM     34  C   UNL     1       7.307   8.598  -6.900  1.00  0.00     0.049 A 
ATOM     35  H   UNL     1       6.486   6.933  -5.897  1.00  0.00     0.167 HD
ATOM     36  C   UNL     1       6.568   7.101  -8.736  1.00  0.00     0.074 A 
ATOM     37  C   UNL     1       6.390   6.765 -10.134  1.00  0.00     0.031 C 
ATOM     38  C   UNL     1       7.125   8.252  -8.288  1.00  0.00     0.031 A 
BRANCH  25  39
ATOM     39  C   UNL     1       7.268   8.786  -2.127  1.00  0.00    -0.014 A 
ATOM     40  C   UNL     1       8.258   8.427  -1.198  1.00  0.00     0.009 A 
ATOM     41  C   UNL     1       6.560   9.983  -1.931  1.00  0.00     0.009 A 
ATOM     42  C   UNL     1       8.495   9.221  -0.073  1.00  0.00     0.001 A 
ATOM     43  C   UNL     1       6.822  10.791  -0.824  1.00  0.00     0.001 A 
ATOM     44  C   UNL     1       7.779  10.402   0.112  1.00  0.00     0.000 A 
ENDBRANCH  25  39
BRANCH  26  45
ATOM     45  C   UNL     1       4.584   2.954  -9.772  1.00  0.00    -0.014 A 
ATOM     46  C   UNL     1       5.503   2.309 -10.611  1.00  0.00     0.009 A 
ATOM     47  C   UNL     1       3.210   2.733  -9.970  1.00  0.00     0.009 A 
ATOM     48  C   UNL     1       5.056   1.466 -11.631  1.00  0.00     0.001 A 
ATOM     49  C   UNL     1       2.768   1.868 -10.972  1.00  0.00     0.001 A 
ATOM     50  C   UNL     1       3.690   1.239 -11.805  1.00  0.00     0.000 A 
ENDBRANCH  26  45
BRANCH  38  51
ATOM     51  C   UNL     1       7.632   9.225  -9.316  1.00  0.00    -0.014 A 
ATOM     52  C   UNL     1       6.755  10.009 -10.080  1.00  0.00     0.009 A 
ATOM     53  C   UNL     1       9.016   9.412  -9.461  1.00  0.00     0.009 A 
ATOM     54  C   UNL     1       7.256  10.951 -10.981  1.00  0.00     0.001 A 
ATOM     55  C   UNL     1       9.513  10.374 -10.341  1.00  0.00     0.001 A 
ATOM     56  C   UNL     1       8.633  11.139 -11.104  1.00  0.00     0.000 A 
ENDBRANCH  38  51
ENDBRANCH  12  13
ENDBRANCH   5   7
ENDBRANCH   2   3
ENDBRANCH   1   2
BRANCH   1  57
ATOM     57  C   UNL     1       4.560  -1.568   3.478  1.00  0.00     0.023 C 
BRANCH  57  58
ATOM     58  C   UNL     1       4.916  -2.993   3.060  1.00  0.00     0.116 C 
BRANCH  58  59
ATOM     59  N   UNL     1       6.348  -3.224   3.029  1.00  0.00    -0.356 N 
ATOM     60  C   UNL     1       7.109  -4.116   3.728  1.00  0.00     0.227 C 
ATOM     61  H   UNL     1       6.849  -2.648   2.407  1.00  0.00     0.163 HD
ATOM     62  O   UNL     1       8.302  -4.210   3.431  1.00  0.00    -0.274 OA
BRANCH  60  63
ATOM     63  C   UNL     1       6.483  -4.923   4.863  1.00  0.00     0.103 C 
ATOM     64  C   UNL     1       6.554  -6.407   4.690  1.00  0.00    -0.016 C 
ATOM     65  C   UNL     1       7.286  -4.705   6.146  1.00  0.00     0.047 C 
ATOM     66  C   UNL     1       6.967  -7.011   5.813  1.00  0.00    -0.006 C 
ATOM     67  C   UNL     1       7.317  -6.036   6.894  1.00  0.00     0.106 C 
BRANCH  67  68
ATOM     68  N   UNL     1       6.324  -6.100   7.951  1.00  0.00    -0.346 N 
ATOM     69  C   UNL     1       6.359  -5.516   9.198  1.00  0.00     0.253 C 
ATOM     70  H   UNL     1       5.519  -6.629   7.749  1.00  0.00     0.164 HD
ATOM     71  O   UNL     1       5.441  -5.668   9.995  1.00  0.00    -0.269 OA
BRANCH  69  72
ATOM     72  C   UNL     1       7.559  -4.774   9.627  1.00  0.00     0.061 A 
ATOM     73  C   UNL     1       8.478  -5.467  10.423  1.00  0.00     0.056 A 
ATOM     74  C   UNL     1       7.772  -3.420   9.338  1.00  0.00     0.055 A 
ATOM     75  C   UNL     1       9.648  -4.832  10.829  1.00  0.00     0.142 A 
ATOM     76  C   UNL     1       8.990  -2.819   9.674  1.00  0.00     0.045 A 
ATOM     77  Cl  UNL     1       6.542  -2.391   8.694  1.00  0.00    -0.083 Cl
ATOM     78  F   UNL     1      10.497  -5.495  11.627  1.00  0.00    -0.205 F 
ATOM     79  C   UNL     1       9.929  -3.530  10.418  1.00  0.00     0.078 A 
ATOM     80  Cl  UNL     1      11.410  -2.770  10.856  1.00  0.00    -0.081 Cl
ENDBRANCH  69  72
ENDBRANCH  67  68
ENDBRANCH  60  63
ENDBRANCH  58  59
ENDBRANCH  57  58
ENDBRANCH   1  57
TORSDOF 13
