REMARK SMILES CC(C)[C@H](NC(=O)[C@H](C)NC(=O)C[NH3+])C(=O)NCCCCNC(=O)c1ccc(-c2c3nc(c(-c4ccccc4)c4ccc([nH]4)c(-c4ccccc4)c4nc(c(-c5ccccc5)c5ccc2[nH]5)C=C4)C=C3)cc1
REMARK SMILES IDX 18 1 17 2 15 3 16 4 4 6 2 7 1 8 3 9 5 10 6 11 7 13 8 14 9 15
REMARK SMILES IDX 10 16 11 17 12 19 13 20 14 21 19 25 20 26 21 27 22 28 23 29
REMARK SMILES IDX 24 31 25 32 26 33 72 34 27 35 71 36 28 37 29 38 30 39 65 40
REMARK SMILES IDX 31 41 70 42 64 43 66 44 32 45 69 46 63 47 62 48 33 50 55 51
REMARK SMILES IDX 40 52 54 53 41 54 44 55 53 56 67 57 42 58 43 59 52 61 68 62
REMARK SMILES IDX 45 63 34 64 35 65 39 66 36 67 38 68 37 69 56 70 57 71 61 72
REMARK SMILES IDX 58 73 60 74 59 75 46 76 47 77 51 78 48 79 50 80 49 81
REMARK H PARENT 17 5 5 12 10 18 14 22 14 23 14 24 22 30 66 49 44 60
REMARK Flexibility Score: inf
ROOT
ATOM      1  C   UNL     1      -4.796   4.080   1.967  1.00  0.00     0.116 C 
ENDROOT
BRANCH   1   2
ATOM      2  N   UNL     1      -4.663   3.736   0.576  1.00  0.00    -0.354 N 
ATOM      3  C   UNL     1      -3.600   3.884  -0.257  1.00  0.00     0.242 C 
ATOM      4  O   UNL     1      -3.630   3.216  -1.297  1.00  0.00    -0.273 OA
ATOM      5  H   UNL     1      -5.463   3.333   0.167  1.00  0.00     0.163 HD
BRANCH   3   6
ATOM      6  C   UNL     1      -2.341   4.740   0.080  1.00  0.00     0.173 C 
BRANCH   6   7
ATOM      7  C   UNL     1      -1.137   3.978   0.653  1.00  0.00     0.015 C 
ATOM      8  C   UNL     1      -0.923   2.581   0.066  1.00  0.00     0.010 C 
ATOM      9  C   UNL     1       0.155   4.789   0.462  1.00  0.00     0.010 C 
ENDBRANCH   6   7
BRANCH   6  10
ATOM     10  N   UNL     1      -2.619   6.069   0.672  1.00  0.00    -0.342 N 
ATOM     11  C   UNL     1      -2.572   6.749   1.840  1.00  0.00     0.242 C 
ATOM     12  H   UNL     1      -2.956   6.668  -0.032  1.00  0.00     0.164 HD
ATOM     13  O   UNL     1      -3.021   7.902   1.733  1.00  0.00    -0.273 OA
BRANCH  11  14
ATOM     14  C   UNL     1      -2.223   6.195   3.259  1.00  0.00     0.168 C 
ATOM     15  C   UNL     1      -2.159   7.367   4.254  1.00  0.00     0.041 C 
BRANCH  14  16
ATOM     16  N   UNL     1      -1.000   5.421   3.431  1.00  0.00    -0.340 N 
ATOM     17  C   UNL     1      -0.803   4.241   4.094  1.00  0.00     0.275 C 
ATOM     18  H   UNL     1      -0.198   5.804   3.007  1.00  0.00     0.164 HD
ATOM     19  O   UNL     1       0.356   3.915   4.362  1.00  0.00    -0.268 OA
BRANCH  17  20
ATOM     20  C   UNL     1      -1.965   3.278   4.375  1.00  0.00     0.360 C 
BRANCH  20  21
ATOM     21  N   UNL     1      -2.963   3.837   5.292  1.00  0.00    -0.350 N 
ATOM     22  H   UNL     1      -2.527   4.030   6.193  1.00  0.00     0.344 HD
ATOM     23  H   UNL     1      -3.722   3.167   5.418  1.00  0.00     0.344 HD
ATOM     24  H   UNL     1      -3.336   4.702   4.902  1.00  0.00     0.344 HD
ENDBRANCH  20  21
ENDBRANCH  17  20
ENDBRANCH  14  16
ENDBRANCH  11  14
ENDBRANCH   6  10
ENDBRANCH   3   6
ENDBRANCH   1   2
BRANCH   1  25
ATOM     25  C   UNL     1      -5.685   5.300   2.216  1.00  0.00     0.023 C 
BRANCH  25  26
ATOM     26  C   UNL     1      -6.991   4.985   2.948  1.00  0.00     0.023 C 
BRANCH  26  27
ATOM     27  C   UNL     1      -6.846   4.320   4.314  1.00  0.00     0.116 C 
BRANCH  27  28
ATOM     28  N   UNL     1      -6.216   5.146   5.338  1.00  0.00    -0.352 N 
ATOM     29  C   UNL     1      -6.464   5.137   6.692  1.00  0.00     0.251 C 
ATOM     30  H   UNL     1      -5.534   5.783   5.024  1.00  0.00     0.163 HD
ATOM     31  O   UNL     1      -5.902   5.907   7.451  1.00  0.00    -0.269 OA
BRANCH  29  32
ATOM     32  C   UNL     1      -7.473   4.185   7.215  1.00  0.00     0.039 A 
ATOM     33  C   UNL     1      -8.574   4.679   7.920  1.00  0.00     0.014 A 
ATOM     34  C   UNL     1      -7.375   2.822   6.918  1.00  0.00     0.014 A 
ATOM     35  C   UNL     1      -9.626   3.818   8.239  1.00  0.00     0.010 A 
ATOM     36  C   UNL     1      -8.454   1.984   7.176  1.00  0.00     0.010 A 
ATOM     37  C   UNL     1      -9.599   2.477   7.822  1.00  0.00    -0.014 A 
BRANCH  37  38
ATOM     38  C   UNL     1     -10.775   1.586   8.002  1.00  0.00     0.031 A 
ATOM     39  C   UNL     1     -10.679   0.364   8.871  1.00  0.00     0.074 A 
ATOM     40  C   UNL     1     -11.905   1.828   7.308  1.00  0.00     0.049 A 
ATOM     41  N   UNL     1     -11.577  -0.564   9.090  1.00  0.00    -0.248 NA
ATOM     42  C   UNL     1      -9.399   0.139   9.559  1.00  0.00     0.031 C 
ATOM     43  C   UNL     1     -12.113   2.946   6.385  1.00  0.00     0.029 A 
ATOM     44  N   UNL     1     -13.091   1.137   7.264  1.00  0.00    -0.354 N 
ATOM     45  C   UNL     1     -10.965  -1.490   9.924  1.00  0.00     0.074 A 
ATOM     46  C   UNL     1      -9.606  -1.037  10.133  1.00  0.00     0.031 C 
ATOM     47  C   UNL     1     -13.359   2.879   5.887  1.00  0.00     0.029 A 
ATOM     48  C   UNL     1     -14.024   1.697   6.426  1.00  0.00     0.049 A 
ATOM     49  H   UNL     1     -13.257   0.318   7.784  1.00  0.00     0.167 HD
ATOM     50  C   UNL     1     -11.489  -2.608  10.481  1.00  0.00     0.031 A 
ATOM     51  C   UNL     1     -15.276   1.305   6.121  1.00  0.00     0.031 A 
ATOM     52  C   UNL     1     -12.843  -3.054  10.289  1.00  0.00     0.049 A 
ATOM     53  C   UNL     1     -15.838   0.066   6.759  1.00  0.00     0.074 A 
ATOM     54  C   UNL     1     -13.484  -4.135  10.869  1.00  0.00     0.029 A 
ATOM     55  N   UNL     1     -13.763  -2.445   9.451  1.00  0.00    -0.354 N 
ATOM     56  N   UNL     1     -15.271  -0.755   7.607  1.00  0.00    -0.248 NA
ATOM     57  C   UNL     1     -17.220  -0.291   6.403  1.00  0.00     0.031 C 
ATOM     58  C   UNL     1     -14.780  -4.206  10.348  1.00  0.00     0.029 A 
ATOM     59  C   UNL     1     -14.960  -3.140   9.481  1.00  0.00     0.049 A 
ATOM     60  H   UNL     1     -13.591  -1.638   8.915  1.00  0.00     0.167 HD
ATOM     61  C   UNL     1     -16.232  -1.712   7.907  1.00  0.00     0.074 A 
ATOM     62  C   UNL     1     -17.422  -1.361   7.160  1.00  0.00     0.031 C 
ATOM     63  C   UNL     1     -16.136  -2.783   8.731  1.00  0.00     0.031 A 
BRANCH  50  64
ATOM     64  C   UNL     1     -10.583  -3.430  11.354  1.00  0.00    -0.014 A 
ATOM     65  C   UNL     1     -10.175  -2.970  12.616  1.00  0.00     0.009 A 
ATOM     66  C   UNL     1     -10.151  -4.693  10.919  1.00  0.00     0.009 A 
ATOM     67  C   UNL     1      -9.320  -3.739  13.407  1.00  0.00     0.001 A 
ATOM     68  C   UNL     1      -9.319  -5.473  11.725  1.00  0.00     0.001 A 
ATOM     69  C   UNL     1      -8.896  -4.991  12.963  1.00  0.00     0.000 A 
ENDBRANCH  50  64
BRANCH  51  70
ATOM     70  C   UNL     1     -16.097   2.110   5.181  1.00  0.00    -0.014 A 
ATOM     71  C   UNL     1     -17.165   2.885   5.659  1.00  0.00     0.009 A 
ATOM     72  C   UNL     1     -15.819   2.110   3.806  1.00  0.00     0.009 A 
ATOM     73  C   UNL     1     -17.953   3.626   4.775  1.00  0.00     0.001 A 
ATOM     74  C   UNL     1     -16.593   2.871   2.927  1.00  0.00     0.001 A 
ATOM     75  C   UNL     1     -17.663   3.622   3.411  1.00  0.00     0.000 A 
ENDBRANCH  51  70
BRANCH  63  76
ATOM     76  C   UNL     1     -17.360  -3.638   8.892  1.00  0.00    -0.014 A 
ATOM     77  C   UNL     1     -17.779  -4.509   7.874  1.00  0.00     0.009 A 
ATOM     78  C   UNL     1     -18.080  -3.601  10.096  1.00  0.00     0.009 A 
ATOM     79  C   UNL     1     -18.913  -5.305   8.049  1.00  0.00     0.001 A 
ATOM     80  C   UNL     1     -19.198  -4.417  10.278  1.00  0.00     0.001 A 
ATOM     81  C   UNL     1     -19.618  -5.262   9.252  1.00  0.00     0.000 A 
ENDBRANCH  63  76
ENDBRANCH  37  38
ENDBRANCH  29  32
ENDBRANCH  27  28
ENDBRANCH  26  27
ENDBRANCH  25  26
ENDBRANCH   1  25
TORSDOF 17
