REMARK SMILES COc1cc([C@@H]2[NH2+][C@@H](C(=O)NCCCCNC(=O)c3ccc(-c4c5nc(c(-c6ccccc6)c6ccc([nH]6)c(-c6ccccc6)c6nc(c(-c7ccccc7)c7ccc4[nH]7)C=C6)C=C5)cc3)CS2)cc(Cl)c1O
REMARK SMILES IDX 13 1 12 2 11 3 9 4 10 5 8 7 6 8 7 9 68 10 67 13 5 14 3 15
REMARK SMILES IDX 4 16 72 17 70 18 69 19 71 20 2 21 1 22 73 23 14 25 15 26
REMARK SMILES IDX 16 27 17 28 18 30 19 31 20 32 66 33 21 34 65 35 22 36 23 37
REMARK SMILES IDX 24 38 59 39 25 40 64 41 58 42 60 43 26 44 63 45 57 46 56 47
REMARK SMILES IDX 27 49 49 50 34 51 48 52 35 53 38 54 47 55 61 56 36 57 37 58
REMARK SMILES IDX 46 60 62 61 39 62 28 63 29 64 33 65 30 66 32 67 31 68 50 69
REMARK SMILES IDX 51 70 55 71 52 72 54 73 53 74 40 75 41 76 45 77 42 78 44 79
REMARK SMILES IDX 43 80
REMARK H PARENT 11 6 7 11 7 12 73 24 16 29 60 48 38 59
REMARK Flexibility Score: inf
ROOT
ATOM      1  C   UNL     1      -3.893   4.893  -4.583  1.00  0.00     0.023 C 
ENDROOT
BRANCH   1   2
ATOM      2  C   UNL     1      -3.964   3.664  -3.675  1.00  0.00     0.116 C 
BRANCH   2   3
ATOM      3  N   UNL     1      -4.792   2.625  -4.255  1.00  0.00    -0.351 N 
ATOM      4  C   UNL     1      -4.456   1.381  -4.698  1.00  0.00     0.279 C 
ATOM      5  O   UNL     1      -5.362   0.708  -5.194  1.00  0.00    -0.268 OA
ATOM      6  H   UNL     1      -5.745   2.853  -4.342  1.00  0.00     0.163 HD
BRANCH   4   7
ATOM      7  C   UNL     1      -3.015   0.847  -4.533  1.00  0.00     0.283 C 
ATOM      8  C   UNL     1      -0.856   0.904  -5.579  1.00  0.00     0.274 C 
ATOM      9  N   UNL     1      -2.049   1.702  -5.279  1.00  0.00    -0.321 N 
ATOM     10  S   UNL     1      -1.420  -0.754  -5.997  1.00  0.00    -0.088 SA
ATOM     11  H   UNL     1      -2.474   2.024  -6.149  1.00  0.00     0.348 HD
ATOM     12  H   UNL     1      -1.794   2.514  -4.717  1.00  0.00     0.348 HD
ATOM     13  C   UNL     1      -2.930  -0.612  -5.013  1.00  0.00     0.151 C 
BRANCH   8  14
ATOM     14  C   UNL     1       0.218   0.909  -4.500  1.00  0.00     0.025 A 
ATOM     15  C   UNL     1       1.154   0.149  -2.378  1.00  0.00     0.162 A 
ATOM     16  C   UNL     1       0.087   0.225  -3.277  1.00  0.00     0.061 A 
ATOM     17  C   UNL     1       2.383   0.728  -2.688  1.00  0.00     0.176 A 
ATOM     18  C   UNL     1       2.519   1.458  -3.867  1.00  0.00     0.087 A 
ATOM     19  C   UNL     1       1.445   1.552  -4.761  1.00  0.00     0.035 A 
ATOM     20  Cl  UNL     1       4.016   2.204  -4.293  1.00  0.00    -0.080 Cl
BRANCH  15  21
ATOM     21  O   UNL     1       0.986  -0.607  -1.246  1.00  0.00    -0.493 OA
ATOM     22  C   UNL     1       0.882   0.217  -0.082  1.00  0.00     0.278 C 
ENDBRANCH  15  21
BRANCH  17  23
ATOM     23  O   UNL     1       3.456   0.530  -1.862  1.00  0.00    -0.503 OA
ATOM     24  H   UNL     1       3.354   0.037  -1.071  1.00  0.00     0.293 HD
ENDBRANCH  17  23
ENDBRANCH   8  14
ENDBRANCH   4   7
ENDBRANCH   2   3
ENDBRANCH   1   2
BRANCH   1  25
ATOM     25  C   UNL     1      -5.244   5.551  -4.898  1.00  0.00     0.023 C 
BRANCH  25  26
ATOM     26  C   UNL     1      -6.082   5.959  -3.689  1.00  0.00     0.116 C 
BRANCH  26  27
ATOM     27  N   UNL     1      -5.425   6.949  -2.853  1.00  0.00    -0.352 N 
ATOM     28  C   UNL     1      -5.936   8.088  -2.285  1.00  0.00     0.251 C 
ATOM     29  H   UNL     1      -4.473   6.777  -2.667  1.00  0.00     0.163 HD
ATOM     30  O   UNL     1      -5.179   8.874  -1.712  1.00  0.00    -0.269 OA
BRANCH  28  31
ATOM     31  C   UNL     1      -7.379   8.401  -2.375  1.00  0.00     0.039 A 
ATOM     32  C   UNL     1      -7.763   9.717  -2.652  1.00  0.00     0.014 A 
ATOM     33  C   UNL     1      -8.355   7.423  -2.162  1.00  0.00     0.014 A 
ATOM     34  C   UNL     1      -9.117  10.040  -2.770  1.00  0.00     0.010 A 
ATOM     35  C   UNL     1      -9.703   7.732  -2.346  1.00  0.00     0.010 A 
ATOM     36  C   UNL     1     -10.099   9.044  -2.646  1.00  0.00    -0.014 A 
BRANCH  36  37
ATOM     37  C   UNL     1     -11.539   9.365  -2.825  1.00  0.00     0.031 A 
ATOM     38  C   UNL     1     -12.500   9.229  -1.675  1.00  0.00     0.074 A 
ATOM     39  C   UNL     1     -11.996   9.731  -4.038  1.00  0.00     0.049 A 
ATOM     40  N   UNL     1     -13.794   9.436  -1.651  1.00  0.00    -0.248 NA
ATOM     41  C   UNL     1     -11.940   8.780  -0.391  1.00  0.00     0.031 C 
ATOM     42  C   UNL     1     -11.181   9.857  -5.248  1.00  0.00     0.029 A 
ATOM     43  N   UNL     1     -13.262  10.058  -4.455  1.00  0.00    -0.354 N 
ATOM     44  C   UNL     1     -14.202   9.129  -0.359  1.00  0.00     0.074 A 
ATOM     45  C   UNL     1     -13.029   8.673   0.355  1.00  0.00     0.031 C 
ATOM     46  C   UNL     1     -11.963  10.256  -6.264  1.00  0.00     0.029 A 
ATOM     47  C   UNL     1     -13.337  10.382  -5.787  1.00  0.00     0.049 A 
ATOM     48  H   UNL     1     -14.043  10.061  -3.855  1.00  0.00     0.167 HD
ATOM     49  C   UNL     1     -15.435   9.235   0.191  1.00  0.00     0.031 A 
ATOM     50  C   UNL     1     -14.392  10.738  -6.545  1.00  0.00     0.031 A 
ATOM     51  C   UNL     1     -16.603   9.693  -0.513  1.00  0.00     0.049 A 
ATOM     52  C   UNL     1     -15.751  10.848  -5.913  1.00  0.00     0.074 A 
ATOM     53  C   UNL     1     -17.885   9.886  -0.026  1.00  0.00     0.029 A 
ATOM     54  N   UNL     1     -16.632  10.027  -1.859  1.00  0.00    -0.354 N 
ATOM     55  N   UNL     1     -16.105  10.624  -4.671  1.00  0.00    -0.248 NA
ATOM     56  C   UNL     1     -16.853  11.277  -6.786  1.00  0.00     0.031 C 
ATOM     57  C   UNL     1     -18.700  10.291  -1.089  1.00  0.00     0.029 A 
ATOM     58  C   UNL     1     -17.914  10.403  -2.224  1.00  0.00     0.049 A 
ATOM     59  H   UNL     1     -15.857  10.000  -2.464  1.00  0.00     0.167 HD
ATOM     60  C   UNL     1     -17.463  10.909  -4.607  1.00  0.00     0.074 A 
ATOM     61  C   UNL     1     -17.864  11.338  -5.931  1.00  0.00     0.031 C 
ATOM     62  C   UNL     1     -18.302  10.823  -3.546  1.00  0.00     0.031 A 
BRANCH  49  63
ATOM     63  C   UNL     1     -15.581   8.835   1.634  1.00  0.00    -0.014 A 
ATOM     64  C   UNL     1     -15.014   9.605   2.663  1.00  0.00     0.009 A 
ATOM     65  C   UNL     1     -16.313   7.686   1.972  1.00  0.00     0.009 A 
ATOM     66  C   UNL     1     -15.140   9.209   3.997  1.00  0.00     0.001 A 
ATOM     67  C   UNL     1     -16.463   7.309   3.308  1.00  0.00     0.001 A 
ATOM     68  C   UNL     1     -15.867   8.063   4.318  1.00  0.00     0.000 A 
ENDBRANCH  49  63
BRANCH  50  69
ATOM     69  C   UNL     1     -14.200  11.034  -7.988  1.00  0.00    -0.014 A 
ATOM     70  C   UNL     1     -14.291  12.351  -8.464  1.00  0.00     0.009 A 
ATOM     71  C   UNL     1     -13.924  10.001  -8.897  1.00  0.00     0.009 A 
ATOM     72  C   UNL     1     -14.133  12.624  -9.825  1.00  0.00     0.001 A 
ATOM     73  C   UNL     1     -13.738  10.280 -10.252  1.00  0.00     0.001 A 
ATOM     74  C   UNL     1     -13.852  11.589 -10.717  1.00  0.00     0.000 A 
ENDBRANCH  50  69
BRANCH  62  75
ATOM     75  C   UNL     1     -19.732  11.231  -3.768  1.00  0.00    -0.014 A 
ATOM     76  C   UNL     1     -20.611  10.434  -4.518  1.00  0.00     0.009 A 
ATOM     77  C   UNL     1     -20.213  12.416  -3.191  1.00  0.00     0.009 A 
ATOM     78  C   UNL     1     -21.934  10.836  -4.715  1.00  0.00     0.001 A 
ATOM     79  C   UNL     1     -21.543  12.801  -3.366  1.00  0.00     0.001 A 
ATOM     80  C   UNL     1     -22.399  12.016  -4.136  1.00  0.00     0.000 A 
ENDBRANCH  62  75
ENDBRANCH  36  37
ENDBRANCH  28  31
ENDBRANCH  26  27
ENDBRANCH  25  26
ENDBRANCH   1  25
TORSDOF 14
