REMARK SMILES CS(=O)(=O)c1ccc(/C=C(/C(=O)NCCCCNC(=O)c2ccc(-c3c4nc(c(-c5ccccc5)c5ccc([nH]5)c(-c5ccccc5)c5nc(c(-c6ccccc6)c6ccc3[nH]6)C=C5)C=C4)cc2)c2cccc(Br)c2)cc1
REMARK SMILES IDX 15 1 14 2 13 3 11 4 12 5 10 7 9 8 8 9 5 10 6 11 77 12 7 13
REMARK SMILES IDX 76 14 2 15 1 16 3 17 4 18 69 19 70 20 75 21 71 22 73 23
REMARK SMILES IDX 72 24 74 25 16 26 17 27 18 28 19 29 20 31 21 32 22 33 68 34
REMARK SMILES IDX 23 35 67 36 24 37 25 38 26 39 61 40 27 41 66 42 60 43 62 44
REMARK SMILES IDX 28 45 65 46 59 47 58 48 29 50 51 51 36 52 50 53 37 54 40 55
REMARK SMILES IDX 49 56 63 57 38 58 39 59 48 61 64 62 41 63 30 64 31 65 35 66
REMARK SMILES IDX 32 67 34 68 33 69 52 70 53 71 57 72 54 73 56 74 55 75 42 76
REMARK SMILES IDX 43 77 47 78 44 79 46 80 45 81
REMARK H PARENT 13 6 18 30 62 49 40 60
REMARK Flexibility Score: inf
ROOT
ATOM      1  C   UNL     1       1.819  -4.075   9.007  1.00  0.00     0.023 C 
ENDROOT
BRANCH   1   2
ATOM      2  C   UNL     1       2.842  -4.603   7.997  1.00  0.00     0.116 C 
BRANCH   2   3
ATOM      3  N   UNL     1       2.391  -5.858   7.429  1.00  0.00    -0.352 N 
ATOM      4  C   UNL     1       1.757  -6.194   6.274  1.00  0.00     0.251 C 
ATOM      5  O   UNL     1       1.496  -7.392   6.133  1.00  0.00    -0.269 OA
ATOM      6  H   UNL     1       2.587  -6.634   8.003  1.00  0.00     0.163 HD
BRANCH   4   7
ATOM      7  C   UNL     1       1.442  -5.210   5.166  1.00  0.00     0.047 C 
ATOM      8  C   UNL     1       1.138  -3.915   5.409  1.00  0.00     0.022 C 
BRANCH   8   9
ATOM      9  C   UNL     1       0.892  -2.813   4.456  1.00  0.00    -0.025 A 
ATOM     10  C   UNL     1       0.583  -0.655   2.690  1.00  0.00     0.067 A 
ATOM     11  C   UNL     1      -0.125  -1.839   2.472  1.00  0.00     0.021 A 
ATOM     12  C   UNL     1       1.405  -0.517   3.808  1.00  0.00     0.021 A 
ATOM     13  C   UNL     1       0.020  -2.906   3.364  1.00  0.00     0.009 A 
ATOM     14  C   UNL     1       1.558  -1.596   4.683  1.00  0.00     0.009 A 
BRANCH  10  15
ATOM     15  S   UNL     1       0.393   0.695   1.552  1.00  0.00     0.175 S 
ATOM     16  C   UNL     1       1.199   0.125   0.078  1.00  0.00     0.163 C 
ATOM     17  O   UNL     1       1.153   1.817   2.064  1.00  0.00    -0.224 OA
ATOM     18  O   UNL     1      -1.028   0.819   1.277  1.00  0.00    -0.224 OA
ENDBRANCH  10  15
ENDBRANCH   8   9
BRANCH   7  19
ATOM     19  C   UNL     1       1.306  -5.763   3.794  1.00  0.00    -0.012 A 
ATOM     20  C   UNL     1       0.235  -6.633   3.519  1.00  0.00     0.009 A 
ATOM     21  C   UNL     1       2.151  -5.375   2.747  1.00  0.00     0.024 A 
ATOM     22  C   UNL     1      -0.007  -7.085   2.223  1.00  0.00     0.002 A 
ATOM     23  C   UNL     1       1.890  -5.817   1.448  1.00  0.00     0.018 A 
ATOM     24  C   UNL     1       0.816  -6.667   1.181  1.00  0.00     0.016 A 
ATOM     25  Br  UNL     1       2.977  -5.216   0.021  1.00  0.00    -0.051 Br
ENDBRANCH   7  19
ENDBRANCH   4   7
ENDBRANCH   2   3
ENDBRANCH   1   2
BRANCH   1  26
ATOM     26  C   UNL     1       1.772  -4.845  10.334  1.00  0.00     0.023 C 
BRANCH  26  27
ATOM     27  C   UNL     1       3.068  -4.838  11.141  1.00  0.00     0.116 C 
BRANCH  27  28
ATOM     28  N   UNL     1       3.550  -3.499  11.432  1.00  0.00    -0.352 N 
ATOM     29  C   UNL     1       4.291  -3.051  12.496  1.00  0.00     0.251 C 
ATOM     30  H   UNL     1       3.311  -2.812  10.768  1.00  0.00     0.163 HD
ATOM     31  O   UNL     1       4.519  -1.850  12.613  1.00  0.00    -0.269 OA
BRANCH  29  32
ATOM     32  C   UNL     1       4.781  -3.995  13.524  1.00  0.00     0.039 A 
ATOM     33  C   UNL     1       4.672  -3.621  14.866  1.00  0.00     0.014 A 
ATOM     34  C   UNL     1       5.360  -5.221  13.185  1.00  0.00     0.014 A 
ATOM     35  C   UNL     1       5.093  -4.496  15.868  1.00  0.00     0.010 A 
ATOM     36  C   UNL     1       5.725  -6.120  14.187  1.00  0.00     0.010 A 
ATOM     37  C   UNL     1       5.598  -5.764  15.537  1.00  0.00    -0.014 A 
BRANCH  37  38
ATOM     38  C   UNL     1       5.973  -6.722  16.605  1.00  0.00     0.031 A 
ATOM     39  C   UNL     1       7.407  -7.117  16.817  1.00  0.00     0.074 A 
ATOM     40  C   UNL     1       5.006  -7.260  17.374  1.00  0.00     0.049 A 
ATOM     41  N   UNL     1       7.919  -7.897  17.736  1.00  0.00    -0.248 NA
ATOM     42  C   UNL     1       8.392  -6.585  15.864  1.00  0.00     0.031 C 
ATOM     43  C   UNL     1       3.571  -7.007  17.230  1.00  0.00     0.029 A 
ATOM     44  N   UNL     1       5.087  -8.125  18.435  1.00  0.00    -0.354 N 
ATOM     45  C   UNL     1       9.280  -7.957  17.467  1.00  0.00     0.074 A 
ATOM     46  C   UNL     1       9.508  -7.173  16.271  1.00  0.00     0.031 C 
ATOM     47  C   UNL     1       2.910  -7.669  18.194  1.00  0.00     0.029 A 
ATOM     48  C   UNL     1       3.871  -8.407  19.007  1.00  0.00     0.049 A 
ATOM     49  H   UNL     1       5.936  -8.508  18.756  1.00  0.00     0.167 HD
ATOM     50  C   UNL     1      10.256  -8.590  18.161  1.00  0.00     0.031 A 
ATOM     51  C   UNL     1       3.564  -9.159  20.079  1.00  0.00     0.031 A 
ATOM     52  C   UNL     1      10.033  -9.362  19.355  1.00  0.00     0.049 A 
ATOM     53  C   UNL     1       4.668  -9.821  20.854  1.00  0.00     0.074 A 
ATOM     54  C   UNL     1      10.964  -9.996  20.160  1.00  0.00     0.029 A 
ATOM     55  N   UNL     1       8.789  -9.606  19.914  1.00  0.00    -0.354 N 
ATOM     56  N   UNL     1       5.959  -9.800  20.632  1.00  0.00    -0.248 NA
ATOM     57  C   UNL     1       4.269 -10.590  22.041  1.00  0.00     0.031 C 
ATOM     58  C   UNL     1      10.279 -10.653  21.188  1.00  0.00     0.029 A 
ATOM     59  C   UNL     1       8.926 -10.391  21.047  1.00  0.00     0.049 A 
ATOM     60  H   UNL     1       7.934  -9.270  19.559  1.00  0.00     0.167 HD
ATOM     61  C   UNL     1       6.530 -10.532  21.665  1.00  0.00     0.074 A 
ATOM     62  C   UNL     1       5.445 -10.965  22.522  1.00  0.00     0.031 C 
ATOM     63  C   UNL     1       7.836 -10.819  21.884  1.00  0.00     0.031 A 
BRANCH  50  64
ATOM     64  C   UNL     1      11.660  -8.468  17.639  1.00  0.00    -0.014 A 
ATOM     65  C   UNL     1      12.366  -7.258  17.734  1.00  0.00     0.009 A 
ATOM     66  C   UNL     1      12.295  -9.582  17.069  1.00  0.00     0.009 A 
ATOM     67  C   UNL     1      13.666  -7.156  17.236  1.00  0.00     0.001 A 
ATOM     68  C   UNL     1      13.605  -9.484  16.596  1.00  0.00     0.001 A 
ATOM     69  C   UNL     1      14.286  -8.270  16.671  1.00  0.00     0.000 A 
ENDBRANCH  50  64
BRANCH  51  70
ATOM     70  C   UNL     1       2.151  -9.285  20.516  1.00  0.00    -0.014 A 
ATOM     71  C   UNL     1       1.704  -8.619  21.668  1.00  0.00     0.009 A 
ATOM     72  C   UNL     1       1.244 -10.069  19.788  1.00  0.00     0.009 A 
ATOM     73  C   UNL     1       0.382  -8.757  22.096  1.00  0.00     0.001 A 
ATOM     74  C   UNL     1      -0.083 -10.185  20.204  1.00  0.00     0.001 A 
ATOM     75  C   UNL     1      -0.511  -9.536  21.362  1.00  0.00     0.000 A 
ENDBRANCH  51  70
BRANCH  63  76
ATOM     76  C   UNL     1       8.158 -11.619  23.114  1.00  0.00    -0.014 A 
ATOM     77  C   UNL     1       7.858 -12.988  23.191  1.00  0.00     0.009 A 
ATOM     78  C   UNL     1       8.777 -10.994  24.207  1.00  0.00     0.009 A 
ATOM     79  C   UNL     1       8.135 -13.706  24.355  1.00  0.00     0.001 A 
ATOM     80  C   UNL     1       9.077 -11.721  25.360  1.00  0.00     0.001 A 
ATOM     81  C   UNL     1       8.746 -13.073  25.437  1.00  0.00     0.000 A 
ENDBRANCH  63  76
ENDBRANCH  37  38
ENDBRANCH  29  32
ENDBRANCH  27  28
ENDBRANCH  26  27
ENDBRANCH   1  26
TORSDOF 14
