REMARK SMILES Cc1noc(-c2cc(=O)n(CC(=O)NCCCCNC(=O)c3ccc(-c4c5nc(c(-c6ccccc6)c6ccc([nH]6)c(-c6ccccc6)c6nc(c(-c7ccccc7)c7ccc4[nH]7)C=C6)C=C5)cc3)c3ccccc23)n1
REMARK SMILES IDX 16 1 15 2 14 3 12 4 13 5 11 7 10 8 6 9 7 10 75 11 8 12 70 13
REMARK SMILES IDX 74 14 9 15 71 16 73 17 72 18 5 19 1 20 2 21 3 22 76 23 4 24
REMARK SMILES IDX 17 25 18 26 19 27 20 28 21 30 22 31 23 32 69 33 24 34 68 35
REMARK SMILES IDX 25 36 26 37 27 38 62 39 28 40 67 41 61 42 63 43 29 44 66 45
REMARK SMILES IDX 60 46 59 47 30 49 52 50 37 51 51 52 38 53 41 54 50 55 64 56
REMARK SMILES IDX 39 57 40 58 49 60 65 61 42 62 31 63 32 64 36 65 33 66 35 67
REMARK SMILES IDX 34 68 53 69 54 70 58 71 55 72 57 73 56 74 43 75 44 76 48 77
REMARK SMILES IDX 45 78 47 79 46 80
REMARK H PARENT 14 6 19 29 63 48 41 59
REMARK Flexibility Score: inf
ROOT
ATOM      1  C   UNL     1       2.699   4.625  -2.802  1.00  0.00     0.023 C 
ENDROOT
BRANCH   1   2
ATOM      2  C   UNL     1       4.191   4.878  -3.013  1.00  0.00     0.116 C 
BRANCH   2   3
ATOM      3  N   UNL     1       4.747   5.779  -2.025  1.00  0.00    -0.355 N 
ATOM      4  C   UNL     1       5.509   5.500  -0.930  1.00  0.00     0.240 C 
ATOM      5  O   UNL     1       6.002   6.456  -0.322  1.00  0.00    -0.273 OA
ATOM      6  H   UNL     1       4.546   6.732  -2.165  1.00  0.00     0.163 HD
BRANCH   4   7
ATOM      7  C   UNL     1       5.842   4.058  -0.519  1.00  0.00     0.225 C 
BRANCH   7   8
ATOM      8  N   UNL     1       4.693   3.179  -0.278  1.00  0.00    -0.299 N 
ATOM      9  C   UNL     1       2.390   1.515  -0.011  1.00  0.00     0.055 A 
ATOM     10  C   UNL     1       3.347   1.239  -0.910  1.00  0.00     0.086 A 
ATOM     11  C   UNL     1       2.611   2.658   0.906  1.00  0.00     0.011 A 
ATOM     12  C   UNL     1       4.562   2.057  -1.075  1.00  0.00     0.252 A 
ATOM     13  C   UNL     1       3.760   3.465   0.767  1.00  0.00     0.053 A 
ATOM     14  C   UNL     1       1.696   2.947   1.936  1.00  0.00     0.011 A 
ATOM     15  O   UNL     1       5.365   1.721  -1.944  1.00  0.00    -0.269 OA
ATOM     16  C   UNL     1       3.960   4.525   1.669  1.00  0.00     0.027 A 
ATOM     17  C   UNL     1       1.904   4.011   2.812  1.00  0.00     0.001 A 
ATOM     18  C   UNL     1       3.037   4.798   2.679  1.00  0.00     0.002 A 
BRANCH   9  19
ATOM     19  C   UNL     1       1.222   0.680  -0.062  1.00  0.00     0.258 A 
ATOM     20  C   UNL     1      -2.228  -0.109  -0.006  1.00  0.00     0.093 C 
ATOM     21  C   UNL     1      -0.756  -0.083  -0.075  1.00  0.00     0.169 A 
ATOM     22  N   UNL     1      -0.026  -1.162  -0.361  1.00  0.00    -0.062 NA
ATOM     23  N   UNL     1      -0.033   1.061   0.123  1.00  0.00    -0.192 NA
ATOM     24  O   UNL     1       1.276  -0.674  -0.357  1.00  0.00    -0.334 OA
ENDBRANCH   9  19
ENDBRANCH   7   8
ENDBRANCH   4   7
ENDBRANCH   2   3
ENDBRANCH   1   2
BRANCH   1  25
ATOM     25  C   UNL     1       1.803   5.857  -2.940  1.00  0.00     0.023 C 
BRANCH  25  26
ATOM     26  C   UNL     1       1.925   6.616  -4.254  1.00  0.00     0.116 C 
BRANCH  26  27
ATOM     27  N   UNL     1       1.610   5.816  -5.428  1.00  0.00    -0.352 N 
ATOM     28  C   UNL     1       0.976   6.207  -6.586  1.00  0.00     0.251 C 
ATOM     29  H   UNL     1       1.886   4.872  -5.389  1.00  0.00     0.163 HD
ATOM     30  O   UNL     1       0.708   5.386  -7.457  1.00  0.00    -0.269 OA
BRANCH  28  31
ATOM     31  C   UNL     1       0.572   7.620  -6.749  1.00  0.00     0.039 A 
ATOM     32  C   UNL     1       1.464   8.653  -6.459  1.00  0.00     0.014 A 
ATOM     33  C   UNL     1      -0.739   7.910  -7.141  1.00  0.00     0.014 A 
ATOM     34  C   UNL     1       0.999   9.961  -6.390  1.00  0.00     0.010 A 
ATOM     35  C   UNL     1      -1.183   9.235  -7.148  1.00  0.00     0.010 A 
ATOM     36  C   UNL     1      -0.333  10.265  -6.718  1.00  0.00    -0.014 A 
BRANCH  36  37
ATOM     37  C   UNL     1      -0.811  11.665  -6.586  1.00  0.00     0.031 A 
ATOM     38  C   UNL     1      -1.841  12.036  -5.553  1.00  0.00     0.074 A 
ATOM     39  C   UNL     1      -0.258  12.622  -7.355  1.00  0.00     0.049 A 
ATOM     40  N   UNL     1      -2.318  13.219  -5.256  1.00  0.00    -0.248 NA
ATOM     41  C   UNL     1      -2.411  10.944  -4.747  1.00  0.00     0.031 C 
ATOM     42  C   UNL     1       0.762  12.391  -8.380  1.00  0.00     0.029 A 
ATOM     43  N   UNL     1      -0.446  13.981  -7.369  1.00  0.00    -0.354 N 
ATOM     44  C   UNL     1      -3.251  13.013  -4.248  1.00  0.00     0.074 A 
ATOM     45  C   UNL     1      -3.295  11.589  -3.998  1.00  0.00     0.031 C 
ATOM     46  C   UNL     1       1.157  13.572  -8.876  1.00  0.00     0.029 A 
ATOM     47  C   UNL     1       0.379  14.637  -8.250  1.00  0.00     0.049 A 
ATOM     48  H   UNL     1      -1.107  14.441  -6.803  1.00  0.00     0.167 HD
ATOM     49  C   UNL     1      -3.996  13.928  -3.584  1.00  0.00     0.031 A 
ATOM     50  C   UNL     1       0.499  15.948  -8.530  1.00  0.00     0.031 A 
ATOM     51  C   UNL     1      -3.943  15.346  -3.821  1.00  0.00     0.049 A 
ATOM     52  C   UNL     1      -0.365  16.938  -7.807  1.00  0.00     0.074 A 
ATOM     53  C   UNL     1      -4.643  16.351  -3.175  1.00  0.00     0.029 A 
ATOM     54  N   UNL     1      -3.149  15.961  -4.776  1.00  0.00    -0.354 N 
ATOM     55  N   UNL     1      -1.235  16.725  -6.850  1.00  0.00    -0.248 NA
ATOM     56  C   UNL     1      -0.238  18.347  -8.206  1.00  0.00     0.031 C 
ATOM     57  C   UNL     1      -4.312  17.569  -3.774  1.00  0.00     0.029 A 
ATOM     58  C   UNL     1      -3.363  17.329  -4.755  1.00  0.00     0.049 A 
ATOM     59  H   UNL     1      -2.526  15.495  -5.379  1.00  0.00     0.167 HD
ATOM     60  C   UNL     1      -1.757  17.970  -6.529  1.00  0.00     0.074 A 
ATOM     61  C   UNL     1      -1.091  18.937  -7.378  1.00  0.00     0.031 C 
ATOM     62  C   UNL     1      -2.707  18.280  -5.615  1.00  0.00     0.031 A 
BRANCH  49  63
ATOM     63  C   UNL     1      -4.953  13.431  -2.537  1.00  0.00    -0.014 A 
ATOM     64  C   UNL     1      -6.337  13.497  -2.773  1.00  0.00     0.009 A 
ATOM     65  C   UNL     1      -4.497  12.981  -1.289  1.00  0.00     0.009 A 
ATOM     66  C   UNL     1      -7.244  13.129  -1.778  1.00  0.00     0.001 A 
ATOM     67  C   UNL     1      -5.407  12.591  -0.303  1.00  0.00     0.001 A 
ATOM     68  C   UNL     1      -6.778  12.672  -0.545  1.00  0.00     0.000 A 
ENDBRANCH  49  63
BRANCH  50  69
ATOM     69  C   UNL     1       1.494  16.383  -9.542  1.00  0.00    -0.014 A 
ATOM     70  C   UNL     1       1.303  16.087 -10.901  1.00  0.00     0.009 A 
ATOM     71  C   UNL     1       2.672  17.034  -9.147  1.00  0.00     0.009 A 
ATOM     72  C   UNL     1       2.284  16.406 -11.841  1.00  0.00     0.001 A 
ATOM     73  C   UNL     1       3.640  17.376 -10.095  1.00  0.00     0.001 A 
ATOM     74  C   UNL     1       3.450  17.052 -11.438  1.00  0.00     0.000 A 
ENDBRANCH  50  69
BRANCH  62  75
ATOM     75  C   UNL     1      -3.098  19.723  -5.476  1.00  0.00    -0.014 A 
ATOM     76  C   UNL     1      -2.724  20.442  -4.330  1.00  0.00     0.009 A 
ATOM     77  C   UNL     1      -3.913  20.342  -6.435  1.00  0.00     0.009 A 
ATOM     78  C   UNL     1      -3.171  21.750  -4.139  1.00  0.00     0.001 A 
ATOM     79  C   UNL     1      -4.338  21.659  -6.253  1.00  0.00     0.001 A 
ATOM     80  C   UNL     1      -3.974  22.359  -5.102  1.00  0.00     0.000 A 
ENDBRANCH  62  75
ENDBRANCH  36  37
ENDBRANCH  28  31
ENDBRANCH  26  27
ENDBRANCH  25  26
ENDBRANCH   1  25
TORSDOF 13
