REMARK SMILES O=C(NCCCCNC(=O)[C@H]1CC=CC[C@@H]1C(=O)Nc1nn(Cc2ccccc2F)cc1Br)c1ccc(-c2c3nc(c(-c4ccccc4)c4ccc([nH]4)c(-c4ccccc4)c4nc(c(-c5ccccc5)c5ccc2[nH]5)C=C4)C=C3)cc1
REMARK SMILES IDX 6 1 5 2 4 3 3 4 1 5 2 6 34 8 35 9 81 10 36 11 80 12 37 13
REMARK SMILES IDX 38 14 39 15 74 16 40 17 79 18 73 19 75 20 41 21 78 22 72 23
REMARK SMILES IDX 71 24 42 26 64 27 49 28 63 29 50 30 53 31 62 32 76 33 51 34
REMARK SMILES IDX 52 35 61 37 77 38 54 39 43 40 44 41 48 42 45 43 47 44 46 45
REMARK SMILES IDX 65 46 66 47 70 48 67 49 69 50 68 51 55 52 56 53 60 54 57 55
REMARK SMILES IDX 59 56 58 57 7 58 8 59 9 60 10 62 11 63 12 64 16 65 13 66
REMARK SMILES IDX 15 67 14 68 17 69 18 70 19 71 20 73 21 74 32 75 22 76 31 77
REMARK SMILES IDX 33 78 23 79 24 80 25 81 29 82 26 83 28 84 30 85 27 86
REMARK H PARENT 3 7 75 25 53 36 8 61 19 72
REMARK Flexibility Score: inf
ROOT
ATOM      1  C   UNL     1       4.721  -3.078   0.681  1.00  0.00     0.023 C 
ENDROOT
BRANCH   1   2
ATOM      2  C   UNL     1       5.194  -1.648   0.912  1.00  0.00     0.023 C 
BRANCH   2   3
ATOM      3  C   UNL     1       4.819  -0.636  -0.180  1.00  0.00     0.116 C 
BRANCH   3   4
ATOM      4  N   UNL     1       3.418  -0.609  -0.568  1.00  0.00    -0.352 N 
ATOM      5  O   UNL     1       1.285  -0.017  -0.755  1.00  0.00    -0.269 OA
ATOM      6  C   UNL     1       2.299  -0.018  -0.049  1.00  0.00     0.251 C 
ATOM      7  H   UNL     1       3.235  -1.130  -1.383  1.00  0.00     0.163 HD
BRANCH   6   8
ATOM      8  C   UNL     1       2.209   0.534   1.325  1.00  0.00     0.039 A 
ATOM      9  C   UNL     1       3.304   0.811   2.138  1.00  0.00     0.014 A 
ATOM     10  C   UNL     1       0.914   0.739   1.838  1.00  0.00     0.014 A 
ATOM     11  C   UNL     1       3.127   1.143   3.469  1.00  0.00     0.010 A 
ATOM     12  C   UNL     1       0.725   1.124   3.160  1.00  0.00     0.010 A 
ATOM     13  C   UNL     1       1.838   1.286   3.979  1.00  0.00    -0.014 A 
BRANCH  13  14
ATOM     14  C   UNL     1       1.732   1.853   5.315  1.00  0.00     0.031 A 
ATOM     15  C   UNL     1       2.278   3.236   5.406  1.00  0.00     0.074 A 
ATOM     16  C   UNL     1       1.104   1.251   6.341  1.00  0.00     0.049 A 
ATOM     17  N   UNL     1       3.271   3.655   6.118  1.00  0.00    -0.248 NA
ATOM     18  C   UNL     1       1.745   4.237   4.465  1.00  0.00     0.031 C 
ATOM     19  C   UNL     1       0.307   0.025   6.297  1.00  0.00     0.029 A 
ATOM     20  N   UNL     1       0.939   1.687   7.622  1.00  0.00    -0.354 N 
ATOM     21  C   UNL     1       3.358   5.023   5.870  1.00  0.00     0.074 A 
ATOM     22  C   UNL     1       2.529   5.283   4.721  1.00  0.00     0.031 C 
ATOM     23  C   UNL     1      -0.452  -0.044   7.413  1.00  0.00     0.029 A 
ATOM     24  C   UNL     1      -0.106   1.063   8.290  1.00  0.00     0.049 A 
ATOM     25  H   UNL     1       1.506   2.378   8.034  1.00  0.00     0.167 HD
ATOM     26  C   UNL     1       3.851   5.879   6.806  1.00  0.00     0.031 A 
ATOM     27  C   UNL     1      -0.704   1.480   9.434  1.00  0.00     0.031 A 
ATOM     28  C   UNL     1       4.667   5.194   7.778  1.00  0.00     0.049 A 
ATOM     29  C   UNL     1       0.202   2.441  10.102  1.00  0.00     0.074 A 
ATOM     30  C   UNL     1       5.804   4.411   7.736  1.00  0.00     0.029 A 
ATOM     31  N   UNL     1       4.114   4.986   9.017  1.00  0.00    -0.354 N 
ATOM     32  N   UNL     1       1.322   2.103  10.668  1.00  0.00    -0.248 NA
ATOM     33  C   UNL     1       0.063   3.855   9.789  1.00  0.00     0.031 C 
ATOM     34  C   UNL     1       5.622   3.437   8.763  1.00  0.00     0.029 A 
ATOM     35  C   UNL     1       4.415   3.712   9.407  1.00  0.00     0.049 A 
ATOM     36  H   UNL     1       3.590   5.640   9.533  1.00  0.00     0.167 HD
ATOM     37  C   UNL     1       2.193   3.138  10.362  1.00  0.00     0.074 A 
ATOM     38  C   UNL     1       1.334   4.240   9.935  1.00  0.00     0.031 C 
ATOM     39  C   UNL     1       3.530   2.901  10.210  1.00  0.00     0.031 A 
BRANCH  26  40
ATOM     40  C   UNL     1       3.148   7.185   7.140  1.00  0.00    -0.014 A 
ATOM     41  C   UNL     1       3.637   7.944   8.220  1.00  0.00     0.009 A 
ATOM     42  C   UNL     1       1.857   7.510   6.680  1.00  0.00     0.009 A 
ATOM     43  C   UNL     1       2.819   8.857   8.896  1.00  0.00     0.001 A 
ATOM     44  C   UNL     1       1.055   8.456   7.323  1.00  0.00     0.001 A 
ATOM     45  C   UNL     1       1.521   9.097   8.459  1.00  0.00     0.000 A 
ENDBRANCH  26  40
BRANCH  27  46
ATOM     46  C   UNL     1      -2.112   1.316   9.855  1.00  0.00    -0.014 A 
ATOM     47  C   UNL     1      -2.497   1.563  11.183  1.00  0.00     0.009 A 
ATOM     48  C   UNL     1      -3.132   1.173   8.897  1.00  0.00     0.009 A 
ATOM     49  C   UNL     1      -3.848   1.701  11.529  1.00  0.00     0.001 A 
ATOM     50  C   UNL     1      -4.481   1.301   9.243  1.00  0.00     0.001 A 
ATOM     51  C   UNL     1      -4.838   1.581  10.556  1.00  0.00     0.000 A 
ENDBRANCH  27  46
BRANCH  39  52
ATOM     52  C   UNL     1       4.073   1.581  10.691  1.00  0.00    -0.014 A 
ATOM     53  C   UNL     1       3.628   0.339  10.207  1.00  0.00     0.009 A 
ATOM     54  C   UNL     1       5.158   1.601  11.580  1.00  0.00     0.009 A 
ATOM     55  C   UNL     1       4.222  -0.850  10.639  1.00  0.00     0.001 A 
ATOM     56  C   UNL     1       5.768   0.416  11.992  1.00  0.00     0.001 A 
ATOM     57  C   UNL     1       5.293  -0.810  11.529  1.00  0.00     0.000 A 
ENDBRANCH  39  52
ENDBRANCH  13  14
ENDBRANCH   6   8
ENDBRANCH   3   4
ENDBRANCH   2   3
ENDBRANCH   1   2
BRANCH   1  58
ATOM     58  C   UNL     1       5.012  -3.636  -0.703  1.00  0.00     0.116 C 
BRANCH  58  59
ATOM     59  N   UNL     1       6.249  -4.386  -0.792  1.00  0.00    -0.356 N 
ATOM     60  C   UNL     1       6.618  -5.446  -1.569  1.00  0.00     0.224 C 
ATOM     61  H   UNL     1       6.953  -4.074  -0.179  1.00  0.00     0.163 HD
ATOM     62  O   UNL     1       7.840  -5.525  -1.758  1.00  0.00    -0.275 OA
BRANCH  60  63
ATOM     63  C   UNL     1       5.668  -6.545  -2.132  1.00  0.00     0.095 C 
ATOM     64  C   UNL     1       4.212  -6.141  -2.367  1.00  0.00     0.041 C 
ATOM     65  C   UNL     1       6.210  -7.055  -3.504  1.00  0.00     0.095 C 
ATOM     66  C   UNL     1       4.134  -5.068  -3.427  1.00  0.00    -0.030 C 
ATOM     67  C   UNL     1       6.286  -5.844  -4.475  1.00  0.00     0.041 C 
ATOM     68  C   UNL     1       5.099  -4.910  -4.352  1.00  0.00    -0.030 C 
BRANCH  65  69
ATOM     69  C   UNL     1       5.276  -8.107  -4.143  1.00  0.00     0.229 C 
ATOM     70  O   UNL     1       4.420  -7.789  -4.983  1.00  0.00    -0.274 OA
ATOM     71  N   UNL     1       5.300  -9.427  -3.864  1.00  0.00    -0.308 N 
ATOM     72  H   UNL     1       4.536  -9.934  -4.223  1.00  0.00     0.171 HD
BRANCH  71  73
ATOM     73  C   UNL     1       6.202 -10.180  -3.168  1.00  0.00     0.168 A 
ATOM     74  N   UNL     1       7.074  -9.722  -2.274  1.00  0.00    -0.153 NA
ATOM     75  C   UNL     1       6.356 -11.573  -3.346  1.00  0.00     0.080 A 
ATOM     76  N   UNL     1       7.818 -10.801  -1.939  1.00  0.00    -0.265 N 
ATOM     77  C   UNL     1       7.432 -11.942  -2.588  1.00  0.00     0.127 A 
ATOM     78  Br  UNL     1       5.364 -12.652  -4.511  1.00  0.00    -0.045 Br
BRANCH  76  79
ATOM     79  C   UNL     1       8.859 -10.709  -0.920  1.00  0.00     0.182 C 
BRANCH  79  80
ATOM     80  C   UNL     1       9.829  -9.592  -1.180  1.00  0.00     0.009 A 
ATOM     81  C   UNL     1      11.050  -9.814  -1.834  1.00  0.00     0.008 A 
ATOM     82  C   UNL     1       9.506  -8.290  -0.788  1.00  0.00     0.128 A 
ATOM     83  C   UNL     1      11.915  -8.746  -2.090  1.00  0.00     0.001 A 
ATOM     84  C   UNL     1      10.358  -7.224  -1.054  1.00  0.00     0.039 A 
ATOM     85  F   UNL     1       8.362  -8.058  -0.127  1.00  0.00    -0.207 F 
ATOM     86  C   UNL     1      11.565  -7.450  -1.710  1.00  0.00     0.003 A 
ENDBRANCH  79  80
ENDBRANCH  76  79
ENDBRANCH  71  73
ENDBRANCH  65  69
ENDBRANCH  60  63
ENDBRANCH  58  59
ENDBRANCH   1  58
TORSDOF 15
