REMARK SMILES O=C(C[N@@H+]1CCC[C@H]1C(=O)NCCCCNC(=O)c1ccc(-c2c3nc(c(-c4ccccc4)c4ccc([nH]4)c(-c4ccccc4)c4nc(c(-c5ccccc5)c5ccc2[nH]5)C=C4)C=C3)cc1)Nc1ccc(F)c(F)c1F
REMARK SMILES IDX 13 1 12 2 11 3 9 4 10 5 8 7 4 8 5 9 6 11 7 12 3 13 2 14 1 15
REMARK SMILES IDX 67 16 68 18 69 19 75 20 70 21 73 22 76 23 71 24 74 25 72 26
REMARK SMILES IDX 14 27 15 28 16 29 17 30 18 32 19 33 20 34 66 35 21 36 65 37
REMARK SMILES IDX 22 38 23 39 24 40 59 41 25 42 64 43 58 44 60 45 26 46 63 47
REMARK SMILES IDX 57 48 56 49 27 51 49 52 34 53 48 54 35 55 38 56 47 57 61 58
REMARK SMILES IDX 36 59 37 60 46 62 62 63 39 64 28 65 29 66 33 67 30 68 32 69
REMARK SMILES IDX 31 70 50 71 51 72 55 73 52 74 54 75 53 76 40 77 41 78 45 79
REMARK SMILES IDX 42 80 44 81 43 82
REMARK H PARENT 11 6 4 10 67 17 16 31 60 50 38 61
REMARK Flexibility Score: inf
ROOT
ATOM      1  C   UNL     1       6.600   1.755   3.291  1.00  0.00     0.023 C 
ENDROOT
BRANCH   1   2
ATOM      2  C   UNL     1       6.154   0.309   3.108  1.00  0.00     0.116 C 
BRANCH   2   3
ATOM      3  N   UNL     1       5.166  -0.087   4.094  1.00  0.00    -0.351 N 
ATOM      4  C   UNL     1       3.911  -0.607   4.003  1.00  0.00     0.278 C 
ATOM      5  O   UNL     1       3.347  -0.826   5.085  1.00  0.00    -0.268 OA
ATOM      6  H   UNL     1       5.466   0.047   5.022  1.00  0.00     0.163 HD
BRANCH   4   7
ATOM      7  C   UNL     1       3.191  -1.001   2.690  1.00  0.00     0.274 C 
ATOM      8  N   UNL     1       3.887  -0.557   1.470  1.00  0.00    -0.317 N 
ATOM      9  C   UNL     1       4.480  -1.732   0.842  1.00  0.00     0.263 C 
ATOM     10  H   UNL     1       4.670   0.059   1.688  1.00  0.00     0.349 HD
ATOM     11  C   UNL     1       3.538  -2.864   1.176  1.00  0.00     0.068 C 
ATOM     12  C   UNL     1       3.111  -2.532   2.593  1.00  0.00     0.081 C 
BRANCH   8  13
ATOM     13  C   UNL     1       3.144   0.413   0.650  1.00  0.00     0.364 C 
BRANCH  13  14
ATOM     14  C   UNL     1       2.066  -0.210  -0.238  1.00  0.00     0.279 C 
ATOM     15  O   UNL     1       0.910  -0.366   0.141  1.00  0.00    -0.268 OA
ATOM     16  N   UNL     1       2.592  -0.682  -1.435  1.00  0.00    -0.319 N 
ATOM     17  H   UNL     1       3.515  -0.436  -1.670  1.00  0.00     0.170 HD
BRANCH  16  18
ATOM     18  C   UNL     1       1.871  -1.493  -2.323  1.00  0.00     0.080 A 
ATOM     19  C   UNL     1       2.478  -2.688  -2.730  1.00  0.00     0.032 A 
ATOM     20  C   UNL     1       0.604  -1.151  -2.805  1.00  0.00     0.185 A 
ATOM     21  C   UNL     1       1.792  -3.565  -3.567  1.00  0.00     0.045 A 
ATOM     22  C   UNL     1      -0.056  -2.006  -3.679  1.00  0.00     0.196 A 
ATOM     23  F   UNL     1       0.064   0.043  -2.517  1.00  0.00    -0.201 F 
ATOM     24  C   UNL     1       0.530  -3.214  -4.040  1.00  0.00     0.162 A 
ATOM     25  F   UNL     1      -1.243  -1.658  -4.195  1.00  0.00    -0.200 F 
ATOM     26  F   UNL     1      -0.109  -4.054  -4.865  1.00  0.00    -0.204 F 
ENDBRANCH  16  18
ENDBRANCH  13  14
ENDBRANCH   8  13
ENDBRANCH   4   7
ENDBRANCH   2   3
ENDBRANCH   1   2
BRANCH   1  27
ATOM     27  C   UNL     1       7.600   1.972   4.420  1.00  0.00     0.023 C 
BRANCH  27  28
ATOM     28  C   UNL     1       8.848   1.099   4.360  1.00  0.00     0.116 C 
BRANCH  28  29
ATOM     29  N   UNL     1       9.542   1.149   3.079  1.00  0.00    -0.352 N 
ATOM     30  C   UNL     1      10.892   1.233   2.835  1.00  0.00     0.251 C 
ATOM     31  H   UNL     1       8.966   1.117   2.281  1.00  0.00     0.163 HD
ATOM     32  O   UNL     1      11.318   1.343   1.690  1.00  0.00    -0.269 OA
BRANCH  30  33
ATOM     33  C   UNL     1      11.823   1.236   3.980  1.00  0.00     0.039 A 
ATOM     34  C   UNL     1      12.748   2.275   4.095  1.00  0.00     0.014 A 
ATOM     35  C   UNL     1      11.720   0.259   4.973  1.00  0.00     0.014 A 
ATOM     36  C   UNL     1      13.514   2.384   5.256  1.00  0.00     0.010 A 
ATOM     37  C   UNL     1      12.427   0.413   6.159  1.00  0.00     0.010 A 
ATOM     38  C   UNL     1      13.325   1.482   6.316  1.00  0.00    -0.014 A 
BRANCH  38  39
ATOM     39  C   UNL     1      14.040   1.644   7.605  1.00  0.00     0.031 A 
ATOM     40  C   UNL     1      15.000   0.585   8.071  1.00  0.00     0.074 A 
ATOM     41  C   UNL     1      13.763   2.701   8.394  1.00  0.00     0.049 A 
ATOM     42  N   UNL     1      15.661   0.510   9.198  1.00  0.00    -0.248 NA
ATOM     43  C   UNL     1      15.222  -0.556   7.167  1.00  0.00     0.031 C 
ATOM     44  C   UNL     1      12.810   3.770   8.083  1.00  0.00     0.029 A 
ATOM     45  N   UNL     1      14.250   3.044   9.631  1.00  0.00    -0.354 N 
ATOM     46  C   UNL     1      16.350  -0.695   9.150  1.00  0.00     0.074 A 
ATOM     47  C   UNL     1      15.998  -1.337   7.903  1.00  0.00     0.031 C 
ATOM     48  C   UNL     1      12.803   4.660   9.089  1.00  0.00     0.029 A 
ATOM     49  C   UNL     1      13.718   4.208  10.131  1.00  0.00     0.049 A 
ATOM     50  H   UNL     1      14.918   2.505  10.115  1.00  0.00     0.167 HD
ATOM     51  C   UNL     1      17.211  -1.213  10.056  1.00  0.00     0.031 A 
ATOM     52  C   UNL     1      13.941   4.838  11.300  1.00  0.00     0.031 A 
ATOM     53  C   UNL     1      17.591  -0.558  11.278  1.00  0.00     0.049 A 
ATOM     54  C   UNL     1      14.919   4.248  12.277  1.00  0.00     0.074 A 
ATOM     55  C   UNL     1      18.528  -0.960  12.214  1.00  0.00     0.029 A 
ATOM     56  N   UNL     1      17.054   0.635  11.732  1.00  0.00    -0.354 N 
ATOM     57  N   UNL     1      15.633   3.154  12.173  1.00  0.00    -0.248 NA
ATOM     58  C   UNL     1      15.129   4.988  13.530  1.00  0.00     0.031 C 
ATOM     59  C   UNL     1      18.525  -0.031  13.259  1.00  0.00     0.029 A 
ATOM     60  C   UNL     1      17.622   0.972  12.948  1.00  0.00     0.049 A 
ATOM     61  H   UNL     1      16.372   1.164  11.259  1.00  0.00     0.167 HD
ATOM     62  C   UNL     1      16.399   3.092  13.330  1.00  0.00     0.074 A 
ATOM     63  C   UNL     1      16.073   4.264  14.115  1.00  0.00     0.031 C 
ATOM     64  C   UNL     1      17.293   2.147  13.710  1.00  0.00     0.031 A 
BRANCH  51  65
ATOM     65  C   UNL     1      17.805  -2.561   9.760  1.00  0.00    -0.014 A 
ATOM     66  C   UNL     1      18.775  -2.725   8.759  1.00  0.00     0.009 A 
ATOM     67  C   UNL     1      17.425  -3.671  10.530  1.00  0.00     0.009 A 
ATOM     68  C   UNL     1      19.332  -3.982   8.516  1.00  0.00     0.001 A 
ATOM     69  C   UNL     1      18.003  -4.921  10.301  1.00  0.00     0.001 A 
ATOM     70  C   UNL     1      18.950  -5.077   9.290  1.00  0.00     0.000 A 
ENDBRANCH  51  65
BRANCH  52  71
ATOM     71  C   UNL     1      13.240   6.111  11.615  1.00  0.00    -0.014 A 
ATOM     72  C   UNL     1      13.949   7.322  11.647  1.00  0.00     0.009 A 
ATOM     73  C   UNL     1      11.870   6.118  11.918  1.00  0.00     0.009 A 
ATOM     74  C   UNL     1      13.308   8.508  12.012  1.00  0.00     0.001 A 
ATOM     75  C   UNL     1      11.226   7.311  12.255  1.00  0.00     0.001 A 
ATOM     76  C   UNL     1      11.947   8.502  12.313  1.00  0.00     0.000 A 
ENDBRANCH  52  71
BRANCH  64  77
ATOM     77  C   UNL     1      18.011   2.365  15.010  1.00  0.00    -0.014 A 
ATOM     78  C   UNL     1      17.359   2.191  16.240  1.00  0.00     0.009 A 
ATOM     79  C   UNL     1      19.372   2.708  15.001  1.00  0.00     0.009 A 
ATOM     80  C   UNL     1      18.050   2.387  17.437  1.00  0.00     0.001 A 
ATOM     81  C   UNL     1      20.067   2.876  16.199  1.00  0.00     0.001 A 
ATOM     82  C   UNL     1      19.403   2.724  17.415  1.00  0.00     0.000 A 
ENDBRANCH  64  77
ENDBRANCH  38  39
ENDBRANCH  30  33
ENDBRANCH  28  29
ENDBRANCH  27  28
ENDBRANCH   1  27
TORSDOF 14
