REMARK SMILES Cc1cc(C(=O)NCCCCNC(=O)c2ccc(-c3c4nc(c(-c5ccccc5)c5ccc([nH]5)c(-c5ccccc5)c5nc(c(-c6ccccc6)c6ccc3[nH]6)C=C5)C=C4)cc2)ccc1NS(=O)(=O)c1ccc2c(c1)CCC2
REMARK SMILES IDX 9 1 8 2 7 3 5 4 6 5 4 7 1 8 2 9 3 10 65 11 64 12 63 13 66 14
REMARK SMILES IDX 67 16 68 17 69 18 70 19 71 20 75 21 72 22 74 23 73 24 76 25
REMARK SMILES IDX 78 26 77 27 10 28 11 29 12 30 13 31 14 33 15 34 16 35 62 36
REMARK SMILES IDX 17 37 61 38 18 39 19 40 20 41 55 42 21 43 60 44 54 45 56 46
REMARK SMILES IDX 22 47 59 48 53 49 52 50 23 52 45 53 30 54 44 55 31 56 34 57
REMARK SMILES IDX 43 58 57 59 32 60 33 61 42 63 58 64 35 65 24 66 25 67 29 68
REMARK SMILES IDX 26 69 28 70 27 71 46 72 47 73 51 74 48 75 50 76 49 77 36 78
REMARK SMILES IDX 37 79 41 80 38 81 40 82 39 83
REMARK H PARENT 7 6 66 15 12 32 56 51 34 62
REMARK Flexibility Score: inf
ROOT
ATOM      1  C   UNL     1      -4.473  -1.107  -1.654  1.00  0.00     0.023 C 
ENDROOT
BRANCH   1   2
ATOM      2  C   UNL     1      -3.921  -1.202  -0.225  1.00  0.00     0.116 C 
BRANCH   2   3
ATOM      3  N   UNL     1      -3.063  -2.355   0.021  1.00  0.00    -0.352 N 
ATOM      4  C   UNL     1      -1.744  -2.449   0.412  1.00  0.00     0.251 C 
ATOM      5  O   UNL     1      -1.229  -3.559   0.519  1.00  0.00    -0.269 OA
ATOM      6  H   UNL     1      -3.506  -3.223  -0.116  1.00  0.00     0.163 HD
BRANCH   4   7
ATOM      7  C   UNL     1      -0.906  -1.241   0.608  1.00  0.00     0.040 A 
ATOM      8  C   UNL     1       2.485  -0.062  -0.612  1.00  0.00     0.046 C 
ATOM      9  C   UNL     1       1.085  -0.017  -0.061  1.00  0.00    -0.026 A 
ATOM     10  C   UNL     1       0.364  -1.218   0.024  1.00  0.00     0.019 A 
ATOM     11  C   UNL     1       0.469   1.169   0.372  1.00  0.00     0.052 A 
ATOM     12  C   UNL     1      -0.641   1.080   1.215  1.00  0.00     0.028 A 
ATOM     13  C   UNL     1      -1.333  -0.130   1.333  1.00  0.00     0.016 A 
BRANCH  11  14
ATOM     14  N   UNL     1       0.841   2.379  -0.285  1.00  0.00    -0.279 N 
ATOM     15  H   UNL     1       1.549   2.295  -0.964  1.00  0.00     0.180 HD
BRANCH  14  16
ATOM     16  S   UNL     1       0.240   3.916  -0.060  1.00  0.00     0.261 S 
ATOM     17  O   UNL     1       0.364   4.240   1.353  1.00  0.00    -0.201 OA
ATOM     18  O   UNL     1       0.872   4.724  -1.071  1.00  0.00    -0.201 OA
BRANCH  16  19
ATOM     19  C   UNL     1      -1.508   3.929  -0.429  1.00  0.00     0.088 A 
ATOM     20  C   UNL     1      -2.215   2.779  -0.815  1.00  0.00     0.022 A 
ATOM     21  C   UNL     1      -2.190   5.116  -0.124  1.00  0.00     0.026 A 
ATOM     22  C   UNL     1      -3.606   2.740  -0.680  1.00  0.00     0.005 A 
ATOM     23  C   UNL     1      -3.569   5.072  -0.041  1.00  0.00    -0.043 A 
ATOM     24  C   UNL     1      -4.260   3.873  -0.232  1.00  0.00    -0.045 A 
ATOM     25  C   UNL     1      -4.522   6.177   0.284  1.00  0.00     0.036 C 
ATOM     26  C   UNL     1      -5.704   4.027   0.134  1.00  0.00     0.036 C 
ATOM     27  C   UNL     1      -5.680   5.371   0.883  1.00  0.00     0.010 C 
ENDBRANCH  16  19
ENDBRANCH  14  16
ENDBRANCH  11  14
ENDBRANCH   4   7
ENDBRANCH   2   3
ENDBRANCH   1   2
BRANCH   1  28
ATOM     28  C   UNL     1      -5.358  -2.262  -2.121  1.00  0.00     0.023 C 
BRANCH  28  29
ATOM     29  C   UNL     1      -6.677  -2.424  -1.372  1.00  0.00     0.116 C 
BRANCH  29  30
ATOM     30  N   UNL     1      -7.783  -1.614  -1.873  1.00  0.00    -0.352 N 
ATOM     31  C   UNL     1      -9.089  -1.521  -1.415  1.00  0.00     0.251 C 
ATOM     32  H   UNL     1      -7.570  -1.049  -2.651  1.00  0.00     0.163 HD
ATOM     33  O   UNL     1      -9.891  -0.804  -2.007  1.00  0.00    -0.269 OA
BRANCH  31  34
ATOM     34  C   UNL     1      -9.483  -2.159  -0.131  1.00  0.00     0.039 A 
ATOM     35  C   UNL     1     -10.251  -1.403   0.764  1.00  0.00     0.014 A 
ATOM     36  C   UNL     1      -8.920  -3.360   0.288  1.00  0.00     0.014 A 
ATOM     37  C   UNL     1     -10.191  -1.689   2.125  1.00  0.00     0.010 A 
ATOM     38  C   UNL     1      -8.762  -3.580   1.641  1.00  0.00     0.010 A 
ATOM     39  C   UNL     1      -9.321  -2.687   2.559  1.00  0.00    -0.014 A 
BRANCH  39  40
ATOM     40  C   UNL     1      -8.749  -2.710   3.901  1.00  0.00     0.031 A 
ATOM     41  C   UNL     1      -9.031  -3.807   4.847  1.00  0.00     0.074 A 
ATOM     42  C   UNL     1      -7.852  -1.755   4.236  1.00  0.00     0.049 A 
ATOM     43  N   UNL     1      -8.868  -3.723   6.126  1.00  0.00    -0.248 NA
ATOM     44  C   UNL     1      -9.586  -5.086   4.422  1.00  0.00     0.031 C 
ATOM     45  C   UNL     1      -6.904  -1.762   5.346  1.00  0.00     0.029 A 
ATOM     46  N   UNL     1      -7.728  -0.477   3.720  1.00  0.00    -0.354 N 
ATOM     47  C   UNL     1      -8.970  -4.997   6.636  1.00  0.00     0.074 A 
ATOM     48  C   UNL     1      -9.534  -5.780   5.562  1.00  0.00     0.031 C 
ATOM     49  C   UNL     1      -6.483  -0.505   5.568  1.00  0.00     0.029 A 
ATOM     50  C   UNL     1      -7.277   0.376   4.725  1.00  0.00     0.049 A 
ATOM     51  H   UNL     1      -7.927  -0.213   2.793  1.00  0.00     0.167 HD
ATOM     52  C   UNL     1      -8.411  -5.280   7.848  1.00  0.00     0.031 A 
ATOM     53  C   UNL     1      -8.057   1.393   5.201  1.00  0.00     0.031 A 
ATOM     54  C   UNL     1      -7.909  -4.075   8.513  1.00  0.00     0.049 A 
ATOM     55  C   UNL     1      -8.422   1.253   6.668  1.00  0.00     0.074 A 
ATOM     56  C   UNL     1      -6.638  -3.554   8.692  1.00  0.00     0.029 A 
ATOM     57  N   UNL     1      -8.799  -3.066   8.866  1.00  0.00    -0.354 N 
ATOM     58  N   UNL     1      -8.318   0.142   7.343  1.00  0.00    -0.248 NA
ATOM     59  C   UNL     1      -8.987   2.337   7.470  1.00  0.00     0.031 C 
ATOM     60  C   UNL     1      -6.770  -2.194   9.078  1.00  0.00     0.029 A 
ATOM     61  C   UNL     1      -8.119  -1.900   9.161  1.00  0.00     0.049 A 
ATOM     62  H   UNL     1      -9.777  -3.168   8.901  1.00  0.00     0.167 HD
ATOM     63  C   UNL     1      -8.797   0.328   8.612  1.00  0.00     0.074 A 
ATOM     64  C   UNL     1      -9.188   1.724   8.650  1.00  0.00     0.031 C 
ATOM     65  C   UNL     1      -8.852  -0.692   9.517  1.00  0.00     0.031 A 
BRANCH  52  66
ATOM     66  C   UNL     1      -8.038  -6.683   8.287  1.00  0.00    -0.014 A 
ATOM     67  C   UNL     1      -7.018  -6.864   9.241  1.00  0.00     0.009 A 
ATOM     68  C   UNL     1      -8.579  -7.864   7.753  1.00  0.00     0.009 A 
ATOM     69  C   UNL     1      -6.502  -8.130   9.556  1.00  0.00     0.001 A 
ATOM     70  C   UNL     1      -8.051  -9.132   8.037  1.00  0.00     0.001 A 
ATOM     71  C   UNL     1      -7.000  -9.264   8.930  1.00  0.00     0.000 A 
ENDBRANCH  52  66
BRANCH  53  72
ATOM     72  C   UNL     1      -8.961   2.000   4.184  1.00  0.00    -0.014 A 
ATOM     73  C   UNL     1      -8.393   2.747   3.134  1.00  0.00     0.009 A 
ATOM     74  C   UNL     1     -10.292   1.575   4.058  1.00  0.00     0.009 A 
ATOM     75  C   UNL     1      -9.102   2.972   1.950  1.00  0.00     0.001 A 
ATOM     76  C   UNL     1     -11.001   1.809   2.873  1.00  0.00     0.001 A 
ATOM     77  C   UNL     1     -10.395   2.477   1.809  1.00  0.00     0.000 A 
ENDBRANCH  53  72
BRANCH  65  78
ATOM     78  C   UNL     1      -9.553  -0.646  10.849  1.00  0.00    -0.014 A 
ATOM     79  C   UNL     1     -10.647   0.183  11.133  1.00  0.00     0.009 A 
ATOM     80  C   UNL     1      -9.194  -1.588  11.839  1.00  0.00     0.009 A 
ATOM     81  C   UNL     1     -11.321   0.103  12.359  1.00  0.00     0.001 A 
ATOM     82  C   UNL     1      -9.890  -1.700  13.045  1.00  0.00     0.001 A 
ATOM     83  C   UNL     1     -10.950  -0.845  13.309  1.00  0.00     0.000 A 
ENDBRANCH  65  78
ENDBRANCH  39  40
ENDBRANCH  31  34
ENDBRANCH  29  30
ENDBRANCH  28  29
ENDBRANCH   1  28
TORSDOF 14
