REMARK SMILES O=C(NCCCCNC(=O)c1ccc(C[NH+]2CC3(CCCCCC3)C2)o1)c1ccc(-c2c3nc(c(-c4ccccc4)c4ccc([nH]4)c(-c4ccccc4)c4nc(c(-c5ccccc5)c5ccc2[nH]5)C=C4)C=C3)cc1
REMARK SMILES IDX 7 1 6 2 5 3 4 4 3 5 1 6 2 7 27 9 28 10 74 11 29 12 73 13
REMARK SMILES IDX 30 14 31 15 32 16 67 17 33 18 72 19 66 20 68 21 34 22 71 23
REMARK SMILES IDX 65 24 64 25 35 27 57 28 42 29 56 30 43 31 46 32 55 33 69 34
REMARK SMILES IDX 44 35 45 36 54 38 70 39 47 40 36 41 37 42 41 43 38 44 40 45
REMARK SMILES IDX 39 46 58 47 59 48 63 49 60 50 62 51 61 52 48 53 49 54 53 55
REMARK SMILES IDX 50 56 52 57 51 58 8 59 9 60 10 62 11 63 12 64 26 65 13 66
REMARK SMILES IDX 14 67 15 68 16 69 17 70 25 71 18 73 19 74 20 75 21 76 24 78
REMARK SMILES IDX 23 79 22 80
REMARK H PARENT 3 8 68 26 46 37 8 61 16 72
REMARK Flexibility Score: 90.00
ROOT
ATOM      1  C   UNL     1       4.913  -2.819  -3.015  1.00  0.00     0.116 C 
ENDROOT
BRANCH   1   2
ATOM      2  C   UNL     1       4.150  -3.532  -1.901  1.00  0.00     0.023 C 
BRANCH   2   3
ATOM      3  C   UNL     1       4.487  -3.077  -0.476  1.00  0.00     0.023 C 
BRANCH   3   4
ATOM      4  C   UNL     1       4.417  -1.571  -0.224  1.00  0.00     0.116 C 
BRANCH   4   5
ATOM      5  N   UNL     1       3.121  -0.992  -0.537  1.00  0.00    -0.352 N 
ATOM      6  O   UNL     1       1.361   0.401  -0.308  1.00  0.00    -0.269 OA
ATOM      7  C   UNL     1       2.504   0.101   0.024  1.00  0.00     0.251 C 
ATOM      8  H   UNL     1       2.615  -1.444  -1.250  1.00  0.00     0.163 HD
BRANCH   7   9
ATOM      9  C   UNL     1       3.197   0.892   1.065  1.00  0.00     0.039 A 
ATOM     10  C   UNL     1       4.505   1.347   0.881  1.00  0.00     0.014 A 
ATOM     11  C   UNL     1       2.507   1.189   2.246  1.00  0.00     0.014 A 
ATOM     12  C   UNL     1       5.159   2.006   1.921  1.00  0.00     0.010 A 
ATOM     13  C   UNL     1       3.152   1.876   3.277  1.00  0.00     0.010 A 
ATOM     14  C   UNL     1       4.495   2.255   3.133  1.00  0.00    -0.014 A 
BRANCH  14  15
ATOM     15  C   UNL     1       5.238   2.881   4.249  1.00  0.00     0.031 A 
ATOM     16  C   UNL     1       5.769   2.035   5.371  1.00  0.00     0.074 A 
ATOM     17  C   UNL     1       5.494   4.201   4.224  1.00  0.00     0.049 A 
ATOM     18  N   UNL     1       6.549   2.381   6.364  1.00  0.00    -0.248 NA
ATOM     19  C   UNL     1       5.375   0.618   5.377  1.00  0.00     0.031 C 
ATOM     20  C   UNL     1       5.027   5.134   3.199  1.00  0.00     0.029 A 
ATOM     21  N   UNL     1       6.243   4.975   5.072  1.00  0.00    -0.354 N 
ATOM     22  C   UNL     1       6.728   1.231   7.120  1.00  0.00     0.074 A 
ATOM     23  C   UNL     1       5.974   0.177   6.475  1.00  0.00     0.031 C 
ATOM     24  C   UNL     1       5.543   6.349   3.451  1.00  0.00     0.029 A 
ATOM     25  C   UNL     1       6.371   6.274   4.652  1.00  0.00     0.049 A 
ATOM     26  H   UNL     1       6.649   4.632   5.901  1.00  0.00     0.167 HD
ATOM     27  C   UNL     1       7.458   1.063   8.247  1.00  0.00     0.031 A 
ATOM     28  C   UNL     1       7.101   7.284   5.158  1.00  0.00     0.031 A 
ATOM     29  C   UNL     1       8.230   2.091   8.887  1.00  0.00     0.049 A 
ATOM     30  C   UNL     1       7.944   7.062   6.378  1.00  0.00     0.074 A 
ATOM     31  C   UNL     1       9.008   2.005  10.029  1.00  0.00     0.029 A 
ATOM     32  N   UNL     1       8.328   3.395   8.432  1.00  0.00    -0.354 N 
ATOM     33  N   UNL     1       8.113   5.965   7.073  1.00  0.00    -0.248 NA
ATOM     34  C   UNL     1       8.702   8.219   6.876  1.00  0.00     0.031 C 
ATOM     35  C   UNL     1       9.580   3.263  10.264  1.00  0.00     0.029 A 
ATOM     36  C   UNL     1       9.157   4.124   9.266  1.00  0.00     0.049 A 
ATOM     37  H   UNL     1       7.875   3.751   7.633  1.00  0.00     0.167 HD
ATOM     38  C   UNL     1       8.998   6.296   8.088  1.00  0.00     0.074 A 
ATOM     39  C   UNL     1       9.336   7.695   7.917  1.00  0.00     0.031 C 
ATOM     40  C   UNL     1       9.486   5.511   9.078  1.00  0.00     0.031 A 
BRANCH  27  41
ATOM     41  C   UNL     1       7.445  -0.302   8.861  1.00  0.00    -0.014 A 
ATOM     42  C   UNL     1       8.365  -1.277   8.449  1.00  0.00     0.009 A 
ATOM     43  C   UNL     1       6.514  -0.612   9.865  1.00  0.00     0.009 A 
ATOM     44  C   UNL     1       8.343  -2.549   9.023  1.00  0.00     0.001 A 
ATOM     45  C   UNL     1       6.498  -1.883  10.439  1.00  0.00     0.001 A 
ATOM     46  C   UNL     1       7.410  -2.851  10.016  1.00  0.00     0.000 A 
ENDBRANCH  27  41
BRANCH  28  47
ATOM     47  C   UNL     1       7.108   8.594   4.470  1.00  0.00    -0.014 A 
ATOM     48  C   UNL     1       8.093   8.875   3.511  1.00  0.00     0.009 A 
ATOM     49  C   UNL     1       6.128   9.555   4.753  1.00  0.00     0.009 A 
ATOM     50  C   UNL     1       8.099  10.104   2.851  1.00  0.00     0.001 A 
ATOM     51  C   UNL     1       6.136  10.782   4.089  1.00  0.00     0.001 A 
ATOM     52  C   UNL     1       7.122  11.056   3.140  1.00  0.00     0.000 A 
ENDBRANCH  28  47
BRANCH  40  53
ATOM     53  C   UNL     1      10.435   6.149  10.043  1.00  0.00    -0.014 A 
ATOM     54  C   UNL     1       9.950   6.811  11.180  1.00  0.00     0.009 A 
ATOM     55  C   UNL     1      11.818   6.072   9.828  1.00  0.00     0.009 A 
ATOM     56  C   UNL     1      10.838   7.399  12.082  1.00  0.00     0.001 A 
ATOM     57  C   UNL     1      12.703   6.660  10.733  1.00  0.00     0.001 A 
ATOM     58  C   UNL     1      12.212   7.325  11.857  1.00  0.00     0.000 A 
ENDBRANCH  40  53
ENDBRANCH  14  15
ENDBRANCH   7   9
ENDBRANCH   4   5
ENDBRANCH   3   4
ENDBRANCH   2   3
ENDBRANCH   1   2
BRANCH   1  59
ATOM     59  N   UNL     1       6.338  -3.088  -2.964  1.00  0.00    -0.349 N 
ATOM     60  C   UNL     1       7.136  -3.599  -3.966  1.00  0.00     0.286 C 
ATOM     61  H   UNL     1       6.788  -2.880  -2.113  1.00  0.00     0.163 HD
ATOM     62  O   UNL     1       8.336  -3.737  -3.745  1.00  0.00    -0.266 OA
BRANCH  60  63
ATOM     63  C   UNL     1       6.507  -3.877  -5.233  1.00  0.00     0.191 A 
ATOM     64  C   UNL     1       6.223  -3.043  -6.297  1.00  0.00     0.057 A 
ATOM     65  O   UNL     1       6.030  -5.135  -5.485  1.00  0.00    -0.450 OA
ATOM     66  C   UNL     1       5.516  -3.822  -7.238  1.00  0.00     0.052 A 
ATOM     67  C   UNL     1       5.448  -5.102  -6.720  1.00  0.00     0.159 A 
BRANCH  67  68
ATOM     68  C   UNL     1       4.851  -6.366  -7.250  1.00  0.00     0.338 C 
BRANCH  68  69
ATOM     69  N   UNL     1       5.784  -7.222  -8.006  1.00  0.00    -0.327 N 
ATOM     70  C   UNL     1       6.545  -6.546  -9.072  1.00  0.00     0.275 C 
ATOM     71  C   UNL     1       5.050  -8.011  -9.019  1.00  0.00     0.275 C 
ATOM     72  H   UNL     1       6.305  -7.653  -7.243  1.00  0.00     0.348 HD
ATOM     73  C   UNL     1       5.542  -7.046 -10.148  1.00  0.00     0.068 C 
BRANCH  73  74
ATOM     74  C   UNL     1       4.627  -5.895 -10.603  1.00  0.00     0.019 C 
BRANCH  74  75
ATOM     75  C   UNL     1       3.510  -6.317 -11.555  1.00  0.00     0.001 C 
BRANCH  75  76
ATOM     76  C   UNL     1       4.009  -6.514 -12.984  1.00  0.00     0.000 CG0
ATOM     77  G   UNL     1       4.605  -7.886 -13.285  1.00  0.00     0.000 G0
ENDBRANCH  75  76
ENDBRANCH  74  75
ENDBRANCH  73  74
BRANCH  73  78
ATOM     78  C   UNL     1       6.255  -7.745 -11.319  1.00  0.00     0.019 C 
BRANCH  78  79
ATOM     79  C   UNL     1       5.296  -8.612 -12.133  1.00  0.00     0.001 C 
BRANCH  79  80
ATOM     80  C   UNL     1       4.605  -7.886 -13.285  1.00  0.00     0.000 CG0
ATOM     81  G   UNL     1       4.009  -6.514 -12.984  1.00  0.00     0.000 G0
ENDBRANCH  79  80
ENDBRANCH  78  79
ENDBRANCH  73  78
ENDBRANCH  68  69
ENDBRANCH  67  68
ENDBRANCH  60  63
ENDBRANCH   1  59
TORSDOF 13
