REMARK SMILES CCC(CC)(NC(=O)c1cc([N+](=O)[O-])c[nH]1)C(=O)NCCCCNC(=O)c1ccc(-c2c3nc(c(-c4ccccc4)c4ccc([nH]4)c(-c4ccccc4)c4nc(c(-c5ccccc5)c5ccc2[nH]5)C=C4)C=C3)cc1
REMARK SMILES IDX 21 1 20 2 19 3 17 4 18 5 3 7 2 8 1 9 4 10 5 11 6 12 7 13
REMARK SMILES IDX 8 15 9 16 10 17 16 18 11 19 15 20 12 22 13 23 14 24 22 25
REMARK SMILES IDX 23 26 24 27 25 28 26 30 27 31 28 32 74 33 29 34 73 35 30 36
REMARK SMILES IDX 31 37 32 38 67 39 33 40 72 41 66 42 68 43 34 44 71 45 65 46
REMARK SMILES IDX 64 47 35 49 57 50 42 51 56 52 43 53 46 54 55 55 69 56 44 57
REMARK SMILES IDX 45 58 54 60 70 61 47 62 36 63 37 64 41 65 38 66 40 67 39 68
REMARK SMILES IDX 58 69 59 70 63 71 60 72 62 73 61 74 48 75 49 76 53 77 50 78
REMARK SMILES IDX 52 79 51 80
REMARK H PARENT 19 6 6 14 16 21 24 29 68 48 46 59
REMARK Flexibility Score: inf
ROOT
ATOM      1  C   UNL     1       2.489  -5.717   2.362  1.00  0.00     0.023 C 
ENDROOT
BRANCH   1   2
ATOM      2  C   UNL     1       2.114  -4.400   3.060  1.00  0.00     0.116 C 
BRANCH   2   3
ATOM      3  N   UNL     1       2.739  -3.153   2.619  1.00  0.00    -0.354 N 
ATOM      4  C   UNL     1       2.391  -2.185   1.696  1.00  0.00     0.245 C 
ATOM      5  O   UNL     1       3.080  -1.161   1.685  1.00  0.00    -0.272 OA
ATOM      6  H   UNL     1       3.588  -2.962   3.079  1.00  0.00     0.163 HD
BRANCH   4   7
ATOM      7  C   UNL     1       1.125  -2.319   0.813  1.00  0.00     0.118 C 
BRANCH   7   8
ATOM      8  C   UNL     1       1.007  -1.345  -0.398  1.00  0.00     0.035 C 
ATOM      9  C   UNL     1       1.054   0.155  -0.148  1.00  0.00     0.007 C 
ENDBRANCH   7   8
BRANCH   7  10
ATOM     10  C   UNL     1      -0.010  -2.016   1.855  1.00  0.00     0.035 C 
ATOM     11  C   UNL     1      -1.456  -2.130   1.414  1.00  0.00     0.007 C 
ENDBRANCH   7  10
BRANCH   7  12
ATOM     12  N   UNL     1       1.069  -3.688   0.234  1.00  0.00    -0.336 N 
ATOM     13  C   UNL     1       1.875  -4.271  -0.739  1.00  0.00     0.268 C 
ATOM     14  H   UNL     1       0.357  -4.266   0.592  1.00  0.00     0.165 HD
ATOM     15  O   UNL     1       1.303  -5.064  -1.491  1.00  0.00    -0.268 OA
BRANCH  13  16
ATOM     16  C   UNL     1       3.318  -4.063  -0.875  1.00  0.00     0.111 A 
ATOM     17  C   UNL     1       4.324  -3.614  -0.038  1.00  0.00     0.119 A 
ATOM     18  N   UNL     1       4.005  -4.509  -2.004  1.00  0.00    -0.351 N 
ATOM     19  C   UNL     1       5.599  -3.832  -0.611  1.00  0.00     0.287 A 
ATOM     20  C   UNL     1       5.368  -4.370  -1.855  1.00  0.00     0.169 A 
ATOM     21  H   UNL     1       3.571  -4.876  -2.808  1.00  0.00     0.166 HD
BRANCH  19  22
ATOM     22  N   UNL     1       6.864  -3.606   0.047  1.00  0.00     0.064 N 
ATOM     23  O   UNL     1       7.891  -3.735  -0.628  1.00  0.00    -0.258 OA
ATOM     24  O   UNL     1       6.819  -3.333   1.257  1.00  0.00    -0.258 OA
ENDBRANCH  19  22
ENDBRANCH  13  16
ENDBRANCH   7  12
ENDBRANCH   4   7
ENDBRANCH   2   3
ENDBRANCH   1   2
BRANCH   1  25
ATOM     25  C   UNL     1       3.953  -6.159   2.284  1.00  0.00     0.023 C 
BRANCH  25  26
ATOM     26  C   UNL     1       4.738  -6.044   3.575  1.00  0.00     0.116 C 
BRANCH  26  27
ATOM     27  N   UNL     1       4.221  -6.966   4.568  1.00  0.00    -0.352 N 
ATOM     28  C   UNL     1       4.725  -7.248   5.811  1.00  0.00     0.251 C 
ATOM     29  H   UNL     1       3.402  -7.452   4.317  1.00  0.00     0.163 HD
ATOM     30  O   UNL     1       4.501  -8.341   6.316  1.00  0.00    -0.269 OA
BRANCH  28  31
ATOM     31  C   UNL     1       5.518  -6.247   6.550  1.00  0.00     0.039 A 
ATOM     32  C   UNL     1       6.519  -6.707   7.413  1.00  0.00     0.014 A 
ATOM     33  C   UNL     1       5.210  -4.882   6.483  1.00  0.00     0.014 A 
ATOM     34  C   UNL     1       7.232  -5.797   8.182  1.00  0.00     0.010 A 
ATOM     35  C   UNL     1       5.945  -3.966   7.218  1.00  0.00     0.010 A 
ATOM     36  C   UNL     1       6.953  -4.429   8.065  1.00  0.00    -0.014 A 
BRANCH  36  37
ATOM     37  C   UNL     1       7.850  -3.465   8.727  1.00  0.00     0.031 A 
ATOM     38  C   UNL     1       9.164  -3.311   7.936  1.00  0.00     0.074 A 
ATOM     39  C   UNL     1       7.397  -2.930   9.902  1.00  0.00     0.049 A 
ATOM     40  N   UNL     1      10.353  -3.001   8.348  1.00  0.00    -0.248 NA
ATOM     41  C   UNL     1       9.171  -3.609   6.473  1.00  0.00     0.031 C 
ATOM     42  C   UNL     1       6.040  -3.145  10.464  1.00  0.00     0.029 A 
ATOM     43  N   UNL     1       7.953  -2.113  10.863  1.00  0.00    -0.354 N 
ATOM     44  C   UNL     1      11.199  -2.921   7.216  1.00  0.00     0.074 A 
ATOM     45  C   UNL     1      10.434  -3.391   6.103  1.00  0.00     0.031 C 
ATOM     46  C   UNL     1       5.916  -2.562  11.678  1.00  0.00     0.029 A 
ATOM     47  C   UNL     1       7.167  -1.925  12.032  1.00  0.00     0.049 A 
ATOM     48  H   UNL     1       8.833  -1.688  10.747  1.00  0.00     0.167 HD
ATOM     49  C   UNL     1      12.441  -2.353   7.253  1.00  0.00     0.031 A 
ATOM     50  C   UNL     1       7.524  -1.358  13.227  1.00  0.00     0.031 A 
ATOM     51  C   UNL     1      12.782  -2.021   8.594  1.00  0.00     0.049 A 
ATOM     52  C   UNL     1       8.892  -0.865  13.025  1.00  0.00     0.074 A 
ATOM     53  C   UNL     1      13.111  -2.784   9.683  1.00  0.00     0.029 A 
ATOM     54  N   UNL     1      12.409  -0.769   9.014  1.00  0.00    -0.354 N 
ATOM     55  N   UNL     1       9.212   0.185  12.335  1.00  0.00    -0.248 NA
ATOM     56  C   UNL     1      10.008  -1.664  13.548  1.00  0.00     0.031 C 
ATOM     57  C   UNL     1      12.416  -2.145  10.734  1.00  0.00     0.029 A 
ATOM     58  C   UNL     1      11.925  -0.913  10.289  1.00  0.00     0.049 A 
ATOM     59  H   UNL     1      12.475   0.069   8.501  1.00  0.00     0.167 HD
ATOM     60  C   UNL     1      10.525  -0.065  12.025  1.00  0.00     0.074 A 
ATOM     61  C   UNL     1      11.023  -0.981  13.028  1.00  0.00     0.031 C 
ATOM     62  C   UNL     1      10.951   0.045  10.742  1.00  0.00     0.031 A 
BRANCH  49  63
ATOM     63  C   UNL     1      13.321  -1.804   6.163  1.00  0.00    -0.014 A 
ATOM     64  C   UNL     1      14.628  -1.391   6.529  1.00  0.00     0.009 A 
ATOM     65  C   UNL     1      12.839  -1.364   4.927  1.00  0.00     0.009 A 
ATOM     66  C   UNL     1      15.355  -0.472   5.770  1.00  0.00     0.001 A 
ATOM     67  C   UNL     1      13.587  -0.471   4.143  1.00  0.00     0.001 A 
ATOM     68  C   UNL     1      14.821   0.005   4.583  1.00  0.00     0.000 A 
ENDBRANCH  49  63
BRANCH  50  69
ATOM     69  C   UNL     1       6.982  -1.229  14.630  1.00  0.00    -0.014 A 
ATOM     70  C   UNL     1       5.674  -1.487  15.043  1.00  0.00     0.009 A 
ATOM     71  C   UNL     1       7.882  -0.852  15.669  1.00  0.00     0.009 A 
ATOM     72  C   UNL     1       5.324  -1.463  16.414  1.00  0.00     0.001 A 
ATOM     73  C   UNL     1       7.557  -0.870  17.027  1.00  0.00     0.001 A 
ATOM     74  C   UNL     1       6.270  -1.192  17.404  1.00  0.00     0.000 A 
ENDBRANCH  50  69
BRANCH  62  75
ATOM     75  C   UNL     1      10.081   0.903   9.839  1.00  0.00    -0.014 A 
ATOM     76  C   UNL     1       9.934   2.270  10.121  1.00  0.00     0.009 A 
ATOM     77  C   UNL     1       9.320   0.381   8.775  1.00  0.00     0.009 A 
ATOM     78  C   UNL     1       9.060   3.078   9.384  1.00  0.00     0.001 A 
ATOM     79  C   UNL     1       8.441   1.188   8.034  1.00  0.00     0.001 A 
ATOM     80  C   UNL     1       8.312   2.539   8.341  1.00  0.00     0.000 A 
ENDBRANCH  62  75
ENDBRANCH  36  37
ENDBRANCH  28  31
ENDBRANCH  26  27
ENDBRANCH  25  26
ENDBRANCH   1  25
TORSDOF 16
