REMARK SMILES C[NH+](C)CC(C)(C)CNc1cccc(F)c1C(=O)NCCCCNC(=O)c1ccc(-c2c3nc(c(-c4ccccc4)c4ccc([nH]4)c(-c4ccccc4)c4nc(c(-c5ccccc5)c5ccc2[nH]5)C=C4)C=C3)cc1
REMARK SMILES IDX 20 1 19 2 17 3 18 4 16 6 10 7 11 8 12 9 14 10 13 11 15 12
REMARK SMILES IDX 9 13 8 15 5 16 6 17 7 18 4 19 2 20 1 21 3 22 21 24 22 25
REMARK SMILES IDX 23 26 24 27 25 28 26 30 27 31 28 32 74 33 29 34 73 35 30 36
REMARK SMILES IDX 31 37 32 38 67 39 33 40 72 41 66 42 68 43 34 44 71 45 65 46
REMARK SMILES IDX 64 47 35 49 57 50 42 51 56 52 43 53 46 54 55 55 69 56 44 57
REMARK SMILES IDX 45 58 54 60 70 61 47 62 36 63 37 64 41 65 38 66 40 67 39 68
REMARK SMILES IDX 58 69 59 70 63 71 60 72 62 73 61 74 48 75 49 76 53 77 50 78
REMARK SMILES IDX 52 79 51 80
REMARK H PARENT 19 5 9 14 2 23 24 29 68 48 46 59
REMARK Flexibility Score: inf
ROOT
ATOM      1  C   UNL     1      -2.002   7.145  -1.646  1.00  0.00     0.116 C 
ENDROOT
BRANCH   1   2
ATOM      2  N   UNL     1      -1.110   6.569  -0.660  1.00  0.00    -0.352 N 
ATOM      3  C   UNL     1      -1.139   5.389   0.044  1.00  0.00     0.256 C 
ATOM      4  O   UNL     1      -0.253   5.264   0.894  1.00  0.00    -0.269 OA
ATOM      5  H   UNL     1      -0.329   7.132  -0.455  1.00  0.00     0.163 HD
BRANCH   3   6
ATOM      6  C   UNL     1      -2.197   4.338  -0.103  1.00  0.00     0.098 A 
ATOM      7  C   UNL     1      -2.469   3.453   0.976  1.00  0.00     0.050 A 
ATOM      8  C   UNL     1      -3.575   2.583   0.881  1.00  0.00     0.027 A 
ATOM      9  C   UNL     1      -4.335   2.495  -0.282  1.00  0.00     0.005 A 
ATOM     10  C   UNL     1      -2.884   4.124  -1.302  1.00  0.00     0.138 A 
ATOM     11  C   UNL     1      -3.958   3.236  -1.391  1.00  0.00     0.040 A 
ATOM     12  F   UNL     1      -2.482   4.689  -2.450  1.00  0.00    -0.206 F 
BRANCH   7  13
ATOM     13  N   UNL     1      -1.605   3.333   2.072  1.00  0.00    -0.384 N 
ATOM     14  H   UNL     1      -1.334   4.136   2.573  1.00  0.00     0.160 HD
BRANCH  13  15
ATOM     15  C   UNL     1      -1.104   2.016   2.475  1.00  0.00     0.125 C 
BRANCH  15  16
ATOM     16  C   UNL     1       0.434   1.841   2.323  1.00  0.00     0.031 C 
ATOM     17  C   UNL     1       0.806   0.456   2.891  1.00  0.00     0.019 C 
ATOM     18  C   UNL     1       1.155   2.881   3.223  1.00  0.00     0.019 C 
BRANCH  16  19
ATOM     19  C   UNL     1       0.987   2.022   0.865  1.00  0.00     0.269 C 
BRANCH  19  20
ATOM     20  N   UNL     1       0.756   1.095  -0.249  1.00  0.00    -0.339 N 
ATOM     21  C   UNL     1       1.373  -0.213  -0.152  1.00  0.00     0.332 C 
ATOM     22  C   UNL     1      -0.590   1.042  -0.778  1.00  0.00     0.332 C 
ATOM     23  H   UNL     1       1.298   1.574  -0.969  1.00  0.00     0.347 HD
ENDBRANCH  19  20
ENDBRANCH  16  19
ENDBRANCH  15  16
ENDBRANCH  13  15
ENDBRANCH   7  13
ENDBRANCH   3   6
ENDBRANCH   1   2
BRANCH   1  24
ATOM     24  C   UNL     1      -2.333   8.610  -1.382  1.00  0.00     0.023 C 
BRANCH  24  25
ATOM     25  C   UNL     1      -1.155   9.579  -1.343  1.00  0.00     0.023 C 
BRANCH  25  26
ATOM     26  C   UNL     1      -0.209   9.540  -2.538  1.00  0.00     0.116 C 
BRANCH  26  27
ATOM     27  N   UNL     1      -0.871   9.751  -3.817  1.00  0.00    -0.352 N 
ATOM     28  C   UNL     1      -0.596  10.656  -4.814  1.00  0.00     0.251 C 
ATOM     29  H   UNL     1      -1.632   9.154  -3.995  1.00  0.00     0.163 HD
ATOM     30  O   UNL     1      -1.332  10.733  -5.795  1.00  0.00    -0.269 OA
BRANCH  28  31
ATOM     31  C   UNL     1       0.559  11.571  -4.693  1.00  0.00     0.039 A 
ATOM     32  C   UNL     1       0.373  12.930  -4.966  1.00  0.00     0.014 A 
ATOM     33  C   UNL     1       1.813  11.102  -4.295  1.00  0.00     0.014 A 
ATOM     34  C   UNL     1       1.420  13.830  -4.753  1.00  0.00     0.010 A 
ATOM     35  C   UNL     1       2.830  12.009  -4.008  1.00  0.00     0.010 A 
ATOM     36  C   UNL     1       2.643  13.383  -4.227  1.00  0.00    -0.014 A 
BRANCH  36  37
ATOM     37  C   UNL     1       3.736  14.331  -3.895  1.00  0.00     0.031 A 
ATOM     38  C   UNL     1       5.052  14.249  -4.619  1.00  0.00     0.074 A 
ATOM     39  C   UNL     1       3.573  15.221  -2.895  1.00  0.00     0.049 A 
ATOM     40  N   UNL     1       6.153  14.927  -4.412  1.00  0.00    -0.248 NA
ATOM     41  C   UNL     1       5.152  13.257  -5.702  1.00  0.00     0.031 C 
ATOM     42  C   UNL     1       2.360  15.382  -2.088  1.00  0.00     0.029 A 
ATOM     43  N   UNL     1       4.438  16.155  -2.381  1.00  0.00    -0.354 N 
ATOM     44  C   UNL     1       7.077  14.432  -5.323  1.00  0.00     0.074 A 
ATOM     45  C   UNL     1       6.426  13.364  -6.050  1.00  0.00     0.031 C 
ATOM     46  C   UNL     1       2.550  16.374  -1.202  1.00  0.00     0.029 A 
ATOM     47  C   UNL     1       3.907  16.890  -1.348  1.00  0.00     0.049 A 
ATOM     48  H   UNL     1       5.352  16.287  -2.721  1.00  0.00     0.167 HD
ATOM     49  C   UNL     1       8.347  14.841  -5.551  1.00  0.00     0.031 A 
ATOM     50  C   UNL     1       4.453  17.866  -0.599  1.00  0.00     0.031 A 
ATOM     51  C   UNL     1       8.994  15.913  -4.844  1.00  0.00     0.049 A 
ATOM     52  C   UNL     1       5.870  18.292  -0.865  1.00  0.00     0.074 A 
ATOM     53  C   UNL     1      10.265  16.427  -5.032  1.00  0.00     0.029 A 
ATOM     54  N   UNL     1       8.415  16.640  -3.816  1.00  0.00    -0.354 N 
ATOM     55  N   UNL     1       6.713  17.847  -1.765  1.00  0.00    -0.248 NA
ATOM     56  C   UNL     1       6.408  19.366  -0.017  1.00  0.00     0.031 C 
ATOM     57  C   UNL     1      10.468  17.444  -4.093  1.00  0.00     0.029 A 
ATOM     58  C   UNL     1       9.306  17.592  -3.353  1.00  0.00     0.049 A 
ATOM     59  H   UNL     1       7.505  16.500  -3.467  1.00  0.00     0.167 HD
ATOM     60  C   UNL     1       7.865  18.607  -1.613  1.00  0.00     0.074 A 
ATOM     61  C   UNL     1       7.609  19.550  -0.545  1.00  0.00     0.031 C 
ATOM     62  C   UNL     1       9.031  18.532  -2.299  1.00  0.00     0.031 A 
BRANCH  49  63
ATOM     63  C   UNL     1       9.121  14.126  -6.622  1.00  0.00    -0.014 A 
ATOM     64  C   UNL     1       8.811  14.305  -7.979  1.00  0.00     0.009 A 
ATOM     65  C   UNL     1      10.196  13.293  -6.274  1.00  0.00     0.009 A 
ATOM     66  C   UNL     1       9.541  13.639  -8.966  1.00  0.00     0.001 A 
ATOM     67  C   UNL     1      10.941  12.650  -7.264  1.00  0.00     0.001 A 
ATOM     68  C   UNL     1      10.608  12.816  -8.607  1.00  0.00     0.000 A 
ENDBRANCH  49  63
BRANCH  50  69
ATOM     69  C   UNL     1       3.660  18.528   0.470  1.00  0.00    -0.014 A 
ATOM     70  C   UNL     1       3.242  19.860   0.320  1.00  0.00     0.009 A 
ATOM     71  C   UNL     1       3.344  17.847   1.656  1.00  0.00     0.009 A 
ATOM     72  C   UNL     1       2.556  20.507   1.350  1.00  0.00     0.001 A 
ATOM     73  C   UNL     1       2.633  18.489   2.672  1.00  0.00     0.001 A 
ATOM     74  C   UNL     1       2.250  19.821   2.524  1.00  0.00     0.000 A 
ENDBRANCH  50  69
BRANCH  62  75
ATOM     75  C   UNL     1      10.099  19.527  -1.949  1.00  0.00    -0.014 A 
ATOM     76  C   UNL     1      10.835  19.421  -0.759  1.00  0.00     0.009 A 
ATOM     77  C   UNL     1      10.398  20.565  -2.846  1.00  0.00     0.009 A 
ATOM     78  C   UNL     1      11.829  20.354  -0.460  1.00  0.00     0.001 A 
ATOM     79  C   UNL     1      11.411  21.480  -2.557  1.00  0.00     0.001 A 
ATOM     80  C   UNL     1      12.119  21.379  -1.361  1.00  0.00     0.000 A 
ENDBRANCH  62  75
ENDBRANCH  36  37
ENDBRANCH  28  31
ENDBRANCH  26  27
ENDBRANCH  25  26
ENDBRANCH  24  25
ENDBRANCH   1  24
TORSDOF 16
