REMARK SMILES CC[C@H](NS(=O)(=O)Cc1ccccc1)C(=O)NCCCCNC(=O)c1ccc(-c2c3nc(c(-c4ccccc4)c4ccc([nH]4)c(-c4ccccc4)c4nc(c(-c5ccccc5)c5ccc2[nH]5)C=C4)C=C3)cc1
REMARK SMILES IDX 18 1 17 2 15 3 16 4 3 6 2 7 1 8 4 9 5 11 6 12 7 13 8 14 9 15
REMARK SMILES IDX 10 16 14 17 11 18 13 19 12 20 19 21 20 22 21 23 22 24 23 25
REMARK SMILES IDX 24 27 25 28 26 29 72 30 27 31 71 32 28 33 29 34 30 35 65 36
REMARK SMILES IDX 31 37 70 38 64 39 66 40 32 41 69 42 63 43 62 44 33 46 55 47
REMARK SMILES IDX 40 48 54 49 41 50 44 51 53 52 67 53 42 54 43 55 52 57 68 58
REMARK SMILES IDX 45 59 34 60 35 61 39 62 36 63 38 64 37 65 56 66 57 67 61 68
REMARK SMILES IDX 58 69 60 70 59 71 46 72 47 73 51 74 48 75 50 76 49 77
REMARK H PARENT 17 5 4 10 22 26 66 45 44 56
REMARK Flexibility Score: inf
ROOT
ATOM      1  C   UNL     1      -2.520  -0.916  -1.688  1.00  0.00     0.116 C 
ENDROOT
BRANCH   1   2
ATOM      2  N   UNL     1      -1.670  -1.274  -2.806  1.00  0.00    -0.355 N 
ATOM      3  C   UNL     1      -0.314  -1.391  -2.937  1.00  0.00     0.238 C 
ATOM      4  O   UNL     1       0.084  -2.168  -3.813  1.00  0.00    -0.273 OA
ATOM      5  H   UNL     1      -2.166  -1.471  -3.633  1.00  0.00     0.163 HD
BRANCH   3   6
ATOM      6  C   UNL     1       0.699  -0.643  -2.082  1.00  0.00     0.158 C 
BRANCH   6   7
ATOM      7  C   UNL     1       1.199  -1.469  -0.880  1.00  0.00     0.027 C 
ATOM      8  C   UNL     1       0.245  -1.690   0.280  1.00  0.00     0.006 C 
ENDBRANCH   6   7
BRANCH   6   9
ATOM      9  N   UNL     1       0.301   0.738  -1.721  1.00  0.00    -0.202 NA
ATOM     10  H   UNL     1       0.755   0.966  -0.837  1.00  0.00     0.141 HD
BRANCH   9  11
ATOM     11  S   UNL     1       0.676   1.979  -2.820  1.00  0.00     0.216 S 
ATOM     12  O   UNL     1       0.555   3.175  -1.999  1.00  0.00    -0.212 OA
ATOM     13  O   UNL     1       1.935   1.677  -3.450  1.00  0.00    -0.212 OA
BRANCH  11  14
ATOM     14  C   UNL     1      -0.680   2.046  -4.006  1.00  0.00     0.189 C 
BRANCH  14  15
ATOM     15  C   UNL     1      -0.555   1.134  -5.199  1.00  0.00    -0.032 A 
ATOM     16  C   UNL     1      -1.539   0.169  -5.463  1.00  0.00     0.005 A 
ATOM     17  C   UNL     1       0.469   1.272  -6.139  1.00  0.00     0.005 A 
ATOM     18  C   UNL     1      -1.434  -0.733  -6.521  1.00  0.00     0.000 A 
ATOM     19  C   UNL     1       0.559   0.399  -7.231  1.00  0.00     0.000 A 
ATOM     20  C   UNL     1      -0.371  -0.624  -7.402  1.00  0.00     0.000 A 
ENDBRANCH  14  15
ENDBRANCH  11  14
ENDBRANCH   9  11
ENDBRANCH   6   9
ENDBRANCH   3   6
ENDBRANCH   1   2
BRANCH   1  21
ATOM     21  C   UNL     1      -3.282   0.413  -1.685  1.00  0.00     0.023 C 
BRANCH  21  22
ATOM     22  C   UNL     1      -4.123   0.899  -2.870  1.00  0.00     0.023 C 
BRANCH  22  23
ATOM     23  C   UNL     1      -4.882  -0.116  -3.709  1.00  0.00     0.116 C 
BRANCH  23  24
ATOM     24  N   UNL     1      -6.086  -0.591  -3.065  1.00  0.00    -0.352 N 
ATOM     25  C   UNL     1      -7.396  -0.479  -3.472  1.00  0.00     0.251 C 
ATOM     26  H   UNL     1      -5.950  -1.062  -2.211  1.00  0.00     0.163 HD
ATOM     27  O   UNL     1      -8.296  -0.816  -2.709  1.00  0.00    -0.269 OA
BRANCH  25  28
ATOM     28  C   UNL     1      -7.740   0.071  -4.807  1.00  0.00     0.039 A 
ATOM     29  C   UNL     1      -8.773   1.010  -4.895  1.00  0.00     0.014 A 
ATOM     30  C   UNL     1      -7.092  -0.353  -5.971  1.00  0.00     0.014 A 
ATOM     31  C   UNL     1      -9.120   1.560  -6.133  1.00  0.00     0.010 A 
ATOM     32  C   UNL     1      -7.399   0.240  -7.199  1.00  0.00     0.010 A 
ATOM     33  C   UNL     1      -8.419   1.200  -7.295  1.00  0.00    -0.014 A 
BRANCH  33  34
ATOM     34  C   UNL     1      -8.745   1.815  -8.611  1.00  0.00     0.031 A 
ATOM     35  C   UNL     1      -9.311   0.974  -9.724  1.00  0.00     0.074 A 
ATOM     36  C   UNL     1      -8.483   3.120  -8.825  1.00  0.00     0.049 A 
ATOM     37  N   UNL     1      -9.604   1.319 -10.954  1.00  0.00    -0.248 NA
ATOM     38  C   UNL     1      -9.565  -0.444  -9.424  1.00  0.00     0.031 C 
ATOM     39  C   UNL     1      -7.909   4.041  -7.843  1.00  0.00     0.029 A 
ATOM     40  N   UNL     1      -8.654   3.896  -9.946  1.00  0.00    -0.354 N 
ATOM     41  C   UNL     1     -10.053   0.161 -11.576  1.00  0.00     0.074 A 
ATOM     42  C   UNL     1      -9.962  -0.905 -10.602  1.00  0.00     0.031 C 
ATOM     43  C   UNL     1      -7.787   5.257  -8.399  1.00  0.00     0.029 A 
ATOM     44  C   UNL     1      -8.232   5.195  -9.788  1.00  0.00     0.049 A 
ATOM     45  H   UNL     1      -9.043   3.555 -10.784  1.00  0.00     0.167 HD
ATOM     46  C   UNL     1     -10.509  -0.000 -12.842  1.00  0.00     0.031 A 
ATOM     47  C   UNL     1      -8.190   6.218 -10.664  1.00  0.00     0.031 A 
ATOM     48  C   UNL     1     -10.616   1.061 -13.807  1.00  0.00     0.049 A 
ATOM     49  C   UNL     1      -8.680   6.004 -12.071  1.00  0.00     0.074 A 
ATOM     50  C   UNL     1     -11.142   1.010 -15.086  1.00  0.00     0.029 A 
ATOM     51  N   UNL     1     -10.180   2.361 -13.604  1.00  0.00    -0.354 N 
ATOM     52  N   UNL     1      -9.186   4.923 -12.613  1.00  0.00    -0.248 NA
ATOM     53  C   UNL     1      -8.595   7.153 -12.986  1.00  0.00     0.031 C 
ATOM     54  C   UNL     1     -10.965   2.263 -15.681  1.00  0.00     0.029 A 
ATOM     55  C   UNL     1     -10.385   3.109 -14.751  1.00  0.00     0.049 A 
ATOM     56  H   UNL     1      -9.784   2.701 -12.769  1.00  0.00     0.167 HD
ATOM     57  C   UNL     1      -9.500   5.268 -13.922  1.00  0.00     0.074 A 
ATOM     58  C   UNL     1      -9.147   6.662 -14.087  1.00  0.00     0.031 C 
ATOM     59  C   UNL     1     -10.030   4.496 -14.901  1.00  0.00     0.031 A 
BRANCH  46  60
ATOM     60  C   UNL     1     -10.915  -1.383 -13.271  1.00  0.00    -0.014 A 
ATOM     61  C   UNL     1     -12.081  -1.990 -12.780  1.00  0.00     0.009 A 
ATOM     62  C   UNL     1     -10.151  -2.063 -14.234  1.00  0.00     0.009 A 
ATOM     63  C   UNL     1     -12.456  -3.262 -13.221  1.00  0.00     0.001 A 
ATOM     64  C   UNL     1     -10.543  -3.321 -14.694  1.00  0.00     0.001 A 
ATOM     65  C   UNL     1     -11.691  -3.923 -14.182  1.00  0.00     0.000 A 
ENDBRANCH  46  60
BRANCH  47  66
ATOM     66  C   UNL     1      -7.643   7.538 -10.250  1.00  0.00    -0.014 A 
ATOM     67  C   UNL     1      -8.478   8.661 -10.147  1.00  0.00     0.009 A 
ATOM     68  C   UNL     1      -6.273   7.688  -9.981  1.00  0.00     0.009 A 
ATOM     69  C   UNL     1      -7.948   9.911  -9.815  1.00  0.00     0.001 A 
ATOM     70  C   UNL     1      -5.751   8.931  -9.617  1.00  0.00     0.001 A 
ATOM     71  C   UNL     1      -6.587  10.044  -9.546  1.00  0.00     0.000 A 
ENDBRANCH  47  66
BRANCH  59  72
ATOM     72  C   UNL     1     -10.283   5.143 -16.234  1.00  0.00    -0.014 A 
ATOM     73  C   UNL     1      -9.225   5.464 -17.098  1.00  0.00     0.009 A 
ATOM     74  C   UNL     1     -11.601   5.375 -16.656  1.00  0.00     0.009 A 
ATOM     75  C   UNL     1      -9.482   6.028 -18.349  1.00  0.00     0.001 A 
ATOM     76  C   UNL     1     -11.857   5.911 -17.919  1.00  0.00     0.001 A 
ATOM     77  C   UNL     1     -10.797   6.244 -18.761  1.00  0.00     0.000 A 
ENDBRANCH  59  72
ENDBRANCH  33  34
ENDBRANCH  25  28
ENDBRANCH  23  24
ENDBRANCH  22  23
ENDBRANCH  21  22
ENDBRANCH   1  21
TORSDOF 16
