REMARK SMILES Cc1cc2nc(NC(=O)[C@H]3[C@@H](C(=O)NCCCCNC(=O)c4ccc(-c5c6nc(c(-c7ccccc7)c7ccc([nH]7)c(-c7ccccc7)c7nc(c(-c8ccccc8)c8ccc5[nH]8)C=C7)C=C6)cc4)[C@@H]4C=C[C@H]3C4)sc2cc1C
REMARK SMILES IDX 16 1 15 2 14 3 12 4 13 5 11 7 10 8 73 9 70 10 72 11 74 12
REMARK SMILES IDX 71 13 8 14 7 15 9 17 6 18 1 19 2 20 3 21 78 22 4 23 77 24
REMARK SMILES IDX 79 25 5 26 76 27 75 28 17 29 18 30 19 31 20 32 21 34 22 35
REMARK SMILES IDX 23 36 69 37 24 38 68 39 25 40 26 41 27 42 62 43 28 44 67 45
REMARK SMILES IDX 61 46 63 47 29 48 66 49 60 50 59 51 30 53 52 54 37 55 51 56
REMARK SMILES IDX 38 57 41 58 50 59 64 60 39 61 40 62 49 64 65 65 42 66 31 67
REMARK SMILES IDX 32 68 36 69 33 70 35 71 34 72 53 73 54 74 58 75 55 76 57 77
REMARK SMILES IDX 56 78 43 79 44 80 48 81 45 82 47 83 46 84
REMARK H PARENT 14 6 7 16 19 33 63 52 41 63
REMARK Flexibility Score: inf
ROOT
ATOM      1  C   UNL     1      -2.353   9.278   7.684  1.00  0.00     0.023 C 
ENDROOT
BRANCH   1   2
ATOM      2  C   UNL     1      -2.521   8.283   6.539  1.00  0.00     0.116 C 
BRANCH   2   3
ATOM      3  N   UNL     1      -1.285   7.604   6.215  1.00  0.00    -0.356 N 
ATOM      4  C   UNL     1      -0.926   6.309   6.088  1.00  0.00     0.224 C 
ATOM      5  O   UNL     1       0.284   6.152   5.908  1.00  0.00    -0.275 OA
ATOM      6  H   UNL     1      -0.539   8.225   6.050  1.00  0.00     0.163 HD
BRANCH   4   7
ATOM      7  C   UNL     1      -1.899   5.143   6.258  1.00  0.00     0.098 C 
ATOM      8  C   UNL     1      -1.358   3.756   5.689  1.00  0.00     0.099 C 
ATOM      9  C   UNL     1      -2.400   3.415   4.604  1.00  0.00     0.025 C 
ATOM     10  C   UNL     1      -3.259   5.277   5.511  1.00  0.00     0.025 C 
ATOM     11  C   UNL     1      -3.679   3.023   5.322  1.00  0.00    -0.027 C 
ATOM     12  C   UNL     1      -2.867   4.797   4.127  1.00  0.00     0.017 C 
ATOM     13  C   UNL     1      -4.178   4.135   5.882  1.00  0.00    -0.027 C 
BRANCH   8  14
ATOM     14  C   UNL     1       0.149   3.582   5.396  1.00  0.00     0.230 C 
ATOM     15  N   UNL     1       0.838   3.993   4.301  1.00  0.00    -0.302 N 
ATOM     16  H   UNL     1       1.814   4.040   4.418  1.00  0.00     0.172 HD
ATOM     17  O   UNL     1       0.847   3.113   6.314  1.00  0.00    -0.274 OA
BRANCH  15  18
ATOM     18  C   UNL     1       0.390   4.349   3.071  1.00  0.00     0.190 A 
ATOM     19  C   UNL     1      -3.651   6.177  -0.878  1.00  0.00     0.044 C 
ATOM     20  C   UNL     1      -2.275   5.928  -0.321  1.00  0.00    -0.046 A 
ATOM     21  C   UNL     1      -2.146   4.985   0.708  1.00  0.00     0.033 A 
ATOM     22  C   UNL     1      -1.139   6.633  -0.754  1.00  0.00    -0.047 A 
ATOM     23  C   UNL     1      -0.929   4.840   1.396  1.00  0.00     0.084 A 
ATOM     24  C   UNL     1       0.103   6.459  -0.098  1.00  0.00     0.025 A 
ATOM     25  C   UNL     1      -1.180   7.561  -1.940  1.00  0.00     0.044 C 
ATOM     26  N   UNL     1      -0.744   4.051   2.510  1.00  0.00    -0.220 NA
ATOM     27  C   UNL     1       0.171   5.599   1.010  1.00  0.00     0.057 A 
ATOM     28  S   UNL     1       1.462   5.281   2.121  1.00  0.00    -0.097 S 
ENDBRANCH  15  18
ENDBRANCH   8  14
ENDBRANCH   4   7
ENDBRANCH   2   3
ENDBRANCH   1   2
BRANCH   1  29
ATOM     29  C   UNL     1      -1.141  10.210   7.603  1.00  0.00     0.023 C 
BRANCH  29  30
ATOM     30  C   UNL     1      -0.951  10.949   6.278  1.00  0.00     0.116 C 
BRANCH  30  31
ATOM     31  N   UNL     1      -2.038  11.827   5.909  1.00  0.00    -0.352 N 
ATOM     32  C   UNL     1      -2.390  13.101   6.255  1.00  0.00     0.251 C 
ATOM     33  H   UNL     1      -2.663  11.417   5.267  1.00  0.00     0.163 HD
ATOM     34  O   UNL     1      -3.304  13.614   5.603  1.00  0.00    -0.269 OA
BRANCH  32  35
ATOM     35  C   UNL     1      -1.811  13.862   7.395  1.00  0.00     0.039 A 
ATOM     36  C   UNL     1      -0.647  13.530   8.092  1.00  0.00     0.014 A 
ATOM     37  C   UNL     1      -2.549  14.982   7.818  1.00  0.00     0.014 A 
ATOM     38  C   UNL     1      -0.301  14.207   9.258  1.00  0.00     0.010 A 
ATOM     39  C   UNL     1      -2.187  15.686   8.959  1.00  0.00     0.010 A 
ATOM     40  C   UNL     1      -1.095  15.257   9.711  1.00  0.00    -0.014 A 
BRANCH  40  41
ATOM     41  C   UNL     1      -0.714  15.928  10.952  1.00  0.00     0.031 A 
ATOM     42  C   UNL     1       0.572  16.689  10.937  1.00  0.00     0.074 A 
ATOM     43  C   UNL     1      -1.556  15.999  12.003  1.00  0.00     0.049 A 
ATOM     44  N   UNL     1       1.522  16.688  11.818  1.00  0.00    -0.248 NA
ATOM     45  C   UNL     1       0.849  17.533   9.763  1.00  0.00     0.031 C 
ATOM     46  C   UNL     1      -2.951  15.552  12.057  1.00  0.00     0.029 A 
ATOM     47  N   UNL     1      -1.385  16.633  13.198  1.00  0.00    -0.354 N 
ATOM     48  C   UNL     1       2.461  17.623  11.383  1.00  0.00     0.074 A 
ATOM     49  C   UNL     1       2.036  18.051  10.075  1.00  0.00     0.031 C 
ATOM     50  C   UNL     1      -3.566  16.161  13.093  1.00  0.00     0.029 A 
ATOM     51  C   UNL     1      -2.582  16.930  13.836  1.00  0.00     0.049 A 
ATOM     52  H   UNL     1      -0.501  16.858  13.571  1.00  0.00     0.167 HD
ATOM     53  C   UNL     1       3.458  18.101  12.178  1.00  0.00     0.031 A 
ATOM     54  C   UNL     1      -2.769  17.831  14.829  1.00  0.00     0.031 A 
ATOM     55  C   UNL     1       3.720  17.248  13.301  1.00  0.00     0.049 A 
ATOM     56  C   UNL     1      -1.456  18.107  15.454  1.00  0.00     0.074 A 
ATOM     57  C   UNL     1       4.158  15.947  13.442  1.00  0.00     0.029 A 
ATOM     58  N   UNL     1       3.227  17.614  14.529  1.00  0.00    -0.354 N 
ATOM     59  N   UNL     1      -0.791  17.241  16.161  1.00  0.00    -0.248 NA
ATOM     60  C   UNL     1      -0.685  19.242  14.972  1.00  0.00     0.031 C 
ATOM     61  C   UNL     1       3.465  15.448  14.580  1.00  0.00     0.029 A 
ATOM     62  C   UNL     1       2.681  16.486  15.086  1.00  0.00     0.049 A 
ATOM     63  H   UNL     1       3.260  18.512  14.932  1.00  0.00     0.167 HD
ATOM     64  C   UNL     1       0.539  17.479  15.851  1.00  0.00     0.074 A 
ATOM     65  C   UNL     1       0.549  18.797  15.222  1.00  0.00     0.031 C 
ATOM     66  C   UNL     1       1.462  16.472  15.866  1.00  0.00     0.031 A 
BRANCH  53  67
ATOM     67  C   UNL     1       4.019  19.496  12.078  1.00  0.00    -0.014 A 
ATOM     68  C   UNL     1       3.354  20.541  11.408  1.00  0.00     0.009 A 
ATOM     69  C   UNL     1       5.115  19.860  12.882  1.00  0.00     0.009 A 
ATOM     70  C   UNL     1       3.755  21.875  11.530  1.00  0.00     0.001 A 
ATOM     71  C   UNL     1       5.493  21.200  13.041  1.00  0.00     0.001 A 
ATOM     72  C   UNL     1       4.810  22.207  12.366  1.00  0.00     0.000 A 
ENDBRANCH  53  67
BRANCH  54  73
ATOM     73  C   UNL     1      -3.948  18.700  15.040  1.00  0.00    -0.014 A 
ATOM     74  C   UNL     1      -4.781  19.050  13.960  1.00  0.00     0.009 A 
ATOM     75  C   UNL     1      -4.116  19.399  16.245  1.00  0.00     0.009 A 
ATOM     76  C   UNL     1      -5.726  20.073  14.068  1.00  0.00     0.001 A 
ATOM     77  C   UNL     1      -5.056  20.433  16.350  1.00  0.00     0.001 A 
ATOM     78  C   UNL     1      -5.851  20.777  15.259  1.00  0.00     0.000 A 
ENDBRANCH  54  73
BRANCH  66  79
ATOM     79  C   UNL     1       1.059  15.130  16.440  1.00  0.00    -0.014 A 
ATOM     80  C   UNL     1       1.919  14.498  17.352  1.00  0.00     0.009 A 
ATOM     81  C   UNL     1      -0.035  14.396  15.948  1.00  0.00     0.009 A 
ATOM     82  C   UNL     1       1.701  13.176  17.748  1.00  0.00     0.001 A 
ATOM     83  C   UNL     1      -0.271  13.083  16.367  1.00  0.00     0.001 A 
ATOM     84  C   UNL     1       0.605  12.470  17.258  1.00  0.00     0.000 A 
ENDBRANCH  66  79
ENDBRANCH  40  41
ENDBRANCH  32  35
ENDBRANCH  30  31
ENDBRANCH  29  30
ENDBRANCH   1  29
TORSDOF 13
