REMARK SMILES O=C(NCCCCNC(=O)c1ccc(-c2cccc(O)c2)cc1Cl)c1ccc(-c2c3nc(c(-c4ccccc4)c4ccc([nH]4)c(-c4ccccc4)c4nc(c(-c5ccccc5)c5ccc2[nH]5)C=C4)C=C3)cc1
REMARK SMILES IDX 5 1 4 2 3 3 1 4 2 5 25 7 26 8 72 9 27 10 71 11 28 12 29 13
REMARK SMILES IDX 30 14 65 15 31 16 70 17 64 18 66 19 32 20 69 21 63 22 62 23
REMARK SMILES IDX 33 25 55 26 40 27 54 28 41 29 44 30 53 31 67 32 42 33 43 34
REMARK SMILES IDX 52 36 68 37 45 38 34 39 35 40 39 41 36 42 38 43 37 44 56 45
REMARK SMILES IDX 57 46 61 47 58 48 60 49 59 50 46 51 47 52 51 53 48 54 50 55
REMARK SMILES IDX 49 56 6 57 7 58 8 59 9 60 10 62 11 63 12 64 23 65 13 66
REMARK SMILES IDX 22 67 24 68 14 69 15 70 16 71 21 72 17 73 19 74 18 75 20 76
REMARK H PARENT 3 6 66 24 44 35 8 61 20 77
REMARK Flexibility Score: inf
ROOT
ATOM      1  C   UNL     1       5.039  -0.620   2.461  1.00  0.00     0.023 C 
ENDROOT
BRANCH   1   2
ATOM      2  C   UNL     1       4.685  -0.881   1.001  1.00  0.00     0.116 C 
BRANCH   2   3
ATOM      3  N   UNL     1       3.250  -0.945   0.772  1.00  0.00    -0.352 N 
ATOM      4  O   UNL     1       1.223  -0.255   0.070  1.00  0.00    -0.269 OA
ATOM      5  C   UNL     1       2.444  -0.135   0.012  1.00  0.00     0.251 C 
ATOM      6  H   UNL     1       2.787  -1.682   1.233  1.00  0.00     0.163 HD
BRANCH   5   7
ATOM      7  C   UNL     1       3.038   0.903  -0.857  1.00  0.00     0.039 A 
ATOM      8  C   UNL     1       4.123   0.614  -1.688  1.00  0.00     0.014 A 
ATOM      9  C   UNL     1       2.479   2.183  -0.851  1.00  0.00     0.014 A 
ATOM     10  C   UNL     1       4.735   1.636  -2.410  1.00  0.00     0.010 A 
ATOM     11  C   UNL     1       3.048   3.190  -1.632  1.00  0.00     0.010 A 
ATOM     12  C   UNL     1       4.199   2.932  -2.394  1.00  0.00    -0.014 A 
BRANCH  12  13
ATOM     13  C   UNL     1       4.816   4.012  -3.203  1.00  0.00     0.031 A 
ATOM     14  C   UNL     1       5.431   5.211  -2.539  1.00  0.00     0.074 A 
ATOM     15  C   UNL     1       4.783   3.928  -4.546  1.00  0.00     0.049 A 
ATOM     16  N   UNL     1       5.927   6.293  -3.085  1.00  0.00    -0.248 NA
ATOM     17  C   UNL     1       5.489   5.197  -1.070  1.00  0.00     0.031 C 
ATOM     18  C   UNL     1       4.221   2.812  -5.308  1.00  0.00     0.029 A 
ATOM     19  N   UNL     1       5.220   4.804  -5.507  1.00  0.00    -0.354 N 
ATOM     20  C   UNL     1       6.329   7.100  -2.029  1.00  0.00     0.074 A 
ATOM     21  C   UNL     1       5.999   6.392  -0.810  1.00  0.00     0.031 C 
ATOM     22  C   UNL     1       4.353   3.067  -6.618  1.00  0.00     0.029 A 
ATOM     23  C   UNL     1       4.948   4.388  -6.786  1.00  0.00     0.049 A 
ATOM     24  H   UNL     1       5.682   5.648  -5.299  1.00  0.00     0.167 HD
ATOM     25  C   UNL     1       6.916   8.321  -2.072  1.00  0.00     0.031 A 
ATOM     26  C   UNL     1       5.120   5.012  -7.966  1.00  0.00     0.031 A 
ATOM     27  C   UNL     1       7.230   9.025  -3.288  1.00  0.00     0.049 A 
ATOM     28  C   UNL     1       5.722   6.386  -7.990  1.00  0.00     0.074 A 
ATOM     29  C   UNL     1       7.856  10.250  -3.438  1.00  0.00     0.029 A 
ATOM     30  N   UNL     1       6.928   8.572  -4.564  1.00  0.00    -0.354 N 
ATOM     31  N   UNL     1       6.128   7.124  -6.985  1.00  0.00    -0.248 NA
ATOM     32  C   UNL     1       5.894   7.012  -9.307  1.00  0.00     0.031 C 
ATOM     33  C   UNL     1       7.879  10.566  -4.800  1.00  0.00     0.029 A 
ATOM     34  C   UNL     1       7.328   9.507  -5.504  1.00  0.00     0.049 A 
ATOM     35  H   UNL     1       6.494   7.712  -4.770  1.00  0.00     0.167 HD
ATOM     36  C   UNL     1       6.631   8.288  -7.549  1.00  0.00     0.074 A 
ATOM     37  C   UNL     1       6.481   8.157  -8.985  1.00  0.00     0.031 C 
ATOM     38  C   UNL     1       7.175   9.364  -6.930  1.00  0.00     0.031 A 
BRANCH  25  39
ATOM     39  C   UNL     1       7.210   8.992  -0.757  1.00  0.00    -0.014 A 
ATOM     40  C   UNL     1       8.204   8.511   0.110  1.00  0.00     0.009 A 
ATOM     41  C   UNL     1       6.489  10.139  -0.388  1.00  0.00     0.009 A 
ATOM     42  C   UNL     1       8.433   9.133   1.340  1.00  0.00     0.001 A 
ATOM     43  C   UNL     1       6.742  10.778   0.827  1.00  0.00     0.001 A 
ATOM     44  C   UNL     1       7.703  10.267   1.696  1.00  0.00     0.000 A 
ENDBRANCH  25  39
BRANCH  26  45
ATOM     45  C   UNL     1       4.689   4.333  -9.214  1.00  0.00    -0.014 A 
ATOM     46  C   UNL     1       5.636   3.817 -10.110  1.00  0.00     0.009 A 
ATOM     47  C   UNL     1       3.323   4.147  -9.485  1.00  0.00     0.009 A 
ATOM     48  C   UNL     1       5.222   3.136 -11.257  1.00  0.00     0.001 A 
ATOM     49  C   UNL     1       2.914   3.441 -10.617  1.00  0.00     0.001 A 
ATOM     50  C   UNL     1       3.864   2.941 -11.505  1.00  0.00     0.000 A 
ENDBRANCH  26  45
BRANCH  38  51
ATOM     51  C   UNL     1       7.699  10.472  -7.799  1.00  0.00    -0.014 A 
ATOM     52  C   UNL     1       6.835  11.359  -8.459  1.00  0.00     0.009 A 
ATOM     53  C   UNL     1       9.086  10.672  -7.899  1.00  0.00     0.009 A 
ATOM     54  C   UNL     1       7.352  12.413  -9.215  1.00  0.00     0.001 A 
ATOM     55  C   UNL     1       9.598  11.742  -8.632  1.00  0.00     0.001 A 
ATOM     56  C   UNL     1       8.731  12.609  -9.294  1.00  0.00     0.000 A 
ENDBRANCH  38  51
ENDBRANCH  12  13
ENDBRANCH   5   7
ENDBRANCH   2   3
ENDBRANCH   1   2
BRANCH   1  57
ATOM     57  C   UNL     1       4.576  -1.691   3.449  1.00  0.00     0.023 C 
BRANCH  57  58
ATOM     58  C   UNL     1       4.979  -3.120   3.098  1.00  0.00     0.116 C 
BRANCH  58  59
ATOM     59  N   UNL     1       6.420  -3.303   3.024  1.00  0.00    -0.352 N 
ATOM     60  C   UNL     1       7.168  -4.358   3.488  1.00  0.00     0.252 C 
ATOM     61  H   UNL     1       6.923  -2.579   2.586  1.00  0.00     0.163 HD
ATOM     62  O   UNL     1       8.389  -4.361   3.378  1.00  0.00    -0.269 OA
BRANCH  60  63
ATOM     63  C   UNL     1       6.495  -5.458   4.197  1.00  0.00     0.058 A 
ATOM     64  C   UNL     1       6.745  -5.582   5.567  1.00  0.00     0.016 A 
ATOM     65  C   UNL     1       5.606  -6.328   3.564  1.00  0.00     0.054 A 
ATOM     66  C   UNL     1       6.044  -6.529   6.319  1.00  0.00     0.009 A 
ATOM     67  C   UNL     1       4.893  -7.257   4.327  1.00  0.00     0.030 A 
ATOM     68  Cl  UNL     1       5.335  -6.312   1.858  1.00  0.00    -0.083 Cl
ATOM     69  C   UNL     1       5.085  -7.362   5.718  1.00  0.00    -0.017 A 
BRANCH  69  70
ATOM     70  C   UNL     1       4.280  -8.305   6.514  1.00  0.00    -0.015 A 
ATOM     71  C   UNL     1       4.111  -9.640   6.105  1.00  0.00     0.009 A 
ATOM     72  C   UNL     1       3.624  -7.888   7.684  1.00  0.00     0.054 A 
ATOM     73  C   UNL     1       3.306 -10.522   6.832  1.00  0.00     0.004 A 
ATOM     74  C   UNL     1       2.824  -8.773   8.402  1.00  0.00     0.116 A 
ATOM     75  C   UNL     1       2.656 -10.087   7.984  1.00  0.00     0.046 A 
BRANCH  74  76
ATOM     76  O   UNL     1       2.204  -8.300   9.522  1.00  0.00    -0.508 OA
ATOM     77  H   UNL     1       1.658  -8.867  10.030  1.00  0.00     0.293 HD
ENDBRANCH  74  76
ENDBRANCH  69  70
ENDBRANCH  60  63
ENDBRANCH  58  59
ENDBRANCH  57  58
ENDBRANCH   1  57
TORSDOF 13
