REMARK SMILES Cc1cc([C@H]([NH3+])C(=O)NCCCCNC(=O)c2ccc(-c3c4nc(c(-c5ccccc5)c5ccc([nH]5)c(-c5ccccc5)c5nc(c(-c6ccccc6)c6ccc3[nH]6)C=C5)C=C4)cc2)ccc1F
REMARK SMILES IDX 12 1 11 2 10 3 9 4 7 5 8 6 5 8 4 9 1 10 2 11 3 12 67 13
REMARK SMILES IDX 66 14 68 15 65 16 6 17 13 21 14 22 15 23 16 25 17 26 18 27
REMARK SMILES IDX 64 28 19 29 63 30 20 31 21 32 22 33 57 34 23 35 62 36 56 37
REMARK SMILES IDX 58 38 24 39 61 40 55 41 54 42 25 44 47 45 32 46 46 47 33 48
REMARK SMILES IDX 36 49 45 50 59 51 34 52 35 53 44 55 60 56 37 57 26 58 27 59
REMARK SMILES IDX 31 60 28 61 30 62 29 63 48 64 49 65 53 66 50 67 52 68 51 69
REMARK SMILES IDX 38 70 39 71 43 72 40 73 42 74 41 75
REMARK H PARENT 9 7 6 18 6 19 6 20 14 24 58 43 36 54
REMARK Flexibility Score: inf
ROOT
ATOM      1  C   UNL     1      -3.503  -3.518   2.778  1.00  0.00     0.023 C 
ENDROOT
BRANCH   1   2
ATOM      2  C   UNL     1      -2.595  -2.763   1.818  1.00  0.00     0.023 C 
BRANCH   2   3
ATOM      3  C   UNL     1      -3.290  -1.823   0.845  1.00  0.00     0.116 C 
BRANCH   3   4
ATOM      4  N   UNL     1      -3.922  -0.672   1.452  1.00  0.00    -0.351 N 
ATOM      5  C   UNL     1      -4.066   0.589   0.934  1.00  0.00     0.283 C 
ATOM      6  O   UNL     1      -4.785   1.374   1.566  1.00  0.00    -0.268 OA
ATOM      7  H   UNL     1      -4.296  -0.813   2.352  1.00  0.00     0.163 HD
BRANCH   5   8
ATOM      8  C   UNL     1      -3.372   1.048  -0.384  1.00  0.00     0.302 C 
BRANCH   8   9
ATOM      9  C   UNL     1      -4.093   0.595  -1.645  1.00  0.00     0.019 A 
ATOM     10  C   UNL     1      -4.646  -2.571  -3.706  1.00  0.00     0.047 C 
ATOM     11  C   UNL     1      -4.718  -1.144  -3.258  1.00  0.00    -0.015 A 
ATOM     12  C   UNL     1      -3.961  -0.703  -2.166  1.00  0.00     0.017 A 
ATOM     13  C   UNL     1      -5.527  -0.224  -3.916  1.00  0.00     0.126 A 
ATOM     14  C   UNL     1      -5.630   1.089  -3.468  1.00  0.00     0.040 A 
ATOM     15  F   UNL     1      -6.224  -0.600  -4.997  1.00  0.00    -0.207 F 
ATOM     16  C   UNL     1      -4.937   1.490  -2.323  1.00  0.00     0.013 A 
ENDBRANCH   8   9
BRANCH   8  17
ATOM     17  N   UNL     1      -1.931   0.723  -0.397  1.00  0.00    -0.343 N 
ATOM     18  H   UNL     1      -1.810  -0.290  -0.388  1.00  0.00     0.345 HD
ATOM     19  H   UNL     1      -1.484   1.126   0.426  1.00  0.00     0.345 HD
ATOM     20  H   UNL     1      -1.503   1.109  -1.239  1.00  0.00     0.345 HD
ENDBRANCH   8  17
ENDBRANCH   5   8
ENDBRANCH   3   4
ENDBRANCH   2   3
ENDBRANCH   1   2
BRANCH   1  21
ATOM     21  C   UNL     1      -4.673  -4.256   2.138  1.00  0.00     0.116 C 
BRANCH  21  22
ATOM     22  N   UNL     1      -4.268  -5.261   1.165  1.00  0.00    -0.352 N 
ATOM     23  C   UNL     1      -4.509  -6.617   1.140  1.00  0.00     0.251 C 
ATOM     24  H   UNL     1      -3.740  -4.919   0.407  1.00  0.00     0.163 HD
ATOM     25  O   UNL     1      -3.987  -7.320   0.286  1.00  0.00    -0.269 OA
BRANCH  23  26
ATOM     26  C   UNL     1      -5.373  -7.231   2.174  1.00  0.00     0.039 A 
ATOM     27  C   UNL     1      -4.951  -8.409   2.795  1.00  0.00     0.014 A 
ATOM     28  C   UNL     1      -6.579  -6.637   2.547  1.00  0.00     0.014 A 
ATOM     29  C   UNL     1      -5.700  -8.943   3.846  1.00  0.00     0.010 A 
ATOM     30  C   UNL     1      -7.268  -7.110   3.659  1.00  0.00     0.010 A 
ATOM     31  C   UNL     1      -6.841  -8.273   4.318  1.00  0.00    -0.014 A 
BRANCH  31  32
ATOM     32  C   UNL     1      -7.608  -8.779   5.486  1.00  0.00     0.031 A 
ATOM     33  C   UNL     1      -9.051  -9.180   5.327  1.00  0.00     0.074 A 
ATOM     34  C   UNL     1      -7.028  -8.825   6.702  1.00  0.00     0.049 A 
ATOM     35  N   UNL     1      -9.895  -9.607   6.233  1.00  0.00    -0.248 NA
ATOM     36  C   UNL     1      -9.631  -9.058   3.979  1.00  0.00     0.031 C 
ATOM     37  C   UNL     1      -5.653  -8.420   7.005  1.00  0.00     0.029 A 
ATOM     38  N   UNL     1      -7.527  -9.233   7.914  1.00  0.00    -0.354 N 
ATOM     39  C   UNL     1     -11.102  -9.786   5.569  1.00  0.00     0.074 A 
ATOM     40  C   UNL     1     -10.900  -9.363   4.202  1.00  0.00     0.031 C 
ATOM     41  C   UNL     1      -5.408  -8.637   8.307  1.00  0.00     0.029 A 
ATOM     42  C   UNL     1      -6.616  -9.153   8.941  1.00  0.00     0.049 A 
ATOM     43  H   UNL     1      -8.450  -9.553   8.037  1.00  0.00     0.167 HD
ATOM     44  C   UNL     1     -12.269 -10.281   6.045  1.00  0.00     0.031 A 
ATOM     45  C   UNL     1      -6.740  -9.461  10.246  1.00  0.00     0.031 A 
ATOM     46  C   UNL     1     -12.470 -10.713   7.402  1.00  0.00     0.049 A 
ATOM     47  C   UNL     1      -8.049 -10.001  10.752  1.00  0.00     0.074 A 
ATOM     48  C   UNL     1     -13.599 -11.279   7.968  1.00  0.00     0.029 A 
ATOM     49  N   UNL     1     -11.519 -10.623   8.407  1.00  0.00    -0.354 N 
ATOM     50  N   UNL     1      -9.159 -10.232  10.094  1.00  0.00    -0.248 NA
ATOM     51  C   UNL     1      -8.114 -10.341  12.180  1.00  0.00     0.031 C 
ATOM     52  C   UNL     1     -13.350 -11.481   9.330  1.00  0.00     0.029 A 
ATOM     53  C   UNL     1     -12.043 -11.104   9.595  1.00  0.00     0.049 A 
ATOM     54  H   UNL     1     -10.607 -10.270   8.292  1.00  0.00     0.167 HD
ATOM     55  C   UNL     1     -10.041 -10.777  11.019  1.00  0.00     0.074 A 
ATOM     56  C   UNL     1      -9.331 -10.856  12.278  1.00  0.00     0.031 C 
ATOM     57  C   UNL     1     -11.324 -11.179  10.841  1.00  0.00     0.031 A 
BRANCH  44  58
ATOM     58  C   UNL     1     -13.422 -10.378   5.083  1.00  0.00    -0.014 A 
ATOM     59  C   UNL     1     -13.407 -11.289   4.014  1.00  0.00     0.009 A 
ATOM     60  C   UNL     1     -14.553  -9.567   5.264  1.00  0.00     0.009 A 
ATOM     61  C   UNL     1     -14.480 -11.356   3.123  1.00  0.00     0.001 A 
ATOM     62  C   UNL     1     -15.640  -9.660   4.392  1.00  0.00     0.001 A 
ATOM     63  C   UNL     1     -15.598 -10.546   3.317  1.00  0.00     0.000 A 
ENDBRANCH  44  58
BRANCH  45  64
ATOM     64  C   UNL     1      -5.585  -9.291  11.168  1.00  0.00    -0.014 A 
ATOM     65  C   UNL     1      -4.942 -10.410  11.720  1.00  0.00     0.009 A 
ATOM     66  C   UNL     1      -5.131  -8.009  11.517  1.00  0.00     0.009 A 
ATOM     67  C   UNL     1      -3.891 -10.249  12.626  1.00  0.00     0.001 A 
ATOM     68  C   UNL     1      -4.058  -7.852  12.398  1.00  0.00     0.001 A 
ATOM     69  C   UNL     1      -3.448  -8.971  12.961  1.00  0.00     0.000 A 
ENDBRANCH  45  64
BRANCH  57  70
ATOM     70  C   UNL     1     -12.024 -11.789  12.024  1.00  0.00    -0.014 A 
ATOM     71  C   UNL     1     -12.399 -11.018  13.136  1.00  0.00     0.009 A 
ATOM     72  C   UNL     1     -12.338 -13.157  12.009  1.00  0.00     0.009 A 
ATOM     73  C   UNL     1     -13.033 -11.617  14.227  1.00  0.00     0.001 A 
ATOM     74  C   UNL     1     -13.003 -13.745  13.086  1.00  0.00     0.001 A 
ATOM     75  C   UNL     1     -13.338 -12.977  14.199  1.00  0.00     0.000 A 
ENDBRANCH  57  70
ENDBRANCH  31  32
ENDBRANCH  23  26
ENDBRANCH  21  22
ENDBRANCH   1  21
TORSDOF 13
