REMARK SMILES C[C@H](C(=O)NCCCCNC(=O)c1ccc(-c2c3nc(c(-c4ccccc4)c4ccc([nH]4)c(-c4ccccc4)c4nc(c(-c5ccccc5)c5ccc2[nH]5)C=C4)C=C3)cc1)[C@@H](C)C(=O)[C@H]1CC[C@H](C)CC1
REMARK SMILES IDX 7 1 6 2 5 3 3 4 4 5 2 7 1 8 61 9 62 10 63 11 64 12 65 13
REMARK SMILES IDX 69 14 68 15 67 16 70 17 66 18 71 19 8 20 9 21 10 22 11 23
REMARK SMILES IDX 12 25 13 26 14 27 60 28 15 29 59 30 16 31 17 32 18 33 53 34
REMARK SMILES IDX 19 35 58 36 52 37 54 38 20 39 57 40 51 41 50 42 21 44 43 45
REMARK SMILES IDX 28 46 42 47 29 48 32 49 41 50 55 51 30 52 31 53 40 55 56 56
REMARK SMILES IDX 33 57 22 58 23 59 27 60 24 61 26 62 25 63 44 64 45 65 49 66
REMARK SMILES IDX 46 67 48 68 47 69 34 70 35 71 39 72 36 73 38 74 37 75
REMARK H PARENT 5 6 10 24 54 43 32 54
REMARK Flexibility Score: inf
ROOT
ATOM      1  C   UNL     1      -6.813  -0.372   3.502  1.00  0.00     0.023 C 
ENDROOT
BRANCH   1   2
ATOM      2  C   UNL     1      -5.926   0.839   3.241  1.00  0.00     0.116 C 
BRANCH   2   3
ATOM      3  N   UNL     1      -4.714   0.801   4.031  1.00  0.00    -0.356 N 
ATOM      4  C   UNL     1      -3.418   1.003   3.670  1.00  0.00     0.223 C 
ATOM      5  O   UNL     1      -2.563   0.981   4.558  1.00  0.00    -0.275 OA
ATOM      6  H   UNL     1      -4.850   0.596   4.984  1.00  0.00     0.163 HD
BRANCH   4   7
ATOM      7  C   UNL     1      -3.013   1.164   2.207  1.00  0.00     0.085 C 
ATOM      8  C   UNL     1      -3.278  -0.162   1.472  1.00  0.00     0.019 C 
BRANCH   7   9
ATOM      9  C   UNL     1      -3.412   2.504   1.487  1.00  0.00     0.065 C 
ATOM     10  C   UNL     1      -3.542   2.331  -0.018  1.00  0.00     0.017 C 
BRANCH   9  11
ATOM     11  C   UNL     1      -4.393   3.422   2.253  1.00  0.00     0.139 C 
ATOM     12  O   UNL     1      -4.132   3.662   3.444  1.00  0.00    -0.299 OA
BRANCH  11  13
ATOM     13  C   UNL     1      -5.655   4.114   1.679  1.00  0.00     0.056 C 
ATOM     14  C   UNL     1      -8.214   7.114  -0.346  1.00  0.00     0.007 C 
ATOM     15  C   UNL     1      -7.040   6.254   0.110  1.00  0.00    -0.014 C 
ATOM     16  C   UNL     1      -7.282   4.770  -0.178  1.00  0.00     0.004 C 
ATOM     17  C   UNL     1      -6.765   6.437   1.602  1.00  0.00     0.004 C 
ATOM     18  C   UNL     1      -6.058   3.938   0.217  1.00  0.00     0.012 C 
ATOM     19  C   UNL     1      -5.557   5.615   2.044  1.00  0.00     0.012 C 
ENDBRANCH  11  13
ENDBRANCH   9  11
ENDBRANCH   7   9
ENDBRANCH   4   7
ENDBRANCH   2   3
ENDBRANCH   1   2
BRANCH   1  20
ATOM     20  C   UNL     1      -7.436  -0.401   4.899  1.00  0.00     0.023 C 
BRANCH  20  21
ATOM     21  C   UNL     1      -8.212   0.854   5.290  1.00  0.00     0.116 C 
BRANCH  21  22
ATOM     22  N   UNL     1      -9.290   1.166   4.363  1.00  0.00    -0.352 N 
ATOM     23  C   UNL     1     -10.611   1.438   4.631  1.00  0.00     0.251 C 
ATOM     24  H   UNL     1      -9.039   1.185   3.412  1.00  0.00     0.163 HD
ATOM     25  O   UNL     1     -11.420   1.550   3.720  1.00  0.00    -0.269 OA
BRANCH  23  26
ATOM     26  C   UNL     1     -11.051   1.561   6.036  1.00  0.00     0.039 A 
ATOM     27  C   UNL     1     -12.162   0.830   6.462  1.00  0.00     0.014 A 
ATOM     28  C   UNL     1     -10.341   2.361   6.934  1.00  0.00     0.014 A 
ATOM     29  C   UNL     1     -12.517   0.843   7.812  1.00  0.00     0.010 A 
ATOM     30  C   UNL     1     -10.651   2.314   8.290  1.00  0.00     0.010 A 
ATOM     31  C   UNL     1     -11.739   1.552   8.742  1.00  0.00    -0.014 A 
BRANCH  31  32
ATOM     32  C   UNL     1     -12.038   1.498  10.195  1.00  0.00     0.031 A 
ATOM     33  C   UNL     1     -12.440   2.746  10.931  1.00  0.00     0.074 A 
ATOM     34  C   UNL     1     -11.877   0.342  10.867  1.00  0.00     0.049 A 
ATOM     35  N   UNL     1     -12.680   2.909  12.207  1.00  0.00    -0.248 NA
ATOM     36  C   UNL     1     -12.563   3.977  10.133  1.00  0.00     0.031 C 
ATOM     37  C   UNL     1     -11.444  -0.929  10.280  1.00  0.00     0.029 A 
ATOM     38  N   UNL     1     -12.049   0.051  12.197  1.00  0.00    -0.354 N 
ATOM     39  C   UNL     1     -12.960   4.260  12.368  1.00  0.00     0.074 A 
ATOM     40  C   UNL     1     -12.816   4.880  11.069  1.00  0.00     0.031 C 
ATOM     41  C   UNL     1     -11.409  -1.867  11.240  1.00  0.00     0.029 A 
ATOM     42  C   UNL     1     -11.777  -1.258  12.514  1.00  0.00     0.049 A 
ATOM     43  H   UNL     1     -12.339   0.717  12.861  1.00  0.00     0.167 HD
ATOM     44  C   UNL     1     -13.322   4.923  13.491  1.00  0.00     0.031 A 
ATOM     45  C   UNL     1     -11.814  -1.897  13.699  1.00  0.00     0.031 A 
ATOM     46  C   UNL     1     -13.480   4.306  14.780  1.00  0.00     0.049 A 
ATOM     47  C   UNL     1     -12.219  -1.139  14.931  1.00  0.00     0.074 A 
ATOM     48  C   UNL     1     -13.908   4.881  15.964  1.00  0.00     0.029 A 
ATOM     49  N   UNL     1     -13.211   2.974  15.056  1.00  0.00    -0.354 N 
ATOM     50  N   UNL     1     -12.555   0.122  15.052  1.00  0.00    -0.248 NA
ATOM     51  C   UNL     1     -12.261  -1.897  16.190  1.00  0.00     0.031 C 
ATOM     52  C   UNL     1     -13.851   3.909  16.968  1.00  0.00     0.029 A 
ATOM     53  C   UNL     1     -13.441   2.715  16.396  1.00  0.00     0.049 A 
ATOM     54  H   UNL     1     -12.903   2.312  14.396  1.00  0.00     0.167 HD
ATOM     55  C   UNL     1     -12.872   0.303  16.392  1.00  0.00     0.074 A 
ATOM     56  C   UNL     1     -12.705  -0.981  17.040  1.00  0.00     0.031 C 
ATOM     57  C   UNL     1     -13.269   1.432  17.027  1.00  0.00     0.031 A 
BRANCH  44  58
ATOM     58  C   UNL     1     -13.566   6.402  13.373  1.00  0.00    -0.014 A 
ATOM     59  C   UNL     1     -14.685   6.903  12.690  1.00  0.00     0.009 A 
ATOM     60  C   UNL     1     -12.682   7.306  13.983  1.00  0.00     0.009 A 
ATOM     61  C   UNL     1     -14.895   8.280  12.589  1.00  0.00     0.001 A 
ATOM     62  C   UNL     1     -12.910   8.681  13.906  1.00  0.00     0.001 A 
ATOM     63  C   UNL     1     -14.010   9.167  13.201  1.00  0.00     0.000 A 
ENDBRANCH  44  58
BRANCH  45  64
ATOM     64  C   UNL     1     -11.472  -3.341  13.775  1.00  0.00    -0.014 A 
ATOM     65  C   UNL     1     -12.472  -4.297  14.015  1.00  0.00     0.009 A 
ATOM     66  C   UNL     1     -10.146  -3.772  13.612  1.00  0.00     0.009 A 
ATOM     67  C   UNL     1     -12.146  -5.652  14.115  1.00  0.00     0.001 A 
ATOM     68  C   UNL     1      -9.829  -5.130  13.684  1.00  0.00     0.001 A 
ATOM     69  C   UNL     1     -10.826  -6.067  13.944  1.00  0.00     0.000 A 
ENDBRANCH  45  64
BRANCH  57  70
ATOM     70  C   UNL     1     -13.581   1.323  18.493  1.00  0.00    -0.014 A 
ATOM     71  C   UNL     1     -12.563   1.169  19.446  1.00  0.00     0.009 A 
ATOM     72  C   UNL     1     -14.912   1.421  18.927  1.00  0.00     0.009 A 
ATOM     73  C   UNL     1     -12.877   1.082  20.804  1.00  0.00     0.001 A 
ATOM     74  C   UNL     1     -15.220   1.363  20.287  1.00  0.00     0.001 A 
ATOM     75  C   UNL     1     -14.203   1.185  21.224  1.00  0.00     0.000 A 
ENDBRANCH  57  70
ENDBRANCH  31  32
ENDBRANCH  23  26
ENDBRANCH  21  22
ENDBRANCH  20  21
ENDBRANCH   1  20
TORSDOF 14
