REMARK SMILES COc1cc2c(cc1OC)[C@H](C(=O)NCCCCNC(=O)c1ccc(-c3c4nc(c(-c5ccccc5)c5ccc([nH]5)c(-c5ccccc5)c5nc(c(-c6ccccc6)c6ccc3[nH]6)C=C5)C=C4)cc1)[C@H](c1cccc(Cl)c1)N(C)C2=O
REMARK SMILES IDX 17 1 16 2 15 3 14 4 12 5 13 6 11 8 3 9 4 10 8 11 5 12 7 13
REMARK SMILES IDX 6 14 80 15 78 16 81 17 70 18 79 19 2 20 1 21 9 22 10 23
REMARK SMILES IDX 71 24 72 25 77 26 73 27 75 28 74 29 76 30 18 31 19 32 20 33
REMARK SMILES IDX 21 35 22 36 23 37 69 38 24 39 68 40 25 41 26 42 27 43 62 44
REMARK SMILES IDX 28 45 67 46 61 47 63 48 29 49 66 50 60 51 59 52 30 54 52 55
REMARK SMILES IDX 37 56 51 57 38 58 41 59 50 60 64 61 39 62 40 63 49 65 65 66
REMARK SMILES IDX 42 67 31 68 32 69 36 70 33 71 35 72 34 73 53 74 54 75 58 76
REMARK SMILES IDX 55 77 57 78 56 79 43 80 44 81 48 82 45 83 47 84 46 85
REMARK H PARENT 14 7 19 34 63 53 41 64
REMARK Flexibility Score: inf
ROOT
ATOM      1  C   UNL     1      -2.245   9.088  -1.256  1.00  0.00     0.023 C 
ENDROOT
BRANCH   1   2
ATOM      2  C   UNL     1      -1.107   8.397  -0.498  1.00  0.00     0.023 C 
BRANCH   2   3
ATOM      3  C   UNL     1      -0.665   7.063  -1.099  1.00  0.00     0.116 C 
BRANCH   3   4
ATOM      4  N   UNL     1      -0.209   7.254  -2.463  1.00  0.00    -0.355 N 
ATOM      5  C   UNL     1       1.014   7.004  -3.011  1.00  0.00     0.230 C 
ATOM      6  O   UNL     1       1.261   7.612  -4.050  1.00  0.00    -0.274 OA
ATOM      7  H   UNL     1      -0.881   7.618  -3.084  1.00  0.00     0.163 HD
BRANCH   5   8
ATOM      8  C   UNL     1       2.007   6.109  -2.285  1.00  0.00     0.136 C 
ATOM      9  C   UNL     1       1.010   1.984  -1.328  1.00  0.00     0.161 A 
ATOM     10  C   UNL     1       2.264   2.534  -1.024  1.00  0.00     0.064 A 
ATOM     11  C   UNL     1       0.045   2.780  -1.963  1.00  0.00     0.161 A 
ATOM     12  C   UNL     1       2.549   3.869  -1.337  1.00  0.00     0.048 A 
ATOM     13  C   UNL     1       0.356   4.109  -2.299  1.00  0.00     0.056 A 
ATOM     14  C   UNL     1       1.593   4.676  -1.977  1.00  0.00    -0.016 A 
ATOM     15  C   UNL     1       3.915   4.415  -1.055  1.00  0.00     0.254 C 
ATOM     16  N   UNL     1       4.308   5.530  -1.804  1.00  0.00    -0.333 N 
ATOM     17  O   UNL     1       4.631   3.866  -0.224  1.00  0.00    -0.269 OA
ATOM     18  C   UNL     1       3.442   6.057  -2.894  1.00  0.00     0.132 C 
ATOM     19  C   UNL     1       5.642   6.072  -1.625  1.00  0.00     0.147 C 
BRANCH   9  20
ATOM     20  O   UNL     1       0.753   0.654  -1.124  1.00  0.00    -0.493 OA
ATOM     21  C   UNL     1       1.206   0.133   0.122  1.00  0.00     0.278 C 
ENDBRANCH   9  20
BRANCH  11  22
ATOM     22  O   UNL     1      -1.231   2.440  -2.332  1.00  0.00    -0.493 OA
ATOM     23  C   UNL     1      -1.785   1.236  -1.820  1.00  0.00     0.278 C 
ENDBRANCH  11  22
BRANCH  18  24
ATOM     24  C   UNL     1       3.609   5.259  -4.205  1.00  0.00    -0.023 A 
ATOM     25  C   UNL     1       3.058   5.731  -5.409  1.00  0.00     0.006 A 
ATOM     26  C   UNL     1       4.302   4.034  -4.269  1.00  0.00     0.026 A 
ATOM     27  C   UNL     1       3.090   4.976  -6.585  1.00  0.00     0.002 A 
ATOM     28  C   UNL     1       4.354   3.288  -5.450  1.00  0.00     0.041 A 
ATOM     29  C   UNL     1       3.728   3.743  -6.603  1.00  0.00     0.020 A 
ATOM     30  Cl  UNL     1       5.197   1.788  -5.473  1.00  0.00    -0.084 Cl
ENDBRANCH  18  24
ENDBRANCH   5   8
ENDBRANCH   3   4
ENDBRANCH   2   3
ENDBRANCH   1   2
BRANCH   1  31
ATOM     31  C   UNL     1      -3.474   8.220  -1.498  1.00  0.00     0.116 C 
BRANCH  31  32
ATOM     32  N   UNL     1      -4.080   7.764  -0.258  1.00  0.00    -0.352 N 
ATOM     33  C   UNL     1      -5.382   7.871   0.158  1.00  0.00     0.251 C 
ATOM     34  H   UNL     1      -3.469   7.317   0.372  1.00  0.00     0.163 HD
ATOM     35  O   UNL     1      -5.685   7.597   1.317  1.00  0.00    -0.269 OA
BRANCH  33  36
ATOM     36  C   UNL     1      -6.417   8.344  -0.784  1.00  0.00     0.039 A 
ATOM     37  C   UNL     1      -7.335   9.303  -0.352  1.00  0.00     0.014 A 
ATOM     38  C   UNL     1      -6.476   7.849  -2.091  1.00  0.00     0.014 A 
ATOM     39  C   UNL     1      -8.279   9.806  -1.248  1.00  0.00     0.010 A 
ATOM     40  C   UNL     1      -7.362   8.413  -3.004  1.00  0.00     0.010 A 
ATOM     41  C   UNL     1      -8.280   9.390  -2.590  1.00  0.00    -0.014 A 
BRANCH  41  42
ATOM     42  C   UNL     1      -9.234   9.974  -3.566  1.00  0.00     0.031 A 
ATOM     43  C   UNL     1     -10.262   9.107  -4.240  1.00  0.00     0.074 A 
ATOM     44  C   UNL     1      -9.145  11.280  -3.884  1.00  0.00     0.049 A 
ATOM     45  N   UNL     1     -11.176   9.441  -5.117  1.00  0.00    -0.248 NA
ATOM     46  C   UNL     1     -10.247   7.674  -3.908  1.00  0.00     0.031 C 
ATOM     47  C   UNL     1      -8.156  12.218  -3.346  1.00  0.00     0.029 A 
ATOM     48  N   UNL     1      -9.897  12.047  -4.739  1.00  0.00    -0.354 N 
ATOM     49  C   UNL     1     -11.828   8.261  -5.452  1.00  0.00     0.074 A 
ATOM     50  C   UNL     1     -11.170   7.195  -4.728  1.00  0.00     0.031 C 
ATOM     51  C   UNL     1      -8.384  13.438  -3.856  1.00  0.00     0.029 A 
ATOM     52  C   UNL     1      -9.507  13.363  -4.786  1.00  0.00     0.049 A 
ATOM     53  H   UNL     1     -10.645  11.687  -5.269  1.00  0.00     0.167 HD
ATOM     54  C   UNL     1     -12.890   8.080  -6.272  1.00  0.00     0.031 A 
ATOM     55  C   UNL     1      -9.994  14.396  -5.499  1.00  0.00     0.031 A 
ATOM     56  C   UNL     1     -13.547   9.142  -6.987  1.00  0.00     0.049 A 
ATOM     57  C   UNL     1     -11.175  14.173  -6.401  1.00  0.00     0.074 A 
ATOM     58  C   UNL     1     -14.676   9.073  -7.785  1.00  0.00     0.029 A 
ATOM     59  N   UNL     1     -13.128  10.463  -6.999  1.00  0.00    -0.354 N 
ATOM     60  N   UNL     1     -11.841  13.068  -6.633  1.00  0.00    -0.248 NA
ATOM     61  C   UNL     1     -11.683  15.345  -7.128  1.00  0.00     0.031 C 
ATOM     62  C   UNL     1     -14.901  10.340  -8.333  1.00  0.00     0.029 A 
ATOM     63  C   UNL     1     -13.955  11.213  -7.819  1.00  0.00     0.049 A 
ATOM     64  H   UNL     1     -12.357  10.817  -6.500  1.00  0.00     0.167 HD
ATOM     65  C   UNL     1     -12.861  13.415  -7.509  1.00  0.00     0.074 A 
ATOM     66  C   UNL     1     -12.736  14.838  -7.753  1.00  0.00     0.031 C 
ATOM     67  C   UNL     1     -13.816  12.627  -8.060  1.00  0.00     0.031 A 
BRANCH  54  68
ATOM     68  C   UNL     1     -13.396   6.674  -6.453  1.00  0.00    -0.014 A 
ATOM     69  C   UNL     1     -14.014   5.976  -5.402  1.00  0.00     0.009 A 
ATOM     70  C   UNL     1     -13.277   6.048  -7.703  1.00  0.00     0.009 A 
ATOM     71  C   UNL     1     -14.460   4.665  -5.588  1.00  0.00     0.001 A 
ATOM     72  C   UNL     1     -13.755   4.750  -7.896  1.00  0.00     0.001 A 
ATOM     73  C   UNL     1     -14.334   4.056  -6.835  1.00  0.00     0.000 A 
ENDBRANCH  54  68
BRANCH  55  74
ATOM     74  C   UNL     1      -9.372  15.741  -5.373  1.00  0.00    -0.014 A 
ATOM     75  C   UNL     1     -10.054  16.790  -4.737  1.00  0.00     0.009 A 
ATOM     76  C   UNL     1      -8.086  15.980  -5.883  1.00  0.00     0.009 A 
ATOM     77  C   UNL     1      -9.471  18.055  -4.636  1.00  0.00     0.001 A 
ATOM     78  C   UNL     1      -7.493  17.238  -5.753  1.00  0.00     0.001 A 
ATOM     79  C   UNL     1      -8.190  18.277  -5.138  1.00  0.00     0.000 A 
ENDBRANCH  55  74
BRANCH  67  80
ATOM     80  C   UNL     1     -14.827  13.290  -8.955  1.00  0.00    -0.014 A 
ATOM     81  C   UNL     1     -14.477  13.770 -10.227  1.00  0.00     0.009 A 
ATOM     82  C   UNL     1     -16.162  13.393  -8.534  1.00  0.00     0.009 A 
ATOM     83  C   UNL     1     -15.437  14.373 -11.043  1.00  0.00     0.001 A 
ATOM     84  C   UNL     1     -17.126  13.965  -9.365  1.00  0.00     0.001 A 
ATOM     85  C   UNL     1     -16.761  14.464 -10.614  1.00  0.00     0.000 A 
ENDBRANCH  67  80
ENDBRANCH  41  42
ENDBRANCH  33  36
ENDBRANCH  31  32
ENDBRANCH   1  31
TORSDOF 14
