REMARK SMILES O=C1C[C@H](c2cn[nH]c2C(=O)NCCCCNC(=O)c2ccc(-c3c4nc(c(-c5ccccc5)c5ccc([nH]5)c(-c5ccccc5)c5nc(c(-c6ccccc6)c6ccc3[nH]6)C=C5)C=C4)cc2)c2c(-c3cccs3)n[nH]c2N1
REMARK SMILES IDX 14 1 13 2 12 3 10 4 11 5 9 7 5 8 6 9 7 10 8 11 4 13 1 14
REMARK SMILES IDX 2 15 3 16 78 17 77 18 68 20 76 21 69 22 75 23 70 25 71 26
REMARK SMILES IDX 74 27 72 28 73 29 15 30 16 31 17 32 18 33 19 35 20 36 21 37
REMARK SMILES IDX 67 38 22 39 66 40 23 41 24 42 25 43 60 44 26 45 65 46 59 47
REMARK SMILES IDX 61 48 27 49 64 50 58 51 57 52 28 54 50 55 35 56 49 57 36 58
REMARK SMILES IDX 39 59 48 60 62 61 37 62 38 63 47 65 63 66 40 67 29 68 30 69
REMARK SMILES IDX 34 70 31 71 33 72 32 73 51 74 52 75 56 76 53 77 55 78 54 79
REMARK SMILES IDX 41 80 42 81 46 82 43 83 45 84 44 85
REMARK H PARENT 12 6 8 12 78 19 76 24 17 34 61 53 39 64
REMARK Flexibility Score: inf
ROOT
ATOM      1  C   UNL     1       3.633  -2.211   0.914  1.00  0.00     0.023 C 
ENDROOT
BRANCH   1   2
ATOM      2  C   UNL     1       4.946  -1.103   0.454  1.00  0.00     0.116 C 
BRANCH   2   3
ATOM      3  N   UNL     1       5.524  -0.494  -1.542  1.00  0.00    -0.351 N 
ATOM      4  C   UNL     1       5.589   0.337  -2.695  1.00  0.00     0.269 C 
ATOM      5  O   UNL     1       6.242  -0.115  -3.640  1.00  0.00    -0.268 OA
ATOM      6  H   UNL     1       6.081  -1.256  -1.823  1.00  0.00     0.163 HD
BRANCH   4   7
ATOM      7  C   UNL     1       5.016   1.661  -2.774  1.00  0.00     0.126 A 
ATOM      8  C   UNL     1       4.351   2.441  -1.841  1.00  0.00     0.011 A 
ATOM      9  C   UNL     1       4.137   3.674  -2.485  1.00  0.00     0.140 A 
ATOM     10  N   UNL     1       4.593   3.675  -3.739  1.00  0.00    -0.183 NA
ATOM     11  N   UNL     1       5.119   2.446  -3.889  1.00  0.00    -0.273 N 
ATOM     12  H   UNL     1       5.540   2.140  -4.724  1.00  0.00     0.190 HD
BRANCH   8  13
ATOM     13  C   UNL     1       4.010   2.009  -0.461  1.00  0.00     0.069 C 
ATOM     14  O   UNL     1       0.511   0.474  -0.510  1.00  0.00    -0.275 OA
ATOM     15  C   UNL     1       1.728   0.561  -0.707  1.00  0.00     0.226 C 
ATOM     16  C   UNL     1       2.484   1.843  -0.255  1.00  0.00     0.114 C 
ATOM     17  N   UNL     1       2.366  -0.531  -1.244  1.00  0.00    -0.311 N 
ATOM     18  C   UNL     1       3.704  -0.643  -1.013  1.00  0.00     0.132 A 
ATOM     19  H   UNL     1       1.878  -1.203  -1.772  1.00  0.00     0.171 HD
ATOM     20  C   UNL     1       4.628   0.689  -0.323  1.00  0.00     0.031 A 
ATOM     21  N   UNL     1       4.830  -2.108  -1.151  1.00  0.00    -0.262 N 
ATOM     22  C   UNL     1       6.446   0.058  -0.020  1.00  0.00     0.108 A 
ATOM     23  N   UNL     1       6.545  -1.635  -0.520  1.00  0.00    -0.173 NA
ATOM     24  H   UNL     1       4.575  -2.993  -1.498  1.00  0.00     0.192 HD
BRANCH  22  25
ATOM     25  C   UNL     1       7.583   1.017   0.120  1.00  0.00     0.055 A 
ATOM     26  C   UNL     1       8.657   1.062  -0.740  1.00  0.00     0.022 A 
ATOM     27  S   UNL     1       7.588   2.297   1.241  1.00  0.00    -0.142 S 
ATOM     28  C   UNL     1       9.468   2.216  -0.504  1.00  0.00     0.012 A 
ATOM     29  C   UNL     1       9.032   2.941   0.584  1.00  0.00     0.065 A 
ENDBRANCH  22  25
ENDBRANCH   8  13
ENDBRANCH   4   7
ENDBRANCH   2   3
ENDBRANCH   1   2
BRANCH   1  30
ATOM     30  C   UNL     1       4.017  -3.624   1.361  1.00  0.00     0.023 C 
BRANCH  30  31
ATOM     31  C   UNL     1       5.108  -3.672   2.401  1.00  0.00     0.116 C 
BRANCH  31  32
ATOM     32  N   UNL     1       4.715  -2.949   3.605  1.00  0.00    -0.352 N 
ATOM     33  C   UNL     1       5.346  -3.044   4.825  1.00  0.00     0.251 C 
ATOM     34  H   UNL     1       3.939  -2.346   3.541  1.00  0.00     0.163 HD
ATOM     35  O   UNL     1       4.749  -2.887   5.879  1.00  0.00    -0.269 OA
BRANCH  33  36
ATOM     36  C   UNL     1       6.805  -3.227   4.782  1.00  0.00     0.039 A 
ATOM     37  C   UNL     1       7.493  -4.142   5.576  1.00  0.00     0.014 A 
ATOM     38  C   UNL     1       7.465  -2.487   3.803  1.00  0.00     0.014 A 
ATOM     39  C   UNL     1       8.881  -4.229   5.424  1.00  0.00     0.010 A 
ATOM     40  C   UNL     1       8.757  -2.793   3.493  1.00  0.00     0.010 A 
ATOM     41  C   UNL     1       9.522  -3.495   4.402  1.00  0.00    -0.014 A 
BRANCH  41  42
ATOM     42  C   UNL     1      10.907  -3.709   3.977  1.00  0.00     0.031 A 
ATOM     43  C   UNL     1      11.036  -5.128   3.538  1.00  0.00     0.074 A 
ATOM     44  C   UNL     1      11.848  -2.724   3.848  1.00  0.00     0.049 A 
ATOM     45  N   UNL     1      11.476  -6.074   4.297  1.00  0.00    -0.248 NA
ATOM     46  C   UNL     1      10.325  -5.648   2.346  1.00  0.00     0.031 C 
ATOM     47  C   UNL     1      11.748  -1.281   4.128  1.00  0.00     0.029 A 
ATOM     48  N   UNL     1      13.149  -2.809   3.399  1.00  0.00    -0.354 N 
ATOM     49  C   UNL     1      11.460  -7.221   3.520  1.00  0.00     0.074 A 
ATOM     50  C   UNL     1      10.510  -6.969   2.473  1.00  0.00     0.031 C 
ATOM     51  C   UNL     1      12.826  -0.617   3.628  1.00  0.00     0.029 A 
ATOM     52  C   UNL     1      13.783  -1.575   3.105  1.00  0.00     0.049 A 
ATOM     53  H   UNL     1      13.609  -3.673   3.289  1.00  0.00     0.167 HD
ATOM     54  C   UNL     1      12.516  -8.076   3.602  1.00  0.00     0.031 A 
ATOM     55  C   UNL     1      15.018  -1.379   2.531  1.00  0.00     0.031 A 
ATOM     56  C   UNL     1      13.332  -7.733   4.747  1.00  0.00     0.049 A 
ATOM     57  C   UNL     1      15.796  -2.624   2.751  1.00  0.00     0.074 A 
ATOM     58  C   UNL     1      13.104  -7.636   6.104  1.00  0.00     0.029 A 
ATOM     59  N   UNL     1      14.409  -6.928   4.462  1.00  0.00    -0.354 N 
ATOM     60  N   UNL     1      16.191  -2.980   3.939  1.00  0.00    -0.248 NA
ATOM     61  C   UNL     1      15.571  -3.700   1.797  1.00  0.00     0.031 C 
ATOM     62  C   UNL     1      13.782  -6.449   6.506  1.00  0.00     0.029 A 
ATOM     63  C   UNL     1      14.544  -5.979   5.436  1.00  0.00     0.049 A 
ATOM     64  H   UNL     1      14.994  -7.021   3.676  1.00  0.00     0.167 HD
ATOM     65  C   UNL     1      15.738  -4.284   4.052  1.00  0.00     0.074 A 
ATOM     66  C   UNL     1      15.395  -4.690   2.680  1.00  0.00     0.031 C 
ATOM     67  C   UNL     1      15.326  -4.778   5.258  1.00  0.00     0.031 A 
BRANCH  54  68
ATOM     68  C   UNL     1      13.116  -8.804   2.424  1.00  0.00    -0.014 A 
ATOM     69  C   UNL     1      14.257  -9.595   2.663  1.00  0.00     0.009 A 
ATOM     70  C   UNL     1      12.818  -8.516   1.080  1.00  0.00     0.009 A 
ATOM     71  C   UNL     1      15.096 -10.006   1.624  1.00  0.00     0.001 A 
ATOM     72  C   UNL     1      13.637  -8.955   0.034  1.00  0.00     0.001 A 
ATOM     73  C   UNL     1      14.789  -9.681   0.308  1.00  0.00     0.000 A 
ENDBRANCH  54  68
BRANCH  55  74
ATOM     74  C   UNL     1      15.530  -0.350   1.564  1.00  0.00    -0.014 A 
ATOM     75  C   UNL     1      16.898  -0.239   1.205  1.00  0.00     0.009 A 
ATOM     76  C   UNL     1      14.615   0.316   0.735  1.00  0.00     0.009 A 
ATOM     77  C   UNL     1      17.309   0.470   0.054  1.00  0.00     0.001 A 
ATOM     78  C   UNL     1      15.023   1.010  -0.417  1.00  0.00     0.001 A 
ATOM     79  C   UNL     1      16.366   1.078  -0.767  1.00  0.00     0.000 A 
ENDBRANCH  55  74
BRANCH  67  80
ATOM     80  C   UNL     1      15.589  -3.967   6.504  1.00  0.00    -0.014 A 
ATOM     81  C   UNL     1      15.057  -2.691   6.770  1.00  0.00     0.009 A 
ATOM     82  C   UNL     1      16.293  -4.617   7.528  1.00  0.00     0.009 A 
ATOM     83  C   UNL     1      15.277  -2.073   8.011  1.00  0.00     0.001 A 
ATOM     84  C   UNL     1      16.489  -4.014   8.768  1.00  0.00     0.001 A 
ATOM     85  C   UNL     1      15.996  -2.735   9.005  1.00  0.00     0.000 A 
ENDBRANCH  67  80
ENDBRANCH  41  42
ENDBRANCH  33  36
ENDBRANCH  31  32
ENDBRANCH  30  31
ENDBRANCH   1  30
TORSDOF 13
