REMARK SMILES CC[N@@H+]1CC[C@H](C[NH2+]Cc2ccc(C(=O)NCCCCNC(=O)c3ccc(-c4c5nc(c(-c6ccccc6)c6ccc([nH]6)c(-c6ccccc6)c6nc(c(-c7ccccc7)c7ccc4[nH]7)C=C6)C=C5)cc3)cn2)C1
REMARK SMILES IDX 17 1 16 2 14 3 15 4 13 6 10 7 11 8 73 9 12 10 72 11 9 12
REMARK SMILES IDX 8 13 7 16 6 17 3 18 4 19 74 20 5 22 2 23 1 24 18 25 19 26
REMARK SMILES IDX 20 27 21 28 22 29 23 31 24 32 25 33 71 34 26 35 70 36 27 37
REMARK SMILES IDX 28 38 29 39 64 40 30 41 69 42 63 43 65 44 31 45 68 46 62 47
REMARK SMILES IDX 61 48 32 50 54 51 39 52 53 53 40 54 43 55 52 56 66 57 41 58
REMARK SMILES IDX 42 59 51 61 67 62 44 63 33 64 34 65 38 66 35 67 37 68 36 69
REMARK SMILES IDX 55 70 56 71 60 72 57 73 59 74 58 75 45 76 46 77 50 78 47 79
REMARK SMILES IDX 49 80 48 81
REMARK H PARENT 16 5 8 14 8 15 3 21 21 30 65 49 43 60
REMARK Flexibility Score: inf
ROOT
ATOM      1  C   UNL     1       2.868   1.289   5.961  1.00  0.00     0.116 C 
ENDROOT
BRANCH   1   2
ATOM      2  N   UNL     1       2.506   2.423   6.787  1.00  0.00    -0.352 N 
ATOM      3  C   UNL     1       2.592   3.774   6.569  1.00  0.00     0.252 C 
ATOM      4  O   UNL     1       2.168   4.522   7.449  1.00  0.00    -0.269 OA
ATOM      5  H   UNL     1       2.131   2.179   7.664  1.00  0.00     0.163 HD
BRANCH   3   6
ATOM      6  C   UNL     1       3.116   4.367   5.315  1.00  0.00     0.058 A 
ATOM      7  C   UNL     1       3.840   5.666   2.975  1.00  0.00     0.094 A 
ATOM      8  C   UNL     1       4.442   4.452   3.298  1.00  0.00     0.030 A 
ATOM      9  N   UNL     1       2.948   6.262   3.801  1.00  0.00    -0.255 NA
ATOM     10  C   UNL     1       4.080   3.806   4.481  1.00  0.00     0.017 A 
ATOM     11  C   UNL     1       2.619   5.612   4.947  1.00  0.00     0.125 A 
BRANCH   7  12
ATOM     12  C   UNL     1       4.134   6.354   1.654  1.00  0.00     0.317 C 
BRANCH  12  13
ATOM     13  N   UNL     1       3.934   5.518   0.457  1.00  0.00    -0.341 N 
ATOM     14  H   UNL     1       4.206   6.055  -0.367  1.00  0.00     0.346 HD
ATOM     15  H   UNL     1       4.507   4.681   0.564  1.00  0.00     0.346 HD
BRANCH  13  16
ATOM     16  C   UNL     1       2.540   5.088   0.299  1.00  0.00     0.270 C 
BRANCH  16  17
ATOM     17  C   UNL     1       2.406   4.104  -0.867  1.00  0.00     0.105 C 
ATOM     18  N   UNL     1       1.026   2.125  -1.183  1.00  0.00    -0.335 N 
ATOM     19  C   UNL     1       2.427   1.823  -1.500  1.00  0.00     0.262 C 
ATOM     20  C   UNL     1       0.966   3.602  -1.068  1.00  0.00     0.271 C 
ATOM     21  H   UNL     1       0.423   1.745  -1.913  1.00  0.00     0.348 HD
ATOM     22  C   UNL     1       3.223   2.826  -0.694  1.00  0.00     0.076 C 
BRANCH  18  23
ATOM     23  C   UNL     1       0.533   1.498   0.055  1.00  0.00     0.258 C 
ATOM     24  C   UNL     1       0.688  -0.019   0.103  1.00  0.00     0.071 C 
ENDBRANCH  18  23
ENDBRANCH  16  17
ENDBRANCH  13  16
ENDBRANCH  12  13
ENDBRANCH   7  12
ENDBRANCH   3   6
ENDBRANCH   1   2
BRANCH   1  25
ATOM     25  C   UNL     1       4.258   0.772   6.337  1.00  0.00     0.023 C 
BRANCH  25  26
ATOM     26  C   UNL     1       4.292  -0.079   7.609  1.00  0.00     0.023 C 
BRANCH  26  27
ATOM     27  C   UNL     1       3.461  -1.353   7.548  1.00  0.00     0.116 C 
BRANCH  27  28
ATOM     28  N   UNL     1       3.818  -2.219   6.436  1.00  0.00    -0.352 N 
ATOM     29  C   UNL     1       3.768  -3.591   6.366  1.00  0.00     0.251 C 
ATOM     30  H   UNL     1       4.138  -1.761   5.625  1.00  0.00     0.163 HD
ATOM     31  O   UNL     1       4.214  -4.175   5.391  1.00  0.00    -0.269 OA
BRANCH  29  32
ATOM     32  C   UNL     1       3.200  -4.352   7.498  1.00  0.00     0.039 A 
ATOM     33  C   UNL     1       3.893  -5.469   7.968  1.00  0.00     0.014 A 
ATOM     34  C   UNL     1       2.000  -3.962   8.097  1.00  0.00     0.014 A 
ATOM     35  C   UNL     1       3.400  -6.173   9.066  1.00  0.00     0.010 A 
ATOM     36  C   UNL     1       1.556  -4.612   9.244  1.00  0.00     0.010 A 
ATOM     37  C   UNL     1       2.239  -5.737   9.727  1.00  0.00    -0.014 A 
BRANCH  37  38
ATOM     38  C   UNL     1       1.709  -6.474  10.899  1.00  0.00     0.031 A 
ATOM     39  C   UNL     1       0.366  -7.148  10.821  1.00  0.00     0.074 A 
ATOM     40  C   UNL     1       2.421  -6.514  12.042  1.00  0.00     0.049 A 
ATOM     41  N   UNL     1      -0.260  -7.849  11.732  1.00  0.00    -0.248 NA
ATOM     42  C   UNL     1      -0.386  -6.994   9.564  1.00  0.00     0.031 C 
ATOM     43  C   UNL     1       3.714  -5.859  12.261  1.00  0.00     0.029 A 
ATOM     44  N   UNL     1       2.160  -7.139  13.234  1.00  0.00    -0.354 N 
ATOM     45  C   UNL     1      -1.477  -8.205  11.164  1.00  0.00     0.074 A 
ATOM     46  C   UNL     1      -1.531  -7.590   9.857  1.00  0.00     0.031 C 
ATOM     47  C   UNL     1       4.150  -6.152  13.496  1.00  0.00     0.029 A 
ATOM     48  C   UNL     1       3.156  -6.984  14.167  1.00  0.00     0.049 A 
ATOM     49  H   UNL     1       1.336  -7.650  13.406  1.00  0.00     0.167 HD
ATOM     50  C   UNL     1      -2.454  -8.994  11.672  1.00  0.00     0.031 A 
ATOM     51  C   UNL     1       3.261  -7.467  15.419  1.00  0.00     0.031 A 
ATOM     52  C   UNL     1      -2.396  -9.614  12.968  1.00  0.00     0.049 A 
ATOM     53  C   UNL     1       2.166  -8.347  15.957  1.00  0.00     0.074 A 
ATOM     54  C   UNL     1      -3.309 -10.471  13.556  1.00  0.00     0.029 A 
ATOM     55  N   UNL     1      -1.363  -9.442  13.877  1.00  0.00    -0.354 N 
ATOM     56  N   UNL     1       1.055  -8.734  15.378  1.00  0.00    -0.248 NA
ATOM     57  C   UNL     1       2.356  -8.877  17.314  1.00  0.00     0.031 C 
ATOM     58  C   UNL     1      -2.853 -10.778  14.842  1.00  0.00     0.029 A 
ATOM     59  C   UNL     1      -1.624 -10.165  15.029  1.00  0.00     0.049 A 
ATOM     60  H   UNL     1      -0.564  -8.889  13.726  1.00  0.00     0.167 HD
ATOM     61  C   UNL     1       0.432  -9.583  16.285  1.00  0.00     0.074 A 
ATOM     62  C   UNL     1       1.299  -9.666  17.443  1.00  0.00     0.031 C 
ATOM     63  C   UNL     1      -0.750 -10.238  16.170  1.00  0.00     0.031 A 
BRANCH  50  64
ATOM     64  C   UNL     1      -3.669  -9.226  10.816  1.00  0.00    -0.014 A 
ATOM     65  C   UNL     1      -3.596  -9.984   9.635  1.00  0.00     0.009 A 
ATOM     66  C   UNL     1      -4.910  -8.700  11.206  1.00  0.00     0.009 A 
ATOM     67  C   UNL     1      -4.730 -10.175   8.843  1.00  0.00     0.001 A 
ATOM     68  C   UNL     1      -6.050  -8.920  10.430  1.00  0.00     0.001 A 
ATOM     69  C   UNL     1      -5.957  -9.647   9.244  1.00  0.00     0.000 A 
ENDBRANCH  50  64
BRANCH  51  70
ATOM     70  C   UNL     1       4.462  -7.163  16.241  1.00  0.00    -0.014 A 
ATOM     71  C   UNL     1       5.387  -8.172  16.553  1.00  0.00     0.009 A 
ATOM     72  C   UNL     1       4.680  -5.868  16.734  1.00  0.00     0.009 A 
ATOM     73  C   UNL     1       6.485  -7.898  17.372  1.00  0.00     0.001 A 
ATOM     74  C   UNL     1       5.797  -5.590  17.526  1.00  0.00     0.001 A 
ATOM     75  C   UNL     1       6.691  -6.607  17.855  1.00  0.00     0.000 A 
ENDBRANCH  51  70
BRANCH  63  76
ATOM     76  C   UNL     1      -1.142 -11.144  17.305  1.00  0.00    -0.014 A 
ATOM     77  C   UNL     1      -1.512 -10.636  18.560  1.00  0.00     0.009 A 
ATOM     78  C   UNL     1      -1.155 -12.534  17.104  1.00  0.00     0.009 A 
ATOM     79  C   UNL     1      -1.835 -11.505  19.605  1.00  0.00     0.001 A 
ATOM     80  C   UNL     1      -1.513 -13.397  18.139  1.00  0.00     0.001 A 
ATOM     81  C   UNL     1      -1.839 -12.883  19.392  1.00  0.00     0.000 A 
ENDBRANCH  63  76
ENDBRANCH  37  38
ENDBRANCH  29  32
ENDBRANCH  27  28
ENDBRANCH  26  27
ENDBRANCH  25  26
ENDBRANCH   1  25
TORSDOF 16
