REMARK SMILES O=C(NCCCCNC(=O)c1ccc(C[NH+]2CC[NH2+]CC2)c(Br)c1)c1ccc(-c2c3nc(c(-c4ccccc4)c4ccc([nH]4)c(-c4ccccc4)c4nc(c(-c5ccccc5)c5ccc2[nH]5)C=C4)C=C3)cc1
REMARK SMILES IDX 5 1 4 2 3 3 1 4 2 5 25 7 26 8 72 9 27 10 71 11 28 12 29 13
REMARK SMILES IDX 30 14 65 15 31 16 70 17 64 18 66 19 32 20 69 21 63 22 62 23
REMARK SMILES IDX 33 25 55 26 40 27 54 28 41 29 44 30 53 31 67 32 42 33 43 34
REMARK SMILES IDX 52 36 68 37 45 38 34 39 35 40 39 41 36 42 38 43 37 44 56 45
REMARK SMILES IDX 57 46 61 47 58 48 60 49 59 50 46 51 47 52 51 53 48 54 50 55
REMARK SMILES IDX 49 56 6 57 7 58 8 59 9 60 10 62 11 63 12 64 24 65 13 66
REMARK SMILES IDX 22 67 14 68 23 69 15 70 16 71 17 72 21 73 18 75 20 76 19 77
REMARK H PARENT 3 6 66 24 44 35 8 61 16 74 19 78 19 79
REMARK Flexibility Score: inf
ROOT
ATOM      1  C   UNL     1       5.002  -0.168   2.606  1.00  0.00     0.023 C 
ENDROOT
BRANCH   1   2
ATOM      2  C   UNL     1       4.647  -0.670   1.212  1.00  0.00     0.116 C 
BRANCH   2   3
ATOM      3  N   UNL     1       3.212  -0.753   0.994  1.00  0.00    -0.352 N 
ATOM      4  O   UNL     1       1.204  -0.193   0.135  1.00  0.00    -0.269 OA
ATOM      5  C   UNL     1       2.427  -0.116   0.064  1.00  0.00     0.251 C 
ATOM      6  H   UNL     1       2.730  -1.356   1.606  1.00  0.00     0.163 HD
BRANCH   5   7
ATOM      7  C   UNL     1       3.048   0.685  -1.014  1.00  0.00     0.039 A 
ATOM      8  C   UNL     1       4.133   0.197  -1.747  1.00  0.00     0.014 A 
ATOM      9  C   UNL     1       2.507   1.938  -1.315  1.00  0.00     0.014 A 
ATOM     10  C   UNL     1       4.755   1.008  -2.693  1.00  0.00     0.010 A 
ATOM     11  C   UNL     1       3.086   2.721  -2.315  1.00  0.00     0.010 A 
ATOM     12  C   UNL     1       4.231   2.274  -2.994  1.00  0.00    -0.014 A 
BRANCH  12  13
ATOM     13  C   UNL     1       4.844   3.109  -4.056  1.00  0.00     0.031 A 
ATOM     14  C   UNL     1       5.476   4.431  -3.728  1.00  0.00     0.074 A 
ATOM     15  C   UNL     1       4.789   2.688  -5.334  1.00  0.00     0.049 A 
ATOM     16  N   UNL     1       5.977   5.329  -4.538  1.00  0.00    -0.248 NA
ATOM     17  C   UNL     1       5.544   4.796  -2.305  1.00  0.00     0.031 C 
ATOM     18  C   UNL     1       4.201   1.424  -5.781  1.00  0.00     0.029 A 
ATOM     19  N   UNL     1       5.216   3.287  -6.492  1.00  0.00    -0.354 N 
ATOM     20  C   UNL     1       6.396   6.378  -3.728  1.00  0.00     0.074 A 
ATOM     21  C   UNL     1       6.068   6.012  -2.366  1.00  0.00     0.031 C 
ATOM     22  C   UNL     1       4.309   1.339  -7.114  1.00  0.00     0.029 A 
ATOM     23  C   UNL     1       4.913   2.567  -7.621  1.00  0.00     0.049 A 
ATOM     24  H   UNL     1       5.694   4.148  -6.512  1.00  0.00     0.167 HD
ATOM     25  C   UNL     1       6.995   7.539  -4.088  1.00  0.00     0.031 A 
ATOM     26  C   UNL     1       5.063   2.871  -8.923  1.00  0.00     0.031 A 
ATOM     27  C   UNL     1       7.303   7.902  -5.447  1.00  0.00     0.049 A 
ATOM     28  C   UNL     1       5.680   4.184  -9.305  1.00  0.00     0.074 A 
ATOM     29  C   UNL     1       7.948   9.036  -5.911  1.00  0.00     0.029 A 
ATOM     30  N   UNL     1       6.973   7.146  -6.562  1.00  0.00    -0.354 N 
ATOM     31  N   UNL     1       6.115   5.146  -8.526  1.00  0.00    -0.248 NA
ATOM     32  C   UNL     1       5.834   4.454 -10.741  1.00  0.00     0.031 C 
ATOM     33  C   UNL     1       7.947   8.998  -7.309  1.00  0.00     0.029 A 
ATOM     34  C   UNL     1       7.367   7.806  -7.715  1.00  0.00     0.049 A 
ATOM     35  H   UNL     1       6.524   6.270  -6.538  1.00  0.00     0.167 HD
ATOM     36  C   UNL     1       6.617   6.123  -9.375  1.00  0.00     0.074 A 
ATOM     37  C   UNL     1       6.438   5.635 -10.728  1.00  0.00     0.031 C 
ATOM     38  C   UNL     1       7.183   7.312  -9.057  1.00  0.00     0.031 A 
BRANCH  25  39
ATOM     39  C   UNL     1       7.309   8.523  -2.993  1.00  0.00    -0.014 A 
ATOM     40  C   UNL     1       8.295   8.264  -2.028  1.00  0.00     0.009 A 
ATOM     41  C   UNL     1       6.610   9.740  -2.936  1.00  0.00     0.009 A 
ATOM     42  C   UNL     1       8.537   9.179  -1.000  1.00  0.00     0.001 A 
ATOM     43  C   UNL     1       6.877  10.667  -1.927  1.00  0.00     0.001 A 
ATOM     44  C   UNL     1       7.830  10.380  -0.951  1.00  0.00     0.000 A 
ENDBRANCH  25  39
BRANCH  26  45
ATOM     45  C   UNL     1       4.588   1.909  -9.949  1.00  0.00    -0.014 A 
ATOM     46  C   UNL     1       5.500   1.163 -10.710  1.00  0.00     0.009 A 
ATOM     47  C   UNL     1       3.212   1.687 -10.126  1.00  0.00     0.009 A 
ATOM     48  C   UNL     1       5.042   0.220 -11.633  1.00  0.00     0.001 A 
ATOM     49  C   UNL     1       2.759   0.723 -11.028  1.00  0.00     0.001 A 
ATOM     50  C   UNL     1       3.674  -0.006 -11.784  1.00  0.00     0.000 A 
ENDBRANCH  26  45
BRANCH  38  51
ATOM     51  C   UNL     1       7.695   8.162 -10.185  1.00  0.00    -0.014 A 
ATOM     52  C   UNL     1       6.822   8.866 -11.028  1.00  0.00     0.009 A 
ATOM     53  C   UNL     1       9.081   8.322 -10.353  1.00  0.00     0.009 A 
ATOM     54  C   UNL     1       7.328   9.700 -12.027  1.00  0.00     0.001 A 
ATOM     55  C   UNL     1       9.582   9.178 -11.334  1.00  0.00     0.001 A 
ATOM     56  C   UNL     1       8.706   9.863 -12.173  1.00  0.00     0.000 A 
ENDBRANCH  38  51
ENDBRANCH  12  13
ENDBRANCH   5   7
ENDBRANCH   2   3
ENDBRANCH   1   2
BRANCH   1  57
ATOM     57  C   UNL     1       4.570  -1.077   3.757  1.00  0.00     0.023 C 
BRANCH  57  58
ATOM     58  C   UNL     1       5.070  -2.518   3.676  1.00  0.00     0.116 C 
BRANCH  58  59
ATOM     59  N   UNL     1       6.524  -2.606   3.655  1.00  0.00    -0.352 N 
ATOM     60  C   UNL     1       7.353  -3.353   4.458  1.00  0.00     0.251 C 
ATOM     61  H   UNL     1       6.973  -2.057   2.972  1.00  0.00     0.163 HD
ATOM     62  O   UNL     1       8.568  -3.222   4.407  1.00  0.00    -0.269 OA
BRANCH  60  63
ATOM     63  C   UNL     1       6.751  -4.303   5.408  1.00  0.00     0.040 A 
ATOM     64  C   UNL     1       5.955  -5.348   4.946  1.00  0.00     0.014 A 
ATOM     65  C   UNL     1       6.962  -4.117   6.773  1.00  0.00     0.030 A 
ATOM     66  C   UNL     1       5.260  -6.130   5.865  1.00  0.00     0.011 A 
ATOM     67  C   UNL     1       6.259  -4.904   7.691  1.00  0.00     0.027 A 
ATOM     68  C   UNL     1       5.334  -5.869   7.248  1.00  0.00     0.020 A 
ATOM     69  Br  UNL     1       6.619  -4.576   9.528  1.00  0.00    -0.050 Br
BRANCH  68  70
ATOM     70  C   UNL     1       4.382  -6.612   8.163  1.00  0.00     0.300 C 
BRANCH  70  71
ATOM     71  N   UNL     1       3.017  -6.080   8.294  1.00  0.00    -0.322 N 
ATOM     72  C   UNL     1       2.889  -4.803   9.006  1.00  0.00     0.324 C 
ATOM     73  C   UNL     1       2.170  -6.121   7.096  1.00  0.00     0.324 C 
ATOM     74  H   UNL     1       2.627  -6.788   8.915  1.00  0.00     0.348 HD
ATOM     75  C   UNL     1       2.906  -3.543   8.112  1.00  0.00     0.322 C 
ATOM     76  C   UNL     1       2.127  -4.829   6.242  1.00  0.00     0.322 C 
ATOM     77  N   UNL     1       1.916  -3.599   7.022  1.00  0.00    -0.337 N 
ATOM     78  H   UNL     1       2.029  -2.787   6.416  1.00  0.00     0.346 HD
ATOM     79  H   UNL     1       0.974  -3.598   7.413  1.00  0.00     0.346 HD
ENDBRANCH  70  71
ENDBRANCH  68  70
ENDBRANCH  60  63
ENDBRANCH  58  59
ENDBRANCH  57  58
ENDBRANCH   1  57
TORSDOF 13
