REMARK SMILES COc1cc(/C=C2/CCc3cc(OC(C)(C)C(=O)NCCCCNC(=O)c4ccc(-c5c6nc(c(-c7ccccc7)c7ccc([nH]7)c(-c7ccccc7)c7nc(c(-c8ccccc8)c8ccc5[nH]8)C=C7)C=C6)cc4)ccc3C2=O)cc(OC)c1O
REMARK SMILES IDX 20 1 19 2 17 3 18 4 14 6 15 7 16 8 13 9 12 10 6 11 7 12 8 13
REMARK SMILES IDX 78 14 9 15 77 16 79 17 10 18 76 19 11 20 75 21 5 22 3 23
REMARK SMILES IDX 4 24 84 25 81 26 80 27 2 28 1 29 85 30 82 32 83 33 21 34
REMARK SMILES IDX 22 35 23 36 24 37 25 38 26 40 27 41 28 42 74 43 29 44 73 45
REMARK SMILES IDX 30 46 31 47 32 48 67 49 33 50 72 51 66 52 68 53 34 54 71 55
REMARK SMILES IDX 65 56 64 57 35 59 57 60 42 61 56 62 43 63 46 64 55 65 69 66
REMARK SMILES IDX 44 67 45 68 54 70 70 71 47 72 36 73 37 74 41 75 38 76 40 77
REMARK SMILES IDX 39 78 58 79 59 80 63 81 60 82 62 83 61 84 48 85 49 86 53 87
REMARK SMILES IDX 50 88 52 89 51 90
REMARK H PARENT 19 5 85 31 24 39 68 58 46 69
REMARK Flexibility Score: inf
ROOT
ATOM      1  C   UNL     1      -3.508  -0.685  -0.265  1.00  0.00     0.116 C 
ENDROOT
BRANCH   1   2
ATOM      2  N   UNL     1      -4.921  -0.416   0.034  1.00  0.00    -0.353 N 
ATOM      3  C   UNL     1      -5.740   0.684  -0.172  1.00  0.00     0.263 C 
ATOM      4  O   UNL     1      -6.937   0.422  -0.357  1.00  0.00    -0.270 OA
ATOM      5  H   UNL     1      -5.380  -1.171   0.469  1.00  0.00     0.163 HD
BRANCH   3   6
ATOM      6  C   UNL     1      -5.275   2.172   0.109  1.00  0.00     0.181 C 
ATOM      7  C   UNL     1      -3.933   2.434  -0.576  1.00  0.00     0.067 C 
ATOM      8  C   UNL     1      -5.260   2.071   1.656  1.00  0.00     0.067 C 
BRANCH   6   9
ATOM      9  O   UNL     1      -6.237   3.185  -0.413  1.00  0.00    -0.478 OA
BRANCH   9  10
ATOM     10  C   UNL     1      -6.090   4.461   0.128  1.00  0.00     0.121 A 
ATOM     11  C   UNL     1      -1.127   5.825   2.696  1.00  0.00     0.016 C 
ATOM     12  C   UNL     1      -2.293   6.286   2.180  1.00  0.00     0.001 C 
ATOM     13  C   UNL     1      -2.492   7.545   1.346  1.00  0.00     0.044 C 
ATOM     14  C   UNL     1      -3.498   5.441   2.095  1.00  0.00     0.189 C 
ATOM     15  C   UNL     1      -3.402   7.253   0.065  1.00  0.00     0.041 C 
ATOM     16  C   UNL     1      -4.776   6.135   1.758  1.00  0.00     0.026 A 
ATOM     17  O   UNL     1      -3.425   4.236   1.921  1.00  0.00    -0.289 OA
ATOM     18  C   UNL     1      -4.614   6.377   0.395  1.00  0.00    -0.033 A 
ATOM     19  C   UNL     1      -5.928   5.519   2.249  1.00  0.00     0.016 A 
ATOM     20  C   UNL     1      -5.250   5.448  -0.453  1.00  0.00     0.051 A 
ATOM     21  C   UNL     1      -6.624   4.673   1.397  1.00  0.00     0.047 A 
BRANCH  11  22
ATOM     22  C   UNL     1      -0.705   4.383   2.631  1.00  0.00    -0.018 A 
ATOM     23  C   UNL     1       0.540   2.933   1.127  1.00  0.00     0.165 A 
ATOM     24  C   UNL     1       0.350   4.170   1.727  1.00  0.00     0.058 A 
ATOM     25  C   UNL     1      -0.365   1.913   1.399  1.00  0.00     0.200 A 
ATOM     26  C   UNL     1      -1.284   2.026   2.451  1.00  0.00     0.165 A 
ATOM     27  C   UNL     1      -1.411   3.260   3.115  1.00  0.00     0.058 A 
BRANCH  23  28
ATOM     28  O   UNL     1       1.512   2.865   0.166  1.00  0.00    -0.493 OA
ATOM     29  C   UNL     1       2.228   1.626   0.121  1.00  0.00     0.278 C 
ENDBRANCH  23  28
BRANCH  25  30
ATOM     30  O   UNL     1      -0.450   0.865   0.511  1.00  0.00    -0.502 OA
ATOM     31  H   UNL     1       0.167   0.795  -0.191  1.00  0.00     0.293 HD
ENDBRANCH  25  30
BRANCH  26  32
ATOM     32  O   UNL     1      -2.156   0.980   2.584  1.00  0.00    -0.493 OA
ATOM     33  C   UNL     1      -2.701   0.691   3.859  1.00  0.00     0.278 C 
ENDBRANCH  26  32
ENDBRANCH  11  22
ENDBRANCH   9  10
ENDBRANCH   6   9
ENDBRANCH   3   6
ENDBRANCH   1   2
BRANCH   1  34
ATOM     34  C   UNL     1      -2.732  -1.421   0.838  1.00  0.00     0.023 C 
BRANCH  34  35
ATOM     35  C   UNL     1      -2.098  -2.763   0.481  1.00  0.00     0.023 C 
BRANCH  35  36
ATOM     36  C   UNL     1      -1.294  -2.840  -0.811  1.00  0.00     0.116 C 
BRANCH  36  37
ATOM     37  N   UNL     1      -0.009  -2.147  -0.824  1.00  0.00    -0.352 N 
ATOM     38  C   UNL     1       1.262  -2.611  -1.147  1.00  0.00     0.251 C 
ATOM     39  H   UNL     1      -0.048  -1.199  -0.561  1.00  0.00     0.163 HD
ATOM     40  O   UNL     1       2.218  -1.859  -1.154  1.00  0.00    -0.269 OA
BRANCH  38  41
ATOM     41  C   UNL     1       1.461  -4.066  -1.393  1.00  0.00     0.039 A 
ATOM     42  C   UNL     1       2.471  -4.747  -0.706  1.00  0.00     0.014 A 
ATOM     43  C   UNL     1       0.553  -4.778  -2.163  1.00  0.00     0.014 A 
ATOM     44  C   UNL     1       2.450  -6.147  -0.653  1.00  0.00     0.010 A 
ATOM     45  C   UNL     1       0.424  -6.144  -1.955  1.00  0.00     0.010 A 
ATOM     46  C   UNL     1       1.368  -6.855  -1.196  1.00  0.00    -0.014 A 
BRANCH  46  47
ATOM     47  C   UNL     1       1.174  -8.322  -1.001  1.00  0.00     0.031 A 
ATOM     48  C   UNL     1       0.916  -9.204  -2.200  1.00  0.00     0.074 A 
ATOM     49  C   UNL     1       1.091  -8.848   0.240  1.00  0.00     0.049 A 
ATOM     50  N   UNL     1       0.530 -10.454  -2.246  1.00  0.00    -0.248 NA
ATOM     51  C   UNL     1       1.034  -8.569  -3.525  1.00  0.00     0.031 C 
ATOM     52  C   UNL     1       1.229  -8.109   1.498  1.00  0.00     0.029 A 
ATOM     53  N   UNL     1       0.854 -10.140   0.648  1.00  0.00    -0.354 N 
ATOM     54  C   UNL     1       0.294 -10.721  -3.590  1.00  0.00     0.074 A 
ATOM     55  C   UNL     1       0.495  -9.486  -4.310  1.00  0.00     0.031 C 
ATOM     56  C   UNL     1       1.130  -8.963   2.529  1.00  0.00     0.029 A 
ATOM     57  C   UNL     1       0.871 -10.302   2.014  1.00  0.00     0.049 A 
ATOM     58  H   UNL     1       0.689 -10.880   0.021  1.00  0.00     0.167 HD
ATOM     59  C   UNL     1      -0.019 -11.896  -4.186  1.00  0.00     0.031 A 
ATOM     60  C   UNL     1       0.700 -11.406   2.768  1.00  0.00     0.031 A 
ATOM     61  C   UNL     1      -0.137 -13.141  -3.480  1.00  0.00     0.049 A 
ATOM     62  C   UNL     1       0.435 -12.720   2.086  1.00  0.00     0.074 A 
ATOM     63  C   UNL     1      -0.343 -14.409  -3.991  1.00  0.00     0.029 A 
ATOM     64  N   UNL     1      -0.035 -13.271  -2.104  1.00  0.00    -0.354 N 
ATOM     65  N   UNL     1       0.292 -12.972   0.806  1.00  0.00    -0.248 NA
ATOM     66  C   UNL     1       0.323 -13.905   2.949  1.00  0.00     0.031 C 
ATOM     67  C   UNL     1      -0.400 -15.304  -2.918  1.00  0.00     0.029 A 
ATOM     68  C   UNL     1      -0.182 -14.598  -1.745  1.00  0.00     0.049 A 
ATOM     69  H   UNL     1       0.118 -12.529  -1.475  1.00  0.00     0.167 HD
ATOM     70  C   UNL     1       0.099 -14.344   0.709  1.00  0.00     0.074 A 
ATOM     71  C   UNL     1       0.161 -14.872   2.057  1.00  0.00     0.031 C 
ATOM     72  C   UNL     1      -0.111 -15.100  -0.397  1.00  0.00     0.031 A 
BRANCH  59  73
ATOM     73  C   UNL     1      -0.231 -11.876  -5.677  1.00  0.00    -0.014 A 
ATOM     74  C   UNL     1       0.822 -11.589  -6.562  1.00  0.00     0.009 A 
ATOM     75  C   UNL     1      -1.506 -12.126  -6.206  1.00  0.00     0.009 A 
ATOM     76  C   UNL     1       0.589 -11.483  -7.935  1.00  0.00     0.001 A 
ATOM     77  C   UNL     1      -1.728 -12.060  -7.584  1.00  0.00     0.001 A 
ATOM     78  C   UNL     1      -0.685 -11.721  -8.445  1.00  0.00     0.000 A 
ENDBRANCH  59  73
BRANCH  60  79
ATOM     79  C   UNL     1       0.831 -11.329   4.249  1.00  0.00    -0.014 A 
ATOM     80  C   UNL     1       1.959 -11.870   4.886  1.00  0.00     0.009 A 
ATOM     81  C   UNL     1      -0.154 -10.710   5.032  1.00  0.00     0.009 A 
ATOM     82  C   UNL     1       2.088 -11.811   6.277  1.00  0.00     0.001 A 
ATOM     83  C   UNL     1      -0.010 -10.628   6.420  1.00  0.00     0.001 A 
ATOM     84  C   UNL     1       1.107 -11.184   7.042  1.00  0.00     0.000 A 
ENDBRANCH  60  79
BRANCH  72  85
ATOM     85  C   UNL     1      -0.254 -16.581  -0.199  1.00  0.00    -0.014 A 
ATOM     86  C   UNL     1      -1.417 -17.132   0.358  1.00  0.00     0.009 A 
ATOM     87  C   UNL     1       0.770 -17.438  -0.632  1.00  0.00     0.009 A 
ATOM     88  C   UNL     1      -1.539 -18.515   0.504  1.00  0.00     0.001 A 
ATOM     89  C   UNL     1       0.633 -18.821  -0.511  1.00  0.00     0.001 A 
ATOM     90  C   UNL     1      -0.518 -19.358   0.064  1.00  0.00     0.000 A 
ENDBRANCH  72  85
ENDBRANCH  46  47
ENDBRANCH  38  41
ENDBRANCH  36  37
ENDBRANCH  35  36
ENDBRANCH  34  35
ENDBRANCH   1  34
TORSDOF 17
