REMARK SMILES [NH3+][C@H](Cc1ccc(O)c(F)c1)C(=O)NCCCCNC(=O)c1ccc(-c2c3nc(c(-c4ccccc4)c4ccc([nH]4)c(-c4ccccc4)c4nc(c(-c5ccccc5)c5ccc2[nH]5)C=C4)C=C3)cc1
REMARK SMILES IDX 16 1 15 2 14 3 12 4 13 5 2 7 1 8 3 12 4 13 5 14 11 15 6 16
REMARK SMILES IDX 9 17 7 18 10 19 8 20 17 22 18 23 19 24 20 25 21 27 22 28
REMARK SMILES IDX 23 29 69 30 24 31 68 32 25 33 26 34 27 35 62 36 28 37 67 38
REMARK SMILES IDX 61 39 63 40 29 41 66 42 60 43 59 44 30 46 52 47 37 48 51 49
REMARK SMILES IDX 38 50 41 51 50 52 64 53 39 54 40 55 49 57 65 58 42 59 31 60
REMARK SMILES IDX 32 61 36 62 33 63 35 64 34 65 53 66 54 67 58 68 55 69 57 70
REMARK SMILES IDX 56 71 43 72 44 73 48 74 45 75 47 76 46 77
REMARK H PARENT 14 6 1 9 1 10 1 11 8 21 19 26 63 45 41 56
REMARK Flexibility Score: inf
ROOT
ATOM      1  C   UNL     1      -2.059  -0.768   1.722  1.00  0.00     0.023 C 
ENDROOT
BRANCH   1   2
ATOM      2  C   UNL     1      -1.888  -1.653   0.489  1.00  0.00     0.116 C 
BRANCH   2   3
ATOM      3  N   UNL     1      -1.778  -0.850  -0.707  1.00  0.00    -0.351 N 
ATOM      4  C   UNL     1      -0.701  -0.350  -1.370  1.00  0.00     0.278 C 
ATOM      5  O   UNL     1      -0.949   0.452  -2.279  1.00  0.00    -0.268 OA
ATOM      6  H   UNL     1      -2.643  -0.621  -1.117  1.00  0.00     0.163 HD
BRANCH   4   7
ATOM      7  C   UNL     1       0.765  -0.732  -1.050  1.00  0.00     0.275 C 
BRANCH   7   8
ATOM      8  N   UNL     1       1.020  -2.164  -1.280  1.00  0.00    -0.347 N 
ATOM      9  H   UNL     1       0.545  -2.462  -2.132  1.00  0.00     0.345 HD
ATOM     10  H   UNL     1       0.667  -2.703  -0.489  1.00  0.00     0.345 HD
ATOM     11  H   UNL     1       2.023  -2.320  -1.377  1.00  0.00     0.345 HD
ENDBRANCH   7   8
BRANCH   7  12
ATOM     12  C   UNL     1       1.389  -0.052   0.195  1.00  0.00     0.111 C 
BRANCH  12  13
ATOM     13  C   UNL     1       1.240  -0.599   1.601  1.00  0.00    -0.038 A 
ATOM     14  C   UNL     1       1.377  -1.958   1.922  1.00  0.00     0.008 A 
ATOM     15  C   UNL     1       1.024   0.308   2.660  1.00  0.00     0.047 A 
ATOM     16  C   UNL     1       1.169  -2.418   3.229  1.00  0.00     0.049 A 
ATOM     17  C   UNL     1       0.832  -0.154   3.961  1.00  0.00     0.165 A 
ATOM     18  C   UNL     1       0.873  -1.513   4.237  1.00  0.00     0.151 A 
ATOM     19  F   UNL     1       0.559   0.716   4.944  1.00  0.00    -0.203 F 
BRANCH  18  20
ATOM     20  O   UNL     1       0.597  -2.000   5.479  1.00  0.00    -0.505 OA
ATOM     21  H   UNL     1       0.632  -2.922   5.639  1.00  0.00     0.293 HD
ENDBRANCH  18  20
ENDBRANCH  12  13
ENDBRANCH   7  12
ENDBRANCH   4   7
ENDBRANCH   2   3
ENDBRANCH   1   2
BRANCH   1  22
ATOM     22  C   UNL     1      -3.439  -0.793   2.359  1.00  0.00     0.023 C 
BRANCH  22  23
ATOM     23  C   UNL     1      -3.844  -2.148   2.927  1.00  0.00     0.116 C 
BRANCH  23  24
ATOM     24  N   UNL     1      -2.971  -2.655   3.981  1.00  0.00    -0.352 N 
ATOM     25  C   UNL     1      -3.325  -3.362   5.110  1.00  0.00     0.251 C 
ATOM     26  H   UNL     1      -2.010  -2.471   3.871  1.00  0.00     0.163 HD
ATOM     27  O   UNL     1      -2.490  -3.674   5.952  1.00  0.00    -0.269 OA
BRANCH  25  28
ATOM     28  C   UNL     1      -4.750  -3.684   5.327  1.00  0.00     0.039 A 
ATOM     29  C   UNL     1      -5.346  -3.320   6.535  1.00  0.00     0.014 A 
ATOM     30  C   UNL     1      -5.513  -4.231   4.294  1.00  0.00     0.014 A 
ATOM     31  C   UNL     1      -6.734  -3.395   6.664  1.00  0.00     0.010 A 
ATOM     32  C   UNL     1      -6.897  -4.213   4.389  1.00  0.00     0.010 A 
ATOM     33  C   UNL     1      -7.524  -3.779   5.568  1.00  0.00    -0.014 A 
BRANCH  33  34
ATOM     34  C   UNL     1      -9.007  -3.711   5.611  1.00  0.00     0.031 A 
ATOM     35  C   UNL     1      -9.822  -4.955   5.396  1.00  0.00     0.074 A 
ATOM     36  C   UNL     1      -9.619  -2.516   5.733  1.00  0.00     0.049 A 
ATOM     37  N   UNL     1     -11.118  -5.080   5.267  1.00  0.00    -0.248 NA
ATOM     38  C   UNL     1      -9.079  -6.219   5.269  1.00  0.00     0.031 C 
ATOM     39  C   UNL     1      -8.947  -1.222   5.887  1.00  0.00     0.029 A 
ATOM     40  N   UNL     1     -10.954  -2.195   5.732  1.00  0.00    -0.354 N 
ATOM     41  C   UNL     1     -11.340  -6.425   5.004  1.00  0.00     0.074 A 
ATOM     42  C   UNL     1     -10.045  -7.066   4.948  1.00  0.00     0.031 C 
ATOM     43  C   UNL     1      -9.873  -0.256   5.999  1.00  0.00     0.029 A 
ATOM     44  C   UNL     1     -11.199  -0.851   5.882  1.00  0.00     0.049 A 
ATOM     45  H   UNL     1     -11.669  -2.865   5.633  1.00  0.00     0.167 HD
ATOM     46  C   UNL     1     -12.517  -7.076   4.844  1.00  0.00     0.031 A 
ATOM     47  C   UNL     1     -12.362  -0.173   5.917  1.00  0.00     0.031 A 
ATOM     48  C   UNL     1     -13.807  -6.450   4.941  1.00  0.00     0.049 A 
ATOM     49  C   UNL     1     -13.656  -0.923   5.774  1.00  0.00     0.074 A 
ATOM     50  C   UNL     1     -15.057  -7.038   4.871  1.00  0.00     0.029 A 
ATOM     51  N   UNL     1     -14.010  -5.094   5.138  1.00  0.00    -0.354 N 
ATOM     52  N   UNL     1     -13.850  -2.206   5.590  1.00  0.00    -0.248 NA
ATOM     53  C   UNL     1     -14.891  -0.130   5.853  1.00  0.00     0.031 C 
ATOM     54  C   UNL     1     -16.020  -6.031   4.994  1.00  0.00     0.029 A 
ATOM     55  C   UNL     1     -15.367  -4.823   5.181  1.00  0.00     0.049 A 
ATOM     56  H   UNL     1     -13.296  -4.423   5.233  1.00  0.00     0.167 HD
ATOM     57  C   UNL     1     -15.227  -2.378   5.559  1.00  0.00     0.074 A 
ATOM     58  C   UNL     1     -15.820  -1.071   5.754  1.00  0.00     0.031 C 
ATOM     59  C   UNL     1     -15.938  -3.518   5.383  1.00  0.00     0.031 A 
BRANCH  46  60
ATOM     60  C   UNL     1     -12.453  -8.547   4.550  1.00  0.00    -0.014 A 
ATOM     61  C   UNL     1     -12.055  -9.468   5.533  1.00  0.00     0.009 A 
ATOM     62  C   UNL     1     -12.810  -9.022   3.279  1.00  0.00     0.009 A 
ATOM     63  C   UNL     1     -11.976 -10.829   5.235  1.00  0.00     0.001 A 
ATOM     64  C   UNL     1     -12.758 -10.387   2.993  1.00  0.00     0.001 A 
ATOM     65  C   UNL     1     -12.331 -11.288   3.967  1.00  0.00     0.000 A 
ENDBRANCH  46  60
BRANCH  47  66
ATOM     66  C   UNL     1     -12.362   1.297   6.127  1.00  0.00    -0.014 A 
ATOM     67  C   UNL     1     -12.769   1.833   7.359  1.00  0.00     0.009 A 
ATOM     68  C   UNL     1     -11.966   2.170   5.103  1.00  0.00     0.009 A 
ATOM     69  C   UNL     1     -12.805   3.216   7.552  1.00  0.00     0.001 A 
ATOM     70  C   UNL     1     -11.981   3.552   5.307  1.00  0.00     0.001 A 
ATOM     71  C   UNL     1     -12.408   4.074   6.527  1.00  0.00     0.000 A 
ENDBRANCH  47  66
BRANCH  59  72
ATOM     72  C   UNL     1     -17.434  -3.408   5.433  1.00  0.00    -0.014 A 
ATOM     73  C   UNL     1     -18.158  -2.860   4.364  1.00  0.00     0.009 A 
ATOM     74  C   UNL     1     -18.128  -3.900   6.549  1.00  0.00     0.009 A 
ATOM     75  C   UNL     1     -19.551  -2.783   4.424  1.00  0.00     0.001 A 
ATOM     76  C   UNL     1     -19.522  -3.843   6.595  1.00  0.00     0.001 A 
ATOM     77  C   UNL     1     -20.231  -3.278   5.536  1.00  0.00     0.000 A 
ENDBRANCH  59  72
ENDBRANCH  33  34
ENDBRANCH  25  28
ENDBRANCH  23  24
ENDBRANCH  22  23
ENDBRANCH   1  22
TORSDOF 15
