REMARK SMILES O=C(NCCCCNC(=O)[C@H](CO)NC(=O)[C@H](CS)NC(=O)[C@H](Cc1ccccc1)NC(=O)c1ccc(F)cc1)c1ccc(-c2c3nc(c(-c4ccccc4)c4ccc([nH]4)c(-c4ccccc4)c4nc(c(-c5ccccc5)c5ccc2[nH]5)C=C4)C=C3)cc1
REMARK SMILES IDX 8 1 9 2 10 3 7 5 6 6 5 7 4 8 3 9 1 10 2 11 41 13 42 14 88 15
REMARK SMILES IDX 43 16 87 17 44 18 45 19 46 20 81 21 47 22 86 23 80 24 82 25
REMARK SMILES IDX 48 26 85 27 79 28 78 29 49 31 71 32 56 33 70 34 57 35 60 36
REMARK SMILES IDX 69 37 83 38 58 39 59 40 68 42 84 43 61 44 50 45 51 46 55 47
REMARK SMILES IDX 52 48 54 49 53 50 72 51 73 52 77 53 74 54 76 55 75 56 62 57
REMARK SMILES IDX 63 58 67 59 64 60 66 61 65 62 11 63 14 64 15 65 16 67 17 68
REMARK SMILES IDX 20 69 21 70 22 72 23 73 31 74 32 75 33 77 34 78 35 79 40 80
REMARK SMILES IDX 36 81 39 82 37 83 38 84 24 85 25 86 26 87 30 88 27 89 29 90
REMARK SMILES IDX 28 91 18 92 19 93 12 95 13 96
REMARK H PARENT 8 4 3 12 82 30 60 41 14 66 20 71 31 76 19 94 13 97
REMARK Flexibility Score: inf
ROOT
ATOM      1  N   UNL     1       4.875   5.663  -5.692  1.00  0.00    -0.354 N 
ATOM      2  C   UNL     1       6.199   5.395  -5.871  1.00  0.00     0.244 C 
ATOM      3  O   UNL     1       6.463   4.495  -6.678  1.00  0.00    -0.273 OA
ATOM      4  H   UNL     1       4.280   5.074  -6.211  1.00  0.00     0.163 HD
ENDROOT
BRANCH   1   5
ATOM      5  C   UNL     1       4.162   6.645  -4.889  1.00  0.00     0.116 C 
BRANCH   5   6
ATOM      6  C   UNL     1       3.846   7.908  -5.677  1.00  0.00     0.023 C 
BRANCH   6   7
ATOM      7  C   UNL     1       2.659   7.832  -6.627  1.00  0.00     0.023 C 
BRANCH   7   8
ATOM      8  C   UNL     1       1.318   7.708  -5.936  1.00  0.00     0.116 C 
BRANCH   8   9
ATOM      9  N   UNL     1       0.952   8.864  -5.125  1.00  0.00    -0.352 N 
ATOM     10  O   UNL     1      -0.477  10.391  -4.242  1.00  0.00    -0.269 OA
ATOM     11  C   UNL     1      -0.312   9.366  -4.892  1.00  0.00     0.251 C 
ATOM     12  H   UNL     1       1.695   9.343  -4.693  1.00  0.00     0.163 HD
BRANCH  11  13
ATOM     13  C   UNL     1      -1.468   8.667  -5.493  1.00  0.00     0.039 A 
ATOM     14  C   UNL     1      -1.539   7.277  -5.431  1.00  0.00     0.014 A 
ATOM     15  C   UNL     1      -2.426   9.392  -6.207  1.00  0.00     0.014 A 
ATOM     16  C   UNL     1      -2.425   6.606  -6.255  1.00  0.00     0.010 A 
ATOM     17  C   UNL     1      -3.412   8.711  -6.929  1.00  0.00     0.010 A 
ATOM     18  C   UNL     1      -3.393   7.311  -6.993  1.00  0.00    -0.014 A 
BRANCH  18  19
ATOM     19  C   UNL     1      -4.393   6.519  -7.752  1.00  0.00     0.031 A 
ATOM     20  C   UNL     1      -4.499   6.596  -9.249  1.00  0.00     0.074 A 
ATOM     21  C   UNL     1      -5.138   5.633  -7.062  1.00  0.00     0.049 A 
ATOM     22  N   UNL     1      -5.258   5.889 -10.050  1.00  0.00    -0.248 NA
ATOM     23  C   UNL     1      -3.666   7.591  -9.941  1.00  0.00     0.031 C 
ATOM     24  C   UNL     1      -5.123   5.479  -5.603  1.00  0.00     0.029 A 
ATOM     25  N   UNL     1      -5.992   4.649  -7.487  1.00  0.00    -0.354 N 
ATOM     26  C   UNL     1      -5.023   6.376 -11.329  1.00  0.00     0.074 A 
ATOM     27  C   UNL     1      -4.053   7.442 -11.202  1.00  0.00     0.031 C 
ATOM     28  C   UNL     1      -5.829   4.393  -5.267  1.00  0.00     0.029 A 
ATOM     29  C   UNL     1      -6.424   3.831  -6.471  1.00  0.00     0.049 A 
ATOM     30  H   UNL     1      -6.267   4.540  -8.426  1.00  0.00     0.167 HD
ATOM     31  C   UNL     1      -5.574   5.973 -12.500  1.00  0.00     0.031 A 
ATOM     32  C   UNL     1      -7.218   2.747  -6.498  1.00  0.00     0.031 A 
ATOM     33  C   UNL     1      -6.529   4.902 -12.620  1.00  0.00     0.049 A 
ATOM     34  C   UNL     1      -7.782   2.303  -7.811  1.00  0.00     0.074 A 
ATOM     35  C   UNL     1      -7.160   4.429 -13.759  1.00  0.00     0.029 A 
ATOM     36  N   UNL     1      -6.983   4.127 -11.564  1.00  0.00    -0.354 N 
ATOM     37  N   UNL     1      -7.570   2.798  -9.005  1.00  0.00    -0.248 NA
ATOM     38  C   UNL     1      -8.707   1.165  -7.777  1.00  0.00     0.031 C 
ATOM     39  C   UNL     1      -8.016   3.386 -13.386  1.00  0.00     0.029 A 
ATOM     40  C   UNL     1      -7.888   3.184 -12.022  1.00  0.00     0.049 A 
ATOM     41  H   UNL     1      -6.703   4.232 -10.626  1.00  0.00     0.167 HD
ATOM     42  C   UNL     1      -8.354   2.047  -9.866  1.00  0.00     0.074 A 
ATOM     43  C   UNL     1      -9.005   1.031  -9.062  1.00  0.00     0.031 C 
ATOM     44  C   UNL     1      -8.538   2.199 -11.199  1.00  0.00     0.031 A 
BRANCH  31  45
ATOM     45  C   UNL     1      -5.182   6.715 -13.747  1.00  0.00    -0.014 A 
ATOM     46  C   UNL     1      -3.937   6.508 -14.359  1.00  0.00     0.009 A 
ATOM     47  C   UNL     1      -6.098   7.593 -14.350  1.00  0.00     0.009 A 
ATOM     48  C   UNL     1      -3.609   7.182 -15.539  1.00  0.00     0.001 A 
ATOM     49  C   UNL     1      -5.775   8.248 -15.540  1.00  0.00     0.001 A 
ATOM     50  C   UNL     1      -4.529   8.046 -16.131  1.00  0.00     0.000 A 
ENDBRANCH  31  45
BRANCH  32  51
ATOM     51  C   UNL     1      -7.541   2.040  -5.233  1.00  0.00    -0.014 A 
ATOM     52  C   UNL     1      -7.028   0.761  -4.975  1.00  0.00     0.009 A 
ATOM     53  C   UNL     1      -8.336   2.665  -4.259  1.00  0.00     0.009 A 
ATOM     54  C   UNL     1      -7.315   0.118  -3.768  1.00  0.00     0.001 A 
ATOM     55  C   UNL     1      -8.594   2.034  -3.042  1.00  0.00     0.001 A 
ATOM     56  C   UNL     1      -8.089   0.758  -2.800  1.00  0.00     0.000 A 
ENDBRANCH  32  51
BRANCH  44  57
ATOM     57  C   UNL     1      -9.492   1.243 -11.850  1.00  0.00    -0.014 A 
ATOM     58  C   UNL     1     -10.878   1.383 -11.673  1.00  0.00     0.009 A 
ATOM     59  C   UNL     1      -9.003   0.191 -12.637  1.00  0.00     0.009 A 
ATOM     60  C   UNL     1     -11.756   0.460 -12.242  1.00  0.00     0.001 A 
ATOM     61  C   UNL     1      -9.886  -0.717 -13.223  1.00  0.00     0.001 A 
ATOM     62  C   UNL     1     -11.259  -0.588 -13.016  1.00  0.00     0.000 A 
ENDBRANCH  44  57
ENDBRANCH  18  19
ENDBRANCH  11  13
ENDBRANCH   8   9
ENDBRANCH   7   8
ENDBRANCH   6   7
ENDBRANCH   5   6
ENDBRANCH   1   5
BRANCH   2  63
ATOM     63  C   UNL     1       7.344   6.265  -5.283  1.00  0.00     0.197 C 
BRANCH  63  64
ATOM     64  N   UNL     1       7.104   6.825  -3.962  1.00  0.00    -0.340 N 
ATOM     65  C   UNL     1       7.094   8.128  -3.559  1.00  0.00     0.244 C 
ATOM     66  H   UNL     1       6.921   6.165  -3.255  1.00  0.00     0.164 HD
ATOM     67  O   UNL     1       6.609   8.370  -2.451  1.00  0.00    -0.273 OA
BRANCH  65  68
ATOM     68  C   UNL     1       7.564   9.267  -4.507  1.00  0.00     0.181 C 
BRANCH  68  69
ATOM     69  N   UNL     1       6.393   9.826  -5.205  1.00  0.00    -0.342 N 
ATOM     70  C   UNL     1       6.101  10.201  -6.481  1.00  0.00     0.243 C 
ATOM     71  H   UNL     1       5.631   9.963  -4.596  1.00  0.00     0.164 HD
ATOM     72  O   UNL     1       4.995  10.738  -6.634  1.00  0.00    -0.273 OA
BRANCH  70  73
ATOM     73  C   UNL     1       6.936   9.843  -7.737  1.00  0.00     0.176 C 
BRANCH  73  74
ATOM     74  N   UNL     1       8.348  10.171  -7.535  1.00  0.00    -0.340 N 
ATOM     75  C   UNL     1       9.109  11.123  -8.165  1.00  0.00     0.251 C 
ATOM     76  H   UNL     1       8.816   9.636  -6.854  1.00  0.00     0.164 HD
ATOM     77  O   UNL     1      10.287  11.250  -7.860  1.00  0.00    -0.269 OA
BRANCH  75  78
ATOM     78  C   UNL     1       8.532  11.893  -9.284  1.00  0.00     0.040 A 
ATOM     79  C   UNL     1       9.119  11.730 -10.544  1.00  0.00     0.017 A 
ATOM     80  C   UNL     1       7.404  12.707  -9.120  1.00  0.00     0.017 A 
ATOM     81  C   UNL     1       8.536  12.332 -11.657  1.00  0.00     0.040 A 
ATOM     82  C   UNL     1       6.815  13.292 -10.242  1.00  0.00     0.040 A 
ATOM     83  C   UNL     1       7.381  13.092 -11.499  1.00  0.00     0.123 A 
ATOM     84  F   UNL     1       6.801  13.636 -12.576  1.00  0.00    -0.207 F 
ENDBRANCH  75  78
ENDBRANCH  73  74
BRANCH  73  85
ATOM     85  C   UNL     1       6.758   8.390  -8.213  1.00  0.00     0.070 C 
BRANCH  85  86
ATOM     86  C   UNL     1       5.729   8.060  -9.277  1.00  0.00    -0.045 A 
ATOM     87  C   UNL     1       4.569   8.811  -9.493  1.00  0.00     0.004 A 
ATOM     88  C   UNL     1       5.886   6.859  -9.994  1.00  0.00     0.004 A 
ATOM     89  C   UNL     1       3.601   8.381 -10.408  1.00  0.00     0.000 A 
ATOM     90  C   UNL     1       4.922   6.433 -10.910  1.00  0.00     0.000 A 
ATOM     91  C   UNL     1       3.777   7.195 -11.116  1.00  0.00     0.000 A 
ENDBRANCH  85  86
ENDBRANCH  73  85
ENDBRANCH  70  73
ENDBRANCH  68  69
BRANCH  68  92
ATOM     92  C   UNL     1       8.208  10.337  -3.592  1.00  0.00     0.101 C 
BRANCH  92  93
ATOM     93  S   UNL     1       8.846  11.798  -4.471  1.00  0.00    -0.177 SA
ATOM     94  H   UNL     1       9.839  11.419  -5.319  1.00  0.00     0.102 HD
ENDBRANCH  92  93
ENDBRANCH  68  92
ENDBRANCH  65  68
ENDBRANCH  63  64
BRANCH  63  95
ATOM     95  C   UNL     1       8.669   5.484  -5.332  1.00  0.00     0.191 C 
BRANCH  95  96
ATOM     96  O   UNL     1       8.621   4.322  -4.509  1.00  0.00    -0.394 OA
ATOM     97  H   UNL     1       8.468   4.585  -3.588  1.00  0.00     0.210 HD
ENDBRANCH  95  96
ENDBRANCH  63  95
ENDBRANCH   2  63
TORSDOF 23
