REMARK SMILES CC[C@@H](NC(=O)N[C@H]1CCCCC[C@@H]1C(=O)NCCCCNC(=O)c1ccc(-c2c3nc(c(-c4ccccc4)c4ccc([nH]4)c(-c4ccccc4)c4nc(c(-c5ccccc5)c5ccc2[nH]5)C=C4)C=C3)cc1)C(C)C
REMARK SMILES IDX 18 1 17 2 15 3 16 4 14 6 8 7 7 8 4 9 5 10 6 12 3 14 2 15
REMARK SMILES IDX 1 16 73 17 74 18 75 19 9 20 10 21 11 22 13 24 12 25 19 27
REMARK SMILES IDX 20 28 21 29 22 30 23 31 24 33 25 34 26 35 72 36 27 37 71 38
REMARK SMILES IDX 28 39 29 40 30 41 65 42 31 43 70 44 64 45 66 46 32 47 69 48
REMARK SMILES IDX 63 49 62 50 33 52 55 53 40 54 54 55 41 56 44 57 53 58 67 59
REMARK SMILES IDX 42 60 43 61 52 63 68 64 45 65 34 66 35 67 39 68 36 69 38 70
REMARK SMILES IDX 37 71 56 72 57 73 61 74 58 75 60 76 59 77 46 78 47 79 51 80
REMARK SMILES IDX 48 81 50 82 49 83
REMARK H PARENT 17 5 4 11 7 13 22 32 66 51 44 62
REMARK Flexibility Score: 90.00
ROOT
ATOM      1  C   UNL     1      -2.857   6.645   2.291  1.00  0.00     0.116 C 
ENDROOT
BRANCH   1   2
ATOM      2  N   UNL     1      -1.596   7.219   2.718  1.00  0.00    -0.356 N 
ATOM      3  C   UNL     1      -0.582   6.748   3.494  1.00  0.00     0.225 C 
ATOM      4  O   UNL     1       0.341   7.535   3.728  1.00  0.00    -0.275 OA
ATOM      5  H   UNL     1      -1.443   8.131   2.380  1.00  0.00     0.163 HD
BRANCH   3   6
ATOM      6  C   UNL     1      -0.520   5.311   4.028  1.00  0.00     0.101 C 
BRANCH   6   7
ATOM      7  C   UNL     1      -0.078   4.366   2.897  1.00  0.00     0.096 C 
BRANCH   7   8
ATOM      8  N   UNL     1       1.274   4.665   2.432  1.00  0.00    -0.335 N 
ATOM      9  N   UNL     1       1.262   5.043   0.067  1.00  0.00    -0.335 N 
ATOM     10  C   UNL     1       1.853   4.869   1.249  1.00  0.00     0.315 C 
ATOM     11  H   UNL     1       1.932   4.897  -0.640  1.00  0.00     0.165 HD
ATOM     12  O   UNL     1       3.090   4.882   1.239  1.00  0.00    -0.249 OA
ATOM     13  H   UNL     1       1.916   4.734   3.175  1.00  0.00     0.165 HD
BRANCH   9  14
ATOM     14  C   UNL     1      -0.031   5.375  -0.574  1.00  0.00     0.086 C 
BRANCH  14  15
ATOM     15  C   UNL     1      -0.332   6.879  -0.402  1.00  0.00     0.022 C 
ATOM     16  C   UNL     1       0.328   7.725  -1.490  1.00  0.00     0.006 C 
ENDBRANCH  14  15
BRANCH  14  17
ATOM     17  C   UNL     1      -1.236   4.431  -0.323  1.00  0.00     0.005 C 
ATOM     18  C   UNL     1      -2.392   4.635  -1.313  1.00  0.00     0.009 C 
ATOM     19  C   UNL     1      -0.821   2.958  -0.352  1.00  0.00     0.009 C 
ENDBRANCH  14  17
ENDBRANCH   9  14
ENDBRANCH   7   8
BRANCH   7  20
ATOM     20  C   UNL     1      -0.215   2.849   3.158  1.00  0.00     0.026 C 
BRANCH  20  21
ATOM     21  C   UNL     1      -0.070   2.356   4.599  1.00  0.00     0.002 C 
BRANCH  21  22
ATOM     22  C   UNL     1      -1.346   2.507   5.424  1.00  0.00     0.000 CG0
ATOM     23  G   UNL     1      -1.616   3.931   5.891  1.00  0.00     0.000 G0
ENDBRANCH  21  22
ENDBRANCH  20  21
ENDBRANCH   7  20
ENDBRANCH   6   7
BRANCH   6  24
ATOM     24  C   UNL     1      -1.819   4.910   4.742  1.00  0.00     0.015 C 
BRANCH  24  25
ATOM     25  C   UNL     1      -1.616   3.931   5.891  1.00  0.00     0.001 CG0
ATOM     26  G   UNL     1      -1.346   2.507   5.424  1.00  0.00     0.000 G0
ENDBRANCH  24  25
ENDBRANCH   6  24
ENDBRANCH   3   6
ENDBRANCH   1   2
BRANCH   1  27
ATOM     27  C   UNL     1      -4.038   7.329   2.976  1.00  0.00     0.023 C 
BRANCH  27  28
ATOM     28  C   UNL     1      -4.397   8.693   2.374  1.00  0.00     0.023 C 
BRANCH  28  29
ATOM     29  C   UNL     1      -4.860   8.666   0.918  1.00  0.00     0.116 C 
BRANCH  29  30
ATOM     30  N   UNL     1      -6.035   7.837   0.702  1.00  0.00    -0.352 N 
ATOM     31  C   UNL     1      -7.174   8.106  -0.024  1.00  0.00     0.251 C 
ATOM     32  H   UNL     1      -6.013   6.954   1.139  1.00  0.00     0.163 HD
ATOM     33  O   UNL     1      -8.116   7.330  -0.004  1.00  0.00    -0.269 OA
BRANCH  31  34
ATOM     34  C   UNL     1      -7.264   9.362  -0.802  1.00  0.00     0.039 A 
ATOM     35  C   UNL     1      -8.411  10.149  -0.674  1.00  0.00     0.014 A 
ATOM     36  C   UNL     1      -6.220   9.768  -1.636  1.00  0.00     0.014 A 
ATOM     37  C   UNL     1      -8.477  11.385  -1.321  1.00  0.00     0.010 A 
ATOM     38  C   UNL     1      -6.259  11.028  -2.226  1.00  0.00     0.010 A 
ATOM     39  C   UNL     1      -7.384  11.853  -2.069  1.00  0.00    -0.014 A 
BRANCH  39  40
ATOM     40  C   UNL     1      -7.389  13.210  -2.672  1.00  0.00     0.031 A 
ATOM     41  C   UNL     1      -7.340  13.379  -4.165  1.00  0.00     0.074 A 
ATOM     42  C   UNL     1      -7.367  14.294  -1.873  1.00  0.00     0.049 A 
ATOM     43  N   UNL     1      -7.276  14.481  -4.870  1.00  0.00    -0.248 NA
ATOM     44  C   UNL     1      -7.337  12.148  -4.972  1.00  0.00     0.031 C 
ATOM     45  C   UNL     1      -7.369  14.270  -0.408  1.00  0.00     0.029 A 
ATOM     46  N   UNL     1      -7.329  15.631  -2.182  1.00  0.00    -0.354 N 
ATOM     47  C   UNL     1      -7.207  14.077  -6.197  1.00  0.00     0.074 A 
ATOM     48  C   UNL     1      -7.190  12.630  -6.198  1.00  0.00     0.031 C 
ATOM     49  C   UNL     1      -7.361  15.531   0.052  1.00  0.00     0.029 A 
ATOM     50  C   UNL     1      -7.314  16.451  -1.079  1.00  0.00     0.049 A 
ATOM     51  H   UNL     1      -7.315  15.971  -3.106  1.00  0.00     0.167 HD
ATOM     52  C   UNL     1      -7.179  14.839  -7.316  1.00  0.00     0.031 A 
ATOM     53  C   UNL     1      -7.262  17.793  -0.988  1.00  0.00     0.031 A 
ATOM     54  C   UNL     1      -7.207  16.278  -7.319  1.00  0.00     0.049 A 
ATOM     55  C   UNL     1      -7.222  18.617  -2.244  1.00  0.00     0.074 A 
ATOM     56  C   UNL     1      -7.241  17.137  -8.404  1.00  0.00     0.029 A 
ATOM     57  N   UNL     1      -7.201  17.070  -6.181  1.00  0.00    -0.354 N 
ATOM     58  N   UNL     1      -7.228  18.220  -3.493  1.00  0.00    -0.248 NA
ATOM     59  C   UNL     1      -7.180  20.077  -2.076  1.00  0.00     0.031 C 
ATOM     60  C   UNL     1      -7.207  18.450  -7.923  1.00  0.00     0.029 A 
ATOM     61  C   UNL     1      -7.207  18.408  -6.538  1.00  0.00     0.049 A 
ATOM     62  H   UNL     1      -7.193  16.731  -5.257  1.00  0.00     0.167 HD
ATOM     63  C   UNL     1      -7.218  19.378  -4.259  1.00  0.00     0.074 A 
ATOM     64  C   UNL     1      -7.221  20.493  -3.334  1.00  0.00     0.031 C 
ATOM     65  C   UNL     1      -7.209  19.507  -5.608  1.00  0.00     0.031 A 
BRANCH  52  66
ATOM     66  C   UNL     1      -7.109  14.124  -8.636  1.00  0.00    -0.014 A 
ATOM     67  C   UNL     1      -8.205  13.397  -9.129  1.00  0.00     0.009 A 
ATOM     68  C   UNL     1      -5.943  14.202  -9.413  1.00  0.00     0.009 A 
ATOM     69  C   UNL     1      -8.121  12.732 -10.353  1.00  0.00     0.001 A 
ATOM     70  C   UNL     1      -5.871  13.560 -10.650  1.00  0.00     0.001 A 
ATOM     71  C   UNL     1      -6.956  12.817 -11.114  1.00  0.00     0.000 A 
ENDBRANCH  52  66
BRANCH  53  72
ATOM     72  C   UNL     1      -7.265  18.449   0.345  1.00  0.00    -0.014 A 
ATOM     73  C   UNL     1      -8.394  19.157   0.786  1.00  0.00     0.009 A 
ATOM     74  C   UNL     1      -6.139  18.378   1.181  1.00  0.00     0.009 A 
ATOM     75  C   UNL     1      -8.386  19.802   2.025  1.00  0.00     0.001 A 
ATOM     76  C   UNL     1      -6.145  19.001   2.431  1.00  0.00     0.001 A 
ATOM     77  C   UNL     1      -7.264  19.720   2.847  1.00  0.00     0.000 A 
ENDBRANCH  53  72
BRANCH  65  78
ATOM     78  C   UNL     1      -7.238  20.902  -6.165  1.00  0.00    -0.014 A 
ATOM     79  C   UNL     1      -6.112  21.738  -6.098  1.00  0.00     0.009 A 
ATOM     80  C   UNL     1      -8.398  21.372  -6.800  1.00  0.00     0.009 A 
ATOM     81  C   UNL     1      -6.161  23.029  -6.628  1.00  0.00     0.001 A 
ATOM     82  C   UNL     1      -8.434  22.652  -7.353  1.00  0.00     0.001 A 
ATOM     83  C   UNL     1      -7.319  23.483  -7.259  1.00  0.00     0.000 A 
ENDBRANCH  65  78
ENDBRANCH  39  40
ENDBRANCH  31  34
ENDBRANCH  29  30
ENDBRANCH  28  29
ENDBRANCH  27  28
ENDBRANCH   1  27
TORSDOF 15
