REMARK SMILES C[C@H](C(=O)NCCCCNC(=O)c1ccc(-c2c3nc(c(-c4ccccc4)c4ccc([nH]4)c(-c4ccccc4)c4nc(c(-c5ccccc5)c5ccc2[nH]5)C=C4)C=C3)cc1)[C@H](C)c1ccoc1
REMARK SMILES IDX 7 1 6 2 5 3 3 4 4 5 2 7 1 8 61 9 62 10 63 11 64 12 67 13
REMARK SMILES IDX 65 14 66 15 8 16 9 17 10 18 11 19 12 21 13 22 14 23 60 24
REMARK SMILES IDX 15 25 59 26 16 27 17 28 18 29 53 30 19 31 58 32 52 33 54 34
REMARK SMILES IDX 20 35 57 36 51 37 50 38 21 40 43 41 28 42 42 43 29 44 32 45
REMARK SMILES IDX 41 46 55 47 30 48 31 49 40 51 56 52 33 53 22 54 23 55 27 56
REMARK SMILES IDX 24 57 26 58 25 59 44 60 45 61 49 62 46 63 48 64 47 65 34 66
REMARK SMILES IDX 35 67 39 68 36 69 38 70 37 71
REMARK H PARENT 5 6 10 20 54 39 32 50
REMARK Flexibility Score: inf
ROOT
ATOM      1  C   UNL     1       1.358  -1.318  -0.358  1.00  0.00     0.023 C 
ENDROOT
BRANCH   1   2
ATOM      2  C   UNL     1       0.310  -0.796   0.627  1.00  0.00     0.116 C 
BRANCH   2   3
ATOM      3  N   UNL     1       0.449   0.618   0.910  1.00  0.00    -0.356 N 
ATOM      4  C   UNL     1      -0.237   1.692   0.429  1.00  0.00     0.223 C 
ATOM      5  O   UNL     1       0.081   2.800   0.868  1.00  0.00    -0.275 OA
ATOM      6  H   UNL     1       1.157   0.840   1.557  1.00  0.00     0.163 HD
BRANCH   4   7
ATOM      7  C   UNL     1      -1.327   1.518  -0.634  1.00  0.00     0.082 C 
ATOM      8  C   UNL     1      -2.200   2.781  -0.646  1.00  0.00     0.019 C 
BRANCH   7   9
ATOM      9  C   UNL     1      -0.741   1.108  -2.016  1.00  0.00     0.031 C 
ATOM     10  C   UNL     1       0.662   1.664  -2.323  1.00  0.00     0.014 C 
BRANCH   9  11
ATOM     11  C   UNL     1      -1.636   1.347  -3.210  1.00  0.00    -0.006 A 
ATOM     12  C   UNL     1      -2.304   0.367  -4.000  1.00  0.00     0.046 A 
ATOM     13  C   UNL     1      -1.892   2.550  -3.842  1.00  0.00     0.198 A 
ATOM     14  C   UNL     1      -2.886   1.038  -5.050  1.00  0.00     0.195 A 
ATOM     15  O   UNL     1      -2.648   2.369  -4.951  1.00  0.00    -0.472 OA
ENDBRANCH   9  11
ENDBRANCH   7   9
ENDBRANCH   4   7
ENDBRANCH   2   3
ENDBRANCH   1   2
BRANCH   1  16
ATOM     16  C   UNL     1       2.814  -1.071   0.043  1.00  0.00     0.023 C 
BRANCH  16  17
ATOM     17  C   UNL     1       3.233  -1.732   1.349  1.00  0.00     0.116 C 
BRANCH  17  18
ATOM     18  N   UNL     1       3.074  -3.179   1.312  1.00  0.00    -0.352 N 
ATOM     19  C   UNL     1       4.007  -4.171   1.507  1.00  0.00     0.251 C 
ATOM     20  H   UNL     1       2.161  -3.494   1.119  1.00  0.00     0.163 HD
ATOM     21  O   UNL     1       3.736  -5.332   1.246  1.00  0.00    -0.269 OA
BRANCH  19  22
ATOM     22  C   UNL     1       5.349  -3.815   2.013  1.00  0.00     0.039 A 
ATOM     23  C   UNL     1       6.476  -4.343   1.378  1.00  0.00     0.014 A 
ATOM     24  C   UNL     1       5.489  -2.943   3.094  1.00  0.00     0.014 A 
ATOM     25  C   UNL     1       7.748  -3.919   1.769  1.00  0.00     0.010 A 
ATOM     26  C   UNL     1       6.750  -2.468   3.434  1.00  0.00     0.010 A 
ATOM     27  C   UNL     1       7.890  -2.939   2.764  1.00  0.00    -0.014 A 
BRANCH  27  28
ATOM     28  C   UNL     1       9.211  -2.347   3.092  1.00  0.00     0.031 A 
ATOM     29  C   UNL     1       9.783  -2.496   4.474  1.00  0.00     0.074 A 
ATOM     30  C   UNL     1       9.834  -1.577   2.177  1.00  0.00     0.049 A 
ATOM     31  N   UNL     1      10.848  -1.936   4.988  1.00  0.00    -0.248 NA
ATOM     32  C   UNL     1       9.047  -3.363   5.409  1.00  0.00     0.031 C 
ATOM     33  C   UNL     1       9.354  -1.315   0.817  1.00  0.00     0.029 A 
ATOM     34  N   UNL     1      10.995  -0.850   2.261  1.00  0.00    -0.354 N 
ATOM     35  C   UNL     1      10.893  -2.358   6.311  1.00  0.00     0.074 A 
ATOM     36  C   UNL     1       9.735  -3.196   6.531  1.00  0.00     0.031 C 
ATOM     37  C   UNL     1      10.215  -0.493   0.196  1.00  0.00     0.029 A 
ATOM     38  C   UNL     1      11.280  -0.131   1.124  1.00  0.00     0.049 A 
ATOM     39  H   UNL     1      11.570  -0.843   3.061  1.00  0.00     0.167 HD
ATOM     40  C   UNL     1      11.824  -2.080   7.253  1.00  0.00     0.031 A 
ATOM     41  C   UNL     1      12.271   0.743   0.866  1.00  0.00     0.031 A 
ATOM     42  C   UNL     1      12.989  -1.269   7.023  1.00  0.00     0.049 A 
ATOM     43  C   UNL     1      13.283   1.038   1.937  1.00  0.00     0.074 A 
ATOM     44  C   UNL     1      14.039  -1.009   7.887  1.00  0.00     0.029 A 
ATOM     45  N   UNL     1      13.254  -0.582   5.850  1.00  0.00    -0.354 N 
ATOM     46  N   UNL     1      13.365   0.551   3.151  1.00  0.00    -0.248 NA
ATOM     47  C   UNL     1      14.340   2.004   1.602  1.00  0.00     0.031 C 
ATOM     48  C   UNL     1      14.910  -0.116   7.257  1.00  0.00     0.029 A 
ATOM     49  C   UNL     1      14.430   0.136   5.982  1.00  0.00     0.049 A 
ATOM     50  H   UNL     1      12.691  -0.602   5.043  1.00  0.00     0.167 HD
ATOM     51  C   UNL     1      14.491   1.136   3.717  1.00  0.00     0.074 A 
ATOM     52  C   UNL     1      15.073   1.994   2.706  1.00  0.00     0.031 C 
ATOM     53  C   UNL     1      14.994   0.983   4.965  1.00  0.00     0.031 A 
BRANCH  40  54
ATOM     54  C   UNL     1      11.626  -2.647   8.630  1.00  0.00    -0.014 A 
ATOM     55  C   UNL     1      11.816  -4.013   8.889  1.00  0.00     0.009 A 
ATOM     56  C   UNL     1      11.326  -1.787   9.698  1.00  0.00     0.009 A 
ATOM     57  C   UNL     1      11.689  -4.509  10.189  1.00  0.00     0.001 A 
ATOM     58  C   UNL     1      11.224  -2.281  10.999  1.00  0.00     0.001 A 
ATOM     59  C   UNL     1      11.401  -3.642  11.243  1.00  0.00     0.000 A 
ENDBRANCH  40  54
BRANCH  41  60
ATOM     60  C   UNL     1      12.346   1.430  -0.451  1.00  0.00    -0.014 A 
ATOM     61  C   UNL     1      13.389   1.149  -1.346  1.00  0.00     0.009 A 
ATOM     62  C   UNL     1      11.392   2.398  -0.805  1.00  0.00     0.009 A 
ATOM     63  C   UNL     1      13.498   1.849  -2.550  1.00  0.00     0.001 A 
ATOM     64  C   UNL     1      11.485   3.074  -2.024  1.00  0.00     0.001 A 
ATOM     65  C   UNL     1      12.545   2.808  -2.889  1.00  0.00     0.000 A 
ENDBRANCH  41  60
BRANCH  53  66
ATOM     66  C   UNL     1      16.244   1.744   5.301  1.00  0.00    -0.014 A 
ATOM     67  C   UNL     1      16.212   3.130   5.514  1.00  0.00     0.009 A 
ATOM     68  C   UNL     1      17.457   1.056   5.457  1.00  0.00     0.009 A 
ATOM     69  C   UNL     1      17.378   3.818   5.853  1.00  0.00     0.001 A 
ATOM     70  C   UNL     1      18.615   1.742   5.824  1.00  0.00     0.001 A 
ATOM     71  C   UNL     1      18.576   3.123   6.014  1.00  0.00     0.000 A 
ENDBRANCH  53  66
ENDBRANCH  27  28
ENDBRANCH  19  22
ENDBRANCH  17  18
ENDBRANCH  16  17
ENDBRANCH   1  16
TORSDOF 13
