REMARK SMILES [NH3+][C@H]1CN(C(=O)OCC2c3ccccc3-c3ccccc32)C[C@@H]1C(=O)NCCCCNC(=O)c1ccc(-c2c3nc(c(-c4ccccc4)c4ccc([nH]4)c(-c4ccccc4)c4nc(c(-c5ccccc5)c5ccc2[nH]5)C=C4)C=C3)cc1
REMARK SMILES IDX 27 1 26 2 24 3 25 4 23 6 2 7 3 8 4 9 22 10 1 11 5 15 6 16
REMARK SMILES IDX 7 17 8 18 9 19 10 20 21 21 11 22 15 23 16 24 20 25 12 26
REMARK SMILES IDX 14 27 17 28 19 29 13 30 18 31 28 32 29 33 30 34 31 35 32 36
REMARK SMILES IDX 33 38 34 39 35 40 81 41 36 42 80 43 37 44 38 45 39 46 74 47
REMARK SMILES IDX 40 48 79 49 73 50 75 51 41 52 78 53 72 54 71 55 42 57 64 58
REMARK SMILES IDX 49 59 63 60 50 61 53 62 62 63 76 64 51 65 52 66 61 68 77 69
REMARK SMILES IDX 54 70 43 71 44 72 48 73 45 74 47 75 46 76 65 77 66 78 70 79
REMARK SMILES IDX 67 80 69 81 68 82 55 83 56 84 60 85 57 86 59 87 58 88
REMARK H PARENT 26 5 1 12 1 13 1 14 31 37 75 56 53 67
REMARK Flexibility Score: inf
ROOT
ATOM      1  C   UNL     1       2.613  -3.382   2.633  1.00  0.00     0.116 C 
ENDROOT
BRANCH   1   2
ATOM      2  N   UNL     1       3.231  -2.205   2.042  1.00  0.00    -0.356 N 
ATOM      3  C   UNL     1       2.651  -1.036   1.633  1.00  0.00     0.231 C 
ATOM      4  O   UNL     1       3.314  -0.257   0.950  1.00  0.00    -0.274 OA
ATOM      5  H   UNL     1       4.206  -2.258   1.919  1.00  0.00     0.163 HD
BRANCH   3   6
ATOM      6  C   UNL     1       1.239  -0.728   2.091  1.00  0.00     0.158 C 
ATOM      7  C   UNL     1       0.552   0.369   1.261  1.00  0.00     0.215 C 
ATOM      8  C   UNL     1       0.960   1.686   1.958  1.00  0.00     0.188 C 
ATOM      9  N   UNL     1       1.452   1.300   3.264  1.00  0.00    -0.301 N 
ATOM     10  C   UNL     1       1.334  -0.126   3.486  1.00  0.00     0.143 C 
BRANCH   7  11
ATOM     11  N   UNL     1      -0.912   0.175   1.290  1.00  0.00    -0.353 N 
ATOM     12  H   UNL     1      -1.362   0.904   0.738  1.00  0.00     0.344 HD
ATOM     13  H   UNL     1      -1.242   0.224   2.253  1.00  0.00     0.344 HD
ATOM     14  H   UNL     1      -1.141  -0.739   0.898  1.00  0.00     0.344 HD
ENDBRANCH   7  11
BRANCH   9  15
ATOM     15  C   UNL     1       2.152   2.127   4.101  1.00  0.00     0.410 C 
ATOM     16  O   UNL     1       2.963   1.724   4.922  1.00  0.00    -0.224 OA
BRANCH  15  17
ATOM     17  O   UNL     1       1.750   3.421   3.978  1.00  0.00    -0.448 OA
BRANCH  17  18
ATOM     18  C   UNL     1       2.216   4.328   5.002  1.00  0.00     0.248 C 
BRANCH  18  19
ATOM     19  C   UNL     1       1.202   4.464   6.161  1.00  0.00     0.088 C 
ATOM     20  C   UNL     1       1.312   3.364   7.219  1.00  0.00    -0.029 A 
ATOM     21  C   UNL     1       1.490   5.709   7.005  1.00  0.00    -0.029 A 
ATOM     22  C   UNL     1       1.028   2.012   7.108  1.00  0.00     0.005 A 
ATOM     23  C   UNL     1       1.753   3.902   8.446  1.00  0.00    -0.014 A 
ATOM     24  C   UNL     1       1.821   5.341   8.327  1.00  0.00    -0.014 A 
ATOM     25  C   UNL     1       1.426   7.044   6.631  1.00  0.00     0.005 A 
ATOM     26  C   UNL     1       1.312   1.176   8.190  1.00  0.00     0.000 A 
ATOM     27  C   UNL     1       2.018   3.078   9.528  1.00  0.00     0.009 A 
ATOM     28  C   UNL     1       2.084   6.304   9.287  1.00  0.00     0.009 A 
ATOM     29  C   UNL     1       1.694   8.015   7.600  1.00  0.00     0.000 A 
ATOM     30  C   UNL     1       1.819   1.702   9.386  1.00  0.00     0.001 A 
ATOM     31  C   UNL     1       2.017   7.649   8.916  1.00  0.00     0.001 A 
ENDBRANCH  18  19
ENDBRANCH  17  18
ENDBRANCH  15  17
ENDBRANCH   9  15
ENDBRANCH   3   6
ENDBRANCH   1   2
BRANCH   1  32
ATOM     32  C   UNL     1       2.521  -4.514   1.609  1.00  0.00     0.023 C 
BRANCH  32  33
ATOM     33  C   UNL     1       3.879  -5.057   1.149  1.00  0.00     0.023 C 
BRANCH  33  34
ATOM     34  C   UNL     1       4.771  -5.592   2.264  1.00  0.00     0.116 C 
BRANCH  34  35
ATOM     35  N   UNL     1       4.180  -6.721   2.966  1.00  0.00    -0.352 N 
ATOM     36  C   UNL     1       4.739  -7.934   3.286  1.00  0.00     0.251 C 
ATOM     37  H   UNL     1       3.246  -6.598   3.252  1.00  0.00     0.163 HD
ATOM     38  O   UNL     1       4.040  -8.830   3.750  1.00  0.00    -0.269 OA
BRANCH  36  39
ATOM     39  C   UNL     1       6.177  -8.174   3.039  1.00  0.00     0.039 A 
ATOM     40  C   UNL     1       6.567  -9.378   2.448  1.00  0.00     0.014 A 
ATOM     41  C   UNL     1       7.137  -7.217   3.380  1.00  0.00     0.014 A 
ATOM     42  C   UNL     1       7.912  -9.593   2.135  1.00  0.00     0.010 A 
ATOM     43  C   UNL     1       8.463  -7.399   2.996  1.00  0.00     0.010 A 
ATOM     44  C   UNL     1       8.865  -8.589   2.370  1.00  0.00    -0.014 A 
BRANCH  44  45
ATOM     45  C   UNL     1      10.282  -8.762   1.957  1.00  0.00     0.031 A 
ATOM     46  C   UNL     1      11.379  -8.775   2.987  1.00  0.00     0.074 A 
ATOM     47  C   UNL     1      10.590  -8.849   0.648  1.00  0.00     0.049 A 
ATOM     48  N   UNL     1      12.673  -8.869   2.814  1.00  0.00    -0.248 NA
ATOM     49  C   UNL     1      10.970  -8.642   4.395  1.00  0.00     0.031 C 
ATOM     50  C   UNL     1       9.627  -8.816  -0.454  1.00  0.00     0.029 A 
ATOM     51  N   UNL     1      11.805  -8.981   0.022  1.00  0.00    -0.354 N 
ATOM     52  C   UNL     1      13.231  -8.791   4.084  1.00  0.00     0.074 A 
ATOM     53  C   UNL     1      12.141  -8.589   5.012  1.00  0.00     0.031 C 
ATOM     54  C   UNL     1      10.283  -8.957  -1.617  1.00  0.00     0.029 A 
ATOM     55  C   UNL     1      11.715  -9.042  -1.348  1.00  0.00     0.049 A 
ATOM     56  H   UNL     1      12.659  -9.027   0.508  1.00  0.00     0.167 HD
ATOM     57  C   UNL     1      14.532  -8.896   4.448  1.00  0.00     0.031 A 
ATOM     58  C   UNL     1      12.677  -9.145  -2.285  1.00  0.00     0.031 A 
ATOM     59  C   UNL     1      15.617  -9.097   3.525  1.00  0.00     0.049 A 
ATOM     60  C   UNL     1      14.116  -9.223  -1.856  1.00  0.00     0.074 A 
ATOM     61  C   UNL     1      16.963  -9.269   3.803  1.00  0.00     0.029 A 
ATOM     62  N   UNL     1      15.485  -9.141   2.146  1.00  0.00    -0.354 N 
ATOM     63  N   UNL     1      14.620  -9.222  -0.646  1.00  0.00    -0.248 NA
ATOM     64  C   UNL     1      15.118  -9.328  -2.926  1.00  0.00     0.031 C 
ATOM     65  C   UNL     1      17.652  -9.352   2.589  1.00  0.00     0.029 A 
ATOM     66  C   UNL     1      16.728  -9.304   1.557  1.00  0.00     0.049 A 
ATOM     67  H   UNL     1      14.633  -9.068   1.657  1.00  0.00     0.167 HD
ATOM     68  C   UNL     1      15.993  -9.357  -0.808  1.00  0.00     0.074 A 
ATOM     69  C   UNL     1      16.240  -9.455  -2.232  1.00  0.00     0.031 C 
ATOM     70  C   UNL     1      16.962  -9.397   0.139  1.00  0.00     0.031 A 
BRANCH  57  71
ATOM     71  C   UNL     1      14.853  -8.779   5.914  1.00  0.00    -0.014 A 
ATOM     72  C   UNL     1      14.462  -9.770   6.830  1.00  0.00     0.009 A 
ATOM     73  C   UNL     1      15.588  -7.678   6.381  1.00  0.00     0.009 A 
ATOM     74  C   UNL     1      14.765  -9.640   8.187  1.00  0.00     0.001 A 
ATOM     75  C   UNL     1      15.918  -7.567   7.733  1.00  0.00     0.001 A 
ATOM     76  C   UNL     1      15.497  -8.542   8.636  1.00  0.00     0.000 A 
ENDBRANCH  57  71
BRANCH  58  77
ATOM     77  C   UNL     1      12.312  -9.190  -3.727  1.00  0.00    -0.014 A 
ATOM     78  C   UNL     1      12.497 -10.364  -4.472  1.00  0.00     0.009 A 
ATOM     79  C   UNL     1      11.789  -8.056  -4.368  1.00  0.00     0.009 A 
ATOM     80  C   UNL     1      12.194 -10.394  -5.836  1.00  0.00     0.001 A 
ATOM     81  C   UNL     1      11.455  -8.098  -5.723  1.00  0.00     0.001 A 
ATOM     82  C   UNL     1      11.668  -9.263  -6.458  1.00  0.00     0.000 A 
ENDBRANCH  58  77
BRANCH  70  83
ATOM     83  C   UNL     1      18.378  -9.593  -0.331  1.00  0.00    -0.014 A 
ATOM     84  C   UNL     1      19.070  -8.584  -1.019  1.00  0.00     0.009 A 
ATOM     85  C   UNL     1      19.043 -10.796  -0.042  1.00  0.00     0.009 A 
ATOM     86  C   UNL     1      20.385  -8.791  -1.442  1.00  0.00     0.001 A 
ATOM     87  C   UNL     1      20.369 -10.987  -0.435  1.00  0.00     0.001 A 
ATOM     88  C   UNL     1      21.035  -9.989  -1.144  1.00  0.00     0.000 A 
ENDBRANCH  70  83
ENDBRANCH  44  45
ENDBRANCH  36  39
ENDBRANCH  34  35
ENDBRANCH  33  34
ENDBRANCH  32  33
ENDBRANCH   1  32
TORSDOF 16
