REMARK SMILES Cc1c(NC(=O)c2cccc(-c3cc4ccccc4oc3=O)c2)cccc1C(=O)NCCCCNC(=O)c1ccc(-c2c3nc(c(-c4ccccc4)c4ccc([nH]4)c(-c4ccccc4)c4nc(c(-c5ccccc5)c5ccc2[nH]5)C=C4)C=C3)cc1
REMARK SMILES IDX 32 1 31 2 30 3 28 4 29 5 27 7 1 8 2 9 3 10 24 11 26 12 25 13
REMARK SMILES IDX 4 14 5 15 6 17 7 18 8 19 23 20 9 21 11 22 10 23 12 24 13 25
REMARK SMILES IDX 21 26 14 27 20 28 22 29 15 30 19 31 16 32 18 33 17 34 33 35
REMARK SMILES IDX 34 36 35 37 36 38 37 40 38 41 39 42 85 43 40 44 84 45 41 46
REMARK SMILES IDX 42 47 43 48 78 49 44 50 83 51 77 52 79 53 45 54 82 55 76 56
REMARK SMILES IDX 75 57 46 59 68 60 53 61 67 62 54 63 57 64 66 65 80 66 55 67
REMARK SMILES IDX 56 68 65 70 81 71 58 72 47 73 48 74 52 75 49 76 51 77 50 78
REMARK SMILES IDX 69 79 70 80 74 81 71 82 73 83 72 84 59 85 60 86 64 87 61 88
REMARK SMILES IDX 63 89 62 90
REMARK H PARENT 30 6 4 16 35 39 79 58 57 69
REMARK Flexibility Score: inf
ROOT
ATOM      1  C   UNL     1       4.147   1.369  -0.954  1.00  0.00     0.023 C 
ENDROOT
BRANCH   1   2
ATOM      2  C   UNL     1       3.624   1.858   0.411  1.00  0.00     0.116 C 
BRANCH   2   3
ATOM      3  N   UNL     1       2.329   2.501   0.291  1.00  0.00    -0.352 N 
ATOM      4  C   UNL     1       1.002   2.188   0.394  1.00  0.00     0.251 C 
ATOM      5  O   UNL     1       0.286   3.181   0.183  1.00  0.00    -0.269 OA
ATOM      6  H   UNL     1       2.439   3.453   0.069  1.00  0.00     0.163 HD
BRANCH   4   7
ATOM      7  C   UNL     1       0.289   0.878   0.690  1.00  0.00     0.044 A 
ATOM      8  C   UNL     1       2.138  -0.875   0.369  1.00  0.00     0.047 C 
ATOM      9  C   UNL     1       0.732  -0.469   0.676  1.00  0.00    -0.015 A 
ATOM     10  C   UNL     1      -0.210  -1.528   0.876  1.00  0.00     0.045 A 
ATOM     11  C   UNL     1      -1.564  -1.266   1.081  1.00  0.00     0.026 A 
ATOM     12  C   UNL     1      -1.101   1.082   0.914  1.00  0.00     0.014 A 
ATOM     13  C   UNL     1      -2.011   0.041   1.096  1.00  0.00     0.003 A 
BRANCH  10  14
ATOM     14  N   UNL     1       0.250  -2.859   0.897  1.00  0.00    -0.322 N 
ATOM     15  C   UNL     1      -0.311  -4.041   0.473  1.00  0.00     0.255 C 
ATOM     16  H   UNL     1       1.146  -2.964   1.291  1.00  0.00     0.170 HD
ATOM     17  O   UNL     1       0.206  -5.095   0.848  1.00  0.00    -0.269 OA
BRANCH  15  18
ATOM     18  C   UNL     1      -1.421  -4.106  -0.520  1.00  0.00     0.040 A 
ATOM     19  C   UNL     1      -2.188  -5.277  -0.564  1.00  0.00     0.014 A 
ATOM     20  C   UNL     1      -1.630  -3.122  -1.495  1.00  0.00     0.022 A 
ATOM     21  C   UNL     1      -3.175  -5.439  -1.535  1.00  0.00     0.001 A 
ATOM     22  C   UNL     1      -2.628  -3.265  -2.474  1.00  0.00    -0.010 A 
ATOM     23  C   UNL     1      -3.399  -4.435  -2.478  1.00  0.00     0.009 A 
BRANCH  22  24
ATOM     24  C   UNL     1      -2.826  -2.301  -3.590  1.00  0.00     0.068 A 
ATOM     25  C   UNL     1      -2.682  -0.964  -3.449  1.00  0.00     0.028 A 
ATOM     26  C   UNL     1      -2.232  -2.751  -4.891  1.00  0.00     0.344 A 
ATOM     27  C   UNL     1      -1.269  -0.535  -3.536  1.00  0.00     0.018 A 
ATOM     28  O   UNL     1      -0.880  -2.424  -5.024  1.00  0.00    -0.422 OA
ATOM     29  O   UNL     1      -2.849  -3.424  -5.706  1.00  0.00    -0.246 OA
ATOM     30  C   UNL     1      -0.790   0.603  -2.894  1.00  0.00     0.012 A 
ATOM     31  C   UNL     1      -0.384  -1.349  -4.256  1.00  0.00     0.138 A 
ATOM     32  C   UNL     1       0.578   0.880  -2.935  1.00  0.00     0.001 A 
ATOM     33  C   UNL     1       0.982  -1.108  -4.263  1.00  0.00     0.048 A 
ATOM     34  C   UNL     1       1.462   0.013  -3.589  1.00  0.00     0.004 A 
ENDBRANCH  22  24
ENDBRANCH  15  18
ENDBRANCH  10  14
ENDBRANCH   4   7
ENDBRANCH   2   3
ENDBRANCH   1   2
BRANCH   1  35
ATOM     35  C   UNL     1       4.883   2.402  -1.805  1.00  0.00     0.023 C 
BRANCH  35  36
ATOM     36  C   UNL     1       6.289   2.686  -1.306  1.00  0.00     0.116 C 
BRANCH  36  37
ATOM     37  N   UNL     1       7.316   1.746  -1.749  1.00  0.00    -0.352 N 
ATOM     38  C   UNL     1       8.613   1.583  -1.285  1.00  0.00     0.251 C 
ATOM     39  H   UNL     1       7.050   1.143  -2.480  1.00  0.00     0.163 HD
ATOM     40  O   UNL     1       9.371   0.791  -1.842  1.00  0.00    -0.269 OA
BRANCH  38  41
ATOM     41  C   UNL     1       9.033   2.236  -0.017  1.00  0.00     0.039 A 
ATOM     42  C   UNL     1       9.670   1.432   0.935  1.00  0.00     0.014 A 
ATOM     43  C   UNL     1       8.511   3.468   0.353  1.00  0.00     0.014 A 
ATOM     44  C   UNL     1       9.472   1.701   2.285  1.00  0.00     0.010 A 
ATOM     45  C   UNL     1       8.181   3.652   1.680  1.00  0.00     0.010 A 
ATOM     46  C   UNL     1       8.583   2.714   2.634  1.00  0.00    -0.014 A 
BRANCH  46  47
ATOM     47  C   UNL     1       7.900   2.762   3.923  1.00  0.00     0.031 A 
ATOM     48  C   UNL     1       8.186   3.862   4.870  1.00  0.00     0.074 A 
ATOM     49  C   UNL     1       6.940   1.848   4.211  1.00  0.00     0.049 A 
ATOM     50  N   UNL     1       8.000   3.796   6.146  1.00  0.00    -0.248 NA
ATOM     51  C   UNL     1       8.774   5.130   4.447  1.00  0.00     0.031 C 
ATOM     52  C   UNL     1       5.994   1.893   5.326  1.00  0.00     0.029 A 
ATOM     53  N   UNL     1       6.742   0.570   3.673  1.00  0.00    -0.354 N 
ATOM     54  C   UNL     1       8.108   5.077   6.643  1.00  0.00     0.074 A 
ATOM     55  C   UNL     1       8.710   5.839   5.577  1.00  0.00     0.031 C 
ATOM     56  C   UNL     1       5.577   0.643   5.587  1.00  0.00     0.029 A 
ATOM     57  C   UNL     1       6.364  -0.248   4.752  1.00  0.00     0.049 A 
ATOM     58  H   UNL     1       6.847   0.300   2.732  1.00  0.00     0.167 HD
ATOM     59  C   UNL     1       7.521   5.385   7.835  1.00  0.00     0.031 A 
ATOM     60  C   UNL     1       7.112  -1.294   5.216  1.00  0.00     0.031 A 
ATOM     61  C   UNL     1       7.008   4.189   8.506  1.00  0.00     0.049 A 
ATOM     62  C   UNL     1       7.494  -1.157   6.681  1.00  0.00     0.074 A 
ATOM     63  C   UNL     1       5.735   3.667   8.670  1.00  0.00     0.029 A 
ATOM     64  N   UNL     1       7.895   3.183   8.876  1.00  0.00    -0.354 N 
ATOM     65  N   UNL     1       7.412  -0.039   7.348  1.00  0.00    -0.248 NA
ATOM     66  C   UNL     1       8.058  -2.238   7.488  1.00  0.00     0.031 C 
ATOM     67  C   UNL     1       5.866   2.305   9.051  1.00  0.00     0.029 A 
ATOM     68  C   UNL     1       7.215   2.013   9.153  1.00  0.00     0.049 A 
ATOM     69  H   UNL     1       8.872   3.290   8.933  1.00  0.00     0.167 HD
ATOM     70  C   UNL     1       7.891  -0.218   8.618  1.00  0.00     0.074 A 
ATOM     71  C   UNL     1       8.276  -1.617   8.662  1.00  0.00     0.031 C 
ATOM     72  C   UNL     1       7.947   0.807   9.517  1.00  0.00     0.031 A 
BRANCH  59  73
ATOM     73  C   UNL     1       7.140   6.796   8.245  1.00  0.00    -0.014 A 
ATOM     74  C   UNL     1       6.122   6.989   9.199  1.00  0.00     0.009 A 
ATOM     75  C   UNL     1       7.666   7.971   7.681  1.00  0.00     0.009 A 
ATOM     76  C   UNL     1       5.600   8.259   9.492  1.00  0.00     0.001 A 
ATOM     77  C   UNL     1       7.135   9.242   7.947  1.00  0.00     0.001 A 
ATOM     78  C   UNL     1       6.089   9.384   8.843  1.00  0.00     0.000 A 
ENDBRANCH  59  73
BRANCH  60  79
ATOM     79  C   UNL     1       7.964  -1.955   4.191  1.00  0.00    -0.014 A 
ATOM     80  C   UNL     1       7.333  -2.685   3.165  1.00  0.00     0.009 A 
ATOM     81  C   UNL     1       9.306  -1.585   4.023  1.00  0.00     0.009 A 
ATOM     82  C   UNL     1       7.989  -2.931   1.955  1.00  0.00     0.001 A 
ATOM     83  C   UNL     1       9.961  -1.841   2.811  1.00  0.00     0.001 A 
ATOM     84  C   UNL     1       9.291  -2.478   1.767  1.00  0.00     0.000 A 
ENDBRANCH  60  79
BRANCH  72  85
ATOM     85  C   UNL     1       8.646   0.777  10.853  1.00  0.00    -0.014 A 
ATOM     86  C   UNL     1       9.731  -0.055  11.157  1.00  0.00     0.009 A 
ATOM     87  C   UNL     1       8.295   1.742  11.825  1.00  0.00     0.009 A 
ATOM     88  C   UNL     1      10.403   0.044  12.384  1.00  0.00     0.001 A 
ATOM     89  C   UNL     1       8.989   1.874  13.030  1.00  0.00     0.001 A 
ATOM     90  C   UNL     1      10.039   1.015  13.314  1.00  0.00     0.000 A 
ENDBRANCH  72  85
ENDBRANCH  46  47
ENDBRANCH  38  41
ENDBRANCH  36  37
ENDBRANCH  35  36
ENDBRANCH   1  35
TORSDOF 14
