REMARK SMILES Nc1cc(F)c([C@H]([NH3+])C(=O)NCCCCNC(=O)c2ccc(-c3c4nc(c(-c5ccccc5)c5ccc([nH]5)c(-c5ccccc5)c5nc(c(-c6ccccc6)c6ccc3[nH]6)C=C5)C=C4)cc2)cc1F
REMARK SMILES IDX 13 1 12 2 11 3 9 4 10 5 7 7 6 8 2 9 3 10 68 11 4 12 67 13
REMARK SMILES IDX 69 14 5 15 1 16 8 19 14 23 15 24 16 25 17 26 18 28 19 29
REMARK SMILES IDX 20 30 66 31 21 32 65 33 22 34 23 35 24 36 59 37 25 38 64 39
REMARK SMILES IDX 58 40 60 41 26 42 63 43 57 44 56 45 27 47 49 48 34 49 48 50
REMARK SMILES IDX 35 51 38 52 47 53 61 54 36 55 37 56 46 58 62 59 39 60 28 61
REMARK SMILES IDX 29 62 33 63 30 64 32 65 31 66 50 67 51 68 55 69 52 70 54 71
REMARK SMILES IDX 53 72 40 73 41 74 45 75 42 76 44 77 43 78
REMARK H PARENT 11 6 1 17 1 18 8 20 8 21 8 22 16 27 60 46 38 57
REMARK Flexibility Score: inf
ROOT
ATOM      1  C   UNL     1       0.856   2.673  -4.444  1.00  0.00     0.023 C 
ENDROOT
BRANCH   1   2
ATOM      2  C   UNL     1       0.581   4.106  -3.997  1.00  0.00     0.116 C 
BRANCH   2   3
ATOM      3  N   UNL     1      -0.817   4.463  -4.144  1.00  0.00    -0.351 N 
ATOM      4  C   UNL     1      -1.712   4.858  -3.190  1.00  0.00     0.283 C 
ATOM      5  O   UNL     1      -2.886   5.019  -3.538  1.00  0.00    -0.268 OA
ATOM      6  H   UNL     1      -1.171   4.413  -5.061  1.00  0.00     0.163 HD
BRANCH   4   7
ATOM      7  C   UNL     1      -1.291   5.027  -1.704  1.00  0.00     0.305 C 
BRANCH   7   8
ATOM      8  C   UNL     1      -0.182   6.043  -1.482  1.00  0.00     0.058 A 
ATOM      9  C   UNL     1       1.852   8.003  -1.127  1.00  0.00     0.071 A 
ATOM     10  C   UNL     1       0.787   8.235  -1.993  1.00  0.00     0.068 A 
ATOM     11  C   UNL     1       1.894   6.776  -0.454  1.00  0.00     0.146 A 
ATOM     12  C   UNL     1      -0.219   7.278  -2.146  1.00  0.00     0.135 A 
ATOM     13  C   UNL     1       0.894   5.814  -0.611  1.00  0.00     0.055 A 
ATOM     14  F   UNL     1       2.921   6.508   0.368  1.00  0.00    -0.205 F 
ATOM     15  F   UNL     1      -1.235   7.564  -2.972  1.00  0.00    -0.206 F 
BRANCH   9  16
ATOM     16  N   UNL     1       2.895   8.914  -1.027  1.00  0.00    -0.396 N 
ATOM     17  H   UNL     1       2.846   9.773  -1.507  1.00  0.00     0.156 HD
ATOM     18  H   UNL     1       3.683   8.702  -0.475  1.00  0.00     0.156 HD
ENDBRANCH   9  16
ENDBRANCH   7   8
BRANCH   7  19
ATOM     19  N   UNL     1      -1.003   3.682  -1.147  1.00  0.00    -0.343 N 
ATOM     20  H   UNL     1      -0.227   3.261  -1.658  1.00  0.00     0.345 HD
ATOM     21  H   UNL     1      -1.830   3.092  -1.238  1.00  0.00     0.345 HD
ATOM     22  H   UNL     1      -0.754   3.768  -0.162  1.00  0.00     0.345 HD
ENDBRANCH   7  19
ENDBRANCH   4   7
ENDBRANCH   2   3
ENDBRANCH   1   2
BRANCH   1  23
ATOM     23  C   UNL     1       0.558   2.384  -5.915  1.00  0.00     0.023 C 
BRANCH  23  24
ATOM     24  C   UNL     1       1.238   3.312  -6.914  1.00  0.00     0.116 C 
BRANCH  24  25
ATOM     25  N   UNL     1       2.692   3.267  -6.854  1.00  0.00    -0.352 N 
ATOM     26  C   UNL     1       3.595   3.187  -7.890  1.00  0.00     0.251 C 
ATOM     27  H   UNL     1       3.082   3.298  -5.951  1.00  0.00     0.163 HD
ATOM     28  O   UNL     1       4.795   3.061  -7.667  1.00  0.00    -0.269 OA
BRANCH  26  29
ATOM     29  C   UNL     1       3.098   3.204  -9.282  1.00  0.00     0.039 A 
ATOM     30  C   UNL     1       2.172   4.165  -9.691  1.00  0.00     0.014 A 
ATOM     31  C   UNL     1       3.511   2.200 -10.162  1.00  0.00     0.014 A 
ATOM     32  C   UNL     1       1.523   4.013 -10.911  1.00  0.00     0.010 A 
ATOM     33  C   UNL     1       2.917   2.100 -11.423  1.00  0.00     0.010 A 
ATOM     34  C   UNL     1       1.876   2.970 -11.783  1.00  0.00    -0.014 A 
BRANCH  34  35
ATOM     35  C   UNL     1       1.128   2.798 -13.054  1.00  0.00     0.031 A 
ATOM     36  C   UNL     1       0.272   1.582 -13.289  1.00  0.00     0.074 A 
ATOM     37  C   UNL     1       1.173   3.775 -13.980  1.00  0.00     0.049 A 
ATOM     38  N   UNL     1      -0.478   1.293 -14.323  1.00  0.00    -0.248 NA
ATOM     39  C   UNL     1       0.255   0.555 -12.234  1.00  0.00     0.031 C 
ATOM     40  C   UNL     1       1.951   5.009 -13.862  1.00  0.00     0.029 A 
ATOM     41  N   UNL     1       0.528   3.899 -15.185  1.00  0.00    -0.354 N 
ATOM     42  C   UNL     1      -1.033   0.047 -14.056  1.00  0.00     0.074 A 
ATOM     43  C   UNL     1      -0.520  -0.377 -12.772  1.00  0.00     0.031 C 
ATOM     44  C   UNL     1       1.693   5.791 -14.921  1.00  0.00     0.029 A 
ATOM     45  C   UNL     1       0.783   5.089 -15.820  1.00  0.00     0.049 A 
ATOM     46  H   UNL     1      -0.059   3.202 -15.557  1.00  0.00     0.167 HD
ATOM     47  C   UNL     1      -1.897  -0.673 -14.809  1.00  0.00     0.031 A 
ATOM     48  C   UNL     1       0.344   5.566 -17.000  1.00  0.00     0.031 A 
ATOM     49  C   UNL     1      -2.428  -0.240 -16.074  1.00  0.00     0.049 A 
ATOM     50  C   UNL     1      -0.590   4.736 -17.830  1.00  0.00     0.074 A 
ATOM     51  C   UNL     1      -3.345  -0.886 -16.885  1.00  0.00     0.029 A 
ATOM     52  N   UNL     1      -2.092   0.943 -16.712  1.00  0.00    -0.354 N 
ATOM     53  N   UNL     1      -1.115   3.568 -17.554  1.00  0.00    -0.248 NA
ATOM     54  C   UNL     1      -0.987   5.285 -19.134  1.00  0.00     0.031 C 
ATOM     55  C   UNL     1      -3.522  -0.121 -18.040  1.00  0.00     0.029 A 
ATOM     56  C   UNL     1      -2.759   1.030 -17.922  1.00  0.00     0.049 A 
ATOM     57  H   UNL     1      -1.471   1.621 -16.358  1.00  0.00     0.167 HD
ATOM     58  C   UNL     1      -1.907   3.241 -18.646  1.00  0.00     0.074 A 
ATOM     59  C   UNL     1      -1.810   4.344 -19.580  1.00  0.00     0.031 C 
ATOM     60  C   UNL     1      -2.644   2.124 -18.851  1.00  0.00     0.031 A 
BRANCH  47  61
ATOM     61  C   UNL     1      -2.321  -2.024 -14.303  1.00  0.00    -0.014 A 
ATOM     62  C   UNL     1      -1.871  -3.181 -14.959  1.00  0.00     0.009 A 
ATOM     63  C   UNL     1      -3.232  -2.154 -13.244  1.00  0.00     0.009 A 
ATOM     64  C   UNL     1      -2.330  -4.441 -14.571  1.00  0.00     0.001 A 
ATOM     65  C   UNL     1      -3.671  -3.417 -12.842  1.00  0.00     0.001 A 
ATOM     66  C   UNL     1      -3.227  -4.558 -13.511  1.00  0.00     0.000 A 
ENDBRANCH  47  61
BRANCH  48  67
ATOM     67  C   UNL     1       0.794   6.909 -17.445  1.00  0.00    -0.014 A 
ATOM     68  C   UNL     1       2.130   7.120 -17.827  1.00  0.00     0.009 A 
ATOM     69  C   UNL     1      -0.085   8.001 -17.415  1.00  0.00     0.009 A 
ATOM     70  C   UNL     1       2.584   8.402 -18.137  1.00  0.00     0.001 A 
ATOM     71  C   UNL     1       0.367   9.279 -17.753  1.00  0.00     0.001 A 
ATOM     72  C   UNL     1       1.702   9.480 -18.102  1.00  0.00     0.000 A 
ENDBRANCH  48  67
BRANCH  60  73
ATOM     73  C   UNL     1      -3.411   2.019 -20.138  1.00  0.00    -0.014 A 
ATOM     74  C   UNL     1      -4.812   2.115 -20.127  1.00  0.00     0.009 A 
ATOM     75  C   UNL     1      -2.757   1.724 -21.343  1.00  0.00     0.009 A 
ATOM     76  C   UNL     1      -5.544   1.901 -21.295  1.00  0.00     0.001 A 
ATOM     77  C   UNL     1      -3.491   1.535 -22.515  1.00  0.00     0.001 A 
ATOM     78  C   UNL     1      -4.883   1.614 -22.489  1.00  0.00     0.000 A 
ENDBRANCH  60  73
ENDBRANCH  34  35
ENDBRANCH  26  29
ENDBRANCH  24  25
ENDBRANCH  23  24
ENDBRANCH   1  23
TORSDOF 14
