REMARK SMILES CC(C)C[C@H](CNC(=O)c1ccc(O)cc1O)C(=O)NCCCCNC(=O)c1ccc(-c2c3nc(c(-c4ccccc4)c4ccc([nH]4)c(-c4ccccc4)c4nc(c(-c5ccccc5)c5ccc2[nH]5)C=C4)C=C3)cc1
REMARK SMILES IDX 21 1 20 2 18 3 19 4 5 6 4 7 2 8 1 9 3 10 6 11 7 12 8 13 9 15
REMARK SMILES IDX 10 16 11 17 16 18 12 19 15 20 13 21 17 22 14 24 22 26 23 27
REMARK SMILES IDX 24 28 25 29 26 30 27 32 28 33 29 34 75 35 30 36 74 37 31 38
REMARK SMILES IDX 32 39 33 40 68 41 34 42 73 43 67 44 69 45 35 46 72 47 66 48
REMARK SMILES IDX 65 49 36 51 58 52 43 53 57 54 44 55 47 56 56 57 70 58 45 59
REMARK SMILES IDX 46 60 55 62 71 63 48 64 37 65 38 66 42 67 39 68 41 69 40 70
REMARK SMILES IDX 59 71 60 72 64 73 61 74 63 75 62 76 49 77 50 78 54 79 51 80
REMARK SMILES IDX 53 81 52 82
REMARK H PARENT 20 5 7 14 17 23 14 25 25 31 69 50 47 61
REMARK Flexibility Score: inf
ROOT
ATOM      1  C   UNL     1      -3.445   3.455   0.000  1.00  0.00     0.116 C 
ENDROOT
BRANCH   1   2
ATOM      2  N   UNL     1      -3.820   2.076   0.241  1.00  0.00    -0.356 N 
ATOM      3  C   UNL     1      -3.104   1.020   0.700  1.00  0.00     0.224 C 
ATOM      4  O   UNL     1      -3.708  -0.054   0.797  1.00  0.00    -0.275 OA
ATOM      5  H   UNL     1      -4.760   1.870   0.036  1.00  0.00     0.163 HD
BRANCH   3   6
ATOM      6  C   UNL     1      -1.615   1.077   1.031  1.00  0.00     0.098 C 
BRANCH   6   7
ATOM      7  C   UNL     1      -1.076   2.148   2.004  1.00  0.00     0.018 C 
BRANCH   7   8
ATOM      8  C   UNL     1      -2.021   2.826   3.019  1.00  0.00    -0.017 C 
ATOM      9  C   UNL     1      -2.857   1.875   3.869  1.00  0.00     0.007 C 
ATOM     10  C   UNL     1      -1.199   3.743   3.935  1.00  0.00     0.007 C 
ENDBRANCH   7   8
ENDBRANCH   6   7
BRANCH   6  11
ATOM     11  C   UNL     1      -0.755   0.932  -0.252  1.00  0.00     0.129 C 
BRANCH  11  12
ATOM     12  N   UNL     1      -0.890   2.050  -1.177  1.00  0.00    -0.351 N 
ATOM     13  C   UNL     1      -0.064   3.132  -1.335  1.00  0.00     0.255 C 
ATOM     14  H   UNL     1      -1.678   2.024  -1.767  1.00  0.00     0.163 HD
ATOM     15  O   UNL     1      -0.524   4.244  -1.584  1.00  0.00    -0.269 OA
BRANCH  13  16
ATOM     16  C   UNL     1       1.395   2.975  -1.234  1.00  0.00     0.081 A 
ATOM     17  C   UNL     1       2.011   1.892  -1.873  1.00  0.00     0.021 A 
ATOM     18  C   UNL     1       2.175   3.970  -0.633  1.00  0.00     0.132 A 
ATOM     19  C   UNL     1       3.402   1.786  -1.878  1.00  0.00     0.047 A 
ATOM     20  C   UNL     1       3.562   3.851  -0.613  1.00  0.00     0.093 A 
ATOM     21  C   UNL     1       4.163   2.765  -1.243  1.00  0.00     0.119 A 
BRANCH  18  22
ATOM     22  O   UNL     1       1.636   5.093  -0.067  1.00  0.00    -0.507 OA
ATOM     23  H   UNL     1       0.706   5.213  -0.059  1.00  0.00     0.293 HD
ENDBRANCH  18  22
BRANCH  21  24
ATOM     24  O   UNL     1       5.525   2.702  -1.239  1.00  0.00    -0.508 OA
ATOM     25  H   UNL     1       5.962   1.984  -1.654  1.00  0.00     0.293 HD
ENDBRANCH  21  24
ENDBRANCH  13  16
ENDBRANCH  11  12
ENDBRANCH   6  11
ENDBRANCH   3   6
ENDBRANCH   1   2
BRANCH   1  26
ATOM     26  C   UNL     1      -3.791   3.883  -1.423  1.00  0.00     0.023 C 
BRANCH  26  27
ATOM     27  C   UNL     1      -5.263   4.217  -1.636  1.00  0.00     0.023 C 
BRANCH  27  28
ATOM     28  C   UNL     1      -5.809   5.300  -0.717  1.00  0.00     0.116 C 
BRANCH  28  29
ATOM     29  N   UNL     1      -5.026   6.529  -0.734  1.00  0.00    -0.352 N 
ATOM     30  C   UNL     1      -5.487   7.824  -0.727  1.00  0.00     0.251 C 
ATOM     31  H   UNL     1      -4.048   6.419  -0.753  1.00  0.00     0.163 HD
ATOM     32  O   UNL     1      -4.722   8.776  -0.833  1.00  0.00    -0.269 OA
BRANCH  30  33
ATOM     33  C   UNL     1      -6.940   8.039  -0.634  1.00  0.00     0.039 A 
ATOM     34  C   UNL     1      -7.582   8.762  -1.640  1.00  0.00     0.014 A 
ATOM     35  C   UNL     1      -7.668   7.417   0.384  1.00  0.00     0.014 A 
ATOM     36  C   UNL     1      -8.975   8.797  -1.669  1.00  0.00     0.010 A 
ATOM     37  C   UNL     1      -9.053   7.383   0.304  1.00  0.00     0.010 A 
ATOM     38  C   UNL     1      -9.719   8.072  -0.723  1.00  0.00    -0.014 A 
BRANCH  38  39
ATOM     39  C   UNL     1     -11.198   8.021  -0.781  1.00  0.00     0.031 A 
ATOM     40  C   UNL     1     -12.007   8.592   0.349  1.00  0.00     0.074 A 
ATOM     41  C   UNL     1     -11.808   7.396  -1.807  1.00  0.00     0.049 A 
ATOM     42  N   UNL     1     -13.303   8.582   0.523  1.00  0.00    -0.248 NA
ATOM     43  C   UNL     1     -11.257   9.228   1.445  1.00  0.00     0.031 C 
ATOM     44  C   UNL     1     -11.132   6.756  -2.939  1.00  0.00     0.029 A 
ATOM     45  N   UNL     1     -13.141   7.192  -2.059  1.00  0.00    -0.354 N 
ATOM     46  C   UNL     1     -13.519   9.181   1.757  1.00  0.00     0.074 A 
ATOM     47  C   UNL     1     -12.222   9.496   2.311  1.00  0.00     0.031 C 
ATOM     48  C   UNL     1     -12.056   6.263  -3.780  1.00  0.00     0.029 A 
ATOM     49  C   UNL     1     -13.383   6.518  -3.231  1.00  0.00     0.049 A 
ATOM     50  H   UNL     1     -13.857   7.500  -1.457  1.00  0.00     0.167 HD
ATOM     51  C   UNL     1     -14.694   9.464   2.366  1.00  0.00     0.031 A 
ATOM     52  C   UNL     1     -14.547   6.149  -3.799  1.00  0.00     0.031 A 
ATOM     53  C   UNL     1     -15.983   9.180   1.801  1.00  0.00     0.049 A 
ATOM     54  C   UNL     1     -15.838   6.490  -3.111  1.00  0.00     0.074 A 
ATOM     55  C   UNL     1     -17.233   9.494   2.303  1.00  0.00     0.029 A 
ATOM     56  N   UNL     1     -16.186   8.516   0.601  1.00  0.00    -0.354 N 
ATOM     57  N   UNL     1     -16.029   7.122  -1.978  1.00  0.00    -0.248 NA
ATOM     58  C   UNL     1     -17.076   6.076  -3.786  1.00  0.00     0.031 C 
ATOM     59  C   UNL     1     -18.195   8.984   1.425  1.00  0.00     0.029 A 
ATOM     60  C   UNL     1     -17.542   8.393   0.355  1.00  0.00     0.049 A 
ATOM     61  H   UNL     1     -15.472   8.181   0.012  1.00  0.00     0.167 HD
ATOM     62  C   UNL     1     -17.405   7.207  -1.819  1.00  0.00     0.074 A 
ATOM     63  C   UNL     1     -18.002   6.572  -2.977  1.00  0.00     0.031 C 
ATOM     64  C   UNL     1     -18.114   7.761  -0.805  1.00  0.00     0.031 A 
BRANCH  51  65
ATOM     65  C   UNL     1     -14.627  10.117   3.717  1.00  0.00    -0.014 A 
ATOM     66  C   UNL     1     -14.201  11.447   3.863  1.00  0.00     0.009 A 
ATOM     67  C   UNL     1     -15.009   9.397   4.859  1.00  0.00     0.009 A 
ATOM     68  C   UNL     1     -14.119  12.029   5.129  1.00  0.00     0.001 A 
ATOM     69  C   UNL     1     -14.954   9.991   6.122  1.00  0.00     0.001 A 
ATOM     70  C   UNL     1     -14.499  11.302   6.256  1.00  0.00     0.000 A 
ENDBRANCH  51  65
BRANCH  52  71
ATOM     71  C   UNL     1     -14.549   5.442  -5.106  1.00  0.00    -0.014 A 
ATOM     72  C   UNL     1     -14.970   6.107  -6.268  1.00  0.00     0.009 A 
ATOM     73  C   UNL     1     -14.140   4.103  -5.200  1.00  0.00     0.009 A 
ATOM     74  C   UNL     1     -15.005   5.438  -7.493  1.00  0.00     0.001 A 
ATOM     75  C   UNL     1     -14.153   3.445  -6.431  1.00  0.00     0.001 A 
ATOM     76  C   UNL     1     -14.594   4.109  -7.575  1.00  0.00     0.000 A 
ENDBRANCH  52  71
BRANCH  64  77
ATOM     77  C   UNL     1     -19.610   7.736  -0.921  1.00  0.00    -0.014 A 
ATOM     78  C   UNL     1     -20.335   6.552  -0.723  1.00  0.00     0.009 A 
ATOM     79  C   UNL     1     -20.304   8.927  -1.189  1.00  0.00     0.009 A 
ATOM     80  C   UNL     1     -21.728   6.555  -0.819  1.00  0.00     0.001 A 
ATOM     81  C   UNL     1     -21.697   8.932  -1.258  1.00  0.00     0.001 A 
ATOM     82  C   UNL     1     -22.407   7.745  -1.081  1.00  0.00     0.000 A 
ENDBRANCH  64  77
ENDBRANCH  38  39
ENDBRANCH  30  33
ENDBRANCH  28  29
ENDBRANCH  27  28
ENDBRANCH  26  27
ENDBRANCH   1  26
TORSDOF 18
