REMARK SMILES O=C(NCCCCNC(=O)c1cc(Cl)c2c(c1)[C@H]1C=CC[C@H]1[C@H](c1ccc(S(=O)(=O)N3CCOCC3)cc1)N2)c1ccc(-c2c3nc(c(-c4ccccc4)c4ccc([nH]4)c(-c4ccccc4)c4nc(c(-c5ccccc5)c5ccc2[nH]5)C=C4)C=C3)cc1
REMARK SMILES IDX 6 1 5 2 4 3 3 4 1 5 2 6 40 8 41 9 87 10 42 11 86 12 43 13
REMARK SMILES IDX 44 14 45 15 80 16 46 17 85 18 79 19 81 20 47 21 84 22 78 23
REMARK SMILES IDX 77 24 48 26 70 27 55 28 69 29 56 30 59 31 68 32 82 33 57 34
REMARK SMILES IDX 58 35 67 37 83 38 60 39 49 40 50 41 54 42 51 43 53 44 52 45
REMARK SMILES IDX 71 46 72 47 76 48 73 49 75 50 74 51 61 52 62 53 66 54 63 55
REMARK SMILES IDX 65 56 64 57 7 58 8 59 9 60 10 62 11 63 12 64 17 65 13 66
REMARK SMILES IDX 16 67 14 68 15 69 18 70 39 71 19 72 22 73 23 74 20 76 21 77
REMARK SMILES IDX 24 78 25 79 38 80 26 81 37 82 27 83 28 84 29 85 30 86 31 87
REMARK SMILES IDX 32 88 36 89 33 90 35 91 34 92
REMARK H PARENT 3 7 81 25 59 36 8 61 39 75
REMARK Flexibility Score: inf
ROOT
ATOM      1  C   UNL     1       4.465  -1.488   3.476  1.00  0.00     0.023 C 
ENDROOT
BRANCH   1   2
ATOM      2  C   UNL     1       4.889  -0.391   2.504  1.00  0.00     0.023 C 
BRANCH   2   3
ATOM      3  C   UNL     1       4.490  -0.626   1.053  1.00  0.00     0.116 C 
BRANCH   3   4
ATOM      4  N   UNL     1       3.050  -0.707   0.866  1.00  0.00    -0.352 N 
ATOM      5  O   UNL     1       1.048  -0.114  -0.011  1.00  0.00    -0.269 OA
ATOM      6  C   UNL     1       2.271  -0.037  -0.048  1.00  0.00     0.251 C 
ATOM      7  H   UNL     1       2.572  -1.319   1.471  1.00  0.00     0.163 HD
BRANCH   6   8
ATOM      8  C   UNL     1       2.934   0.815  -1.053  1.00  0.00     0.039 A 
ATOM      9  C   UNL     1       3.948   0.291  -1.861  1.00  0.00     0.014 A 
ATOM     10  C   UNL     1       2.586   2.165  -1.127  1.00  0.00     0.014 A 
ATOM     11  C   UNL     1       4.707   1.150  -2.649  1.00  0.00     0.010 A 
ATOM     12  C   UNL     1       3.317   3.016  -1.958  1.00  0.00     0.010 A 
ATOM     13  C   UNL     1       4.408   2.521  -2.689  1.00  0.00    -0.014 A 
BRANCH  13  14
ATOM     14  C   UNL     1       5.255   3.437  -3.488  1.00  0.00     0.031 A 
ATOM     15  C   UNL     1       6.177   4.410  -2.807  1.00  0.00     0.074 A 
ATOM     16  C   UNL     1       5.222   3.363  -4.832  1.00  0.00     0.049 A 
ATOM     17  N   UNL     1       6.976   5.298  -3.344  1.00  0.00    -0.248 NA
ATOM     18  C   UNL     1       6.217   4.381  -1.335  1.00  0.00     0.031 C 
ATOM     19  C   UNL     1       4.402   2.429  -5.606  1.00  0.00     0.029 A 
ATOM     20  N   UNL     1       5.908   4.074  -5.782  1.00  0.00    -0.354 N 
ATOM     21  C   UNL     1       7.607   5.932  -2.282  1.00  0.00     0.074 A 
ATOM     22  C   UNL     1       7.087   5.346  -1.066  1.00  0.00     0.031 C 
ATOM     23  C   UNL     1       4.659   2.602  -6.912  1.00  0.00     0.029 A 
ATOM     24  C   UNL     1       5.619   3.690  -7.067  1.00  0.00     0.049 A 
ATOM     25  H   UNL     1       6.546   4.791  -5.563  1.00  0.00     0.167 HD
ATOM     26  C   UNL     1       8.545   6.907  -2.321  1.00  0.00     0.031 A 
ATOM     27  C   UNL     1       6.065   4.171  -8.243  1.00  0.00     0.031 A 
ATOM     28  C   UNL     1       9.068   7.486  -3.528  1.00  0.00     0.049 A 
ATOM     29  C   UNL     1       7.036   5.315  -8.252  1.00  0.00     0.074 A 
ATOM     30  C   UNL     1      10.025   8.479  -3.658  1.00  0.00     0.029 A 
ATOM     31  N   UNL     1       8.685   7.126  -4.809  1.00  0.00    -0.354 N 
ATOM     32  N   UNL     1       7.611   5.914  -7.238  1.00  0.00    -0.248 NA
ATOM     33  C   UNL     1       7.410   5.857  -9.566  1.00  0.00     0.031 C 
ATOM     34  C   UNL     1      10.192   8.748  -5.018  1.00  0.00     0.029 A 
ATOM     35  C   UNL     1       9.370   7.893  -5.735  1.00  0.00     0.049 A 
ATOM     36  H   UNL     1       8.025   6.429  -5.028  1.00  0.00     0.167 HD
ATOM     37  C   UNL     1       8.422   6.895  -7.792  1.00  0.00     0.074 A 
ATOM     38  C   UNL     1       8.278   6.802  -9.229  1.00  0.00     0.031 C 
ATOM     39  C   UNL     1       9.213   7.795  -7.160  1.00  0.00     0.031 A 
BRANCH  26  40
ATOM     40  C   UNL     1       9.083   7.428  -1.021  1.00  0.00    -0.014 A 
ATOM     41  C   UNL     1      10.073   6.721  -0.323  1.00  0.00     0.009 A 
ATOM     42  C   UNL     1       8.695   8.696  -0.563  1.00  0.00     0.009 A 
ATOM     43  C   UNL     1      10.669   7.279   0.810  1.00  0.00     0.001 A 
ATOM     44  C   UNL     1       9.303   9.257   0.561  1.00  0.00     0.001 A 
ATOM     45  C   UNL     1      10.290   8.550   1.245  1.00  0.00     0.000 A 
ENDBRANCH  26  40
BRANCH  27  46
ATOM     46  C   UNL     1       5.584   3.573  -9.512  1.00  0.00    -0.014 A 
ATOM     47  C   UNL     1       6.439   2.776 -10.287  1.00  0.00     0.009 A 
ATOM     48  C   UNL     1       4.266   3.782  -9.947  1.00  0.00     0.009 A 
ATOM     49  C   UNL     1       5.986   2.209 -11.480  1.00  0.00     0.001 A 
ATOM     50  C   UNL     1       3.809   3.195 -11.128  1.00  0.00     0.001 A 
ATOM     51  C   UNL     1       4.671   2.414 -11.896  1.00  0.00     0.000 A 
ENDBRANCH  27  46
BRANCH  39  52
ATOM     52  C   UNL     1       9.993   8.752  -8.011  1.00  0.00    -0.014 A 
ATOM     53  C   UNL     1       9.367   9.859  -8.603  1.00  0.00     0.009 A 
ATOM     54  C   UNL     1      11.381   8.595  -8.148  1.00  0.00     0.009 A 
ATOM     55  C   UNL     1      10.117  10.786  -9.328  1.00  0.00     0.001 A 
ATOM     56  C   UNL     1      12.131   9.535  -8.855  1.00  0.00     0.001 A 
ATOM     57  C   UNL     1      11.498  10.627  -9.447  1.00  0.00     0.000 A 
ENDBRANCH  39  52
ENDBRANCH  13  14
ENDBRANCH   6   8
ENDBRANCH   3   4
ENDBRANCH   2   3
ENDBRANCH   1   2
BRANCH   1  58
ATOM     58  C   UNL     1       4.848  -2.902   3.054  1.00  0.00     0.116 C 
BRANCH  58  59
ATOM     59  N   UNL     1       6.287  -3.073   2.906  1.00  0.00    -0.352 N 
ATOM     60  C   UNL     1       7.113  -3.948   3.567  1.00  0.00     0.251 C 
ATOM     61  H   UNL     1       6.723  -2.486   2.248  1.00  0.00     0.163 HD
ATOM     62  O   UNL     1       8.329  -3.905   3.434  1.00  0.00    -0.269 OA
BRANCH  60  63
ATOM     63  C   UNL     1       6.500  -4.917   4.486  1.00  0.00     0.041 A 
ATOM     64  C   UNL     1       5.556  -5.829   4.017  1.00  0.00     0.036 A 
ATOM     65  C   UNL     1       6.811  -4.837   5.840  1.00  0.00     0.020 A 
ATOM     66  C   UNL     1       4.827  -6.570   4.938  1.00  0.00     0.065 A 
ATOM     67  C   UNL     1       6.097  -5.612   6.765  1.00  0.00    -0.015 A 
ATOM     68  Cl  UNL     1       3.578  -7.608   4.340  1.00  0.00    -0.082 Cl
ATOM     69  C   UNL     1       5.051  -6.437   6.324  1.00  0.00     0.057 A 
ATOM     70  C   UNL     1       6.485  -5.557   8.214  1.00  0.00     0.049 C 
ATOM     71  N   UNL     1       4.297  -7.161   7.234  1.00  0.00    -0.376 N 
ATOM     72  C   UNL     1       6.148  -4.269   8.918  1.00  0.00    -0.023 C 
ATOM     73  C   UNL     1       5.801  -6.607   9.115  1.00  0.00     0.031 C 
ATOM     74  C   UNL     1       4.341  -6.852   8.652  1.00  0.00     0.114 C 
ATOM     75  H   UNL     1       3.723  -7.895   6.914  1.00  0.00     0.161 HD
ATOM     76  C   UNL     1       5.847  -4.495  10.202  1.00  0.00    -0.030 C 
ATOM     77  C   UNL     1       5.924  -5.957  10.510  1.00  0.00     0.034 C 
BRANCH  74  78
ATOM     78  C   UNL     1       3.681  -7.990   9.421  1.00  0.00    -0.025 A 
ATOM     79  C   UNL     1       3.661  -9.325   8.969  1.00  0.00     0.007 A 
ATOM     80  C   UNL     1       3.098  -7.702  10.655  1.00  0.00     0.007 A 
ATOM     81  C   UNL     1       3.106 -10.344   9.753  1.00  0.00     0.022 A 
ATOM     82  C   UNL     1       2.596  -8.721  11.451  1.00  0.00     0.022 A 
ATOM     83  C   UNL     1       2.596 -10.038  11.014  1.00  0.00     0.082 A 
BRANCH  83  84
ATOM     84  S   UNL     1       1.985 -11.347  12.052  1.00  0.00     0.243 S 
ATOM     85  O   UNL     1       0.667 -11.678  11.550  1.00  0.00    -0.207 OA
ATOM     86  O   UNL     1       3.041 -12.330  12.129  1.00  0.00    -0.207 OA
BRANCH  84  87
ATOM     87  N   UNL     1       1.807 -10.664  13.575  1.00  0.00    -0.193 NA
ATOM     88  C   UNL     1       0.567  -9.984  14.003  1.00  0.00     0.131 C 
ATOM     89  C   UNL     1       2.913 -10.624  14.548  1.00  0.00     0.131 C 
ATOM     90  C   UNL     1       0.855  -8.611  14.635  1.00  0.00     0.177 C 
ATOM     91  C   UNL     1       3.127  -9.194  15.048  1.00  0.00     0.177 C 
ATOM     92  O   UNL     1       1.920  -8.643  15.594  1.00  0.00    -0.379 OA
ENDBRANCH  84  87
ENDBRANCH  83  84
ENDBRANCH  74  78
ENDBRANCH  60  63
ENDBRANCH  58  59
ENDBRANCH   1  58
TORSDOF 14
