REMARK SMILES CC[C@@H]1SC[C@@H](C(=O)NCCCCNC(=O)c2ccc(-c3c4nc(c(-c5ccccc5)c5ccc([nH]5)c(-c5ccccc5)c5nc(c(-c6ccccc6)c6ccc3[nH]6)C=C5)C=C4)cc2)N1C(=O)NC1C(C)(C)C1(C)C
REMARK SMILES IDX 11 1 10 2 9 3 7 4 8 5 6 7 3 8 4 9 65 10 5 11 2 12 1 13 66 14
REMARK SMILES IDX 67 15 68 16 69 18 70 19 73 20 71 21 72 22 74 23 75 24 12 25
REMARK SMILES IDX 13 26 14 27 15 28 16 30 17 31 18 32 64 33 19 34 63 35 20 36
REMARK SMILES IDX 21 37 22 38 57 39 23 40 62 41 56 42 58 43 24 44 61 45 55 46
REMARK SMILES IDX 54 47 25 49 47 50 32 51 46 52 33 53 36 54 45 55 59 56 34 57
REMARK SMILES IDX 35 58 44 60 60 61 37 62 26 63 27 64 31 65 28 66 30 67 29 68
REMARK SMILES IDX 48 69 49 70 53 71 50 72 52 73 51 74 38 75 39 76 43 77 40 78
REMARK SMILES IDX 42 79 41 80
REMARK H PARENT 9 6 68 17 14 29 58 48 36 59
REMARK Flexibility Score: inf
ROOT
ATOM      1  C   UNL     1      -0.893   1.873  -1.296  1.00  0.00     0.023 C 
ENDROOT
BRANCH   1   2
ATOM      2  C   UNL     1      -1.974   0.860  -1.671  1.00  0.00     0.116 C 
BRANCH   2   3
ATOM      3  N   UNL     1      -2.298   0.901  -3.080  1.00  0.00    -0.354 N 
ATOM      4  C   UNL     1      -1.855   0.162  -4.137  1.00  0.00     0.243 C 
ATOM      5  O   UNL     1      -2.556   0.234  -5.155  1.00  0.00    -0.273 OA
ATOM      6  H   UNL     1      -2.960   1.588  -3.320  1.00  0.00     0.163 HD
BRANCH   4   7
ATOM      7  C   UNL     1      -0.700  -0.880  -4.063  1.00  0.00     0.187 C 
ATOM      8  C   UNL     1       0.872  -0.970  -2.183  1.00  0.00     0.145 C 
ATOM      9  S   UNL     1      -0.011  -2.573  -2.120  1.00  0.00    -0.134 SA
ATOM     10  N   UNL     1       0.623  -0.432  -3.529  1.00  0.00    -0.300 N 
ATOM     11  C   UNL     1      -1.221  -2.129  -3.362  1.00  0.00     0.107 C 
BRANCH   8  12
ATOM     12  C   UNL     1       2.241  -1.179  -1.559  1.00  0.00     0.033 C 
ATOM     13  C   UNL     1       2.224  -1.655  -0.102  1.00  0.00     0.007 C 
ENDBRANCH   8  12
BRANCH  10  14
ATOM     14  C   UNL     1       1.266   0.415  -4.390  1.00  0.00     0.319 C 
ATOM     15  O   UNL     1       0.719   0.753  -5.452  1.00  0.00    -0.249 OA
ATOM     16  N   UNL     1       2.482   0.970  -4.256  1.00  0.00    -0.334 N 
ATOM     17  H   UNL     1       2.704   1.542  -5.026  1.00  0.00     0.165 HD
BRANCH  16  18
ATOM     18  C   UNL     1       3.527   0.953  -3.306  1.00  0.00     0.096 C 
ATOM     19  C   UNL     1       4.766   0.076  -3.529  1.00  0.00    -0.007 C 
ATOM     20  C   UNL     1       4.897   1.599  -3.495  1.00  0.00    -0.007 C 
ATOM     21  C   UNL     1       5.370  -0.717  -2.391  1.00  0.00     0.014 C 
ATOM     22  C   UNL     1       4.909  -0.660  -4.850  1.00  0.00     0.014 C 
ATOM     23  C   UNL     1       5.280   2.344  -4.749  1.00  0.00     0.014 C 
ATOM     24  C   UNL     1       5.497   2.247  -2.253  1.00  0.00     0.014 C 
ENDBRANCH  16  18
ENDBRANCH  10  14
ENDBRANCH   4   7
ENDBRANCH   2   3
ENDBRANCH   1   2
BRANCH   1  25
ATOM     25  C   UNL     1      -1.428   3.245  -0.889  1.00  0.00     0.023 C 
BRANCH  25  26
ATOM     26  C   UNL     1      -2.218   3.251   0.416  1.00  0.00     0.116 C 
BRANCH  26  27
ATOM     27  N   UNL     1      -1.450   2.815   1.575  1.00  0.00    -0.352 N 
ATOM     28  C   UNL     1      -1.637   3.167   2.892  1.00  0.00     0.251 C 
ATOM     29  H   UNL     1      -0.709   2.192   1.394  1.00  0.00     0.163 HD
ATOM     30  O   UNL     1      -0.861   2.786   3.761  1.00  0.00    -0.269 OA
BRANCH  28  31
ATOM     31  C   UNL     1      -2.760   4.062   3.233  1.00  0.00     0.039 A 
ATOM     32  C   UNL     1      -2.496   5.235   3.943  1.00  0.00     0.014 A 
ATOM     33  C   UNL     1      -4.051   3.779   2.781  1.00  0.00     0.014 A 
ATOM     34  C   UNL     1      -3.517   6.167   4.131  1.00  0.00     0.010 A 
ATOM     35  C   UNL     1      -5.046   4.741   2.904  1.00  0.00     0.010 A 
ATOM     36  C   UNL     1      -4.787   5.946   3.576  1.00  0.00    -0.014 A 
BRANCH  36  37
ATOM     37  C   UNL     1      -5.857   6.968   3.671  1.00  0.00     0.031 A 
ATOM     38  C   UNL     1      -7.120   6.669   4.427  1.00  0.00     0.074 A 
ATOM     39  C   UNL     1      -5.729   8.129   3.002  1.00  0.00     0.049 A 
ATOM     40  N   UNL     1      -8.190   7.410   4.572  1.00  0.00    -0.248 NA
ATOM     41  C   UNL     1      -7.207   5.352   5.077  1.00  0.00     0.031 C 
ATOM     42  C   UNL     1      -4.582   8.511   2.175  1.00  0.00     0.029 A 
ATOM     43  N   UNL     1      -6.583   9.198   2.898  1.00  0.00    -0.354 N 
ATOM     44  C   UNL     1      -9.084   6.639   5.303  1.00  0.00     0.074 A 
ATOM     45  C   UNL     1      -8.451   5.358   5.532  1.00  0.00     0.031 C 
ATOM     46  C   UNL     1      -4.795   9.735   1.667  1.00  0.00     0.029 A 
ATOM     47  C   UNL     1      -6.104  10.210   2.104  1.00  0.00     0.049 A 
ATOM     48  H   UNL     1      -7.457   9.236   3.351  1.00  0.00     0.167 HD
ATOM     49  C   UNL     1     -10.314   6.972   5.758  1.00  0.00     0.031 A 
ATOM     50  C   UNL     1      -6.657  11.389   1.761  1.00  0.00     0.031 A 
ATOM     51  C   UNL     1     -10.934   8.252   5.548  1.00  0.00     0.049 A 
ATOM     52  C   UNL     1      -8.009  11.752   2.304  1.00  0.00     0.074 A 
ATOM     53  C   UNL     1     -12.137   8.720   6.045  1.00  0.00     0.029 A 
ATOM     54  N   UNL     1     -10.399   9.268   4.770  1.00  0.00    -0.354 N 
ATOM     55  N   UNL     1      -8.802  11.050   3.078  1.00  0.00    -0.248 NA
ATOM     56  C   UNL     1      -8.535  13.074   1.940  1.00  0.00     0.031 C 
ATOM     57  C   UNL     1     -12.354  10.002   5.527  1.00  0.00     0.029 A 
ATOM     58  C   UNL     1     -11.261  10.351   4.750  1.00  0.00     0.049 A 
ATOM     59  H   UNL     1      -9.534   9.225   4.302  1.00  0.00     0.167 HD
ATOM     60  C   UNL     1      -9.912  11.852   3.309  1.00  0.00     0.074 A 
ATOM     61  C   UNL     1      -9.681  13.099   2.608  1.00  0.00     0.031 C 
ATOM     62  C   UNL     1     -11.021  11.580   4.039  1.00  0.00     0.031 A 
BRANCH  49  63
ATOM     63  C   UNL     1     -11.072   5.921   6.519  1.00  0.00    -0.014 A 
ATOM     64  C   UNL     1     -10.666   5.510   7.800  1.00  0.00     0.009 A 
ATOM     65  C   UNL     1     -12.214   5.337   5.950  1.00  0.00     0.009 A 
ATOM     66  C   UNL     1     -11.360   4.503   8.473  1.00  0.00     0.001 A 
ATOM     67  C   UNL     1     -12.924   4.351   6.638  1.00  0.00     0.001 A 
ATOM     68  C   UNL     1     -12.489   3.926   7.893  1.00  0.00     0.000 A 
ENDBRANCH  49  63
BRANCH  50  69
ATOM     69  C   UNL     1      -5.913  12.320   0.875  1.00  0.00    -0.014 A 
ATOM     70  C   UNL     1      -5.322  13.480   1.397  1.00  0.00     0.009 A 
ATOM     71  C   UNL     1      -5.770  12.040  -0.493  1.00  0.00     0.009 A 
ATOM     72  C   UNL     1      -4.616  14.350   0.563  1.00  0.00     0.001 A 
ATOM     73  C   UNL     1      -5.043  12.899  -1.319  1.00  0.00     0.001 A 
ATOM     74  C   UNL     1      -4.472  14.056  -0.792  1.00  0.00     0.000 A 
ENDBRANCH  50  69
BRANCH  62  75
ATOM     75  C   UNL     1     -12.062  12.659   4.132  1.00  0.00    -0.014 A 
ATOM     76  C   UNL     1     -12.893  12.963   3.043  1.00  0.00     0.009 A 
ATOM     77  C   UNL     1     -12.244  13.347   5.342  1.00  0.00     0.009 A 
ATOM     78  C   UNL     1     -13.867  13.957   3.155  1.00  0.00     0.001 A 
ATOM     79  C   UNL     1     -13.236  14.321   5.459  1.00  0.00     0.001 A 
ATOM     80  C   UNL     1     -14.041  14.631   4.364  1.00  0.00     0.000 A 
ENDBRANCH  62  75
ENDBRANCH  36  37
ENDBRANCH  28  31
ENDBRANCH  26  27
ENDBRANCH  25  26
ENDBRANCH   1  25
TORSDOF 14
