REMARK SMILES Cc1n[nH]c(C(=O)N(C)CC(=O)NCCCCNC(=O)c2ccc(-c3c4nc(c(-c5ccccc5)c5ccc([nH]5)c(-c5ccccc5)c5nc(c(-c6ccccc6)c6ccc3[nH]6)C=C5)C=C4)cc2)n1
REMARK SMILES IDX 15 1 14 2 13 3 11 4 12 5 10 7 8 8 9 9 6 10 7 11 5 12 1 13
REMARK SMILES IDX 2 14 3 15 69 16 4 17 16 19 17 20 18 21 19 22 20 24 21 25
REMARK SMILES IDX 22 26 68 27 23 28 67 29 24 30 25 31 26 32 61 33 27 34 66 35
REMARK SMILES IDX 60 36 62 37 28 38 65 39 59 40 58 41 29 43 51 44 36 45 50 46
REMARK SMILES IDX 37 47 40 48 49 49 63 50 38 51 39 52 48 54 64 55 41 56 30 57
REMARK SMILES IDX 31 58 35 59 32 60 34 61 33 62 52 63 53 64 57 65 54 66 56 67
REMARK SMILES IDX 55 68 42 69 43 70 47 71 44 72 46 73 45 74
REMARK H PARENT 13 6 4 18 18 23 62 42 40 53
REMARK Flexibility Score: inf
ROOT
ATOM      1  C   UNL     1      -0.925  -5.624   3.514  1.00  0.00     0.023 C 
ENDROOT
BRANCH   1   2
ATOM      2  C   UNL     1      -1.973  -6.667   3.122  1.00  0.00     0.116 C 
BRANCH   2   3
ATOM      3  N   UNL     1      -3.291  -6.111   2.925  1.00  0.00    -0.355 N 
ATOM      4  C   UNL     1      -3.968  -5.883   1.760  1.00  0.00     0.239 C 
ATOM      5  O   UNL     1      -5.191  -5.733   1.845  1.00  0.00    -0.273 OA
ATOM      6  H   UNL     1      -3.770  -5.860   3.748  1.00  0.00     0.163 HD
BRANCH   4   7
ATOM      7  C   UNL     1      -3.279  -6.038   0.391  1.00  0.00     0.219 C 
BRANCH   7   8
ATOM      8  N   UNL     1      -1.984  -5.361   0.199  1.00  0.00    -0.330 N 
ATOM      9  C   UNL     1      -0.916  -6.163  -0.379  1.00  0.00     0.147 C 
BRANCH   8  10
ATOM     10  C   UNL     1      -2.027  -3.952   0.264  1.00  0.00     0.291 C 
ATOM     11  O   UNL     1      -3.120  -3.413   0.459  1.00  0.00    -0.265 OA
BRANCH  10  12
ATOM     12  C   UNL     1      -0.818  -3.147   0.158  1.00  0.00     0.214 A 
ATOM     13  C   UNL     1       0.868  -0.033  -0.013  1.00  0.00     0.092 C 
ATOM     14  C   UNL     1       0.464  -1.451   0.060  1.00  0.00     0.148 A 
ATOM     15  N   UNL     1       1.323  -2.460   0.236  1.00  0.00    -0.159 NA
ATOM     16  N   UNL     1      -0.846  -1.833  -0.004  1.00  0.00    -0.207 NA
ATOM     17  N   UNL     1       0.488  -3.509   0.318  1.00  0.00    -0.255 N 
ATOM     18  H   UNL     1       0.785  -4.434   0.476  1.00  0.00     0.192 HD
ENDBRANCH  10  12
ENDBRANCH   8  10
ENDBRANCH   7   8
ENDBRANCH   4   7
ENDBRANCH   2   3
ENDBRANCH   1   2
BRANCH   1  19
ATOM     19  C   UNL     1      -1.101  -4.966   4.890  1.00  0.00     0.023 C 
BRANCH  19  20
ATOM     20  C   UNL     1      -1.019  -5.913   6.079  1.00  0.00     0.116 C 
BRANCH  20  21
ATOM     21  N   UNL     1       0.282  -6.580   6.210  1.00  0.00    -0.352 N 
ATOM     22  C   UNL     1       0.639  -7.599   7.086  1.00  0.00     0.251 C 
ATOM     23  H   UNL     1       0.990  -6.267   5.602  1.00  0.00     0.163 HD
ATOM     24  O   UNL     1       1.802  -7.803   7.387  1.00  0.00    -0.269 OA
BRANCH  22  25
ATOM     25  C   UNL     1      -0.433  -8.457   7.621  1.00  0.00     0.039 A 
ATOM     26  C   UNL     1      -0.470  -8.906   8.944  1.00  0.00     0.014 A 
ATOM     27  C   UNL     1      -1.459  -8.765   6.738  1.00  0.00     0.014 A 
ATOM     28  C   UNL     1      -1.595  -9.612   9.375  1.00  0.00     0.010 A 
ATOM     29  C   UNL     1      -2.646  -9.222   7.223  1.00  0.00     0.010 A 
ATOM     30  C   UNL     1      -2.685  -9.753   8.501  1.00  0.00    -0.014 A 
BRANCH  30  31
ATOM     31  C   UNL     1      -3.939 -10.376   8.893  1.00  0.00     0.031 A 
ATOM     32  C   UNL     1      -4.596  -9.739  10.059  1.00  0.00     0.074 A 
ATOM     33  C   UNL     1      -4.577 -11.271   8.104  1.00  0.00     0.049 A 
ATOM     34  N   UNL     1      -4.730 -10.235  11.242  1.00  0.00    -0.248 NA
ATOM     35  C   UNL     1      -5.025  -8.335   9.946  1.00  0.00     0.031 C 
ATOM     36  C   UNL     1      -4.206 -11.742   6.759  1.00  0.00     0.029 A 
ATOM     37  N   UNL     1      -5.784 -11.861   8.290  1.00  0.00    -0.354 N 
ATOM     38  C   UNL     1      -5.460  -9.299  11.965  1.00  0.00     0.074 A 
ATOM     39  C   UNL     1      -5.431  -8.083  11.192  1.00  0.00     0.031 C 
ATOM     40  C   UNL     1      -5.273 -12.328   6.170  1.00  0.00     0.029 A 
ATOM     41  C   UNL     1      -6.335 -12.439   7.150  1.00  0.00     0.049 A 
ATOM     42  H   UNL     1      -6.236 -11.880   9.165  1.00  0.00     0.167 HD
ATOM     43  C   UNL     1      -6.266  -9.684  12.993  1.00  0.00     0.031 A 
ATOM     44  C   UNL     1      -7.585 -12.952   7.026  1.00  0.00     0.031 A 
ATOM     45  C   UNL     1      -5.999 -11.045  13.392  1.00  0.00     0.049 A 
ATOM     46  C   UNL     1      -8.077 -13.225   8.397  1.00  0.00     0.074 A 
ATOM     47  C   UNL     1      -4.887 -11.728  13.845  1.00  0.00     0.029 A 
ATOM     48  N   UNL     1      -6.869 -12.008  12.934  1.00  0.00    -0.354 N 
ATOM     49  N   UNL     1      -7.556 -14.133   9.171  1.00  0.00    -0.248 NA
ATOM     50  C   UNL     1      -8.817 -12.172   9.073  1.00  0.00     0.031 C 
ATOM     51  C   UNL     1      -4.939 -12.990  13.180  1.00  0.00     0.029 A 
ATOM     52  C   UNL     1      -6.118 -13.041  12.435  1.00  0.00     0.049 A 
ATOM     53  H   UNL     1      -7.852 -11.963  12.960  1.00  0.00     0.167 HD
ATOM     54  C   UNL     1      -7.499 -13.534  10.421  1.00  0.00     0.074 A 
ATOM     55  C   UNL     1      -8.377 -12.366  10.321  1.00  0.00     0.031 C 
ATOM     56  C   UNL     1      -6.524 -13.865  11.318  1.00  0.00     0.031 A 
BRANCH  43  57
ATOM     57  C   UNL     1      -7.576  -9.012  13.322  1.00  0.00    -0.014 A 
ATOM     58  C   UNL     1      -8.309  -9.482  14.428  1.00  0.00     0.009 A 
ATOM     59  C   UNL     1      -8.252  -8.154  12.435  1.00  0.00     0.009 A 
ATOM     60  C   UNL     1      -9.666  -9.179  14.583  1.00  0.00     0.001 A 
ATOM     61  C   UNL     1      -9.596  -7.815  12.610  1.00  0.00     0.001 A 
ATOM     62  C   UNL     1     -10.312  -8.354  13.668  1.00  0.00     0.000 A 
ENDBRANCH  43  57
BRANCH  44  63
ATOM     63  C   UNL     1      -8.494 -12.965   5.858  1.00  0.00    -0.014 A 
ATOM     64  C   UNL     1      -9.615 -13.811   5.831  1.00  0.00     0.009 A 
ATOM     65  C   UNL     1      -8.434 -11.931   4.906  1.00  0.00     0.009 A 
ATOM     66  C   UNL     1     -10.661 -13.598   4.921  1.00  0.00     0.001 A 
ATOM     67  C   UNL     1      -9.479 -11.718   3.998  1.00  0.00     0.001 A 
ATOM     68  C   UNL     1     -10.601 -12.541   4.018  1.00  0.00     0.000 A 
ENDBRANCH  44  63
BRANCH  56  69
ATOM     69  C   UNL     1      -5.641 -15.050  11.001  1.00  0.00    -0.014 A 
ATOM     70  C   UNL     1      -4.800 -15.114   9.875  1.00  0.00     0.009 A 
ATOM     71  C   UNL     1      -5.545 -16.071  11.957  1.00  0.00     0.009 A 
ATOM     72  C   UNL     1      -3.912 -16.183   9.701  1.00  0.00     0.001 A 
ATOM     73  C   UNL     1      -4.647 -17.127  11.794  1.00  0.00     0.001 A 
ATOM     74  C   UNL     1      -3.834 -17.187  10.664  1.00  0.00     0.000 A 
ENDBRANCH  56  69
ENDBRANCH  30  31
ENDBRANCH  22  25
ENDBRANCH  20  21
ENDBRANCH  19  20
ENDBRANCH   1  19
TORSDOF 14
