REMARK SMILES C[C@@H](C(=O)NCCCCNC(=O)c1ccc(-c2c3nc(c(-c4ccccc4)c4ccc([nH]4)c(-c4ccccc4)c4nc(c(-c5ccccc5)c5ccc2[nH]5)C=C4)C=C3)cc1)S(=O)(=O)N[C@@]12C[C@@H]3C[C@@](C)(C[C@@](C)(C3)C1)C2
REMARK SMILES IDX 7 1 6 2 5 3 3 4 4 5 2 7 1 8 61 9 62 10 63 11 64 12 65 14
REMARK SMILES IDX 66 15 75 16 76 17 67 18 72 19 69 20 74 21 68 22 71 23 73 24
REMARK SMILES IDX 70 25 8 26 9 27 10 28 11 29 12 31 13 32 14 33 60 34 15 35
REMARK SMILES IDX 59 36 16 37 17 38 18 39 53 40 19 41 58 42 52 43 54 44 20 45
REMARK SMILES IDX 57 46 51 47 50 48 21 50 43 51 28 52 42 53 29 54 32 55 41 56
REMARK SMILES IDX 55 57 30 58 31 59 40 61 56 62 33 63 22 64 23 65 27 66 24 67
REMARK SMILES IDX 26 68 25 69 44 70 45 71 49 72 46 73 48 74 47 75 34 76 35 77
REMARK SMILES IDX 39 78 36 79 38 80 37 81
REMARK H PARENT 5 6 64 13 10 30 54 49 32 60
REMARK Flexibility Score: inf
ROOT
ATOM      1  C   UNL     1       4.144   0.331   1.266  1.00  0.00     0.023 C 
ENDROOT
BRANCH   1   2
ATOM      2  C   UNL     1       3.458  -0.752   2.107  1.00  0.00     0.116 C 
BRANCH   2   3
ATOM      3  N   UNL     1       2.316  -0.185   2.796  1.00  0.00    -0.355 N 
ATOM      4  C   UNL     1       0.999  -0.107   2.432  1.00  0.00     0.239 C 
ATOM      5  O   UNL     1       0.318   0.683   3.089  1.00  0.00    -0.274 OA
ATOM      6  H   UNL     1       2.522   0.209   3.674  1.00  0.00     0.163 HD
BRANCH   4   7
ATOM      7  C   UNL     1       0.442  -0.994   1.333  1.00  0.00     0.209 C 
ATOM      8  C   UNL     1       1.095  -0.913  -0.043  1.00  0.00     0.037 C 
BRANCH   7   9
ATOM      9  S   UNL     1      -1.378  -0.825   1.241  1.00  0.00     0.223 S 
ATOM     10  O   UNL     1      -1.836  -1.567   0.085  1.00  0.00    -0.212 OA
ATOM     11  O   UNL     1      -1.922  -1.182   2.538  1.00  0.00    -0.212 OA
BRANCH   9  12
ATOM     12  N   UNL     1      -1.807   0.774   1.015  1.00  0.00    -0.208 NA
ATOM     13  H   UNL     1      -1.465   1.254   1.848  1.00  0.00     0.141 HD
BRANCH  12  14
ATOM     14  C   UNL     1      -1.440   1.662  -0.106  1.00  0.00     0.034 C 
ATOM     15  C   UNL     1      -2.527   2.755  -0.308  1.00  0.00     0.027 C 
ATOM     16  C   UNL     1      -0.152   2.426   0.263  1.00  0.00     0.030 C 
ATOM     17  C   UNL     1      -1.356   0.911  -1.443  1.00  0.00     0.030 C 
ATOM     18  C   UNL     1      -2.118   3.710  -1.462  1.00  0.00    -0.008 C 
ATOM     19  C   UNL     1       0.313   3.330  -0.892  1.00  0.00    -0.030 C 
ATOM     20  C   UNL     1      -0.872   1.824  -2.579  1.00  0.00    -0.030 C 
ATOM     21  C   UNL     1      -0.779   4.394  -1.128  1.00  0.00     0.010 C 
ATOM     22  C   UNL     1      -1.939   2.917  -2.772  1.00  0.00     0.010 C 
ATOM     23  C   UNL     1       0.468   2.482  -2.175  1.00  0.00     0.013 C 
ATOM     24  C   UNL     1       1.649   3.988  -0.529  1.00  0.00     0.011 C 
ATOM     25  C   UNL     1      -0.685   0.987  -3.849  1.00  0.00     0.011 C 
ENDBRANCH  12  14
ENDBRANCH   9  12
ENDBRANCH   7   9
ENDBRANCH   4   7
ENDBRANCH   2   3
ENDBRANCH   1   2
BRANCH   1  26
ATOM     26  C   UNL     1       4.962   1.327   2.100  1.00  0.00     0.023 C 
BRANCH  26  27
ATOM     27  C   UNL     1       6.083   0.696   2.917  1.00  0.00     0.116 C 
BRANCH  27  28
ATOM     28  N   UNL     1       7.035  -0.035   2.098  1.00  0.00    -0.352 N 
ATOM     29  C   UNL     1       8.378  -0.222   2.309  1.00  0.00     0.251 C 
ATOM     30  H   UNL     1       6.668  -0.451   1.284  1.00  0.00     0.163 HD
ATOM     31  O   UNL     1       9.072  -0.744   1.443  1.00  0.00    -0.269 OA
BRANCH  29  32
ATOM     32  C   UNL     1       8.988   0.241   3.571  1.00  0.00     0.039 A 
ATOM     33  C   UNL     1      10.198   0.935   3.517  1.00  0.00     0.014 A 
ATOM     34  C   UNL     1       8.371  -0.007   4.801  1.00  0.00     0.014 A 
ATOM     35  C   UNL     1      10.771   1.412   4.696  1.00  0.00     0.010 A 
ATOM     36  C   UNL     1       8.899   0.543   5.963  1.00  0.00     0.010 A 
ATOM     37  C   UNL     1      10.116   1.239   5.926  1.00  0.00    -0.014 A 
BRANCH  37  38
ATOM     38  C   UNL     1      10.710   1.752   7.184  1.00  0.00     0.031 A 
ATOM     39  C   UNL     1      11.130   0.794   8.266  1.00  0.00     0.074 A 
ATOM     40  C   UNL     1      10.842   3.080   7.366  1.00  0.00     0.049 A 
ATOM     41  N   UNL     1      11.678   1.050   9.428  1.00  0.00    -0.248 NA
ATOM     42  C   UNL     1      10.879  -0.636   8.025  1.00  0.00     0.031 C 
ATOM     43  C   UNL     1      10.435   4.112   6.410  1.00  0.00     0.029 A 
ATOM     44  N   UNL     1      11.364   3.788   8.418  1.00  0.00    -0.354 N 
ATOM     45  C   UNL     1      11.817  -0.181  10.057  1.00  0.00     0.074 A 
ATOM     46  C   UNL     1      11.245  -1.174   9.178  1.00  0.00     0.031 C 
ATOM     47  C   UNL     1      10.768   5.318   6.898  1.00  0.00     0.029 A 
ATOM     48  C   UNL     1      11.372   5.147   8.216  1.00  0.00     0.049 A 
ATOM     49  H   UNL     1      11.701   3.363   9.240  1.00  0.00     0.167 HD
ATOM     50  C   UNL     1      12.391  -0.464  11.251  1.00  0.00     0.031 A 
ATOM     51  C   UNL     1      11.822   6.142   9.002  1.00  0.00     0.031 A 
ATOM     52  C   UNL     1      12.969   0.526  12.121  1.00  0.00     0.049 A 
ATOM     53  C   UNL     1      12.442   5.803  10.329  1.00  0.00     0.074 A 
ATOM     54  C   UNL     1      13.632   0.337  13.321  1.00  0.00     0.029 A 
ATOM     55  N   UNL     1      12.947   1.892  11.885  1.00  0.00    -0.354 N 
ATOM     56  N   UNL     1      12.643   4.627  10.874  1.00  0.00    -0.248 NA
ATOM     57  C   UNL     1      12.912   6.933  11.142  1.00  0.00     0.031 C 
ATOM     58  C   UNL     1      13.954   1.595  13.842  1.00  0.00     0.029 A 
ATOM     59  C   UNL     1      13.556   2.561  12.933  1.00  0.00     0.049 A 
ATOM     60  H   UNL     1      12.555   2.322  11.091  1.00  0.00     0.167 HD
ATOM     61  C   UNL     1      13.296   4.873  12.075  1.00  0.00     0.074 A 
ATOM     62  C   UNL     1      13.470   6.308  12.169  1.00  0.00     0.031 C 
ATOM     63  C   UNL     1      13.719   3.990  13.013  1.00  0.00     0.031 A 
BRANCH  50  64
ATOM     64  C   UNL     1      12.402  -1.903  11.690  1.00  0.00    -0.014 A 
ATOM     65  C   UNL     1      13.173  -2.869  11.021  1.00  0.00     0.009 A 
ATOM     66  C   UNL     1      11.644  -2.297  12.804  1.00  0.00     0.009 A 
ATOM     67  C   UNL     1      13.146  -4.205  11.430  1.00  0.00     0.001 A 
ATOM     68  C   UNL     1      11.647  -3.626  13.231  1.00  0.00     0.001 A 
ATOM     69  C   UNL     1      12.387  -4.581  12.537  1.00  0.00     0.000 A 
ENDBRANCH  50  64
BRANCH  51  70
ATOM     70  C   UNL     1      11.740   7.554   8.543  1.00  0.00    -0.014 A 
ATOM     71  C   UNL     1      12.906   8.266   8.221  1.00  0.00     0.009 A 
ATOM     72  C   UNL     1      10.500   8.202   8.435  1.00  0.00     0.009 A 
ATOM     73  C   UNL     1      12.835   9.606   7.834  1.00  0.00     0.001 A 
ATOM     74  C   UNL     1      10.429   9.533   8.017  1.00  0.00     0.001 A 
ATOM     75  C   UNL     1      11.597  10.237   7.728  1.00  0.00     0.000 A 
ENDBRANCH  51  70
BRANCH  63  76
ATOM     76  C   UNL     1      14.454   4.551  14.201  1.00  0.00    -0.014 A 
ATOM     77  C   UNL     1      13.799   5.317  15.177  1.00  0.00     0.009 A 
ATOM     78  C   UNL     1      15.823   4.282  14.354  1.00  0.00     0.009 A 
ATOM     79  C   UNL     1      14.511   5.841  16.258  1.00  0.00     0.001 A 
ATOM     80  C   UNL     1      16.524   4.777  15.454  1.00  0.00     0.001 A 
ATOM     81  C   UNL     1      15.871   5.567  16.398  1.00  0.00     0.000 A 
ENDBRANCH  63  76
ENDBRANCH  37  38
ENDBRANCH  29  32
ENDBRANCH  27  28
ENDBRANCH  26  27
ENDBRANCH   1  26
TORSDOF 14
