REMARK SMILES COc1c[nH]c(C[N@H+]2CCC[C@@H](c3ccc(C(=O)NCCCCNC(=O)c4ccc(-c5c6nc(c(-c7ccccc7)c7ccc([nH]7)c(-c7ccccc7)c7nc(c(-c8ccccc8)c8ccc5[nH]8)C=C7)C=C6)cc4)cc3)C2)cc1=O
REMARK SMILES IDX 20 1 19 2 17 3 18 4 16 6 13 7 14 8 76 9 15 10 75 11 12 12
REMARK SMILES IDX 8 13 9 14 77 15 10 17 11 18 7 19 6 20 3 21 4 22 79 23 5 24
REMARK SMILES IDX 78 25 80 26 2 28 1 29 21 30 22 31 23 32 24 33 25 34 26 36
REMARK SMILES IDX 27 37 28 38 74 39 29 40 73 41 30 42 31 43 32 44 67 45 33 46
REMARK SMILES IDX 72 47 66 48 68 49 34 50 71 51 65 52 64 53 35 55 57 56 42 57
REMARK SMILES IDX 56 58 43 59 46 60 55 61 69 62 44 63 45 64 54 66 70 67 47 68
REMARK SMILES IDX 36 69 37 70 41 71 38 72 40 73 39 74 58 75 59 76 63 77 60 78
REMARK SMILES IDX 62 79 61 80 48 81 49 82 53 83 50 84 52 85 51 86
REMARK H PARENT 19 5 8 16 5 27 24 35 68 54 46 65
REMARK Flexibility Score: inf
ROOT
ATOM      1  C   UNL     1      -6.966  -7.689   6.079  1.00  0.00     0.116 C 
ENDROOT
BRANCH   1   2
ATOM      2  N   UNL     1      -6.967  -6.255   6.281  1.00  0.00    -0.352 N 
ATOM      3  C   UNL     1      -5.941  -5.346   6.337  1.00  0.00     0.251 C 
ATOM      4  O   UNL     1      -6.239  -4.162   6.493  1.00  0.00    -0.269 OA
ATOM      5  H   UNL     1      -7.862  -5.863   6.399  1.00  0.00     0.163 HD
BRANCH   3   6
ATOM      6  C   UNL     1      -4.509  -5.719   6.157  1.00  0.00     0.039 A 
ATOM      7  C   UNL     1      -1.781  -6.279   5.651  1.00  0.00    -0.039 A 
ATOM      8  C   UNL     1      -2.320  -5.013   5.376  1.00  0.00     0.005 A 
ATOM      9  C   UNL     1      -2.605  -7.232   6.253  1.00  0.00     0.005 A 
ATOM     10  C   UNL     1      -3.669  -4.742   5.612  1.00  0.00     0.014 A 
ATOM     11  C   UNL     1      -3.946  -6.945   6.523  1.00  0.00     0.014 A 
BRANCH   7  12
ATOM     12  C   UNL     1      -0.341  -6.634   5.318  1.00  0.00     0.074 C 
ATOM     13  N   UNL     1       1.407  -6.500   3.506  1.00  0.00    -0.329 N 
ATOM     14  C   UNL     1       2.323  -5.817   4.431  1.00  0.00     0.262 C 
ATOM     15  C   UNL     1       0.006  -6.249   3.865  1.00  0.00     0.270 C 
ATOM     16  H   UNL     1       1.564  -7.503   3.602  1.00  0.00     0.348 HD
ATOM     17  C   UNL     1       2.075  -6.247   5.880  1.00  0.00     0.062 C 
ATOM     18  C   UNL     1       0.633  -5.978   6.303  1.00  0.00     0.020 C 
BRANCH  13  19
ATOM     19  C   UNL     1       1.700  -6.177   2.092  1.00  0.00     0.317 C 
BRANCH  19  20
ATOM     20  C   UNL     1       1.513  -4.722   1.670  1.00  0.00     0.074 A 
ATOM     21  C   UNL     1       0.908  -1.976   1.158  1.00  0.00     0.182 A 
ATOM     22  C   UNL     1      -0.038  -2.910   1.324  1.00  0.00     0.133 A 
ATOM     23  C   UNL     1       2.333  -2.466   1.164  1.00  0.00     0.223 A 
ATOM     24  N   UNL     1       0.226  -4.239   1.502  1.00  0.00    -0.357 N 
ATOM     25  C   UNL     1       2.566  -3.908   1.474  1.00  0.00     0.083 A 
ATOM     26  O   UNL     1       3.296  -1.734   0.954  1.00  0.00    -0.286 OA
ATOM     27  H   UNL     1      -0.525  -4.876   1.511  1.00  0.00     0.166 HD
BRANCH  21  28
ATOM     28  O   UNL     1       0.567  -0.640   1.077  1.00  0.00    -0.491 OA
ATOM     29  C   UNL     1       1.121   0.013  -0.059  1.00  0.00     0.278 C 
ENDBRANCH  21  28
ENDBRANCH  19  20
ENDBRANCH  13  19
ENDBRANCH   7  12
ENDBRANCH   3   6
ENDBRANCH   1   2
BRANCH   1  30
ATOM     30  C   UNL     1      -7.002  -8.420   7.423  1.00  0.00     0.023 C 
BRANCH  30  31
ATOM     31  C   UNL     1      -8.376  -8.442   8.094  1.00  0.00     0.023 C 
BRANCH  31  32
ATOM     32  C   UNL     1      -9.456  -9.175   7.310  1.00  0.00     0.116 C 
BRANCH  32  33
ATOM     33  N   UNL     1      -9.112 -10.556   7.010  1.00  0.00    -0.352 N 
ATOM     34  C   UNL     1      -9.957 -11.630   6.864  1.00  0.00     0.251 C 
ATOM     35  H   UNL     1      -8.153 -10.745   6.896  1.00  0.00     0.163 HD
ATOM     36  O   UNL     1      -9.512 -12.759   6.708  1.00  0.00    -0.269 OA
BRANCH  34  37
ATOM     37  C   UNL     1     -11.413 -11.406   6.948  1.00  0.00     0.039 A 
ATOM     38  C   UNL     1     -12.162 -12.189   7.829  1.00  0.00     0.014 A 
ATOM     39  C   UNL     1     -12.022 -10.392   6.203  1.00  0.00     0.014 A 
ATOM     40  C   UNL     1     -13.515 -11.908   8.015  1.00  0.00     0.010 A 
ATOM     41  C   UNL     1     -13.353 -10.070   6.441  1.00  0.00     0.010 A 
ATOM     42  C   UNL     1     -14.110 -10.822   7.351  1.00  0.00    -0.014 A 
BRANCH  42  43
ATOM     43  C   UNL     1     -15.521 -10.451   7.608  1.00  0.00     0.031 A 
ATOM     44  C   UNL     1     -16.544 -10.563   6.514  1.00  0.00     0.074 A 
ATOM     45  C   UNL     1     -15.867  -9.954   8.811  1.00  0.00     0.049 A 
ATOM     46  N   UNL     1     -17.815 -10.252   6.540  1.00  0.00    -0.248 NA
ATOM     47  C   UNL     1     -16.072 -11.063   5.213  1.00  0.00     0.031 C 
ATOM     48  C   UNL     1     -14.954  -9.749   9.939  1.00  0.00     0.029 A 
ATOM     49  N   UNL     1     -17.081  -9.524   9.284  1.00  0.00    -0.354 N 
ATOM     50  C   UNL     1     -18.290 -10.505   5.260  1.00  0.00     0.074 A 
ATOM     51  C   UNL     1     -17.162 -10.946   4.468  1.00  0.00     0.031 C 
ATOM     52  C   UNL     1     -15.647  -9.262  10.981  1.00  0.00     0.029 A 
ATOM     53  C   UNL     1     -17.041  -9.088  10.586  1.00  0.00     0.049 A 
ATOM     54  H   UNL     1     -17.902  -9.528   8.741  1.00  0.00     0.167 HD
ATOM     55  C   UNL     1     -19.555 -10.399   4.789  1.00  0.00     0.031 A 
ATOM     56  C   UNL     1     -18.019  -8.604  11.373  1.00  0.00     0.031 A 
ATOM     57  C   UNL     1     -20.678  -9.972   5.579  1.00  0.00     0.049 A 
ATOM     58  C   UNL     1     -19.415  -8.498  10.828  1.00  0.00     0.074 A 
ATOM     59  C   UNL     1     -22.009  -9.890   5.211  1.00  0.00     0.029 A 
ATOM     60  N   UNL     1     -20.599  -9.552   6.898  1.00  0.00    -0.354 N 
ATOM     61  N   UNL     1     -19.863  -8.814   9.637  1.00  0.00    -0.248 NA
ATOM     62  C   UNL     1     -20.443  -7.982  11.742  1.00  0.00     0.031 C 
ATOM     63  C   UNL     1     -22.730  -9.379   6.295  1.00  0.00     0.029 A 
ATOM     64  C   UNL     1     -21.855  -9.190   7.353  1.00  0.00     0.049 A 
ATOM     65  H   UNL     1     -19.772  -9.517   7.431  1.00  0.00     0.167 HD
ATOM     66  C   UNL     1     -21.227  -8.559   9.666  1.00  0.00     0.074 A 
ATOM     67  C   UNL     1     -21.536  -8.078  10.998  1.00  0.00     0.031 C 
ATOM     68  C   UNL     1     -22.143  -8.711   8.680  1.00  0.00     0.031 A 
BRANCH  55  69
ATOM     69  C   UNL     1     -19.785 -10.750   3.346  1.00  0.00    -0.014 A 
ATOM     70  C   UNL     1     -19.709 -12.080   2.902  1.00  0.00     0.009 A 
ATOM     71  C   UNL     1     -20.108  -9.743   2.424  1.00  0.00     0.009 A 
ATOM     72  C   UNL     1     -19.915 -12.389   1.556  1.00  0.00     0.001 A 
ATOM     73  C   UNL     1     -20.341 -10.058   1.084  1.00  0.00     0.001 A 
ATOM     74  C   UNL     1     -20.235 -11.379   0.649  1.00  0.00     0.000 A 
ENDBRANCH  55  69
BRANCH  56  75
ATOM     75  C   UNL     1     -17.718  -8.207  12.773  1.00  0.00    -0.014 A 
ATOM     76  C   UNL     1     -18.174  -8.989  13.845  1.00  0.00     0.009 A 
ATOM     77  C   UNL     1     -16.977  -7.047  13.044  1.00  0.00     0.009 A 
ATOM     78  C   UNL     1     -17.915  -8.603  15.162  1.00  0.00     0.001 A 
ATOM     79  C   UNL     1     -16.698  -6.678  14.361  1.00  0.00     0.001 A 
ATOM     80  C   UNL     1     -17.174  -7.451  15.419  1.00  0.00     0.000 A 
ENDBRANCH  56  75
BRANCH  68  81
ATOM     81  C   UNL     1     -23.570  -8.383   9.013  1.00  0.00    -0.014 A 
ATOM     82  C   UNL     1     -23.996  -7.055   9.163  1.00  0.00     0.009 A 
ATOM     83  C   UNL     1     -24.509  -9.419   9.142  1.00  0.00     0.009 A 
ATOM     84  C   UNL     1     -25.329  -6.772   9.466  1.00  0.00     0.001 A 
ATOM     85  C   UNL     1     -25.846  -9.132   9.418  1.00  0.00     0.001 A 
ATOM     86  C   UNL     1     -26.253  -7.810   9.589  1.00  0.00     0.000 A 
ENDBRANCH  68  81
ENDBRANCH  42  43
ENDBRANCH  34  37
ENDBRANCH  32  33
ENDBRANCH  31  32
ENDBRANCH  30  31
ENDBRANCH   1  30
TORSDOF 15
