REMARK SMILES COc1ccc(NS(=O)(=O)c2ccc(Cl)c(C(=O)NCCCCNC(=O)c3ccc(-c4c5nc(c(-c6ccccc6)c6ccc([nH]6)c(-c6ccccc6)c6nc(c(-c7ccccc7)c7ccc4[nH]7)C=C6)C=C5)cc3)c2)cc1Cl
REMARK SMILES IDX 20 1 19 2 17 3 18 4 16 6 11 7 12 8 75 9 13 10 14 11 15 12
REMARK SMILES IDX 8 13 9 14 10 15 7 16 6 18 3 19 4 20 77 21 5 22 76 23 78 24
REMARK SMILES IDX 2 25 1 26 21 27 22 28 23 29 24 30 25 31 26 33 27 34 28 35
REMARK SMILES IDX 74 36 29 37 73 38 30 39 31 40 32 41 67 42 33 43 72 44 66 45
REMARK SMILES IDX 68 46 34 47 71 48 65 49 64 50 35 52 57 53 42 54 56 55 43 56
REMARK SMILES IDX 46 57 55 58 69 59 44 60 45 61 54 63 70 64 47 65 36 66 37 67
REMARK SMILES IDX 41 68 38 69 40 70 39 71 58 72 59 73 63 74 60 75 62 76 61 77
REMARK SMILES IDX 48 78 49 79 53 80 50 81 52 82 51 83
REMARK H PARENT 19 5 7 17 24 32 68 51 46 62
REMARK Flexibility Score: inf
ROOT
ATOM      1  C   UNL     1      -5.465  -0.394   4.686  1.00  0.00     0.116 C 
ENDROOT
BRANCH   1   2
ATOM      2  N   UNL     1      -5.268  -1.709   5.265  1.00  0.00    -0.352 N 
ATOM      3  C   UNL     1      -4.382  -2.144   6.227  1.00  0.00     0.252 C 
ATOM      4  O   UNL     1      -4.488  -3.307   6.619  1.00  0.00    -0.269 OA
ATOM      5  H   UNL     1      -5.866  -2.407   4.913  1.00  0.00     0.163 HD
BRANCH   3   6
ATOM      6  C   UNL     1      -3.220  -1.342   6.704  1.00  0.00     0.059 A 
ATOM      7  C   UNL     1      -0.808  -1.382   7.117  1.00  0.00     0.088 A 
ATOM      8  C   UNL     1      -0.814  -0.009   7.359  1.00  0.00     0.024 A 
ATOM      9  C   UNL     1      -2.003  -2.050   6.807  1.00  0.00     0.037 A 
ATOM     10  C   UNL     1      -2.026   0.678   7.349  1.00  0.00     0.023 A 
ATOM     11  C   UNL     1      -3.232   0.007   7.082  1.00  0.00     0.053 A 
ATOM     12  Cl  UNL     1      -4.672   0.897   7.425  1.00  0.00    -0.083 Cl
BRANCH   7  13
ATOM     13  S   UNL     1       0.695  -2.298   7.324  1.00  0.00     0.261 S 
ATOM     14  O   UNL     1       0.340  -3.628   7.775  1.00  0.00    -0.201 OA
ATOM     15  O   UNL     1       1.588  -1.482   8.119  1.00  0.00    -0.201 OA
BRANCH  13  16
ATOM     16  N   UNL     1       1.467  -2.485   5.824  1.00  0.00    -0.280 N 
ATOM     17  H   UNL     1       2.034  -3.278   5.691  1.00  0.00     0.180 HD
BRANCH  16  18
ATOM     18  C   UNL     1       1.340  -1.554   4.736  1.00  0.00     0.051 A 
ATOM     19  C   UNL     1       1.171  -0.036   2.372  1.00  0.00     0.137 A 
ATOM     20  C   UNL     1       0.014  -0.420   3.043  1.00  0.00     0.050 A 
ATOM     21  C   UNL     1       2.417  -0.427   2.864  1.00  0.00     0.085 A 
ATOM     22  C   UNL     1       0.105  -1.222   4.182  1.00  0.00     0.030 A 
ATOM     23  C   UNL     1       2.499  -1.188   4.039  1.00  0.00     0.051 A 
ATOM     24  Cl  UNL     1       3.881  -0.023   2.046  1.00  0.00    -0.080 Cl
BRANCH  19  25
ATOM     25  O   UNL     1       1.019   0.764   1.274  1.00  0.00    -0.495 OA
ATOM     26  C   UNL     1       1.033  -0.001   0.067  1.00  0.00     0.278 C 
ENDBRANCH  19  25
ENDBRANCH  16  18
ENDBRANCH  13  16
ENDBRANCH   7  13
ENDBRANCH   3   6
ENDBRANCH   1   2
BRANCH   1  27
ATOM     27  C   UNL     1      -5.947  -0.380   3.239  1.00  0.00     0.023 C 
BRANCH  27  28
ATOM     28  C   UNL     1      -7.326  -0.977   2.965  1.00  0.00     0.023 C 
BRANCH  28  29
ATOM     29  C   UNL     1      -8.466  -0.517   3.869  1.00  0.00     0.116 C 
BRANCH  29  30
ATOM     30  N   UNL     1      -8.697   0.921   3.852  1.00  0.00    -0.352 N 
ATOM     31  C   UNL     1      -9.847   1.626   3.573  1.00  0.00     0.251 C 
ATOM     32  H   UNL     1      -7.913   1.473   4.073  1.00  0.00     0.163 HD
ATOM     33  O   UNL     1      -9.825   2.852   3.529  1.00  0.00    -0.269 OA
BRANCH  31  34
ATOM     34  C   UNL     1     -11.104   0.903   3.281  1.00  0.00     0.039 A 
ATOM     35  C   UNL     1     -11.854   1.269   2.160  1.00  0.00     0.014 A 
ATOM     36  C   UNL     1     -11.519  -0.159   4.086  1.00  0.00     0.014 A 
ATOM     37  C   UNL     1     -12.965   0.505   1.791  1.00  0.00     0.010 A 
ATOM     38  C   UNL     1     -12.564  -0.974   3.664  1.00  0.00     0.010 A 
ATOM     39  C   UNL     1     -13.298  -0.654   2.510  1.00  0.00    -0.014 A 
BRANCH  39  40
ATOM     40  C   UNL     1     -14.403  -1.549   2.079  1.00  0.00     0.031 A 
ATOM     41  C   UNL     1     -15.578  -1.786   2.989  1.00  0.00     0.074 A 
ATOM     42  C   UNL     1     -14.317  -2.211   0.908  1.00  0.00     0.049 A 
ATOM     43  N   UNL     1     -16.598  -2.592   2.830  1.00  0.00    -0.248 NA
ATOM     44  C   UNL     1     -15.593  -1.042   4.259  1.00  0.00     0.031 C 
ATOM     45  C   UNL     1     -13.215  -2.104  -0.051  1.00  0.00     0.029 A 
ATOM     46  N   UNL     1     -15.173  -3.115   0.328  1.00  0.00    -0.354 N 
ATOM     47  C   UNL     1     -17.360  -2.466   3.985  1.00  0.00     0.074 A 
ATOM     48  C   UNL     1     -16.655  -1.556   4.860  1.00  0.00     0.031 C 
ATOM     49  C   UNL     1     -13.478  -2.884  -1.112  1.00  0.00     0.029 A 
ATOM     50  C   UNL     1     -14.739  -3.584  -0.890  1.00  0.00     0.049 A 
ATOM     51  H   UNL     1     -16.018  -3.401   0.744  1.00  0.00     0.167 HD
ATOM     52  C   UNL     1     -18.551  -3.037   4.285  1.00  0.00     0.031 A 
ATOM     53  C   UNL     1     -15.288  -4.482  -1.729  1.00  0.00     0.031 A 
ATOM     54  C   UNL     1     -19.255  -3.939   3.414  1.00  0.00     0.049 A 
ATOM     55  C   UNL     1     -16.597  -5.126  -1.362  1.00  0.00     0.074 A 
ATOM     56  C   UNL     1     -20.493  -4.529   3.603  1.00  0.00     0.029 A 
ATOM     57  N   UNL     1     -18.780  -4.386   2.191  1.00  0.00    -0.354 N 
ATOM     58  N   UNL     1     -17.338  -4.944  -0.297  1.00  0.00    -0.248 NA
ATOM     59  C   UNL     1     -17.149  -6.094  -2.321  1.00  0.00     0.031 C 
ATOM     60  C   UNL     1     -20.739  -5.381   2.522  1.00  0.00     0.029 A 
ATOM     61  C   UNL     1     -19.688  -5.267   1.626  1.00  0.00     0.049 A 
ATOM     62  H   UNL     1     -17.925  -4.117   1.783  1.00  0.00     0.167 HD
ATOM     63  C   UNL     1     -18.459  -5.745  -0.473  1.00  0.00     0.074 A 
ATOM     64  C   UNL     1     -18.306  -6.405  -1.753  1.00  0.00     0.031 C 
ATOM     65  C   UNL     1     -19.523  -5.916   0.351  1.00  0.00     0.031 A 
BRANCH  52  66
ATOM     66  C   UNL     1     -19.156  -2.708   5.623  1.00  0.00    -0.014 A 
ATOM     67  C   UNL     1     -19.623  -1.415   5.916  1.00  0.00     0.009 A 
ATOM     68  C   UNL     1     -19.279  -3.708   6.600  1.00  0.00     0.009 A 
ATOM     69  C   UNL     1     -20.153  -1.121   7.174  1.00  0.00     0.001 A 
ATOM     70  C   UNL     1     -19.842  -3.420   7.844  1.00  0.00     0.001 A 
ATOM     71  C   UNL     1     -20.266  -2.125   8.135  1.00  0.00     0.000 A 
ENDBRANCH  52  66
BRANCH  53  72
ATOM     72  C   UNL     1     -14.613  -4.816  -3.012  1.00  0.00    -0.014 A 
ATOM     73  C   UNL     1     -15.173  -4.418  -4.236  1.00  0.00     0.009 A 
ATOM     74  C   UNL     1     -13.409  -5.538  -3.023  1.00  0.00     0.009 A 
ATOM     75  C   UNL     1     -14.558  -4.761  -5.443  1.00  0.00     0.001 A 
ATOM     76  C   UNL     1     -12.779  -5.852  -4.230  1.00  0.00     0.001 A 
ATOM     77  C   UNL     1     -13.359  -5.472  -5.439  1.00  0.00     0.000 A 
ENDBRANCH  53  72
BRANCH  65  78
ATOM     78  C   UNL     1     -20.629  -6.817  -0.125  1.00  0.00    -0.014 A 
ATOM     79  C   UNL     1     -20.463  -8.208  -0.203  1.00  0.00     0.009 A 
ATOM     80  C   UNL     1     -21.877  -6.263  -0.455  1.00  0.00     0.009 A 
ATOM     81  C   UNL     1     -21.514  -9.021  -0.633  1.00  0.00     0.001 A 
ATOM     82  C   UNL     1     -22.935  -7.081  -0.852  1.00  0.00     0.001 A 
ATOM     83  C   UNL     1     -22.750  -8.458  -0.950  1.00  0.00     0.000 A 
ENDBRANCH  65  78
ENDBRANCH  39  40
ENDBRANCH  31  34
ENDBRANCH  29  30
ENDBRANCH  28  29
ENDBRANCH  27  28
ENDBRANCH   1  27
TORSDOF 15
