REMARK SMILES O=C(NCCCCNC(=O)c1ccc(-c2c3nc(c(-c4ccccc4)c4ccc([nH]4)c(-c4ccccc4)c4nc(c(-c5ccccc5)c5ccc2[nH]5)C=C4)C=C3)cc1)C1=N[C@@H]2NC=NN2[C@@H]([C@H]2C=NN=C2c2ccc(F)cc2)C1
REMARK SMILES IDX 5 1 4 2 3 3 1 4 2 5 59 7 60 8 79 9 61 10 66 11 62 12 65 13
REMARK SMILES IDX 63 14 64 16 67 17 68 18 71 19 69 20 70 21 72 22 73 23 78 24
REMARK SMILES IDX 74 25 77 26 75 27 76 28 6 29 7 30 8 31 9 32 10 34 11 35
REMARK SMILES IDX 12 36 58 37 13 38 57 39 14 40 15 41 16 42 51 43 17 44 56 45
REMARK SMILES IDX 50 46 52 47 18 48 55 49 49 50 48 51 19 53 41 54 26 55 40 56
REMARK SMILES IDX 27 57 30 58 39 59 53 60 28 61 29 62 38 64 54 65 31 66 20 67
REMARK SMILES IDX 21 68 25 69 22 70 24 71 23 72 42 73 43 74 47 75 44 76 46 77
REMARK SMILES IDX 45 78 32 79 33 80 37 81 34 82 36 83 35 84
REMARK H PARENT 3 6 62 15 8 33 52 52 30 63
REMARK Flexibility Score: inf
ROOT
ATOM      1  C   UNL     1      11.886  -0.944   5.493  1.00  0.00     0.023 C 
ENDROOT
BRANCH   1   2
ATOM      2  C   UNL     1      10.485  -0.404   5.219  1.00  0.00     0.116 C 
BRANCH   2   3
ATOM      3  N   UNL     1      10.408   0.923   4.643  1.00  0.00    -0.351 N 
ATOM      4  O   UNL     1       9.412   2.730   3.738  1.00  0.00    -0.268 OA
ATOM      5  C   UNL     1       9.367   1.524   3.962  1.00  0.00     0.265 C 
ATOM      6  H   UNL     1      11.214   1.477   4.753  1.00  0.00     0.163 HD
BRANCH   5   7
ATOM      7  C   UNL     1       8.197   0.711   3.374  1.00  0.00     0.106 C 
ATOM      8  N   UNL     1       7.882   0.968   2.152  1.00  0.00    -0.237 NA
ATOM      9  C   UNL     1       7.461  -0.264   4.248  1.00  0.00     0.090 C 
ATOM     10  C   UNL     1       7.002   0.074   1.446  1.00  0.00     0.319 C 
ATOM     11  C   UNL     1       6.367  -1.025   3.497  1.00  0.00     0.127 C 
ATOM     12  N   UNL     1       5.754   0.548   0.923  1.00  0.00    -0.335 N 
ATOM     13  N   UNL     1       6.661  -1.231   2.060  1.00  0.00    -0.249 NA
ATOM     14  C   UNL     1       5.000  -0.584   0.824  1.00  0.00     0.217 C 
ATOM     15  H   UNL     1       5.502   1.471   0.691  1.00  0.00     0.165 HD
ATOM     16  N   UNL     1       5.486  -1.661   1.388  1.00  0.00    -0.164 NA
BRANCH  11  17
ATOM     17  C   UNL     1       5.996  -2.391   4.105  1.00  0.00     0.109 C 
ATOM     18  C   UNL     1       7.144  -3.343   4.144  1.00  0.00     0.120 C 
ATOM     19  C   UNL     1       5.745  -2.334   5.578  1.00  0.00     0.081 C 
ATOM     20  N   UNL     1       7.487  -3.679   5.344  1.00  0.00    -0.162 NA
ATOM     21  N   UNL     1       6.606  -3.027   6.261  1.00  0.00    -0.155 NA
BRANCH  19  22
ATOM     22  C   UNL     1       4.685  -1.498   6.164  1.00  0.00    -0.001 A 
ATOM     23  C   UNL     1       3.532  -1.169   5.440  1.00  0.00     0.013 A 
ATOM     24  C   UNL     1       4.892  -0.970   7.443  1.00  0.00     0.013 A 
ATOM     25  C   UNL     1       2.599  -0.288   5.992  1.00  0.00     0.040 A 
ATOM     26  C   UNL     1       3.961  -0.085   7.985  1.00  0.00     0.040 A 
ATOM     27  C   UNL     1       2.827   0.251   7.254  1.00  0.00     0.123 A 
ATOM     28  F   UNL     1       1.942   1.112   7.770  1.00  0.00    -0.207 F 
ENDBRANCH  19  22
ENDBRANCH  11  17
ENDBRANCH   5   7
ENDBRANCH   2   3
ENDBRANCH   1   2
BRANCH   1  29
ATOM     29  C   UNL     1      12.804  -0.130   6.402  1.00  0.00     0.023 C 
BRANCH  29  30
ATOM     30  C   UNL     1      12.252   0.246   7.774  1.00  0.00     0.116 C 
BRANCH  30  31
ATOM     31  N   UNL     1      11.931  -0.898   8.617  1.00  0.00    -0.352 N 
ATOM     32  C   UNL     1      12.493  -1.340   9.792  1.00  0.00     0.251 C 
ATOM     33  H   UNL     1      11.185  -1.449   8.289  1.00  0.00     0.163 HD
ATOM     34  O   UNL     1      12.108  -2.398  10.290  1.00  0.00    -0.269 OA
BRANCH  32  35
ATOM     35  C   UNL     1      13.588  -0.593  10.450  1.00  0.00     0.039 A 
ATOM     36  C   UNL     1      14.699  -1.306  10.916  1.00  0.00     0.014 A 
ATOM     37  C   UNL     1      13.539   0.792  10.610  1.00  0.00     0.014 A 
ATOM     38  C   UNL     1      15.804  -0.620  11.427  1.00  0.00     0.010 A 
ATOM     39  C   UNL     1      14.671   1.481  11.044  1.00  0.00     0.010 A 
ATOM     40  C   UNL     1      15.826   0.783  11.431  1.00  0.00    -0.014 A 
BRANCH  40  41
ATOM     41  C   UNL     1      17.065   1.537  11.759  1.00  0.00     0.031 A 
ATOM     42  C   UNL     1      17.109   2.482  12.925  1.00  0.00     0.074 A 
ATOM     43  C   UNL     1      18.129   1.442  10.936  1.00  0.00     0.049 A 
ATOM     44  N   UNL     1      18.072   3.289  13.298  1.00  0.00    -0.248 NA
ATOM     45  C   UNL     1      15.906   2.548  13.768  1.00  0.00     0.031 C 
ATOM     46  C   UNL     1      18.202   0.598   9.742  1.00  0.00     0.029 A 
ATOM     47  N   UNL     1      19.345   2.079  10.966  1.00  0.00    -0.354 N 
ATOM     48  C   UNL     1      17.587   3.967  14.409  1.00  0.00     0.074 A 
ATOM     49  C   UNL     1      16.228   3.513  14.617  1.00  0.00     0.031 C 
ATOM     50  C   UNL     1      19.401   0.758   9.162  1.00  0.00     0.029 A 
ATOM     51  C   UNL     1      20.162   1.754   9.910  1.00  0.00     0.049 A 
ATOM     52  H   UNL     1      19.608   2.708  11.676  1.00  0.00     0.167 HD
ATOM     53  C   UNL     1      18.219   4.874  15.193  1.00  0.00     0.031 A 
ATOM     54  C   UNL     1      21.377   2.218   9.560  1.00  0.00     0.031 A 
ATOM     55  C   UNL     1      19.565   5.338  14.974  1.00  0.00     0.049 A 
ATOM     56  C   UNL     1      22.044   3.254  10.419  1.00  0.00     0.074 A 
ATOM     57  C   UNL     1      20.312   6.211  15.745  1.00  0.00     0.029 A 
ATOM     58  N   UNL     1      20.360   4.981  13.894  1.00  0.00    -0.354 N 
ATOM     59  N   UNL     1      21.605   3.823  11.515  1.00  0.00    -0.248 NA
ATOM     60  C   UNL     1      23.377   3.707   9.996  1.00  0.00     0.031 C 
ATOM     61  C   UNL     1      21.530   6.437  15.095  1.00  0.00     0.029 A 
ATOM     62  C   UNL     1      21.571   5.651  13.956  1.00  0.00     0.049 A 
ATOM     63  H   UNL     1      20.101   4.345  13.189  1.00  0.00     0.167 HD
ATOM     64  C   UNL     1      22.611   4.690  11.921  1.00  0.00     0.074 A 
ATOM     65  C   UNL     1      23.692   4.554  10.966  1.00  0.00     0.031 C 
ATOM     66  C   UNL     1      22.634   5.524  12.989  1.00  0.00     0.031 A 
BRANCH  53  67
ATOM     67  C   UNL     1      17.441   5.446  16.348  1.00  0.00    -0.014 A 
ATOM     68  C   UNL     1      17.067   4.651  17.444  1.00  0.00     0.009 A 
ATOM     69  C   UNL     1      17.087   6.804  16.348  1.00  0.00     0.009 A 
ATOM     70  C   UNL     1      16.310   5.190  18.487  1.00  0.00     0.001 A 
ATOM     71  C   UNL     1      16.361   7.350  17.409  1.00  0.00     0.001 A 
ATOM     72  C   UNL     1      15.960   6.539  18.469  1.00  0.00     0.000 A 
ENDBRANCH  53  67
BRANCH  54  73
ATOM     73  C   UNL     1      22.028   1.711   8.323  1.00  0.00    -0.014 A 
ATOM     74  C   UNL     1      23.149   0.871   8.395  1.00  0.00     0.009 A 
ATOM     75  C   UNL     1      21.509   2.043   7.061  1.00  0.00     0.009 A 
ATOM     76  C   UNL     1      23.746   0.388   7.228  1.00  0.00     0.001 A 
ATOM     77  C   UNL     1      22.089   1.534   5.898  1.00  0.00     0.001 A 
ATOM     78  C   UNL     1      23.211   0.712   5.982  1.00  0.00     0.000 A 
ENDBRANCH  54  73
BRANCH  66  79
ATOM     79  C   UNL     1      23.873   6.352  13.191  1.00  0.00    -0.014 A 
ATOM     80  C   UNL     1      24.176   7.429  12.343  1.00  0.00     0.009 A 
ATOM     81  C   UNL     1      24.724   6.083  14.275  1.00  0.00     0.009 A 
ATOM     82  C   UNL     1      25.320   8.200  12.560  1.00  0.00     0.001 A 
ATOM     83  C   UNL     1      25.849   6.875  14.508  1.00  0.00     0.001 A 
ATOM     84  C   UNL     1      26.151   7.927  13.646  1.00  0.00     0.000 A 
ENDBRANCH  66  79
ENDBRANCH  40  41
ENDBRANCH  32  35
ENDBRANCH  30  31
ENDBRANCH  29  30
ENDBRANCH   1  29
TORSDOF 13
