REMARK SMILES C[C@H]1CC[C@H](CNC(=O)NCc2ccc(C(=O)NCCCCNC(=O)c3ccc(-c4c5nc(c(-c6ccccc6)c6ccc([nH]6)c(-c6ccccc6)c6nc(c(-c7ccccc7)c7ccc4[nH]7)C=C6)C=C5)cc3)o2)CC1
REMARK SMILES IDX 19 1 18 2 16 3 17 4 15 6 12 7 13 8 74 9 14 10 11 11 10 12
REMARK SMILES IDX 7 13 8 14 9 16 6 18 5 19 1 20 2 21 76 22 3 23 75 24 4 25
REMARK SMILES IDX 20 26 21 27 22 28 23 29 24 30 25 32 26 33 27 34 73 35 28 36
REMARK SMILES IDX 72 37 29 38 30 39 31 40 66 41 32 42 71 43 65 44 67 45 33 46
REMARK SMILES IDX 70 47 64 48 63 49 34 51 56 52 41 53 55 54 42 55 45 56 54 57
REMARK SMILES IDX 68 58 43 59 44 60 53 62 69 63 46 64 35 65 36 66 40 67 37 68
REMARK SMILES IDX 39 69 38 70 57 71 58 72 62 73 59 74 61 75 60 76 47 77 48 78
REMARK SMILES IDX 52 79 49 80 51 81 50 82
REMARK H PARENT 18 5 7 15 10 17 23 31 67 50 45 61
REMARK Flexibility Score: inf
ROOT
ATOM      1  C   UNL     1      -8.859  -5.307   2.171  1.00  0.00     0.116 C 
ENDROOT
BRANCH   1   2
ATOM      2  N   UNL     1      -9.023  -3.881   2.352  1.00  0.00    -0.349 N 
ATOM      3  C   UNL     1      -8.351  -2.821   1.784  1.00  0.00     0.286 C 
ATOM      4  O   UNL     1      -8.813  -1.705   2.036  1.00  0.00    -0.266 OA
ATOM      5  H   UNL     1      -9.732  -3.626   2.985  1.00  0.00     0.163 HD
BRANCH   3   6
ATOM      6  C   UNL     1      -7.186  -3.025   0.940  1.00  0.00     0.191 A 
ATOM      7  C   UNL     1      -5.738  -2.363  -0.612  1.00  0.00     0.124 A 
ATOM      8  C   UNL     1      -5.336  -3.619  -0.214  1.00  0.00     0.048 A 
ATOM      9  O   UNL     1      -6.861  -2.006   0.076  1.00  0.00    -0.454 OA
ATOM     10  C   UNL     1      -6.244  -4.030   0.794  1.00  0.00     0.056 A 
BRANCH   7  11
ATOM     11  C   UNL     1      -5.191  -1.406  -1.613  1.00  0.00     0.193 C 
BRANCH  11  12
ATOM     12  N   UNL     1      -5.745  -0.085  -1.444  1.00  0.00    -0.331 N 
ATOM     13  N   UNL     1      -4.100   1.166  -0.308  1.00  0.00    -0.338 N 
ATOM     14  C   UNL     1      -5.242   1.069  -1.000  1.00  0.00     0.315 C 
ATOM     15  H   UNL     1      -3.731   2.079  -0.287  1.00  0.00     0.165 HD
ATOM     16  O   UNL     1      -5.857   2.109  -1.246  1.00  0.00    -0.249 OA
ATOM     17  H   UNL     1      -6.690  -0.022  -1.711  1.00  0.00     0.165 HD
BRANCH  13  18
ATOM     18  C   UNL     1      -3.295   0.201   0.416  1.00  0.00     0.121 C 
BRANCH  18  19
ATOM     19  C   UNL     1      -1.866   0.124  -0.147  1.00  0.00     0.008 C 
ATOM     20  C   UNL     1       2.524  -0.070  -0.172  1.00  0.00     0.007 C 
ATOM     21  C   UNL     1       1.078   0.007   0.311  1.00  0.00    -0.014 C 
ATOM     22  C   UNL     1       0.285  -1.228  -0.129  1.00  0.00     0.003 C 
ATOM     23  C   UNL     1       0.402   1.285  -0.199  1.00  0.00     0.003 C 
ATOM     24  C   UNL     1      -1.169  -1.155   0.338  1.00  0.00     0.006 C 
ATOM     25  C   UNL     1      -1.054   1.370   0.253  1.00  0.00     0.006 C 
ENDBRANCH  18  19
ENDBRANCH  13  18
ENDBRANCH  11  12
ENDBRANCH   7  11
ENDBRANCH   3   6
ENDBRANCH   1   2
BRANCH   1  26
ATOM     26  C   UNL     1      -8.112  -5.937   3.346  1.00  0.00     0.023 C 
BRANCH  26  27
ATOM     27  C   UNL     1      -8.985  -6.207   4.577  1.00  0.00     0.023 C 
BRANCH  27  28
ATOM     28  C   UNL     1     -10.143  -7.180   4.359  1.00  0.00     0.116 C 
BRANCH  28  29
ATOM     29  N   UNL     1      -9.723  -8.479   3.855  1.00  0.00    -0.352 N 
ATOM     30  C   UNL     1     -10.261  -9.717   4.116  1.00  0.00     0.251 C 
ATOM     31  H   UNL     1      -8.951  -8.471   3.245  1.00  0.00     0.163 HD
ATOM     32  O   UNL     1      -9.723 -10.730   3.681  1.00  0.00    -0.269 OA
BRANCH  30  33
ATOM     33  C   UNL     1     -11.469  -9.824   4.960  1.00  0.00     0.039 A 
ATOM     34  C   UNL     1     -11.470 -10.733   6.020  1.00  0.00     0.014 A 
ATOM     35  C   UNL     1     -12.582  -9.012   4.726  1.00  0.00     0.014 A 
ATOM     36  C   UNL     1     -12.559 -10.777   6.892  1.00  0.00     0.010 A 
ATOM     37  C   UNL     1     -13.637  -9.009   5.633  1.00  0.00     0.010 A 
ATOM     38  C   UNL     1     -13.634  -9.887   6.728  1.00  0.00    -0.014 A 
BRANCH  38  39
ATOM     39  C   UNL     1     -14.754  -9.848   7.701  1.00  0.00     0.031 A 
ATOM     40  C   UNL     1     -16.147 -10.211   7.268  1.00  0.00     0.074 A 
ATOM     41  C   UNL     1     -14.530  -9.415   8.958  1.00  0.00     0.049 A 
ATOM     42  N   UNL     1     -17.261 -10.175   7.955  1.00  0.00    -0.248 NA
ATOM     43  C   UNL     1     -16.317 -10.648   5.872  1.00  0.00     0.031 C 
ATOM     44  C   UNL     1     -13.233  -8.991   9.491  1.00  0.00     0.029 A 
ATOM     45  N   UNL     1     -15.391  -9.253  10.014  1.00  0.00    -0.354 N 
ATOM     46  C   UNL     1     -18.261 -10.563   7.074  1.00  0.00     0.074 A 
ATOM     47  C   UNL     1     -17.632 -10.788   5.791  1.00  0.00     0.031 C 
ATOM     48  C   UNL     1     -13.381  -8.638  10.778  1.00  0.00     0.029 A 
ATOM     49  C   UNL     1     -14.786  -8.774  11.151  1.00  0.00     0.049 A 
ATOM     50  H   UNL     1     -16.352  -9.460   9.962  1.00  0.00     0.167 HD
ATOM     51  C   UNL     1     -19.582 -10.736   7.315  1.00  0.00     0.031 A 
ATOM     52  C   UNL     1     -15.303  -8.472  12.356  1.00  0.00     0.031 A 
ATOM     53  C   UNL     1     -20.207 -10.529   8.594  1.00  0.00     0.049 A 
ATOM     54  C   UNL     1     -16.775  -8.669  12.595  1.00  0.00     0.074 A 
ATOM     55  C   UNL     1     -21.528 -10.739   8.951  1.00  0.00     0.029 A 
ATOM     56  N   UNL     1     -19.555 -10.062   9.723  1.00  0.00    -0.354 N 
ATOM     57  N   UNL     1     -17.693  -9.111  11.771  1.00  0.00    -0.248 NA
ATOM     58  C   UNL     1     -17.277  -8.337  13.936  1.00  0.00     0.031 C 
ATOM     59  C   UNL     1     -21.685 -10.353  10.286  1.00  0.00     0.029 A 
ATOM     60  C   UNL     1     -20.451  -9.955  10.774  1.00  0.00     0.049 A 
ATOM     61  H   UNL     1     -18.597  -9.839   9.773  1.00  0.00     0.167 HD
ATOM     62  C   UNL     1     -18.875  -9.138  12.500  1.00  0.00     0.074 A 
ATOM     63  C   UNL     1     -18.553  -8.684  13.837  1.00  0.00     0.031 C 
ATOM     64  C   UNL     1     -20.115  -9.506  12.099  1.00  0.00     0.031 A 
BRANCH  51  65
ATOM     65  C   UNL     1     -20.447 -11.169   6.164  1.00  0.00    -0.014 A 
ATOM     66  C   UNL     1     -20.362 -12.469   5.640  1.00  0.00     0.009 A 
ATOM     67  C   UNL     1     -21.393 -10.281   5.628  1.00  0.00     0.009 A 
ATOM     68  C   UNL     1     -21.184 -12.860   4.581  1.00  0.00     0.001 A 
ATOM     69  C   UNL     1     -22.233 -10.684   4.588  1.00  0.00     0.001 A 
ATOM     70  C   UNL     1     -22.122 -11.969   4.060  1.00  0.00     0.000 A 
ENDBRANCH  51  65
BRANCH  52  71
ATOM     71  C   UNL     1     -14.426  -7.958  13.440  1.00  0.00    -0.014 A 
ATOM     72  C   UNL     1     -14.141  -8.751  14.563  1.00  0.00     0.009 A 
ATOM     73  C   UNL     1     -13.884  -6.665  13.368  1.00  0.00     0.009 A 
ATOM     74  C   UNL     1     -13.360  -8.248  15.605  1.00  0.00     0.001 A 
ATOM     75  C   UNL     1     -13.079  -6.176  14.399  1.00  0.00     0.001 A 
ATOM     76  C   UNL     1     -12.826  -6.963  15.521  1.00  0.00     0.000 A 
ENDBRANCH  52  71
BRANCH  64  77
ATOM     77  C   UNL     1     -21.210  -9.470  13.127  1.00  0.00    -0.014 A 
ATOM     78  C   UNL     1     -21.740  -8.254  13.587  1.00  0.00     0.009 A 
ATOM     79  C   UNL     1     -21.747 -10.673  13.611  1.00  0.00     0.009 A 
ATOM     80  C   UNL     1     -22.764  -8.246  14.536  1.00  0.00     0.001 A 
ATOM     81  C   UNL     1     -22.790 -10.662  14.537  1.00  0.00     0.001 A 
ATOM     82  C   UNL     1     -23.291  -9.449  15.006  1.00  0.00     0.000 A 
ENDBRANCH  64  77
ENDBRANCH  38  39
ENDBRANCH  30  33
ENDBRANCH  28  29
ENDBRANCH  27  28
ENDBRANCH  26  27
ENDBRANCH   1  26
TORSDOF 15
