REMARK SMILES O=C(CN(CC(F)(F)F)c1nc(-c2ccccc2)cs1)NCCCCNC(=O)c1ccc(-c2c3nc(c(-c4ccccc4)c4ccc([nH]4)c(-c4ccccc4)c4nc(c(-c5ccccc5)c5ccc2[nH]5)C=C4)C=C3)cc1
REMARK SMILES IDX 23 1 22 2 21 3 1 4 2 5 3 7 4 8 5 9 6 10 7 11 8 12 9 13 10 14
REMARK SMILES IDX 11 15 20 16 12 17 19 18 13 19 14 20 18 21 15 22 17 23 16 24
REMARK SMILES IDX 24 25 25 26 26 27 27 28 28 30 29 31 30 32 76 33 31 34 75 35
REMARK SMILES IDX 32 36 33 37 34 38 69 39 35 40 74 41 68 42 70 43 36 44 73 45
REMARK SMILES IDX 67 46 66 47 37 49 59 50 44 51 58 52 45 53 48 54 57 55 71 56
REMARK SMILES IDX 46 57 47 58 56 60 72 61 49 62 38 63 39 64 43 65 40 66 42 67
REMARK SMILES IDX 41 68 60 69 61 70 65 71 62 72 64 73 63 74 50 75 51 76 55 77
REMARK SMILES IDX 52 78 54 79 53 80
REMARK H PARENT 21 6 26 29 70 48 48 59
REMARK Flexibility Score: inf
ROOT
ATOM      1  C   UNL     1       2.383   1.022  -3.205  1.00  0.00     0.023 C 
ENDROOT
BRANCH   1   2
ATOM      2  C   UNL     1       2.012  -0.207  -2.376  1.00  0.00     0.116 C 
BRANCH   2   3
ATOM      3  N   UNL     1       2.696  -0.269  -1.101  1.00  0.00    -0.355 N 
ATOM      4  O   UNL     1       0.969   0.613   0.130  1.00  0.00    -0.273 OA
ATOM      5  C   UNL     1       2.074   0.076   0.084  1.00  0.00     0.239 C 
ATOM      6  H   UNL     1       3.634  -0.567  -1.078  1.00  0.00     0.163 HD
BRANCH   5   7
ATOM      7  C   UNL     1       2.924  -0.136   1.350  1.00  0.00     0.219 C 
BRANCH   7   8
ATOM      8  N   UNL     1       3.792  -1.330   1.314  1.00  0.00    -0.330 N 
BRANCH   8   9
ATOM      9  C   UNL     1       5.248  -1.163   1.501  1.00  0.00     0.234 C 
BRANCH   9  10
ATOM     10  C   UNL     1       5.838  -1.350   2.908  1.00  0.00     0.406 C 
ATOM     11  F   UNL     1       6.121  -2.643   3.177  1.00  0.00    -0.169 F 
ATOM     12  F   UNL     1       7.011  -0.673   3.006  1.00  0.00    -0.169 F 
ATOM     13  F   UNL     1       5.024  -0.879   3.876  1.00  0.00    -0.169 F 
ENDBRANCH   9  10
ENDBRANCH   8   9
BRANCH   8  14
ATOM     14  C   UNL     1       3.183  -2.549   1.350  1.00  0.00     0.186 A 
ATOM     15  N   UNL     1       2.286  -2.913   0.463  1.00  0.00    -0.220 NA
ATOM     16  S   UNL     1       3.460  -3.727   2.583  1.00  0.00    -0.105 S 
ATOM     17  C   UNL     1       1.774  -4.164   0.757  1.00  0.00     0.083 A 
ATOM     18  C   UNL     1       2.294  -4.758   1.886  1.00  0.00     0.097 A 
BRANCH  17  19
ATOM     19  C   UNL     1       0.806  -4.817  -0.104  1.00  0.00     0.001 A 
ATOM     20  C   UNL     1      -0.354  -5.400   0.423  1.00  0.00     0.010 A 
ATOM     21  C   UNL     1       1.047  -4.890  -1.481  1.00  0.00     0.010 A 
ATOM     22  C   UNL     1      -1.251  -6.063  -0.417  1.00  0.00     0.001 A 
ATOM     23  C   UNL     1       0.154  -5.562  -2.317  1.00  0.00     0.001 A 
ATOM     24  C   UNL     1      -0.992  -6.150  -1.784  1.00  0.00     0.000 A 
ENDBRANCH  17  19
ENDBRANCH   8  14
ENDBRANCH   7   8
ENDBRANCH   5   7
ENDBRANCH   2   3
ENDBRANCH   1   2
BRANCH   1  25
ATOM     25  C   UNL     1       3.861   1.131  -3.589  1.00  0.00     0.023 C 
BRANCH  25  26
ATOM     26  C   UNL     1       4.439  -0.062  -4.343  1.00  0.00     0.116 C 
BRANCH  26  27
ATOM     27  N   UNL     1       3.830  -0.274  -5.647  1.00  0.00    -0.352 N 
ATOM     28  C   UNL     1       4.423  -0.461  -6.873  1.00  0.00     0.251 C 
ATOM     29  H   UNL     1       2.845  -0.285  -5.652  1.00  0.00     0.163 HD
ATOM     30  O   UNL     1       3.731  -0.507  -7.888  1.00  0.00    -0.269 OA
BRANCH  28  31
ATOM     31  C   UNL     1       5.895  -0.573  -6.989  1.00  0.00     0.039 A 
ATOM     32  C   UNL     1       6.544   0.121  -8.015  1.00  0.00     0.014 A 
ATOM     33  C   UNL     1       6.638  -1.356  -6.102  1.00  0.00     0.014 A 
ATOM     34  C   UNL     1       7.939   0.093  -8.102  1.00  0.00     0.010 A 
ATOM     35  C   UNL     1       8.031  -1.321  -6.142  1.00  0.00     0.010 A 
ATOM     36  C   UNL     1       8.698  -0.594  -7.140  1.00  0.00    -0.014 A 
BRANCH  36  37
ATOM     37  C   UNL     1      10.185  -0.546  -7.152  1.00  0.00     0.031 A 
ATOM     38  C   UNL     1      10.988  -1.804  -7.347  1.00  0.00     0.074 A 
ATOM     39  C   UNL     1      10.818   0.622  -6.923  1.00  0.00     0.049 A 
ATOM     40  N   UNL     1      12.288  -1.965  -7.328  1.00  0.00    -0.248 NA
ATOM     41  C   UNL     1      10.232  -3.047  -7.571  1.00  0.00     0.031 C 
ATOM     42  C   UNL     1      10.162   1.910  -6.684  1.00  0.00     0.029 A 
ATOM     43  N   UNL     1      12.158   0.914  -6.849  1.00  0.00    -0.354 N 
ATOM     44  C   UNL     1      12.503  -3.324  -7.523  1.00  0.00     0.074 A 
ATOM     45  C   UNL     1      11.201  -3.950  -7.604  1.00  0.00     0.031 C 
ATOM     46  C   UNL     1      11.100   2.856  -6.518  1.00  0.00     0.029 A 
ATOM     47  C   UNL     1      12.420   2.239  -6.591  1.00  0.00     0.049 A 
ATOM     48  H   UNL     1      12.864   0.239  -6.968  1.00  0.00     0.167 HD
ATOM     49  C   UNL     1      13.677  -3.990  -7.644  1.00  0.00     0.031 A 
ATOM     50  C   UNL     1      13.589   2.885  -6.421  1.00  0.00     0.031 A 
ATOM     51  C   UNL     1      14.974  -3.371  -7.564  1.00  0.00     0.049 A 
ATOM     52  C   UNL     1      14.878   2.116  -6.526  1.00  0.00     0.074 A 
ATOM     53  C   UNL     1      16.219  -3.956  -7.723  1.00  0.00     0.029 A 
ATOM     54  N   UNL     1      15.194  -2.029  -7.299  1.00  0.00    -0.354 N 
ATOM     55  N   UNL     1      15.063   0.843  -6.777  1.00  0.00    -0.248 NA
ATOM     56  C   UNL     1      16.120   2.880  -6.335  1.00  0.00     0.031 C 
ATOM     57  C   UNL     1      17.193  -2.980  -7.492  1.00  0.00     0.029 A 
ATOM     58  C   UNL     1      16.555  -1.772  -7.259  1.00  0.00     0.049 A 
ATOM     59  H   UNL     1      14.488  -1.357  -7.159  1.00  0.00     0.167 HD
ATOM     60  C   UNL     1      16.440   0.659  -6.805  1.00  0.00     0.074 A 
ATOM     61  C   UNL     1      17.041   1.954  -6.563  1.00  0.00     0.031 C 
ATOM     62  C   UNL     1      17.143  -0.480  -7.015  1.00  0.00     0.031 A 
BRANCH  49  63
ATOM     63  C   UNL     1      13.610  -5.478  -7.865  1.00  0.00    -0.014 A 
ATOM     64  C   UNL     1      13.127  -6.015  -9.069  1.00  0.00     0.009 A 
ATOM     65  C   UNL     1      14.072  -6.354  -6.870  1.00  0.00     0.009 A 
ATOM     66  C   UNL     1      13.071  -7.398  -9.256  1.00  0.00     0.001 A 
ATOM     67  C   UNL     1      14.046  -7.735  -7.073  1.00  0.00     0.001 A 
ATOM     68  C   UNL     1      13.535  -8.256  -8.260  1.00  0.00     0.000 A 
ENDBRANCH  49  63
BRANCH  50  69
ATOM     69  C   UNL     1      13.601   4.345  -6.137  1.00  0.00    -0.014 A 
ATOM     70  C   UNL     1      14.089   5.254  -7.088  1.00  0.00     0.009 A 
ATOM     71  C   UNL     1      13.137   4.837  -4.907  1.00  0.00     0.009 A 
ATOM     72  C   UNL     1      14.141   6.620  -6.802  1.00  0.00     0.001 A 
ATOM     73  C   UNL     1      13.159   6.207  -4.636  1.00  0.00     0.001 A 
ATOM     74  C   UNL     1      13.672   7.096  -5.579  1.00  0.00     0.000 A 
ENDBRANCH  50  69
BRANCH  62  75
ATOM     75  C   UNL     1      18.643  -0.373  -7.032  1.00  0.00    -0.014 A 
ATOM     76  C   UNL     1      19.375  -0.127  -5.860  1.00  0.00     0.009 A 
ATOM     77  C   UNL     1      19.337  -0.562  -8.239  1.00  0.00     0.009 A 
ATOM     78  C   UNL     1      20.768  -0.036  -5.903  1.00  0.00     0.001 A 
ATOM     79  C   UNL     1      20.731  -0.503  -8.273  1.00  0.00     0.001 A 
ATOM     80  C   UNL     1      21.445  -0.230  -7.107  1.00  0.00     0.000 A 
ENDBRANCH  62  75
ENDBRANCH  36  37
ENDBRANCH  28  31
ENDBRANCH  26  27
ENDBRANCH  25  26
ENDBRANCH   1  25
TORSDOF 16
