REMARK SMILES CCOc1ccc(NC(=O)[C@@H]2[C@@H](C(=O)NCCCCNC(=O)c3ccc(-c4c5nc(c(-c6ccccc6)c6ccc([nH]6)c(-c6ccccc6)c6nc(c(-c7ccccc7)c7ccc4[nH]7)C=C6)C=C5)cc3)[C@H]3C=C[C@@H]2C3)cc1
REMARK SMILES IDX 16 1 15 2 13 3 14 4 12 6 11 7 74 8 71 9 73 10 75 11 72 12
REMARK SMILES IDX 9 13 8 14 10 16 7 17 4 18 5 19 77 20 6 21 76 22 3 23 2 24
REMARK SMILES IDX 1 25 17 26 18 27 19 28 20 29 21 30 22 32 23 33 24 34 70 35
REMARK SMILES IDX 25 36 69 37 26 38 27 39 28 40 63 41 29 42 68 43 62 44 64 45
REMARK SMILES IDX 30 46 67 47 61 48 60 49 31 51 53 52 38 53 52 54 39 55 42 56
REMARK SMILES IDX 51 57 65 58 40 59 41 60 50 62 66 63 43 64 32 65 33 66 37 67
REMARK SMILES IDX 34 68 36 69 35 70 54 71 55 72 59 73 56 74 58 75 57 76 44 77
REMARK SMILES IDX 45 78 49 79 46 80 48 81 47 82
REMARK H PARENT 15 5 8 15 20 31 64 50 42 61
REMARK Flexibility Score: inf
ROOT
ATOM      1  C   UNL     1       8.607   3.018  -6.799  1.00  0.00     0.116 C 
ENDROOT
BRANCH   1   2
ATOM      2  N   UNL     1       7.934   4.246  -7.148  1.00  0.00    -0.356 N 
ATOM      3  C   UNL     1       7.168   5.080  -6.402  1.00  0.00     0.224 C 
ATOM      4  O   UNL     1       6.833   6.133  -6.952  1.00  0.00    -0.275 OA
ATOM      5  H   UNL     1       8.051   4.525  -8.085  1.00  0.00     0.163 HD
BRANCH   3   6
ATOM      6  C   UNL     1       6.850   4.780  -4.939  1.00  0.00     0.098 C 
ATOM      7  C   UNL     1       6.005   3.479  -4.605  1.00  0.00     0.099 C 
ATOM      8  C   UNL     1       4.830   4.080  -3.779  1.00  0.00     0.025 C 
ATOM      9  C   UNL     1       5.956   5.911  -4.343  1.00  0.00     0.025 C 
ATOM     10  C   UNL     1       3.953   4.840  -4.742  1.00  0.00    -0.027 C 
ATOM     11  C   UNL     1       5.488   5.253  -3.053  1.00  0.00     0.017 C 
ATOM     12  C   UNL     1       4.622   5.952  -5.068  1.00  0.00    -0.027 C 
BRANCH   7  13
ATOM     13  C   UNL     1       6.797   2.450  -3.793  1.00  0.00     0.228 C 
ATOM     14  N   UNL     1       6.250   1.328  -3.247  1.00  0.00    -0.326 N 
ATOM     15  H   UNL     1       6.915   0.686  -2.908  1.00  0.00     0.169 HD
ATOM     16  O   UNL     1       8.006   2.597  -3.575  1.00  0.00    -0.274 OA
BRANCH  14  17
ATOM     17  C   UNL     1       4.925   0.912  -3.076  1.00  0.00     0.041 A 
ATOM     18  C   UNL     1       2.280   0.521  -2.270  1.00  0.00     0.119 A 
ATOM     19  C   UNL     1       2.560   0.964  -3.562  1.00  0.00     0.048 A 
ATOM     20  C   UNL     1       3.323   0.124  -1.440  1.00  0.00     0.048 A 
ATOM     21  C   UNL     1       3.885   1.151  -3.973  1.00  0.00     0.030 A 
ATOM     22  C   UNL     1       4.642   0.305  -1.849  1.00  0.00     0.030 A 
BRANCH  18  23
ATOM     23  O   UNL     1       0.967   0.451  -1.903  1.00  0.00    -0.494 OA
BRANCH  23  24
ATOM     24  C   UNL     1       0.672   1.034  -0.624  1.00  0.00     0.226 C 
ATOM     25  C   UNL     1       0.560  -0.036   0.452  1.00  0.00     0.049 C 
ENDBRANCH  23  24
ENDBRANCH  18  23
ENDBRANCH  14  17
ENDBRANCH   7  13
ENDBRANCH   3   6
ENDBRANCH   1   2
BRANCH   1  26
ATOM     26  C   UNL     1       8.007   1.827  -7.538  1.00  0.00     0.023 C 
BRANCH  26  27
ATOM     27  C   UNL     1       8.164   1.893  -9.060  1.00  0.00     0.023 C 
BRANCH  27  28
ATOM     28  C   UNL     1       9.594   2.083  -9.554  1.00  0.00     0.116 C 
BRANCH  28  29
ATOM     29  N   UNL     1      10.488   1.018  -9.124  1.00  0.00    -0.352 N 
ATOM     30  C   UNL     1      11.434   0.343  -9.855  1.00  0.00     0.251 C 
ATOM     31  H   UNL     1      10.403   0.745  -8.182  1.00  0.00     0.163 HD
ATOM     32  O   UNL     1      12.013  -0.628  -9.379  1.00  0.00    -0.269 OA
BRANCH  30  33
ATOM     33  C   UNL     1      11.727   0.774 -11.238  1.00  0.00     0.039 A 
ATOM     34  C   UNL     1      11.770  -0.187 -12.250  1.00  0.00     0.014 A 
ATOM     35  C   UNL     1      11.927   2.125 -11.536  1.00  0.00     0.014 A 
ATOM     36  C   UNL     1      11.946   0.215 -13.575  1.00  0.00     0.010 A 
ATOM     37  C   UNL     1      12.023   2.530 -12.863  1.00  0.00     0.010 A 
ATOM     38  C   UNL     1      12.035   1.580 -13.896  1.00  0.00    -0.014 A 
BRANCH  38  39
ATOM     39  C   UNL     1      12.137   2.035 -15.305  1.00  0.00     0.031 A 
ATOM     40  C   UNL     1      13.365   2.759 -15.780  1.00  0.00     0.074 A 
ATOM     41  C   UNL     1      11.098   1.850 -16.142  1.00  0.00     0.049 A 
ATOM     42  N   UNL     1      13.623   3.262 -16.961  1.00  0.00    -0.248 NA
ATOM     43  C   UNL     1      14.434   2.968 -14.790  1.00  0.00     0.031 C 
ATOM     44  C   UNL     1       9.837   1.190 -15.799  1.00  0.00     0.029 A 
ATOM     45  N   UNL     1      10.941   2.201 -17.460  1.00  0.00    -0.354 N 
ATOM     46  C   UNL     1      14.873   3.859 -16.850  1.00  0.00     0.074 A 
ATOM     47  C   UNL     1      15.293   3.707 -15.474  1.00  0.00     0.031 C 
ATOM     48  C   UNL     1       9.055   1.144 -16.889  1.00  0.00     0.029 A 
ATOM     49  C   UNL     1       9.738   1.811 -17.993  1.00  0.00     0.049 A 
ATOM     50  H   UNL     1      11.627   2.687 -17.974  1.00  0.00     0.167 HD
ATOM     51  C   UNL     1      15.616   4.462 -17.810  1.00  0.00     0.031 A 
ATOM     52  C   UNL     1       9.240   1.970 -19.233  1.00  0.00     0.031 A 
ATOM     53  C   UNL     1      15.196   4.617 -19.177  1.00  0.00     0.049 A 
ATOM     54  C   UNL     1      10.062   2.682 -20.270  1.00  0.00     0.074 A 
ATOM     55  C   UNL     1      15.896   5.165 -20.238  1.00  0.00     0.029 A 
ATOM     56  N   UNL     1      13.958   4.232 -19.670  1.00  0.00    -0.354 N 
ATOM     57  N   UNL     1      11.272   3.178 -20.170  1.00  0.00    -0.248 NA
ATOM     58  C   UNL     1       9.449   2.849 -21.596  1.00  0.00     0.031 C 
ATOM     59  C   UNL     1      15.058   5.166 -21.359  1.00  0.00     0.029 A 
ATOM     60  C   UNL     1      13.861   4.561 -21.012  1.00  0.00     0.049 A 
ATOM     61  H   UNL     1      13.253   3.791 -19.144  1.00  0.00     0.167 HD
ATOM     62  C   UNL     1      11.578   3.685 -21.426  1.00  0.00     0.074 A 
ATOM     63  C   UNL     1      10.431   3.426 -22.273  1.00  0.00     0.031 C 
ATOM     64  C   UNL     1      12.711   4.304 -21.842  1.00  0.00     0.031 A 
BRANCH  51  65
ATOM     65  C   UNL     1      16.952   5.015 -17.393  1.00  0.00    -0.014 A 
ATOM     66  C   UNL     1      18.004   4.170 -17.002  1.00  0.00     0.009 A 
ATOM     67  C   UNL     1      17.163   6.402 -17.388  1.00  0.00     0.009 A 
ATOM     68  C   UNL     1      19.216   4.704 -16.560  1.00  0.00     0.001 A 
ATOM     69  C   UNL     1      18.388   6.933 -16.980  1.00  0.00     0.001 A 
ATOM     70  C   UNL     1      19.408   6.085 -16.552  1.00  0.00     0.000 A 
ENDBRANCH  51  65
BRANCH  52  71
ATOM     71  C   UNL     1       7.907   1.410 -19.577  1.00  0.00    -0.014 A 
ATOM     72  C   UNL     1       7.808   0.301 -20.431  1.00  0.00     0.009 A 
ATOM     73  C   UNL     1       6.731   1.970 -19.054  1.00  0.00     0.009 A 
ATOM     74  C   UNL     1       6.559  -0.223 -20.772  1.00  0.00     0.001 A 
ATOM     75  C   UNL     1       5.485   1.427 -19.374  1.00  0.00     0.001 A 
ATOM     76  C   UNL     1       5.399   0.337 -20.239  1.00  0.00     0.000 A 
ENDBRANCH  52  71
BRANCH  64  77
ATOM     77  C   UNL     1      12.780   4.710 -23.288  1.00  0.00    -0.014 A 
ATOM     78  C   UNL     1      12.013   5.774 -23.788  1.00  0.00     0.009 A 
ATOM     79  C   UNL     1      13.655   4.038 -24.156  1.00  0.00     0.009 A 
ATOM     80  C   UNL     1      12.096   6.132 -25.136  1.00  0.00     0.001 A 
ATOM     81  C   UNL     1      13.760   4.418 -25.494  1.00  0.00     0.001 A 
ATOM     82  C   UNL     1      12.973   5.458 -25.985  1.00  0.00     0.000 A 
ENDBRANCH  64  77
ENDBRANCH  38  39
ENDBRANCH  30  33
ENDBRANCH  28  29
ENDBRANCH  27  28
ENDBRANCH  26  27
ENDBRANCH   1  26
TORSDOF 15
