REMARK SMILES COc1cc([C@@H]2CC(=O)Nc3c(C(=O)NCCCCNC(=O)c4ccc(-c5c6nc(c(-c7ccccc7)c7ccc([nH]7)c(-c7ccccc7)c7nc(c(-c8ccccc8)c8ccc5[nH]8)C=C7)C=C6)cc4)cn(-c4ccccc4)c32)ccc1O
REMARK SMILES IDX 17 1 16 2 15 3 13 4 14 5 12 7 6 8 7 9 79 10 8 11 11 12 72 13
REMARK SMILES IDX 9 14 10 15 71 16 5 18 3 19 4 20 82 21 81 22 80 23 2 24 1 25
REMARK SMILES IDX 83 26 73 28 74 29 78 30 75 31 77 32 76 33 18 34 19 35 20 36
REMARK SMILES IDX 21 37 22 39 23 40 24 41 70 42 25 43 69 44 26 45 27 46 28 47
REMARK SMILES IDX 63 48 29 49 68 50 62 51 64 52 30 53 67 54 61 55 60 56 31 58
REMARK SMILES IDX 53 59 38 60 52 61 39 62 42 63 51 64 65 65 40 66 41 67 50 69
REMARK SMILES IDX 66 70 43 71 32 72 33 73 37 74 34 75 36 76 35 77 54 78 55 79
REMARK SMILES IDX 59 80 56 81 58 82 57 83 44 84 45 85 49 86 46 87 48 88 47 89
REMARK H PARENT 15 6 10 17 83 27 20 38 64 57 42 68
REMARK Flexibility Score: inf
ROOT
ATOM      1  C   UNL     1      -7.064   4.669   5.394  1.00  0.00     0.023 C 
ENDROOT
BRANCH   1   2
ATOM      2  C   UNL     1      -7.829   4.484   4.074  1.00  0.00     0.116 C 
BRANCH   2   3
ATOM      3  N   UNL     1      -8.005   5.734   3.373  1.00  0.00    -0.352 N 
ATOM      4  C   UNL     1      -7.269   6.415   2.439  1.00  0.00     0.254 C 
ATOM      5  O   UNL     1      -7.820   7.436   2.012  1.00  0.00    -0.269 OA
ATOM      6  H   UNL     1      -8.836   6.199   3.620  1.00  0.00     0.163 HD
BRANCH   4   7
ATOM      7  C   UNL     1      -5.945   6.023   1.929  1.00  0.00     0.081 A 
ATOM      8  C   UNL     1      -2.529   4.548   1.525  1.00  0.00     0.078 C 
ATOM      9  C   UNL     1      -2.275   4.381   3.038  1.00  0.00     0.115 C 
ATOM     10  C   UNL     1      -3.854   5.244   1.376  1.00  0.00     0.055 A 
ATOM     11  C   UNL     1      -3.488   3.782   3.724  1.00  0.00     0.225 C 
ATOM     12  C   UNL     1      -4.895   5.125   2.283  1.00  0.00     0.076 A 
ATOM     13  N   UNL     1      -4.145   6.289   0.532  1.00  0.00    -0.317 N 
ATOM     14  O   UNL     1      -3.405   2.993   4.663  1.00  0.00    -0.275 OA
ATOM     15  N   UNL     1      -4.715   4.258   3.333  1.00  0.00    -0.324 N 
ATOM     16  C   UNL     1      -5.391   6.758   0.876  1.00  0.00     0.107 A 
ATOM     17  H   UNL     1      -5.509   3.962   3.833  1.00  0.00     0.170 HD
BRANCH   8  18
ATOM     18  C   UNL     1      -2.386   3.158   0.902  1.00  0.00    -0.034 A 
ATOM     19  C   UNL     1      -0.752   1.401   0.334  1.00  0.00     0.160 A 
ATOM     20  C   UNL     1      -1.095   2.751   0.514  1.00  0.00     0.054 A 
ATOM     21  C   UNL     1      -1.747   0.442   0.528  1.00  0.00     0.157 A 
ATOM     22  C   UNL     1      -3.057   0.836   0.815  1.00  0.00     0.050 A 
ATOM     23  C   UNL     1      -3.385   2.183   0.975  1.00  0.00     0.008 A 
BRANCH  19  24
ATOM     24  O   UNL     1       0.574   1.259   0.047  1.00  0.00    -0.493 OA
ATOM     25  C   UNL     1       1.167  -0.022  -0.035  1.00  0.00     0.278 C 
ENDBRANCH  19  24
BRANCH  21  26
ATOM     26  O   UNL     1      -1.571  -0.910   0.505  1.00  0.00    -0.504 OA
ATOM     27  H   UNL     1      -0.725  -1.270   0.321  1.00  0.00     0.293 HD
ENDBRANCH  21  26
ENDBRANCH   8  18
BRANCH  13  28
ATOM     28  C   UNL     1      -3.289   6.886  -0.419  1.00  0.00     0.045 A 
ATOM     29  C   UNL     1      -2.636   6.095  -1.369  1.00  0.00     0.026 A 
ATOM     30  C   UNL     1      -3.080   8.271  -0.378  1.00  0.00     0.026 A 
ATOM     31  C   UNL     1      -1.768   6.697  -2.280  1.00  0.00     0.002 A 
ATOM     32  C   UNL     1      -2.180   8.856  -1.268  1.00  0.00     0.002 A 
ATOM     33  C   UNL     1      -1.529   8.071  -2.221  1.00  0.00     0.000 A 
ENDBRANCH  13  28
ENDBRANCH   4   7
ENDBRANCH   2   3
ENDBRANCH   1   2
BRANCH   1  34
ATOM     34  C   UNL     1      -7.916   4.968   6.632  1.00  0.00     0.023 C 
BRANCH  34  35
ATOM     35  C   UNL     1      -8.681   3.764   7.176  1.00  0.00     0.116 C 
BRANCH  35  36
ATOM     36  N   UNL     1      -7.816   2.663   7.618  1.00  0.00    -0.352 N 
ATOM     37  C   UNL     1      -8.154   1.325   7.782  1.00  0.00     0.251 C 
ATOM     38  H   UNL     1      -6.883   2.902   7.822  1.00  0.00     0.163 HD
ATOM     39  O   UNL     1      -7.525   0.575   8.498  1.00  0.00    -0.269 OA
BRANCH  37  40
ATOM     40  C   UNL     1      -9.306   0.835   7.009  1.00  0.00     0.039 A 
ATOM     41  C   UNL     1     -10.345   0.097   7.583  1.00  0.00     0.014 A 
ATOM     42  C   UNL     1      -9.358   1.261   5.689  1.00  0.00     0.014 A 
ATOM     43  C   UNL     1     -11.494  -0.133   6.827  1.00  0.00     0.010 A 
ATOM     44  C   UNL     1     -10.556   1.220   5.039  1.00  0.00     0.010 A 
ATOM     45  C   UNL     1     -11.595   0.449   5.557  1.00  0.00    -0.014 A 
BRANCH  45  46
ATOM     46  C   UNL     1     -12.782   0.318   4.724  1.00  0.00     0.031 A 
ATOM     47  C   UNL     1     -14.063   0.821   5.288  1.00  0.00     0.074 A 
ATOM     48  C   UNL     1     -12.663   0.026   3.409  1.00  0.00     0.049 A 
ATOM     49  N   UNL     1     -15.137   0.140   5.514  1.00  0.00    -0.248 NA
ATOM     50  C   UNL     1     -14.155   2.228   5.708  1.00  0.00     0.031 C 
ATOM     51  C   UNL     1     -11.437  -0.177   2.621  1.00  0.00     0.029 A 
ATOM     52  N   UNL     1     -13.626   0.029   2.456  1.00  0.00    -0.354 N 
ATOM     53  C   UNL     1     -16.098   1.047   5.952  1.00  0.00     0.074 A 
ATOM     54  C   UNL     1     -15.402   2.289   6.184  1.00  0.00     0.031 C 
ATOM     55  C   UNL     1     -11.707   0.016   1.313  1.00  0.00     0.029 A 
ATOM     56  C   UNL     1     -13.142   0.150   1.161  1.00  0.00     0.049 A 
ATOM     57  H   UNL     1     -14.585  -0.049   2.664  1.00  0.00     0.167 HD
ATOM     58  C   UNL     1     -17.430   0.763   5.893  1.00  0.00     0.031 A 
ATOM     59  C   UNL     1     -13.871   0.387   0.046  1.00  0.00     0.031 A 
ATOM     60  C   UNL     1     -17.670  -0.624   5.587  1.00  0.00     0.049 A 
ATOM     61  C   UNL     1     -15.268  -0.008   0.350  1.00  0.00     0.074 A 
ATOM     62  C   UNL     1     -17.343  -1.821   6.191  1.00  0.00     0.029 A 
ATOM     63  N   UNL     1     -17.981  -0.934   4.283  1.00  0.00    -0.354 N 
ATOM     64  N   UNL     1     -15.616  -1.239   0.601  1.00  0.00    -0.248 NA
ATOM     65  C   UNL     1     -16.175   1.009   0.862  1.00  0.00     0.031 C 
ATOM     66  C   UNL     1     -16.968  -2.676   5.112  1.00  0.00     0.029 A 
ATOM     67  C   UNL     1     -17.167  -1.976   3.919  1.00  0.00     0.049 A 
ATOM     68  H   UNL     1     -18.658  -0.493   3.720  1.00  0.00     0.167 HD
ATOM     69  C   UNL     1     -16.504  -1.147   1.665  1.00  0.00     0.074 A 
ATOM     70  C   UNL     1     -16.894   0.263   1.708  1.00  0.00     0.031 C 
ATOM     71  C   UNL     1     -16.610  -2.146   2.594  1.00  0.00     0.031 A 
BRANCH  58  72
ATOM     72  C   UNL     1     -18.521   1.789   5.741  1.00  0.00    -0.014 A 
ATOM     73  C   UNL     1     -19.862   1.374   5.848  1.00  0.00     0.009 A 
ATOM     74  C   UNL     1     -18.293   3.076   5.222  1.00  0.00     0.009 A 
ATOM     75  C   UNL     1     -20.913   2.179   5.392  1.00  0.00     0.001 A 
ATOM     76  C   UNL     1     -19.343   3.898   4.803  1.00  0.00     0.001 A 
ATOM     77  C   UNL     1     -20.651   3.438   4.862  1.00  0.00     0.000 A 
ENDBRANCH  58  72
BRANCH  59  78
ATOM     78  C   UNL     1     -13.475   1.192  -1.128  1.00  0.00    -0.014 A 
ATOM     79  C   UNL     1     -14.171   1.099  -2.341  1.00  0.00     0.009 A 
ATOM     80  C   UNL     1     -12.547   2.244  -0.986  1.00  0.00     0.009 A 
ATOM     81  C   UNL     1     -13.970   2.043  -3.358  1.00  0.00     0.001 A 
ATOM     82  C   UNL     1     -12.345   3.184  -2.001  1.00  0.00     0.001 A 
ATOM     83  C   UNL     1     -13.068   3.091  -3.183  1.00  0.00     0.000 A 
ENDBRANCH  59  78
BRANCH  71  84
ATOM     84  C   UNL     1     -15.853  -3.433   2.350  1.00  0.00    -0.014 A 
ATOM     85  C   UNL     1     -14.451  -3.485   2.240  1.00  0.00     0.009 A 
ATOM     86  C   UNL     1     -16.551  -4.646   2.419  1.00  0.00     0.009 A 
ATOM     87  C   UNL     1     -13.774  -4.707   2.170  1.00  0.00     0.001 A 
ATOM     88  C   UNL     1     -15.875  -5.868   2.369  1.00  0.00     0.001 A 
ATOM     89  C   UNL     1     -14.488  -5.899   2.239  1.00  0.00     0.000 A 
ENDBRANCH  71  84
ENDBRANCH  45  46
ENDBRANCH  37  40
ENDBRANCH  35  36
ENDBRANCH  34  35
ENDBRANCH   1  34
TORSDOF 15
