REMARK SMILES O=C(NCCCCNC(=O)c1cc(-c2ccc[nH]c2=O)ccc1Cl)c1ccc(-c2c3nc(c(-c4ccccc4)c4ccc([nH]4)c(-c4ccccc4)c4nc(c(-c5ccccc5)c5ccc2[nH]5)C=C4)C=C3)cc1
REMARK SMILES IDX 5 1 4 2 3 3 1 4 2 5 25 7 26 8 72 9 27 10 71 11 28 12 29 13
REMARK SMILES IDX 30 14 65 15 31 16 70 17 64 18 66 19 32 20 69 21 63 22 62 23
REMARK SMILES IDX 33 25 55 26 40 27 54 28 41 29 44 30 53 31 67 32 42 33 43 34
REMARK SMILES IDX 52 36 68 37 45 38 34 39 35 40 39 41 36 42 38 43 37 44 56 45
REMARK SMILES IDX 57 46 61 47 58 48 60 49 59 50 46 51 47 52 51 53 48 54 50 55
REMARK SMILES IDX 49 56 6 57 7 58 8 59 9 60 10 62 11 63 12 64 23 65 13 66
REMARK SMILES IDX 22 67 24 68 21 69 14 70 15 71 19 72 16 73 18 74 20 75 17 76
REMARK H PARENT 3 6 66 24 44 35 8 61 18 77
REMARK Flexibility Score: inf
ROOT
ATOM      1  C   UNL     1       4.849  -2.717  -0.540  1.00  0.00     0.023 C 
ENDROOT
BRANCH   1   2
ATOM      2  C   UNL     1       4.571  -1.228  -0.706  1.00  0.00     0.116 C 
BRANCH   2   3
ATOM      3  N   UNL     1       3.152  -0.909  -0.767  1.00  0.00    -0.352 N 
ATOM      4  O   UNL     1       1.189  -0.003  -0.122  1.00  0.00    -0.269 OA
ATOM      5  C   UNL     1       2.408  -0.052   0.011  1.00  0.00     0.251 C 
ATOM      6  H   UNL     1       2.649  -1.378  -1.471  1.00  0.00     0.163 HD
BRANCH   5   7
ATOM      7  C   UNL     1       3.071   0.780   1.040  1.00  0.00     0.039 A 
ATOM      8  C   UNL     1       4.252   1.465   0.756  1.00  0.00     0.014 A 
ATOM      9  C   UNL     1       2.509   0.855   2.318  1.00  0.00     0.014 A 
ATOM     10  C   UNL     1       4.965   2.065   1.788  1.00  0.00     0.010 A 
ATOM     11  C   UNL     1       3.182   1.536   3.336  1.00  0.00     0.010 A 
ATOM     12  C   UNL     1       4.444   2.100   3.093  1.00  0.00    -0.014 A 
BRANCH  12  13
ATOM     13  C   UNL     1       5.242   2.733   4.174  1.00  0.00     0.031 A 
ATOM     14  C   UNL     1       5.782   1.920   5.321  1.00  0.00     0.074 A 
ATOM     15  C   UNL     1       5.539   4.044   4.086  1.00  0.00     0.049 A 
ATOM     16  N   UNL     1       6.568   2.298   6.300  1.00  0.00    -0.248 NA
ATOM     17  C   UNL     1       5.387   0.504   5.386  1.00  0.00     0.031 C 
ATOM     18  C   UNL     1       5.074   4.945   3.028  1.00  0.00     0.029 A 
ATOM     19  N   UNL     1       6.332   4.837   4.874  1.00  0.00    -0.354 N 
ATOM     20  C   UNL     1       6.736   1.181   7.108  1.00  0.00     0.074 A 
ATOM     21  C   UNL     1       5.958   0.113   6.518  1.00  0.00     0.031 C 
ATOM     22  C   UNL     1       5.645   6.146   3.194  1.00  0.00     0.029 A 
ATOM     23  C   UNL     1       6.473   6.116   4.394  1.00  0.00     0.049 A 
ATOM     24  H   UNL     1       6.758   4.521   5.703  1.00  0.00     0.167 HD
ATOM     25  C   UNL     1       7.474   1.052   8.237  1.00  0.00     0.031 A 
ATOM     26  C   UNL     1       7.194   7.152   4.861  1.00  0.00     0.031 A 
ATOM     27  C   UNL     1       8.269   2.103   8.817  1.00  0.00     0.049 A 
ATOM     28  C   UNL     1       8.010   6.979   6.107  1.00  0.00     0.074 A 
ATOM     29  C   UNL     1       9.081   2.052   9.938  1.00  0.00     0.029 A 
ATOM     30  N   UNL     1       8.355   3.393   8.319  1.00  0.00    -0.354 N 
ATOM     31  N   UNL     1       8.179   5.906   6.840  1.00  0.00    -0.248 NA
ATOM     32  C   UNL     1       8.736   8.163   6.588  1.00  0.00     0.031 C 
ATOM     33  C   UNL     1       9.630   3.323  10.139  1.00  0.00     0.029 A 
ATOM     34  C   UNL     1       9.191   4.153   9.120  1.00  0.00     0.049 A 
ATOM     35  H   UNL     1       7.890   3.721   7.516  1.00  0.00     0.167 HD
ATOM     36  C   UNL     1       9.040   6.281   7.862  1.00  0.00     0.074 A 
ATOM     37  C   UNL     1       9.374   7.673   7.642  1.00  0.00     0.031 C 
ATOM     38  C   UNL     1       9.509   5.537   8.892  1.00  0.00     0.031 A 
BRANCH  25  39
ATOM     39  C   UNL     1       7.438  -0.275   8.941  1.00  0.00    -0.014 A 
ATOM     40  C   UNL     1       8.130  -1.387   8.440  1.00  0.00     0.009 A 
ATOM     41  C   UNL     1       6.734  -0.400  10.150  1.00  0.00     0.009 A 
ATOM     42  C   UNL     1       8.095  -2.606   9.121  1.00  0.00     0.001 A 
ATOM     43  C   UNL     1       6.719  -1.613  10.839  1.00  0.00     0.001 A 
ATOM     44  C   UNL     1       7.393  -2.717  10.321  1.00  0.00     0.000 A 
ENDBRANCH  25  39
BRANCH  26  45
ATOM     45  C   UNL     1       7.183   8.443   4.131  1.00  0.00    -0.014 A 
ATOM     46  C   UNL     1       8.309   8.857   3.404  1.00  0.00     0.009 A 
ATOM     47  C   UNL     1       6.042   9.259   4.144  1.00  0.00     0.009 A 
ATOM     48  C   UNL     1       8.296  10.071   2.715  1.00  0.00     0.001 A 
ATOM     49  C   UNL     1       6.024  10.461   3.435  1.00  0.00     0.001 A 
ATOM     50  C   UNL     1       7.153  10.869   2.727  1.00  0.00     0.000 A 
ENDBRANCH  26  45
BRANCH  38  51
ATOM     51  C   UNL     1      10.450   6.215   9.843  1.00  0.00    -0.014 A 
ATOM     52  C   UNL     1       9.981   7.138  10.791  1.00  0.00     0.009 A 
ATOM     53  C   UNL     1      11.820   5.915   9.800  1.00  0.00     0.009 A 
ATOM     54  C   UNL     1      10.874   7.773  11.656  1.00  0.00     0.001 A 
ATOM     55  C   UNL     1      12.707   6.536  10.681  1.00  0.00     0.001 A 
ATOM     56  C   UNL     1      12.234   7.470  11.602  1.00  0.00     0.000 A 
ENDBRANCH  38  51
ENDBRANCH  12  13
ENDBRANCH   5   7
ENDBRANCH   2   3
ENDBRANCH   1   2
BRANCH   1  57
ATOM     57  C   UNL     1       4.342  -3.613  -1.669  1.00  0.00     0.023 C 
BRANCH  57  58
ATOM     58  C   UNL     1       4.734  -3.176  -3.077  1.00  0.00     0.116 C 
BRANCH  58  59
ATOM     59  N   UNL     1       6.173  -3.112  -3.269  1.00  0.00    -0.352 N 
ATOM     60  C   UNL     1       6.917  -3.620  -4.304  1.00  0.00     0.252 C 
ATOM     61  H   UNL     1       6.679  -2.644  -2.566  1.00  0.00     0.163 HD
ATOM     62  O   UNL     1       8.138  -3.509  -4.317  1.00  0.00    -0.269 OA
BRANCH  60  63
ATOM     63  C   UNL     1       6.240  -4.380  -5.366  1.00  0.00     0.059 A 
ATOM     64  C   UNL     1       6.474  -5.763  -5.401  1.00  0.00     0.024 A 
ATOM     65  C   UNL     1       5.383  -3.778  -6.290  1.00  0.00     0.053 A 
ATOM     66  C   UNL     1       5.804  -6.571  -6.329  1.00  0.00    -0.012 A 
ATOM     67  C   UNL     1       4.700  -4.579  -7.204  1.00  0.00     0.022 A 
ATOM     68  Cl  UNL     1       5.130  -2.072  -6.356  1.00  0.00    -0.083 Cl
ATOM     69  C   UNL     1       4.901  -5.963  -7.215  1.00  0.00     0.010 A 
BRANCH  66  70
ATOM     70  C   UNL     1       6.058  -8.025  -6.397  1.00  0.00     0.047 A 
ATOM     71  C   UNL     1       6.047  -8.789  -5.286  1.00  0.00     0.016 A 
ATOM     72  C   UNL     1       6.325  -8.711  -7.716  1.00  0.00     0.255 A 
ATOM     73  C   UNL     1       6.296 -10.212  -5.338  1.00  0.00     0.019 A 
ATOM     74  N   UNL     1       6.548 -10.067  -7.662  1.00  0.00    -0.329 N 
ATOM     75  O   UNL     1       6.345  -8.111  -8.786  1.00  0.00    -0.269 OA
ATOM     76  C   UNL     1       6.538 -10.805  -6.511  1.00  0.00     0.086 A 
ATOM     77  H   UNL     1       6.727 -10.538  -8.509  1.00  0.00     0.169 HD
ENDBRANCH  66  70
ENDBRANCH  60  63
ENDBRANCH  58  59
ENDBRANCH  57  58
ENDBRANCH   1  57
TORSDOF 12
