REMARK SMILES Cc1nc(CN(C)C(=O)NCc2ccc(C(=O)NCCCCNC(=O)c3ccc(-c4c5nc(c(-c6ccccc6)c6ccc([nH]6)c(-c6ccccc6)c6nc(c(-c7ccccc7)c7ccc4[nH]7)C=C6)C=C5)cc3)o2)n[nH]1
REMARK SMILES IDX 19 1 18 2 16 3 17 4 15 6 12 7 13 8 74 9 14 10 11 11 10 12
REMARK SMILES IDX 8 13 9 14 6 16 7 17 5 18 4 19 1 20 2 21 3 22 76 23 75 24
REMARK SMILES IDX 20 26 21 27 22 28 23 29 24 30 25 32 26 33 27 34 73 35 28 36
REMARK SMILES IDX 72 37 29 38 30 39 31 40 66 41 32 42 71 43 65 44 67 45 33 46
REMARK SMILES IDX 70 47 64 48 63 49 34 51 56 52 41 53 55 54 42 55 45 56 54 57
REMARK SMILES IDX 68 58 43 59 44 60 53 62 69 63 46 64 35 65 36 66 40 67 37 68
REMARK SMILES IDX 39 69 38 70 57 71 58 72 62 73 59 74 61 75 60 76 47 77 48 78
REMARK SMILES IDX 52 79 49 80 51 81 50 82
REMARK H PARENT 18 5 10 15 76 25 23 31 67 50 45 61
REMARK Flexibility Score: inf
ROOT
ATOM      1  C   UNL     1       8.409   5.811   6.076  1.00  0.00     0.116 C 
ENDROOT
BRANCH   1   2
ATOM      2  N   UNL     1       8.791   4.462   6.425  1.00  0.00    -0.349 N 
ATOM      3  C   UNL     1       8.216   3.249   6.119  1.00  0.00     0.286 C 
ATOM      4  O   UNL     1       8.820   2.261   6.546  1.00  0.00    -0.266 OA
ATOM      5  H   UNL     1       9.603   4.399   6.977  1.00  0.00     0.163 HD
BRANCH   3   6
ATOM      6  C   UNL     1       6.992   3.148   5.341  1.00  0.00     0.191 A 
ATOM      7  C   UNL     1       5.463   1.961   4.251  1.00  0.00     0.124 A 
ATOM      8  C   UNL     1       5.076   3.279   4.151  1.00  0.00     0.048 A 
ATOM      9  O   UNL     1       6.626   1.878   4.952  1.00  0.00    -0.454 OA
ATOM     10  C   UNL     1       6.029   4.029   4.879  1.00  0.00     0.056 A 
BRANCH   7  11
ATOM     11  C   UNL     1       4.873   0.674   3.802  1.00  0.00     0.193 C 
BRANCH  11  12
ATOM     12  N   UNL     1       3.468   0.879   3.527  1.00  0.00    -0.331 N 
ATOM     13  C   UNL     1       2.754   1.308   2.474  1.00  0.00     0.317 C 
ATOM     14  O   UNL     1       1.613   1.692   2.749  1.00  0.00    -0.249 OA
ATOM     15  H   UNL     1       2.898   0.647   4.296  1.00  0.00     0.165 HD
BRANCH  13  16
ATOM     16  N   UNL     1       3.244   1.334   1.199  1.00  0.00    -0.320 N 
ATOM     17  C   UNL     1       4.513   0.808   0.740  1.00  0.00     0.149 C 
BRANCH  16  18
ATOM     18  C   UNL     1       2.299   1.754   0.152  1.00  0.00     0.200 C 
BRANCH  18  19
ATOM     19  C   UNL     1       1.205   0.746  -0.053  1.00  0.00     0.170 A 
ATOM     20  C   UNL     1      -2.227  -0.216  -0.100  1.00  0.00     0.089 C 
ATOM     21  C   UNL     1      -0.765  -0.012  -0.134  1.00  0.00     0.121 A 
ATOM     22  N   UNL     1      -0.114   1.128  -0.138  1.00  0.00    -0.215 NA
ATOM     23  N   UNL     1       0.138  -1.036  -0.122  1.00  0.00    -0.263 N 
ATOM     24  N   UNL     1       1.402  -0.582  -0.123  1.00  0.00    -0.157 NA
ATOM     25  H   UNL     1      -0.108  -1.990  -0.115  1.00  0.00     0.192 HD
ENDBRANCH  18  19
ENDBRANCH  16  18
ENDBRANCH  13  16
ENDBRANCH  11  12
ENDBRANCH   7  11
ENDBRANCH   3   6
ENDBRANCH   1   2
BRANCH   1  26
ATOM     26  C   UNL     1       7.537   6.441   7.162  1.00  0.00     0.023 C 
BRANCH  26  27
ATOM     27  C   UNL     1       8.329   7.007   8.347  1.00  0.00     0.023 C 
BRANCH  27  28
ATOM     28  C   UNL     1       9.326   8.109   7.995  1.00  0.00     0.116 C 
BRANCH  28  29
ATOM     29  N   UNL     1       8.728   9.233   7.292  1.00  0.00    -0.352 N 
ATOM     30  C   UNL     1       9.120  10.551   7.296  1.00  0.00     0.251 C 
ATOM     31  H   UNL     1       7.940   9.023   6.741  1.00  0.00     0.163 HD
ATOM     32  O   UNL     1       8.452  11.400   6.722  1.00  0.00    -0.269 OA
BRANCH  30  33
ATOM     33  C   UNL     1      10.334  10.939   8.043  1.00  0.00     0.039 A 
ATOM     34  C   UNL     1      10.252  11.997   8.951  1.00  0.00     0.014 A 
ATOM     35  C   UNL     1      11.533  10.243   7.872  1.00  0.00     0.014 A 
ATOM     36  C   UNL     1      11.357  12.313   9.742  1.00  0.00     0.010 A 
ATOM     37  C   UNL     1      12.613  10.518   8.704  1.00  0.00     0.010 A 
ATOM     38  C   UNL     1      12.534  11.552   9.650  1.00  0.00    -0.014 A 
BRANCH  38  39
ATOM     39  C   UNL     1      13.688  11.814  10.544  1.00  0.00     0.031 A 
ATOM     40  C   UNL     1      14.993  12.293   9.973  1.00  0.00     0.074 A 
ATOM     41  C   UNL     1      13.582  11.552  11.861  1.00  0.00     0.049 A 
ATOM     42  N   UNL     1      16.128  12.516  10.585  1.00  0.00    -0.248 NA
ATOM     43  C   UNL     1      15.036  12.529   8.520  1.00  0.00     0.031 C 
ATOM     44  C   UNL     1      12.385  11.039  12.532  1.00  0.00     0.029 A 
ATOM     45  N   UNL     1      14.502  11.674  12.872  1.00  0.00    -0.354 N 
ATOM     46  C   UNL     1      17.022  12.897   9.592  1.00  0.00     0.074 A 
ATOM     47  C   UNL     1      16.311  12.834   8.334  1.00  0.00     0.031 C 
ATOM     48  C   UNL     1      12.638  10.912  13.845  1.00  0.00     0.029 A 
ATOM     49  C   UNL     1      14.020  11.300  14.103  1.00  0.00     0.049 A 
ATOM     50  H   UNL     1      15.421  11.999  12.729  1.00  0.00     0.167 HD
ATOM     51  C   UNL     1      18.314  13.283   9.718  1.00  0.00     0.031 A 
ATOM     52  C   UNL     1      14.626  11.268  15.305  1.00  0.00     0.031 A 
ATOM     53  C   UNL     1      19.016  13.365  10.971  1.00  0.00     0.049 A 
ATOM     54  C   UNL     1      16.059  11.708  15.418  1.00  0.00     0.074 A 
ATOM     55  C   UNL     1      20.307  13.805  11.207  1.00  0.00     0.029 A 
ATOM     56  N   UNL     1      18.485  13.000  12.197  1.00  0.00    -0.354 N 
ATOM     57  N   UNL     1      16.868  12.134  14.479  1.00  0.00    -0.248 NA
ATOM     58  C   UNL     1      16.657  11.674  16.760  1.00  0.00     0.031 C 
ATOM     59  C   UNL     1      20.572  13.666  12.573  1.00  0.00     0.029 A 
ATOM     60  C   UNL     1      19.429  13.187  13.193  1.00  0.00     0.049 A 
ATOM     61  H   UNL     1      17.573  12.659  12.340  1.00  0.00     0.167 HD
ATOM     62  C   UNL     1      18.060  12.446  15.120  1.00  0.00     0.074 A 
ATOM     63  C   UNL     1      17.863  12.174  16.529  1.00  0.00     0.031 C 
ATOM     64  C   UNL     1      19.215  12.916  14.590  1.00  0.00     0.031 A 
BRANCH  51  65
ATOM     65  C   UNL     1      19.055  13.645   8.462  1.00  0.00    -0.014 A 
ATOM     66  C   UNL     1      18.767  14.829   7.766  1.00  0.00     0.009 A 
ATOM     67  C   UNL     1      20.082  12.813   7.992  1.00  0.00     0.009 A 
ATOM     68  C   UNL     1      19.471  15.157   6.606  1.00  0.00     0.001 A 
ATOM     69  C   UNL     1      20.804  13.156   6.847  1.00  0.00     0.001 A 
ATOM     70  C   UNL     1      20.492  14.323   6.151  1.00  0.00     0.000 A 
ENDBRANCH  51  65
BRANCH  52  71
ATOM     71  C   UNL     1      13.878  10.819  16.508  1.00  0.00    -0.014 A 
ATOM     72  C   UNL     1      13.508  11.740  17.499  1.00  0.00     0.009 A 
ATOM     73  C   UNL     1      13.546   9.466  16.679  1.00  0.00     0.009 A 
ATOM     74  C   UNL     1      12.847  11.311  18.653  1.00  0.00     0.001 A 
ATOM     75  C   UNL     1      12.861   9.045  17.820  1.00  0.00     0.001 A 
ATOM     76  C   UNL     1      12.522   9.965  18.811  1.00  0.00     0.000 A 
ENDBRANCH  52  71
BRANCH  64  77
ATOM     77  C   UNL     1      20.340  13.202  15.542  1.00  0.00    -0.014 A 
ATOM     78  C   UNL     1      21.073  12.164  16.137  1.00  0.00     0.009 A 
ATOM     79  C   UNL     1      20.697  14.532  15.814  1.00  0.00     0.009 A 
ATOM     80  C   UNL     1      22.121  12.453  17.013  1.00  0.00     0.001 A 
ATOM     81  C   UNL     1      21.763  14.818  16.668  1.00  0.00     0.001 A 
ATOM     82  C   UNL     1      22.468  13.779  17.273  1.00  0.00     0.000 A 
ENDBRANCH  64  77
ENDBRANCH  38  39
ENDBRANCH  30  33
ENDBRANCH  28  29
ENDBRANCH  27  28
ENDBRANCH  26  27
ENDBRANCH   1  26
TORSDOF 16
