REMARK SMILES CC(C)NC(=O)CNC(=O)N1CCO[C@@H](CC(=O)NCCCCNC(=O)c2ccc(-c3c4nc(c(-c5ccccc5)c5ccc([nH]5)c(-c5ccccc5)c5nc(c(-c6ccccc6)c6ccc3[nH]6)C=C5)C=C4)cc2)C1
REMARK SMILES IDX 20 1 19 2 17 3 18 4 16 6 15 7 11 8 12 9 75 10 13 11 14 12
REMARK SMILES IDX 9 13 8 14 10 16 7 17 5 18 4 19 6 21 2 22 1 23 3 24 21 25
REMARK SMILES IDX 22 26 23 27 24 28 25 29 26 31 27 32 28 33 74 34 29 35 73 36
REMARK SMILES IDX 30 37 31 38 32 39 67 40 33 41 72 42 66 43 68 44 34 45 71 46
REMARK SMILES IDX 65 47 64 48 35 50 57 51 42 52 56 53 43 54 46 55 55 56 69 57
REMARK SMILES IDX 44 58 45 59 54 61 70 62 47 63 36 64 37 65 41 66 38 67 40 68
REMARK SMILES IDX 39 69 58 70 59 71 63 72 60 73 62 74 61 75 48 76 49 77 53 78
REMARK SMILES IDX 50 79 52 80 51 81
REMARK H PARENT 19 5 8 15 4 20 24 30 68 49 46 60
REMARK Flexibility Score: inf
ROOT
ATOM      1  C   UNL     1       5.671  -1.161  -2.542  1.00  0.00     0.116 C 
ENDROOT
BRANCH   1   2
ATOM      2  N   UNL     1       5.493  -2.031  -1.391  1.00  0.00    -0.356 N 
ATOM      3  C   UNL     1       4.886  -3.248  -1.280  1.00  0.00     0.222 C 
ATOM      4  O   UNL     1       4.695  -3.695  -0.148  1.00  0.00    -0.275 OA
ATOM      5  H   UNL     1       5.875  -1.686  -0.551  1.00  0.00     0.163 HD
BRANCH   3   6
ATOM      6  C   UNL     1       4.439  -4.025  -2.506  1.00  0.00     0.133 C 
BRANCH   6   7
ATOM      7  C   UNL     1       2.946  -3.849  -2.803  1.00  0.00     0.147 C 
ATOM      8  N   UNL     1       1.327  -2.210  -3.774  1.00  0.00    -0.320 N 
ATOM      9  C   UNL     1       0.877  -3.228  -4.715  1.00  0.00     0.150 C 
ATOM     10  C   UNL     1       2.667  -2.425  -3.279  1.00  0.00     0.154 C 
ATOM     11  C   UNL     1       1.148  -4.625  -4.146  1.00  0.00     0.182 C 
ATOM     12  O   UNL     1       2.543  -4.790  -3.819  1.00  0.00    -0.374 OA
BRANCH   8  13
ATOM     13  C   UNL     1       0.884  -0.911  -3.822  1.00  0.00     0.318 C 
ATOM     14  N   UNL     1      -0.431  -0.687  -3.589  1.00  0.00    -0.329 N 
ATOM     15  H   UNL     1      -0.769   0.201  -3.847  1.00  0.00     0.165 HD
ATOM     16  O   UNL     1       1.643   0.051  -3.919  1.00  0.00    -0.249 OA
BRANCH  14  17
ATOM     17  C   UNL     1      -1.403  -1.595  -3.005  1.00  0.00     0.217 C 
BRANCH  17  18
ATOM     18  C   UNL     1      -1.928  -1.183  -1.623  1.00  0.00     0.239 C 
ATOM     19  N   UNL     1      -1.109  -1.105  -0.535  1.00  0.00    -0.352 N 
ATOM     20  H   UNL     1      -1.570  -0.907   0.312  1.00  0.00     0.163 HD
ATOM     21  O   UNL     1      -3.137  -1.009  -1.443  1.00  0.00    -0.273 OA
BRANCH  19  22
ATOM     22  C   UNL     1       0.333  -1.265  -0.419  1.00  0.00     0.075 C 
ATOM     23  C   UNL     1       0.953  -0.005   0.175  1.00  0.00     0.030 C 
ATOM     24  C   UNL     1       0.686  -2.498   0.406  1.00  0.00     0.030 C 
ENDBRANCH  19  22
ENDBRANCH  17  18
ENDBRANCH  14  17
ENDBRANCH   8  13
ENDBRANCH   6   7
ENDBRANCH   3   6
ENDBRANCH   1   2
BRANCH   1  25
ATOM     25  C   UNL     1       4.644  -0.023  -2.523  1.00  0.00     0.023 C 
BRANCH  25  26
ATOM     26  C   UNL     1       5.094   1.278  -1.891  1.00  0.00     0.023 C 
BRANCH  26  27
ATOM     27  C   UNL     1       6.155   2.013  -2.677  1.00  0.00     0.116 C 
BRANCH  27  28
ATOM     28  N   UNL     1       5.746   2.401  -4.019  1.00  0.00    -0.352 N 
ATOM     29  C   UNL     1       6.043   3.564  -4.696  1.00  0.00     0.251 C 
ATOM     30  H   UNL     1       5.188   1.751  -4.504  1.00  0.00     0.163 HD
ATOM     31  O   UNL     1       5.590   3.783  -5.809  1.00  0.00    -0.269 OA
BRANCH  29  32
ATOM     32  C   UNL     1       6.883   4.575  -4.019  1.00  0.00     0.039 A 
ATOM     33  C   UNL     1       6.462   5.906  -4.005  1.00  0.00     0.014 A 
ATOM     34  C   UNL     1       8.028   4.186  -3.324  1.00  0.00     0.014 A 
ATOM     35  C   UNL     1       7.163   6.836  -3.237  1.00  0.00     0.010 A 
ATOM     36  C   UNL     1       8.638   5.078  -2.458  1.00  0.00     0.010 A 
ATOM     37  C   UNL     1       8.237   6.421  -2.434  1.00  0.00    -0.014 A 
BRANCH  37  38
ATOM     38  C   UNL     1       9.023   7.382  -1.625  1.00  0.00     0.031 A 
ATOM     39  C   UNL     1      10.493   7.547  -1.914  1.00  0.00     0.074 A 
ATOM     40  C   UNL     1       8.447   8.050  -0.608  1.00  0.00     0.049 A 
ATOM     41  N   UNL     1      11.386   8.264  -1.282  1.00  0.00    -0.248 NA
ATOM     42  C   UNL     1      11.042   6.763  -3.035  1.00  0.00     0.031 C 
ATOM     43  C   UNL     1       7.047   7.935  -0.193  1.00  0.00     0.029 A 
ATOM     44  N   UNL     1       8.977   8.966   0.265  1.00  0.00    -0.354 N 
ATOM     45  C   UNL     1      12.596   7.985  -1.905  1.00  0.00     0.074 A 
ATOM     46  C   UNL     1      12.340   6.982  -2.912  1.00  0.00     0.031 C 
ATOM     47  C   UNL     1       6.819   8.783   0.825  1.00  0.00     0.029 A 
ATOM     48  C   UNL     1       8.062   9.473   1.155  1.00  0.00     0.049 A 
ATOM     49  H   UNL     1       9.924   9.235   0.254  1.00  0.00     0.167 HD
ATOM     50  C   UNL     1      13.810   8.542  -1.690  1.00  0.00     0.031 A 
ATOM     51  C   UNL     1       8.212  10.399   2.120  1.00  0.00     0.031 A 
ATOM     52  C   UNL     1      14.051   9.579  -0.727  1.00  0.00     0.049 A 
ATOM     53  C   UNL     1       9.560  11.039   2.311  1.00  0.00     0.074 A 
ATOM     54  C   UNL     1      15.226  10.260  -0.467  1.00  0.00     0.029 A 
ATOM     55  N   UNL     1      13.085  10.097   0.122  1.00  0.00    -0.354 N 
ATOM     56  N   UNL     1      10.683  10.807   1.675  1.00  0.00    -0.248 NA
ATOM     57  C   UNL     1       9.655  12.083   3.341  1.00  0.00     0.031 C 
ATOM     58  C   UNL     1      14.977  11.172   0.564  1.00  0.00     0.029 A 
ATOM     59  C   UNL     1      13.637  11.090   0.909  1.00  0.00     0.049 A 
ATOM     60  H   UNL     1      12.147   9.801   0.159  1.00  0.00     0.167 HD
ATOM     61  C   UNL     1      11.607  11.703   2.199  1.00  0.00     0.074 A 
ATOM     62  C   UNL     1      10.909  12.487   3.198  1.00  0.00     0.031 C 
ATOM     63  C   UNL     1      12.915  11.865   1.883  1.00  0.00     0.031 A 
BRANCH  50  64
ATOM     64  C   UNL     1      14.954   8.044  -2.527  1.00  0.00    -0.014 A 
ATOM     65  C   UNL     1      15.016   8.308  -3.906  1.00  0.00     0.009 A 
ATOM     66  C   UNL     1      15.984   7.301  -1.933  1.00  0.00     0.009 A 
ATOM     67  C   UNL     1      16.061   7.800  -4.679  1.00  0.00     0.001 A 
ATOM     68  C   UNL     1      17.046   6.821  -2.703  1.00  0.00     0.001 A 
ATOM     69  C   UNL     1      17.077   7.060  -4.076  1.00  0.00     0.000 A 
ENDBRANCH  50  64
BRANCH  51  70
ATOM     70  C   UNL     1       7.048  10.820   2.943  1.00  0.00    -0.014 A 
ATOM     71  C   UNL     1       6.478  12.091   2.767  1.00  0.00     0.009 A 
ATOM     72  C   UNL     1       6.510   9.965   3.916  1.00  0.00     0.009 A 
ATOM     73  C   UNL     1       5.414  12.509   3.571  1.00  0.00     0.001 A 
ATOM     74  C   UNL     1       5.428  10.375   4.700  1.00  0.00     0.001 A 
ATOM     75  C   UNL     1       4.889  11.650   4.534  1.00  0.00     0.000 A 
ENDBRANCH  51  70
BRANCH  63  76
ATOM     76  C   UNL     1      13.657  12.967   2.582  1.00  0.00    -0.014 A 
ATOM     77  C   UNL     1      14.028  12.858   3.930  1.00  0.00     0.009 A 
ATOM     78  C   UNL     1      14.028  14.112   1.860  1.00  0.00     0.009 A 
ATOM     79  C   UNL     1      14.727  13.894   4.552  1.00  0.00     0.001 A 
ATOM     80  C   UNL     1      14.751  15.132   2.477  1.00  0.00     0.001 A 
ATOM     81  C   UNL     1      15.091  15.027   3.824  1.00  0.00     0.000 A 
ENDBRANCH  63  76
ENDBRANCH  37  38
ENDBRANCH  29  32
ENDBRANCH  27  28
ENDBRANCH  26  27
ENDBRANCH  25  26
ENDBRANCH   1  25
TORSDOF 16
