REMARK SMILES Cc1nc2cc(C(=O)NCCCCNC(=O)c3ccc(-c4c5nc(c(-c6ccccc6)c6ccc([nH]6)c(-c6ccccc6)c6nc(c(-c7ccccc7)c7ccc4[nH]7)C=C6)C=C5)cc3)ccc2n1CCC[NH+]1CCOCC1
REMARK SMILES IDX 10 1 9 2 7 3 8 4 6 6 1 7 2 8 3 9 68 10 4 11 67 12 5 13 66 14
REMARK SMILES IDX 65 15 69 16 70 17 71 18 72 19 73 20 77 21 74 23 76 24 75 25
REMARK SMILES IDX 11 26 12 27 13 28 14 29 15 30 16 32 17 33 18 34 64 35 19 36
REMARK SMILES IDX 63 37 20 38 21 39 22 40 57 41 23 42 62 43 56 44 58 45 24 46
REMARK SMILES IDX 61 47 55 48 54 49 25 51 47 52 32 53 46 54 33 55 36 56 45 57
REMARK SMILES IDX 59 58 34 59 35 60 44 62 60 63 37 64 26 65 27 66 31 67 28 68
REMARK SMILES IDX 30 69 29 70 48 71 49 72 53 73 50 74 52 75 51 76 38 77 39 78
REMARK SMILES IDX 43 79 40 80 42 81 41 82
REMARK H PARENT 9 5 72 22 14 31 58 50 36 61
REMARK Flexibility Score: inf
ROOT
ATOM      1  C   UNL     1      -1.661  -4.029  -7.366  1.00  0.00     0.116 C 
ENDROOT
BRANCH   1   2
ATOM      2  N   UNL     1      -0.837  -5.028  -6.713  1.00  0.00    -0.352 N 
ATOM      3  C   UNL     1      -0.100  -4.984  -5.560  1.00  0.00     0.251 C 
ATOM      4  O   UNL     1       0.529  -5.989  -5.229  1.00  0.00    -0.269 OA
ATOM      5  H   UNL     1      -0.802  -5.893  -7.183  1.00  0.00     0.163 HD
BRANCH   3   6
ATOM      6  C   UNL     1      -0.120  -3.802  -4.667  1.00  0.00     0.042 A 
ATOM      7  C   UNL     1      -0.351  -1.310   0.731  1.00  0.00     0.088 C 
ATOM      8  C   UNL     1      -0.469  -1.719  -0.682  1.00  0.00     0.106 A 
ATOM      9  N   UNL     1      -0.322  -2.979  -1.047  1.00  0.00    -0.233 NA
ATOM     10  N   UNL     1      -0.666  -0.910  -1.778  1.00  0.00    -0.328 N 
ATOM     11  C   UNL     1      -0.291  -2.986  -2.408  1.00  0.00     0.090 A 
ATOM     12  C   UNL     1      -0.425  -1.698  -2.902  1.00  0.00     0.068 A 
ATOM     13  C   UNL     1      -0.147  -4.062  -3.289  1.00  0.00     0.044 A 
ATOM     14  C   UNL     1      -0.321  -1.405  -4.267  1.00  0.00     0.029 A 
ATOM     15  C   UNL     1      -0.123  -2.484  -5.135  1.00  0.00     0.016 A 
BRANCH  10  16
ATOM     16  C   UNL     1      -1.019   0.484  -1.942  1.00  0.00     0.130 C 
BRANCH  16  17
ATOM     17  C   UNL     1      -1.647   1.391  -0.887  1.00  0.00     0.083 C 
BRANCH  17  18
ATOM     18  C   UNL     1      -0.811   2.054   0.218  1.00  0.00     0.264 C 
BRANCH  18  19
ATOM     19  N   UNL     1       0.489   2.637  -0.028  1.00  0.00    -0.331 N 
ATOM     20  C   UNL     1       0.681   3.666  -1.038  1.00  0.00     0.291 C 
ATOM     21  C   UNL     1       1.684   1.842   0.219  1.00  0.00     0.291 C 
ATOM     22  H   UNL     1       0.363   3.207   0.808  1.00  0.00     0.348 HD
ATOM     23  C   UNL     1       1.454   3.191  -2.280  1.00  0.00     0.221 C 
ATOM     24  C   UNL     1       2.344   1.343  -1.068  1.00  0.00     0.221 C 
ATOM     25  O   UNL     1       2.626   2.429  -1.959  1.00  0.00    -0.370 OA
ENDBRANCH  18  19
ENDBRANCH  17  18
ENDBRANCH  16  17
ENDBRANCH  10  16
ENDBRANCH   3   6
ENDBRANCH   1   2
BRANCH   1  26
ATOM     26  C   UNL     1      -0.977  -3.553  -8.647  1.00  0.00     0.023 C 
BRANCH  26  27
ATOM     27  C   UNL     1      -0.963  -4.614  -9.756  1.00  0.00     0.023 C 
BRANCH  27  28
ATOM     28  C   UNL     1      -2.354  -5.144 -10.117  1.00  0.00     0.116 C 
BRANCH  28  29
ATOM     29  N   UNL     1      -3.272  -4.088 -10.497  1.00  0.00    -0.352 N 
ATOM     30  C   UNL     1      -3.497  -3.387 -11.649  1.00  0.00     0.251 C 
ATOM     31  H   UNL     1      -3.867  -3.815  -9.762  1.00  0.00     0.163 HD
ATOM     32  O   UNL     1      -4.387  -2.535 -11.606  1.00  0.00    -0.269 OA
BRANCH  30  33
ATOM     33  C   UNL     1      -2.728  -3.558 -12.914  1.00  0.00     0.039 A 
ATOM     34  C   UNL     1      -1.712  -4.489 -13.119  1.00  0.00     0.014 A 
ATOM     35  C   UNL     1      -3.048  -2.678 -13.966  1.00  0.00     0.014 A 
ATOM     36  C   UNL     1      -0.985  -4.502 -14.299  1.00  0.00     0.010 A 
ATOM     37  C   UNL     1      -2.338  -2.700 -15.165  1.00  0.00     0.010 A 
ATOM     38  C   UNL     1      -1.280  -3.591 -15.312  1.00  0.00    -0.014 A 
BRANCH  38  39
ATOM     39  C   UNL     1      -0.444  -3.664 -16.503  1.00  0.00     0.031 A 
ATOM     40  C   UNL     1      -0.467  -4.948 -17.263  1.00  0.00     0.074 A 
ATOM     41  C   UNL     1       0.285  -2.627 -16.950  1.00  0.00     0.049 A 
ATOM     42  N   UNL     1       0.528  -5.714 -17.580  1.00  0.00    -0.248 NA
ATOM     43  C   UNL     1      -1.779  -5.465 -17.680  1.00  0.00     0.031 C 
ATOM     44  C   UNL     1       0.219  -1.225 -16.537  1.00  0.00     0.029 A 
ATOM     45  N   UNL     1       1.169  -2.612 -17.986  1.00  0.00    -0.354 N 
ATOM     46  C   UNL     1      -0.005  -6.756 -18.339  1.00  0.00     0.074 A 
ATOM     47  C   UNL     1      -1.437  -6.591 -18.306  1.00  0.00     0.031 C 
ATOM     48  C   UNL     1       0.819  -0.467 -17.481  1.00  0.00     0.029 A 
ATOM     49  C   UNL     1       1.421  -1.343 -18.474  1.00  0.00     0.049 A 
ATOM     50  H   UNL     1       1.586  -3.425 -18.353  1.00  0.00     0.167 HD
ATOM     51  C   UNL     1       0.764  -7.627 -19.051  1.00  0.00     0.031 A 
ATOM     52  C   UNL     1       1.977  -1.047 -19.672  1.00  0.00     0.031 A 
ATOM     53  C   UNL     1       2.133  -7.631 -18.620  1.00  0.00     0.049 A 
ATOM     54  C   UNL     1       2.726  -2.237 -20.140  1.00  0.00     0.074 A 
ATOM     55  C   UNL     1       2.773  -7.943 -17.437  1.00  0.00     0.029 A 
ATOM     56  N   UNL     1       3.066  -6.973 -19.384  1.00  0.00    -0.354 N 
ATOM     57  N   UNL     1       3.810  -2.686 -19.573  1.00  0.00    -0.248 NA
ATOM     58  C   UNL     1       2.053  -3.176 -21.025  1.00  0.00     0.031 C 
ATOM     59  C   UNL     1       3.862  -7.029 -17.358  1.00  0.00     0.029 A 
ATOM     60  C   UNL     1       3.832  -6.243 -18.512  1.00  0.00     0.049 A 
ATOM     61  H   UNL     1       3.165  -7.017 -20.362  1.00  0.00     0.167 HD
ATOM     62  C   UNL     1       3.730  -4.066 -19.690  1.00  0.00     0.074 A 
ATOM     63  C   UNL     1       2.692  -4.300 -20.691  1.00  0.00     0.031 C 
ATOM     64  C   UNL     1       4.303  -4.899 -18.770  1.00  0.00     0.031 A 
BRANCH  51  65
ATOM     65  C   UNL     1       0.324  -8.307 -20.320  1.00  0.00    -0.014 A 
ATOM     66  C   UNL     1      -0.764  -7.859 -21.091  1.00  0.00     0.009 A 
ATOM     67  C   UNL     1       1.160  -9.274 -20.911  1.00  0.00     0.009 A 
ATOM     68  C   UNL     1      -1.012  -8.346 -22.378  1.00  0.00     0.001 A 
ATOM     69  C   UNL     1       0.941  -9.732 -22.217  1.00  0.00     0.001 A 
ATOM     70  C   UNL     1      -0.145  -9.266 -22.950  1.00  0.00     0.000 A 
ENDBRANCH  51  65
BRANCH  52  71
ATOM     71  C   UNL     1       1.566   0.052 -20.573  1.00  0.00    -0.014 A 
ATOM     72  C   UNL     1       0.266   0.590 -20.499  1.00  0.00     0.009 A 
ATOM     73  C   UNL     1       2.357   0.408 -21.673  1.00  0.00     0.009 A 
ATOM     74  C   UNL     1      -0.233   1.436 -21.492  1.00  0.00     0.001 A 
ATOM     75  C   UNL     1       1.853   1.248 -22.676  1.00  0.00     0.001 A 
ATOM     76  C   UNL     1       0.557   1.753 -22.589  1.00  0.00     0.000 A 
ENDBRANCH  52  71
BRANCH  64  77
ATOM     77  C   UNL     1       5.228  -4.314 -17.725  1.00  0.00    -0.014 A 
ATOM     78  C   UNL     1       6.449  -4.960 -17.466  1.00  0.00     0.009 A 
ATOM     79  C   UNL     1       4.831  -3.282 -16.858  1.00  0.00     0.009 A 
ATOM     80  C   UNL     1       7.237  -4.596 -16.371  1.00  0.00     0.001 A 
ATOM     81  C   UNL     1       5.633  -2.898 -15.779  1.00  0.00     0.001 A 
ATOM     82  C   UNL     1       6.831  -3.563 -15.529  1.00  0.00     0.000 A 
ENDBRANCH  64  77
ENDBRANCH  38  39
ENDBRANCH  30  33
ENDBRANCH  28  29
ENDBRANCH  27  28
ENDBRANCH  26  27
ENDBRANCH   1  26
TORSDOF 15
