REMARK SMILES C#CC[N@@H+](CC(=O)NCCCCNC(=O)c1ccc(-c2c3nc(c(-c4ccccc4)c4ccc([nH]4)c(-c4ccccc4)c4nc(c(-c5ccccc5)c5ccc2[nH]5)C=C4)C=C3)cc1)[C@@H]1CCO[C@@](C)(CC)C1
REMARK SMILES IDX 10 1 9 2 8 3 6 4 7 5 5 7 4 8 3 10 2 11 1 12 64 13 65 14
REMARK SMILES IDX 72 15 66 16 68 17 67 18 69 19 70 20 71 21 11 22 12 23 13 24
REMARK SMILES IDX 14 25 15 27 16 28 17 29 63 30 18 31 62 32 19 33 20 34 21 35
REMARK SMILES IDX 56 36 22 37 61 38 55 39 57 40 23 41 60 42 54 43 53 44 24 46
REMARK SMILES IDX 46 47 31 48 45 49 32 50 35 51 44 52 58 53 33 54 34 55 43 57
REMARK SMILES IDX 59 58 36 59 25 60 26 61 30 62 27 63 29 64 28 65 47 66 48 67
REMARK SMILES IDX 52 68 49 69 51 70 50 71 37 72 38 73 42 74 39 75 41 76 40 77
REMARK H PARENT 8 6 4 9 13 26 57 45 35 56
REMARK Flexibility Score: inf
ROOT
ATOM      1  C   UNL     1      -2.460   2.433  -1.911  1.00  0.00     0.023 C 
ENDROOT
BRANCH   1   2
ATOM      2  C   UNL     1      -3.793   2.031  -1.261  1.00  0.00     0.116 C 
BRANCH   2   3
ATOM      3  N   UNL     1      -4.348   0.852  -1.895  1.00  0.00    -0.351 N 
ATOM      4  C   UNL     1      -4.452  -0.444  -1.486  1.00  0.00     0.275 C 
ATOM      5  O   UNL     1      -5.035  -1.194  -2.276  1.00  0.00    -0.269 OA
ATOM      6  H   UNL     1      -4.721   1.019  -2.791  1.00  0.00     0.163 HD
BRANCH   4   7
ATOM      7  C   UNL     1      -3.969  -0.951  -0.104  1.00  0.00     0.364 C 
BRANCH   7   8
ATOM      8  N   UNL     1      -2.522  -1.321   0.044  1.00  0.00    -0.314 N 
ATOM      9  H   UNL     1      -2.400  -1.802   0.935  1.00  0.00     0.349 HD
BRANCH   8  10
ATOM     10  C   UNL     1      -1.752  -0.064   0.028  1.00  0.00     0.354 C 
BRANCH  10  11
ATOM     11  C   UNL     1      -0.232  -0.064   0.028  1.00  0.00    -0.047 C 
ATOM     12  C   UNL     1       1.072  -0.064   0.028  1.00  0.00     0.010 C 
ENDBRANCH  10  11
ENDBRANCH   8  10
BRANCH   8  13
ATOM     13  C   UNL     1      -2.012  -2.371  -0.878  1.00  0.00     0.190 C 
ATOM     14  C   UNL     1      -2.978  -3.453  -1.414  1.00  0.00     0.093 C 
ATOM     15  C   UNL     1      -0.842  -3.172  -0.240  1.00  0.00     0.100 C 
ATOM     16  C   UNL     1      -3.381  -4.483  -0.378  1.00  0.00     0.167 C 
ATOM     17  C   UNL     1      -1.263  -4.292   0.741  1.00  0.00     0.071 C 
ATOM     18  O   UNL     1      -2.239  -5.153   0.140  1.00  0.00    -0.375 OA
ATOM     19  C   UNL     1      -1.803  -3.735   2.070  1.00  0.00     0.042 C 
BRANCH  17  20
ATOM     20  C   UNL     1      -0.048  -5.196   1.093  1.00  0.00     0.032 C 
ATOM     21  C   UNL     1       0.584  -5.933  -0.086  1.00  0.00     0.007 C 
ENDBRANCH  17  20
ENDBRANCH   8  13
ENDBRANCH   7   8
ENDBRANCH   4   7
ENDBRANCH   2   3
ENDBRANCH   1   2
BRANCH   1  22
ATOM     22  C   UNL     1      -2.551   3.421  -3.053  1.00  0.00     0.023 C 
BRANCH  22  23
ATOM     23  C   UNL     1      -3.099   4.775  -2.662  1.00  0.00     0.116 C 
BRANCH  23  24
ATOM     24  N   UNL     1      -2.341   5.456  -1.612  1.00  0.00    -0.352 N 
ATOM     25  C   UNL     1      -1.969   6.776  -1.572  1.00  0.00     0.251 C 
ATOM     26  H   UNL     1      -2.065   4.902  -0.846  1.00  0.00     0.163 HD
ATOM     27  O   UNL     1      -1.303   7.234  -0.654  1.00  0.00    -0.269 OA
BRANCH  25  28
ATOM     28  C   UNL     1      -2.350   7.613  -2.719  1.00  0.00     0.039 A 
ATOM     29  C   UNL     1      -1.347   8.123  -3.545  1.00  0.00     0.014 A 
ATOM     30  C   UNL     1      -3.696   7.652  -3.110  1.00  0.00     0.014 A 
ATOM     31  C   UNL     1      -1.674   8.563  -4.823  1.00  0.00     0.010 A 
ATOM     32  C   UNL     1      -3.998   7.988  -4.418  1.00  0.00     0.010 A 
ATOM     33  C   UNL     1      -2.991   8.429  -5.295  1.00  0.00    -0.014 A 
BRANCH  33  34
ATOM     34  C   UNL     1      -3.357   8.732  -6.699  1.00  0.00     0.031 A 
ATOM     35  C   UNL     1      -4.422   9.757  -6.971  1.00  0.00     0.074 A 
ATOM     36  C   UNL     1      -2.834   8.018  -7.715  1.00  0.00     0.049 A 
ATOM     37  N   UNL     1      -5.049  10.022  -8.087  1.00  0.00    -0.248 NA
ATOM     38  C   UNL     1      -4.885  10.544  -5.816  1.00  0.00     0.031 C 
ATOM     39  C   UNL     1      -1.834   6.953  -7.595  1.00  0.00     0.029 A 
ATOM     40  N   UNL     1      -3.084   8.082  -9.064  1.00  0.00    -0.354 N 
ATOM     41  C   UNL     1      -6.031  10.943  -7.750  1.00  0.00     0.074 A 
ATOM     42  C   UNL     1      -5.928  11.177  -6.327  1.00  0.00     0.031 C 
ATOM     43  C   UNL     1      -1.524   6.498  -8.820  1.00  0.00     0.029 A 
ATOM     44  C   UNL     1      -2.331   7.206  -9.807  1.00  0.00     0.049 A 
ATOM     45  H   UNL     1      -3.741   8.697  -9.461  1.00  0.00     0.167 HD
ATOM     46  C   UNL     1      -6.933  11.549  -8.554  1.00  0.00     0.031 A 
ATOM     47  C   UNL     1      -2.297   7.000 -11.137  1.00  0.00     0.031 A 
ATOM     48  C   UNL     1      -6.976  11.394  -9.980  1.00  0.00     0.049 A 
ATOM     49  C   UNL     1      -3.218   7.783 -12.027  1.00  0.00     0.074 A 
ATOM     50  C   UNL     1      -7.794  12.030 -10.895  1.00  0.00     0.029 A 
ATOM     51  N   UNL     1      -6.133  10.563 -10.700  1.00  0.00    -0.354 N 
ATOM     52  N   UNL     1      -4.135   8.658 -11.696  1.00  0.00    -0.248 NA
ATOM     53  C   UNL     1      -3.098   7.548 -13.473  1.00  0.00     0.031 C 
ATOM     54  C   UNL     1      -7.442  11.585 -12.175  1.00  0.00     0.029 A 
ATOM     55  C   UNL     1      -6.399  10.682 -12.051  1.00  0.00     0.049 A 
ATOM     56  H   UNL     1      -5.448   9.975 -10.307  1.00  0.00     0.167 HD
ATOM     57  C   UNL     1      -4.693   9.088 -12.891  1.00  0.00     0.074 A 
ATOM     58  C   UNL     1      -4.006   8.386 -13.956  1.00  0.00     0.031 C 
ATOM     59  C   UNL     1      -5.691   9.983 -13.089  1.00  0.00     0.031 A 
BRANCH  46  60
ATOM     60  C   UNL     1      -7.941  12.436  -7.887  1.00  0.00    -0.014 A 
ATOM     61  C   UNL     1      -7.583  13.702  -7.401  1.00  0.00     0.009 A 
ATOM     62  C   UNL     1      -9.255  11.982  -7.713  1.00  0.00     0.009 A 
ATOM     63  C   UNL     1      -8.514  14.479  -6.710  1.00  0.00     0.001 A 
ATOM     64  C   UNL     1     -10.191  12.773  -7.042  1.00  0.00     0.001 A 
ATOM     65  C   UNL     1      -9.816  14.013  -6.532  1.00  0.00     0.000 A 
ENDBRANCH  46  60
BRANCH  47  66
ATOM     66  C   UNL     1      -1.327   6.040 -11.717  1.00  0.00    -0.014 A 
ATOM     67  C   UNL     1      -0.138   6.511 -12.293  1.00  0.00     0.009 A 
ATOM     68  C   UNL     1      -1.581   4.662 -11.708  1.00  0.00     0.009 A 
ATOM     69  C   UNL     1       0.772   5.621 -12.866  1.00  0.00     0.001 A 
ATOM     70  C   UNL     1      -0.662   3.772 -12.270  1.00  0.00     0.001 A 
ATOM     71  C   UNL     1       0.510   4.253 -12.853  1.00  0.00     0.000 A 
ENDBRANCH  47  66
BRANCH  59  72
ATOM     72  C   UNL     1      -6.071  10.273 -14.507  1.00  0.00    -0.014 A 
ATOM     73  C   UNL     1      -6.943   9.424 -15.203  1.00  0.00     0.009 A 
ATOM     74  C   UNL     1      -5.591  11.432 -15.134  1.00  0.00     0.009 A 
ATOM     75  C   UNL     1      -7.316   9.724 -16.514  1.00  0.00     0.001 A 
ATOM     76  C   UNL     1      -5.974  11.734 -16.440  1.00  0.00     0.001 A 
ATOM     77  C   UNL     1      -6.834  10.879 -17.129  1.00  0.00     0.000 A 
ENDBRANCH  59  72
ENDBRANCH  33  34
ENDBRANCH  25  28
ENDBRANCH  23  24
ENDBRANCH  22  23
ENDBRANCH   1  22
TORSDOF 16
