REMARK SMILES C[C@]([NH2+]C[C@H](O)C(F)(F)F)(C(=O)NCCCCNC(=O)c1ccc(-c2c3nc(c(-c4ccccc4)c4ccc([nH]4)c(-c4ccccc4)c4nc(c(-c5ccccc5)c5ccc2[nH]5)C=C4)C=C3)cc1)C(F)(F)F
REMARK SMILES IDX 14 1 13 2 11 3 12 4 2 6 1 7 69 8 70 9 71 10 72 11 3 12 4 15
REMARK SMILES IDX 5 16 7 17 8 18 9 19 10 20 6 21 15 23 16 24 17 25 18 26 19 27
REMARK SMILES IDX 20 29 21 30 22 31 68 32 23 33 67 34 24 35 25 36 26 37 61 38
REMARK SMILES IDX 27 39 66 40 60 41 62 42 28 43 65 44 59 45 58 46 29 48 51 49
REMARK SMILES IDX 36 50 50 51 37 52 40 53 49 54 63 55 38 56 39 57 48 59 64 60
REMARK SMILES IDX 41 61 30 62 31 63 35 64 32 65 34 66 33 67 52 68 53 69 57 70
REMARK SMILES IDX 54 71 56 72 55 73 42 74 43 75 47 76 44 77 46 78 45 79
REMARK H PARENT 13 5 3 13 3 14 6 22 18 28 62 47 40 58
REMARK Flexibility Score: inf
ROOT
ATOM      1  C   UNL     1       2.104  -5.319  -2.066  1.00  0.00     0.116 C 
ENDROOT
BRANCH   1   2
ATOM      2  N   UNL     1       2.249  -6.000  -0.792  1.00  0.00    -0.350 N 
ATOM      3  C   UNL     1       2.047  -5.588   0.500  1.00  0.00     0.290 C 
ATOM      4  O   UNL     1       2.284  -6.432   1.366  1.00  0.00    -0.267 OA
ATOM      5  H   UNL     1       2.549  -6.934  -0.871  1.00  0.00     0.163 HD
BRANCH   3   6
ATOM      6  C   UNL     1       1.517  -4.167   0.821  1.00  0.00     0.268 C 
ATOM      7  C   UNL     1       0.049  -4.090   0.347  1.00  0.00     0.101 C 
BRANCH   6   8
ATOM      8  C   UNL     1       1.496  -4.050   2.376  1.00  0.00     0.453 C 
ATOM      9  F   UNL     1       2.723  -4.166   2.931  1.00  0.00    -0.164 F 
ATOM     10  F   UNL     1       1.022  -2.825   2.740  1.00  0.00    -0.164 F 
ATOM     11  F   UNL     1       0.676  -4.954   2.960  1.00  0.00    -0.164 F 
ENDBRANCH   6   8
BRANCH   6  12
ATOM     12  N   UNL     1       2.456  -3.151   0.212  1.00  0.00    -0.324 N 
ATOM     13  H   UNL     1       2.967  -3.614  -0.539  1.00  0.00     0.347 HD
ATOM     14  H   UNL     1       3.037  -2.825   0.986  1.00  0.00     0.347 HD
BRANCH  12  15
ATOM     15  C   UNL     1       1.848  -1.946  -0.343  1.00  0.00     0.303 C 
BRANCH  15  16
ATOM     16  C   UNL     1       2.847  -0.880  -0.844  1.00  0.00     0.275 C 
BRANCH  16  17
ATOM     17  C   UNL     1       3.664  -1.374  -2.040  1.00  0.00     0.419 C 
ATOM     18  F   UNL     1       4.489  -0.416  -2.514  1.00  0.00    -0.168 F 
ATOM     19  F   UNL     1       4.421  -2.448  -1.730  1.00  0.00    -0.168 F 
ATOM     20  F   UNL     1       2.842  -1.737  -3.056  1.00  0.00    -0.168 F 
ENDBRANCH  16  17
BRANCH  16  21
ATOM     21  O   UNL     1       2.090   0.312  -1.161  1.00  0.00    -0.379 OA
ATOM     22  H   UNL     1       1.443   0.109  -1.855  1.00  0.00     0.211 HD
ENDBRANCH  16  21
ENDBRANCH  15  16
ENDBRANCH  12  15
ENDBRANCH   6  12
ENDBRANCH   3   6
ENDBRANCH   1   2
BRANCH   1  23
ATOM     23  C   UNL     1       3.452  -5.147  -2.761  1.00  0.00     0.023 C 
BRANCH  23  24
ATOM     24  C   UNL     1       4.034  -6.422  -3.366  1.00  0.00     0.023 C 
BRANCH  24  25
ATOM     25  C   UNL     1       3.142  -7.125  -4.380  1.00  0.00     0.116 C 
BRANCH  25  26
ATOM     26  N   UNL     1       2.739  -6.272  -5.488  1.00  0.00    -0.352 N 
ATOM     27  C   UNL     1       2.628  -6.595  -6.820  1.00  0.00     0.251 C 
ATOM     28  H   UNL     1       2.517  -5.343  -5.253  1.00  0.00     0.163 HD
ATOM     29  O   UNL     1       2.364  -5.731  -7.650  1.00  0.00    -0.269 OA
BRANCH  27  30
ATOM     30  C   UNL     1       2.873  -7.987  -7.247  1.00  0.00     0.039 A 
ATOM     31  C   UNL     1       3.764  -8.222  -8.296  1.00  0.00     0.014 A 
ATOM     32  C   UNL     1       2.264  -9.053  -6.580  1.00  0.00     0.014 A 
ATOM     33  C   UNL     1       4.105  -9.534  -8.627  1.00  0.00     0.010 A 
ATOM     34  C   UNL     1       2.659 -10.355  -6.863  1.00  0.00     0.010 A 
ATOM     35  C   UNL     1       3.586 -10.608  -7.886  1.00  0.00    -0.014 A 
BRANCH  35  36
ATOM     36  C   UNL     1       4.003 -12.005  -8.160  1.00  0.00     0.031 A 
ATOM     37  C   UNL     1       2.998 -13.009  -8.649  1.00  0.00     0.074 A 
ATOM     38  C   UNL     1       5.267 -12.388  -7.896  1.00  0.00     0.049 A 
ATOM     39  N   UNL     1       3.152 -14.289  -8.873  1.00  0.00    -0.248 NA
ATOM     40  C   UNL     1       1.633 -12.515  -8.893  1.00  0.00     0.031 C 
ATOM     41  C   UNL     1       6.327 -11.521  -7.374  1.00  0.00     0.029 A 
ATOM     42  N   UNL     1       5.873 -13.612  -8.024  1.00  0.00    -0.354 N 
ATOM     43  C   UNL     1       1.904 -14.755  -9.265  1.00  0.00     0.074 A 
ATOM     44  C   UNL     1       0.993 -13.633  -9.202  1.00  0.00     0.031 C 
ATOM     45  C   UNL     1       7.457 -12.236  -7.248  1.00  0.00     0.029 A 
ATOM     46  C   UNL     1       7.193 -13.616  -7.645  1.00  0.00     0.049 A 
ATOM     47  H   UNL     1       5.406 -14.413  -8.356  1.00  0.00     0.167 HD
ATOM     48  C   UNL     1       1.551 -16.000  -9.663  1.00  0.00     0.031 A 
ATOM     49  C   UNL     1       8.091 -14.619  -7.614  1.00  0.00     0.031 A 
ATOM     50  C   UNL     1       2.458 -17.113  -9.740  1.00  0.00     0.049 A 
ATOM     51  C   UNL     1       7.674 -15.992  -8.062  1.00  0.00     0.074 A 
ATOM     52  C   UNL     1       2.207 -18.401 -10.182  1.00  0.00     0.029 A 
ATOM     53  N   UNL     1       3.792 -17.070  -9.368  1.00  0.00    -0.354 N 
ATOM     54  N   UNL     1       6.505 -16.401  -8.490  1.00  0.00    -0.248 NA
ATOM     55  C   UNL     1       8.707 -17.038  -8.032  1.00  0.00     0.031 C 
ATOM     56  C   UNL     1       3.381 -19.148 -10.039  1.00  0.00     0.029 A 
ATOM     57  C   UNL     1       4.374 -18.312  -9.553  1.00  0.00     0.049 A 
ATOM     58  H   UNL     1       4.256 -16.273  -9.022  1.00  0.00     0.167 HD
ATOM     59  C   UNL     1       6.667 -17.744  -8.805  1.00  0.00     0.074 A 
ATOM     60  C   UNL     1       8.050 -18.075  -8.532  1.00  0.00     0.031 C 
ATOM     61  C   UNL     1       5.751 -18.624  -9.277  1.00  0.00     0.031 A 
BRANCH  48  62
ATOM     62  C   UNL     1       0.114 -16.218 -10.044  1.00  0.00    -0.014 A 
ATOM     63  C   UNL     1      -0.413 -15.671 -11.225  1.00  0.00     0.009 A 
ATOM     64  C   UNL     1      -0.717 -17.000  -9.227  1.00  0.00     0.009 A 
ATOM     65  C   UNL     1      -1.754 -15.871 -11.560  1.00  0.00     0.001 A 
ATOM     66  C   UNL     1      -2.050 -17.221  -9.579  1.00  0.00     0.001 A 
ATOM     67  C   UNL     1      -2.569 -16.649 -10.739  1.00  0.00     0.000 A 
ENDBRANCH  48  62
BRANCH  49  68
ATOM     68  C   UNL     1       9.481 -14.359  -7.160  1.00  0.00    -0.014 A 
ATOM     69  C   UNL     1      10.539 -14.349  -8.081  1.00  0.00     0.009 A 
ATOM     70  C   UNL     1       9.758 -14.125  -5.804  1.00  0.00     0.009 A 
ATOM     71  C   UNL     1      11.850 -14.135  -7.650  1.00  0.00     0.001 A 
ATOM     72  C   UNL     1      11.066 -13.886  -5.380  1.00  0.00     0.001 A 
ATOM     73  C   UNL     1      12.112 -13.900  -6.301  1.00  0.00     0.000 A 
ENDBRANCH  49  68
BRANCH  61  74
ATOM     74  C   UNL     1       6.225 -20.020  -9.560  1.00  0.00    -0.014 A 
ATOM     75  C   UNL     1       6.498 -20.921  -8.519  1.00  0.00     0.009 A 
ATOM     76  C   UNL     1       6.360 -20.451 -10.889  1.00  0.00     0.009 A 
ATOM     77  C   UNL     1       6.927 -22.218  -8.805  1.00  0.00     0.001 A 
ATOM     78  C   UNL     1       6.764 -21.757 -11.171  1.00  0.00     0.001 A 
ATOM     79  C   UNL     1       7.055 -22.636 -10.130  1.00  0.00     0.000 A 
ENDBRANCH  61  74
ENDBRANCH  35  36
ENDBRANCH  27  30
ENDBRANCH  25  26
ENDBRANCH  24  25
ENDBRANCH  23  24
ENDBRANCH   1  23
TORSDOF 17
