REMARK SMILES C[C@H]([NH2+]CC1(O)CCCC1)[C@H](C)C(=O)NCCCCNC(=O)c1ccc(-c2c3nc(c(-c4ccccc4)c4ccc([nH]4)c(-c4ccccc4)c4nc(c(-c5ccccc5)c5ccc2[nH]5)C=C4)C=C3)cc1
REMARK SMILES IDX 16 1 15 2 13 3 14 4 11 6 12 7 2 8 1 9 3 10 4 13 5 14 7 15
REMARK SMILES IDX 10 16 8 17 9 18 6 19 17 21 18 22 19 23 20 24 21 25 22 27
REMARK SMILES IDX 23 28 24 29 70 30 25 31 69 32 26 33 27 34 28 35 63 36 29 37
REMARK SMILES IDX 68 38 62 39 64 40 30 41 67 42 61 43 60 44 31 46 53 47 38 48
REMARK SMILES IDX 52 49 39 50 42 51 51 52 65 53 40 54 41 55 50 57 66 58 43 59
REMARK SMILES IDX 32 60 33 61 37 62 34 63 36 64 35 65 54 66 55 67 59 68 56 69
REMARK SMILES IDX 58 70 57 71 44 72 45 73 49 74 46 75 48 76 47 77
REMARK H PARENT 15 5 3 11 3 12 6 20 20 26 64 45 42 56
REMARK Flexibility Score: inf
ROOT
ATOM      1  C   UNL     1      -0.706  -4.174   1.528  1.00  0.00     0.116 C 
ENDROOT
BRANCH   1   2
ATOM      2  N   UNL     1      -1.504  -3.278   2.329  1.00  0.00    -0.356 N 
ATOM      3  C   UNL     1      -1.823  -1.973   2.151  1.00  0.00     0.228 C 
ATOM      4  O   UNL     1      -2.647  -1.505   2.948  1.00  0.00    -0.275 OA
ATOM      5  H   UNL     1      -1.880  -3.683   3.143  1.00  0.00     0.163 HD
BRANCH   3   6
ATOM      6  C   UNL     1      -1.162  -1.041   1.127  1.00  0.00     0.133 C 
ATOM      7  C   UNL     1       0.151  -0.506   1.697  1.00  0.00     0.024 C 
BRANCH   6   8
ATOM      8  C   UNL     1      -1.204  -1.363  -0.404  1.00  0.00     0.191 C 
ATOM      9  C   UNL     1      -2.599  -1.899  -0.776  1.00  0.00     0.076 C 
BRANCH   8  10
ATOM     10  N   UNL     1      -0.226  -2.236  -1.085  1.00  0.00    -0.341 N 
ATOM     11  H   UNL     1      -0.353  -2.119  -2.091  1.00  0.00     0.346 HD
ATOM     12  H   UNL     1      -0.417  -3.178  -0.744  1.00  0.00     0.346 HD
BRANCH  10  13
ATOM     13  C   UNL     1       1.184  -1.989  -0.783  1.00  0.00     0.296 C 
BRANCH  13  14
ATOM     14  C   UNL     1       2.166  -2.821  -1.643  1.00  0.00     0.113 C 
ATOM     15  C   UNL     1       1.882  -4.325  -1.688  1.00  0.00     0.041 C 
ATOM     16  C   UNL     1       3.576  -2.752  -1.046  1.00  0.00     0.041 C 
ATOM     17  C   UNL     1       3.238  -4.995  -1.927  1.00  0.00     0.003 C 
ATOM     18  C   UNL     1       4.309  -3.949  -1.635  1.00  0.00     0.003 C 
BRANCH  14  19
ATOM     19  O   UNL     1       2.169  -2.293  -2.973  1.00  0.00    -0.384 OA
ATOM     20  H   UNL     1       1.273  -2.341  -3.342  1.00  0.00     0.211 HD
ENDBRANCH  14  19
ENDBRANCH  13  14
ENDBRANCH  10  13
ENDBRANCH   8  10
ENDBRANCH   6   8
ENDBRANCH   3   6
ENDBRANCH   1   2
BRANCH   1  21
ATOM     21  C   UNL     1       0.641  -4.504   2.163  1.00  0.00     0.023 C 
BRANCH  21  22
ATOM     22  C   UNL     1       0.680  -5.810   2.955  1.00  0.00     0.023 C 
BRANCH  22  23
ATOM     23  C   UNL     1       0.174  -7.052   2.227  1.00  0.00     0.116 C 
BRANCH  23  24
ATOM     24  N   UNL     1       0.842  -7.345   0.969  1.00  0.00    -0.352 N 
ATOM     25  C   UNL     1       0.992  -8.574   0.364  1.00  0.00     0.251 C 
ATOM     26  H   UNL     1       1.232  -6.575   0.493  1.00  0.00     0.163 HD
ATOM     27  O   UNL     1       1.641  -8.692  -0.670  1.00  0.00    -0.269 OA
BRANCH  25  28
ATOM     28  C   UNL     1       0.400  -9.766   1.013  1.00  0.00     0.039 A 
ATOM     29  C   UNL     1       1.199 -10.889   1.234  1.00  0.00     0.014 A 
ATOM     30  C   UNL     1      -0.924  -9.745   1.459  1.00  0.00     0.014 A 
ATOM     31  C   UNL     1       0.689 -11.964   1.968  1.00  0.00     0.010 A 
ATOM     32  C   UNL     1      -1.397 -10.773   2.265  1.00  0.00     0.010 A 
ATOM     33  C   UNL     1      -0.602 -11.900   2.519  1.00  0.00    -0.014 A 
BRANCH  33  34
ATOM     34  C   UNL     1      -1.155 -13.015   3.329  1.00  0.00     0.031 A 
ATOM     35  C   UNL     1      -2.370 -13.761   2.845  1.00  0.00     0.074 A 
ATOM     36  C   UNL     1      -0.610 -13.320   4.524  1.00  0.00     0.049 A 
ATOM     37  N   UNL     1      -3.028 -14.735   3.422  1.00  0.00    -0.248 NA
ATOM     38  C   UNL     1      -2.941 -13.334   1.557  1.00  0.00     0.031 C 
ATOM     39  C   UNL     1       0.531 -12.639   5.138  1.00  0.00     0.029 A 
ATOM     40  N   UNL     1      -0.951 -14.287   5.437  1.00  0.00    -0.354 N 
ATOM     41  C   UNL     1      -4.098 -15.015   2.582  1.00  0.00     0.074 A 
ATOM     42  C   UNL     1      -4.038 -14.071   1.489  1.00  0.00     0.031 C 
ATOM     43  C   UNL     1       0.818 -13.233   6.309  1.00  0.00     0.029 A 
ATOM     44  C   UNL     1      -0.134 -14.314   6.542  1.00  0.00     0.049 A 
ATOM     45  H   UNL     1      -1.709 -14.902   5.313  1.00  0.00     0.167 HD
ATOM     46  C   UNL     1      -5.034 -15.988   2.691  1.00  0.00     0.031 A 
ATOM     47  C   UNL     1      -0.145 -15.127   7.615  1.00  0.00     0.031 A 
ATOM     48  C   UNL     1      -5.081 -16.947   3.760  1.00  0.00     0.049 A 
ATOM     49  C   UNL     1      -1.172 -16.223   7.697  1.00  0.00     0.074 A 
ATOM     50  C   UNL     1      -5.953 -18.007   3.932  1.00  0.00     0.029 A 
ATOM     51  N   UNL     1      -4.209 -16.964   4.837  1.00  0.00    -0.354 N 
ATOM     52  N   UNL     1      -2.134 -16.520   6.857  1.00  0.00    -0.248 NA
ATOM     53  C   UNL     1      -1.096 -17.113   8.865  1.00  0.00     0.031 C 
ATOM     54  C   UNL     1      -5.629 -18.647   5.133  1.00  0.00     0.029 A 
ATOM     55  C   UNL     1      -4.524 -18.015   5.681  1.00  0.00     0.049 A 
ATOM     56  H   UNL     1      -3.474 -16.325   4.980  1.00  0.00     0.167 HD
ATOM     57  C   UNL     1      -2.753 -17.651   7.375  1.00  0.00     0.074 A 
ATOM     58  C   UNL     1      -2.050 -17.992   8.594  1.00  0.00     0.031 C 
ATOM     59  C   UNL     1      -3.806 -18.347   6.883  1.00  0.00     0.031 A 
BRANCH  46  60
ATOM     60  C   UNL     1      -6.078 -16.059   1.612  1.00  0.00    -0.014 A 
ATOM     61  C   UNL     1      -5.748 -16.462   0.307  1.00  0.00     0.009 A 
ATOM     62  C   UNL     1      -7.411 -15.732   1.903  1.00  0.00     0.009 A 
ATOM     63  C   UNL     1      -6.722 -16.492  -0.693  1.00  0.00     0.001 A 
ATOM     64  C   UNL     1      -8.389 -15.793   0.909  1.00  0.00     0.001 A 
ATOM     65  C   UNL     1      -8.042 -16.161  -0.391  1.00  0.00     0.000 A 
ENDBRANCH  46  60
BRANCH  47  66
ATOM     66  C   UNL     1       0.880 -14.973   8.681  1.00  0.00    -0.014 A 
ATOM     67  C   UNL     1       1.904 -15.924   8.822  1.00  0.00     0.009 A 
ATOM     68  C   UNL     1       0.833 -13.890   9.570  1.00  0.00     0.009 A 
ATOM     69  C   UNL     1       2.840 -15.809   9.853  1.00  0.00     0.001 A 
ATOM     70  C   UNL     1       1.787 -13.763  10.583  1.00  0.00     0.001 A 
ATOM     71  C   UNL     1       2.782 -14.728  10.730  1.00  0.00     0.000 A 
ENDBRANCH  47  66
BRANCH  59  72
ATOM     72  C   UNL     1      -4.225 -19.579   7.633  1.00  0.00    -0.014 A 
ATOM     73  C   UNL     1      -4.880 -19.497   8.872  1.00  0.00     0.009 A 
ATOM     74  C   UNL     1      -3.986 -20.843   7.071  1.00  0.00     0.009 A 
ATOM     75  C   UNL     1      -5.251 -20.660   9.550  1.00  0.00     0.001 A 
ATOM     76  C   UNL     1      -4.385 -22.002   7.737  1.00  0.00     0.001 A 
ATOM     77  C   UNL     1      -5.007 -21.910   8.981  1.00  0.00     0.000 A 
ENDBRANCH  59  72
ENDBRANCH  33  34
ENDBRANCH  25  28
ENDBRANCH  23  24
ENDBRANCH  22  23
ENDBRANCH  21  22
ENDBRANCH   1  21
TORSDOF 16
