REMARK SMILES COc1cccc(-c2ccc(=O)n(CC(=O)N[C@@H](C(=O)NCCCCNC(=O)c3ccc(-c4c5nc(c(-c6ccccc6)c6ccc([nH]6)c(-c6ccccc6)c6nc(c(-c7ccccc7)c7ccc4[nH]7)C=C6)C=C5)cc3)C(C)C)n2)c1
REMARK SMILES IDX 22 1 21 2 19 3 20 4 18 6 17 7 15 8 16 9 14 11 13 12 8 13
REMARK SMILES IDX 9 14 80 15 10 16 11 17 12 18 7 19 3 20 4 21 81 22 5 23 6 24
REMARK SMILES IDX 2 25 1 26 77 27 78 28 79 29 23 30 24 31 25 32 26 33 27 34
REMARK SMILES IDX 28 36 29 37 30 38 76 39 31 40 75 41 32 42 33 43 34 44 69 45
REMARK SMILES IDX 35 46 74 47 68 48 70 49 36 50 73 51 67 52 66 53 37 55 59 56
REMARK SMILES IDX 44 57 58 58 45 59 48 60 57 61 71 62 46 63 47 64 56 66 72 67
REMARK SMILES IDX 49 68 38 69 39 70 43 71 40 72 42 73 41 74 60 75 61 76 65 77
REMARK SMILES IDX 62 78 64 79 63 80 50 81 51 82 55 83 52 84 54 85 53 86
REMARK H PARENT 21 5 17 10 26 35 70 54 48 65
REMARK Flexibility Score: inf
ROOT
ATOM      1  C   UNL     1       6.292   4.457  -4.987  1.00  0.00     0.116 C 
ENDROOT
BRANCH   1   2
ATOM      2  N   UNL     1       5.749   4.442  -6.324  1.00  0.00    -0.354 N 
ATOM      3  C   UNL     1       5.429   3.362  -7.105  1.00  0.00     0.242 C 
ATOM      4  O   UNL     1       4.809   3.603  -8.144  1.00  0.00    -0.273 OA
ATOM      5  H   UNL     1       5.588   5.325  -6.729  1.00  0.00     0.163 HD
BRANCH   3   6
ATOM      6  C   UNL     1       5.744   1.905  -6.627  1.00  0.00     0.173 C 
BRANCH   6   7
ATOM      7  N   UNL     1       7.178   1.808  -6.331  1.00  0.00    -0.342 N 
ATOM      8  C   UNL     1       7.840   1.280  -5.259  1.00  0.00     0.242 C 
ATOM      9  O   UNL     1       9.074   1.307  -5.309  1.00  0.00    -0.273 OA
ATOM     10  H   UNL     1       7.764   2.189  -7.025  1.00  0.00     0.164 HD
BRANCH   8  11
ATOM     11  C   UNL     1       7.113   0.587  -4.095  1.00  0.00     0.248 C 
BRANCH  11  12
ATOM     12  N   UNL     1       6.251   1.445  -3.284  1.00  0.00    -0.220 N 
ATOM     13  C   UNL     1       4.111   2.031  -2.738  1.00  0.00     0.091 A 
ATOM     14  C   UNL     1       4.552   3.064  -1.785  1.00  0.00     0.036 A 
ATOM     15  N   UNL     1       4.891   1.274  -3.438  1.00  0.00    -0.169 NA
ATOM     16  C   UNL     1       5.869   3.163  -1.596  1.00  0.00     0.075 A 
ATOM     17  C   UNL     1       6.816   2.316  -2.358  1.00  0.00     0.267 A 
ATOM     18  O   UNL     1       8.019   2.476  -2.184  1.00  0.00    -0.268 OA
BRANCH  13  19
ATOM     19  C   UNL     1       2.657   1.849  -2.837  1.00  0.00     0.006 A 
ATOM     20  C   UNL     1       0.679   0.764  -1.998  1.00  0.00     0.119 A 
ATOM     21  C   UNL     1      -0.070   1.412  -2.985  1.00  0.00     0.046 A 
ATOM     22  C   UNL     1       2.054   0.967  -1.937  1.00  0.00     0.056 A 
ATOM     23  C   UNL     1       0.543   2.288  -3.887  1.00  0.00     0.005 A 
ATOM     24  C   UNL     1       1.917   2.513  -3.816  1.00  0.00     0.011 A 
BRANCH  20  25
ATOM     25  O   UNL     1      -0.023  -0.068  -1.169  1.00  0.00    -0.497 OA
ATOM     26  C   UNL     1       0.541  -0.253   0.127  1.00  0.00     0.278 C 
ENDBRANCH  20  25
ENDBRANCH  13  19
ENDBRANCH  11  12
ENDBRANCH   8  11
ENDBRANCH   6   7
BRANCH   6  27
ATOM     27  C   UNL     1       5.301   0.864  -7.695  1.00  0.00     0.015 C 
ATOM     28  C   UNL     1       5.963  -0.509  -7.537  1.00  0.00     0.010 C 
ATOM     29  C   UNL     1       3.777   0.670  -7.663  1.00  0.00     0.010 C 
ENDBRANCH   6  27
ENDBRANCH   3   6
ENDBRANCH   1   2
BRANCH   1  30
ATOM     30  C   UNL     1       7.584   5.255  -4.865  1.00  0.00     0.023 C 
BRANCH  30  31
ATOM     31  C   UNL     1       7.376   6.747  -4.610  1.00  0.00     0.023 C 
BRANCH  31  32
ATOM     32  C   UNL     1       6.625   7.095  -3.327  1.00  0.00     0.116 C 
BRANCH  32  33
ATOM     33  N   UNL     1       7.255   6.612  -2.108  1.00  0.00    -0.352 N 
ATOM     34  C   UNL     1       7.253   7.203  -0.861  1.00  0.00     0.251 C 
ATOM     35  H   UNL     1       7.743   5.760  -2.182  1.00  0.00     0.163 HD
ATOM     36  O   UNL     1       7.837   6.694   0.081  1.00  0.00    -0.269 OA
BRANCH  34  37
ATOM     37  C   UNL     1       6.564   8.501  -0.691  1.00  0.00     0.039 A 
ATOM     38  C   UNL     1       7.296   9.590  -0.210  1.00  0.00     0.014 A 
ATOM     39  C   UNL     1       5.232   8.658  -1.082  1.00  0.00     0.014 A 
ATOM     40  C   UNL     1       6.717  10.861  -0.207  1.00  0.00     0.010 A 
ATOM     41  C   UNL     1       4.679   9.934  -1.136  1.00  0.00     0.010 A 
ATOM     42  C   UNL     1       5.422  11.049  -0.717  1.00  0.00    -0.014 A 
BRANCH  42  43
ATOM     43  C   UNL     1       4.844  12.409  -0.861  1.00  0.00     0.031 A 
ATOM     44  C   UNL     1       3.634  12.810  -0.067  1.00  0.00     0.074 A 
ATOM     45  C   UNL     1       5.362  13.257  -1.771  1.00  0.00     0.049 A 
ATOM     46  N   UNL     1       2.956  13.929  -0.107  1.00  0.00    -0.248 NA
ATOM     47  C   UNL     1       3.103  11.816   0.878  1.00  0.00     0.031 C 
ATOM     48  C   UNL     1       6.504  12.974  -2.643  1.00  0.00     0.029 A 
ATOM     49  N   UNL     1       4.986  14.531  -2.121  1.00  0.00    -0.354 N 
ATOM     50  C   UNL     1       1.909  13.767   0.791  1.00  0.00     0.074 A 
ATOM     51  C   UNL     1       2.017  12.427   1.328  1.00  0.00     0.031 C 
ATOM     52  C   UNL     1       6.750  14.050  -3.408  1.00  0.00     0.029 A 
ATOM     53  C   UNL     1       5.766  15.084  -3.107  1.00  0.00     0.049 A 
ATOM     54  H   UNL     1       4.229  15.002  -1.704  1.00  0.00     0.167 HD
ATOM     55  C   UNL     1       0.953  14.657   1.149  1.00  0.00     0.031 A 
ATOM     56  C   UNL     1       5.696  16.288  -3.705  1.00  0.00     0.031 A 
ATOM     57  C   UNL     1       0.851  15.993   0.629  1.00  0.00     0.049 A 
ATOM     58  C   UNL     1       4.629  17.260  -3.287  1.00  0.00     0.074 A 
ATOM     59  C   UNL     1      -0.045  16.989   0.979  1.00  0.00     0.029 A 
ATOM     60  N   UNL     1       1.672  16.522  -0.355  1.00  0.00    -0.354 N 
ATOM     61  N   UNL     1       3.689  17.115  -2.385  1.00  0.00    -0.248 NA
ATOM     62  C   UNL     1       4.621  18.565  -3.964  1.00  0.00     0.031 C 
ATOM     63  C   UNL     1       0.207  18.107   0.176  1.00  0.00     0.029 A 
ATOM     64  C   UNL     1       1.290  17.822  -0.640  1.00  0.00     0.049 A 
ATOM     65  H   UNL     1       2.416  16.043  -0.787  1.00  0.00     0.167 HD
ATOM     66  C   UNL     1       2.995  18.317  -2.367  1.00  0.00     0.074 A 
ATOM     67  C   UNL     1       3.629  19.184  -3.339  1.00  0.00     0.031 C 
ATOM     68  C   UNL     1       1.929  18.672  -1.611  1.00  0.00     0.031 A 
BRANCH  55  69
ATOM     69  C   UNL     1      -0.065  14.202   2.156  1.00  0.00    -0.014 A 
ATOM     70  C   UNL     1       0.280  14.016   3.504  1.00  0.00     0.009 A 
ATOM     71  C   UNL     1      -1.392  13.981   1.757  1.00  0.00     0.009 A 
ATOM     72  C   UNL     1      -0.675  13.579   4.424  1.00  0.00     0.001 A 
ATOM     73  C   UNL     1      -2.351  13.570   2.684  1.00  0.00     0.001 A 
ATOM     74  C   UNL     1      -1.990  13.359   4.014  1.00  0.00     0.000 A 
ENDBRANCH  55  69
BRANCH  56  75
ATOM     75  C   UNL     1       6.684  16.655  -4.752  1.00  0.00    -0.014 A 
ATOM     76  C   UNL     1       7.696  17.586  -4.475  1.00  0.00     0.009 A 
ATOM     77  C   UNL     1       6.621  16.077  -6.029  1.00  0.00     0.009 A 
ATOM     78  C   UNL     1       8.613  17.949  -5.465  1.00  0.00     0.001 A 
ATOM     79  C   UNL     1       7.554  16.424  -7.009  1.00  0.00     0.001 A 
ATOM     80  C   UNL     1       8.544  17.364  -6.728  1.00  0.00     0.000 A 
ENDBRANCH  56  75
BRANCH  68  81
ATOM     81  C   UNL     1       1.399  20.066  -1.782  1.00  0.00    -0.014 A 
ATOM     82  C   UNL     1       0.655  20.427  -2.916  1.00  0.00     0.009 A 
ATOM     83  C   UNL     1       1.613  21.020  -0.775  1.00  0.00     0.009 A 
ATOM     84  C   UNL     1       0.161  21.726  -3.050  1.00  0.00     0.001 A 
ATOM     85  C   UNL     1       1.097  22.310  -0.900  1.00  0.00     0.001 A 
ATOM     86  C   UNL     1       0.378  22.664  -2.041  1.00  0.00     0.000 A 
ENDBRANCH  68  81
ENDBRANCH  42  43
ENDBRANCH  34  37
ENDBRANCH  32  33
ENDBRANCH  31  32
ENDBRANCH  30  31
ENDBRANCH   1  30
TORSDOF 17
