REMARK SMILES CC(C)[NH2+][C@@H](C(=O)NCCCCNC(=O)c1ccc(-c2c3nc(c(-c4ccccc4)c4ccc([nH]4)c(-c4ccccc4)c4nc(c(-c5ccccc5)c5ccc2[nH]5)C=C4)C=C3)cc1)c1c[nH]c2ccc(Br)cc12
REMARK SMILES IDX 10 1 9 2 8 3 6 4 7 5 5 7 4 8 2 11 1 12 3 13 64 14 65 15
REMARK SMILES IDX 73 16 66 17 67 18 72 19 68 21 70 22 69 23 71 24 11 25 12 26
REMARK SMILES IDX 13 27 14 28 15 30 16 31 17 32 63 33 18 34 62 35 19 36 20 37
REMARK SMILES IDX 21 38 56 39 22 40 61 41 55 42 57 43 23 44 60 45 54 46 53 47
REMARK SMILES IDX 24 49 46 50 31 51 45 52 32 53 35 54 44 55 58 56 33 57 34 58
REMARK SMILES IDX 43 60 59 61 36 62 25 63 26 64 30 65 27 66 29 67 28 68 47 69
REMARK SMILES IDX 48 70 52 71 49 72 51 73 50 74 37 75 38 76 42 77 39 78 41 79
REMARK SMILES IDX 40 80
REMARK H PARENT 8 6 4 9 4 10 66 20 13 29 57 48 35 59
REMARK Flexibility Score: inf
ROOT
ATOM      1  C   UNL     1       2.463   1.455  -2.589  1.00  0.00     0.023 C 
ENDROOT
BRANCH   1   2
ATOM      2  C   UNL     1       1.206   2.231  -3.054  1.00  0.00     0.116 C 
BRANCH   2   3
ATOM      3  N   UNL     1       0.297   1.497  -3.929  1.00  0.00    -0.351 N 
ATOM      4  C   UNL     1      -1.002   1.053  -3.847  1.00  0.00     0.283 C 
ATOM      5  O   UNL     1      -1.459   0.661  -4.931  1.00  0.00    -0.268 OA
ATOM      6  H   UNL     1       0.717   1.262  -4.787  1.00  0.00     0.163 HD
BRANCH   4   7
ATOM      7  C   UNL     1      -1.893   1.123  -2.575  1.00  0.00     0.306 C 
BRANCH   7   8
ATOM      8  N   UNL     1      -1.309   0.787  -1.250  1.00  0.00    -0.330 N 
ATOM      9  H   UNL     1      -1.084   1.677  -0.806  1.00  0.00     0.347 HD
ATOM     10  H   UNL     1      -2.034   0.191  -0.850  1.00  0.00     0.347 HD
BRANCH   8  11
ATOM     11  C   UNL     1      -0.137  -0.040  -1.102  1.00  0.00     0.176 C 
ATOM     12  C   UNL     1       0.077  -0.450   0.356  1.00  0.00     0.075 C 
ATOM     13  C   UNL     1       0.060  -1.254  -2.008  1.00  0.00     0.075 C 
ENDBRANCH   8  11
ENDBRANCH   7   8
BRANCH   7  14
ATOM     14  C   UNL     1      -3.256   0.366  -2.608  1.00  0.00     0.044 A 
ATOM     15  C   UNL     1      -4.082   0.333  -1.463  1.00  0.00     0.094 A 
ATOM     16  C   UNL     1      -3.564  -0.956  -3.102  1.00  0.00     0.010 A 
ATOM     17  N   UNL     1      -3.543  -0.859  -0.897  1.00  0.00    -0.361 N 
ATOM     18  C   UNL     1      -3.531  -1.761  -1.955  1.00  0.00     0.046 A 
ATOM     19  C   UNL     1      -3.940  -1.565  -4.314  1.00  0.00     0.026 A 
ATOM     20  H   UNL     1      -3.247  -1.008   0.030  1.00  0.00     0.166 HD
ATOM     21  C   UNL     1      -3.513  -3.154  -1.976  1.00  0.00     0.028 A 
ATOM     22  C   UNL     1      -4.173  -2.952  -4.304  1.00  0.00     0.018 A 
ATOM     23  C   UNL     1      -3.884  -3.741  -3.186  1.00  0.00     0.018 A 
ATOM     24  Br  UNL     1      -5.000  -3.773  -5.799  1.00  0.00    -0.051 Br
ENDBRANCH   7  14
ENDBRANCH   4   7
ENDBRANCH   2   3
ENDBRANCH   1   2
BRANCH   1  25
ATOM     25  C   UNL     1       3.232   0.686  -3.654  1.00  0.00     0.023 C 
BRANCH  25  26
ATOM     26  C   UNL     1       4.288   1.532  -4.328  1.00  0.00     0.116 C 
BRANCH  26  27
ATOM     27  N   UNL     1       5.327   1.953  -3.392  1.00  0.00    -0.352 N 
ATOM     28  C   UNL     1       6.695   1.854  -3.504  1.00  0.00     0.251 C 
ATOM     29  H   UNL     1       5.002   2.367  -2.561  1.00  0.00     0.163 HD
ATOM     30  O   UNL     1       7.418   2.087  -2.554  1.00  0.00    -0.269 OA
BRANCH  28  31
ATOM     31  C   UNL     1       7.262   1.429  -4.798  1.00  0.00     0.039 A 
ATOM     32  C   UNL     1       8.264   0.459  -4.817  1.00  0.00     0.014 A 
ATOM     33  C   UNL     1       6.747   1.950  -5.986  1.00  0.00     0.014 A 
ATOM     34  C   UNL     1       8.698  -0.047  -6.041  1.00  0.00     0.010 A 
ATOM     35  C   UNL     1       7.098   1.370  -7.192  1.00  0.00     0.010 A 
ATOM     36  C   UNL     1       8.084   0.373  -7.232  1.00  0.00    -0.014 A 
BRANCH  36  37
ATOM     37  C   UNL     1       8.453  -0.200  -8.545  1.00  0.00     0.031 A 
ATOM     38  C   UNL     1       9.011   0.701  -9.611  1.00  0.00     0.074 A 
ATOM     39  C   UNL     1       8.188  -1.494  -8.804  1.00  0.00     0.049 A 
ATOM     40  N   UNL     1       9.283   0.429 -10.860  1.00  0.00    -0.248 NA
ATOM     41  C   UNL     1       9.261   2.104  -9.233  1.00  0.00     0.031 C 
ATOM     42  C   UNL     1       7.598  -2.448  -7.860  1.00  0.00     0.029 A 
ATOM     43  N   UNL     1       8.365  -2.228  -9.949  1.00  0.00    -0.354 N 
ATOM     44  C   UNL     1       9.703   1.628 -11.421  1.00  0.00     0.074 A 
ATOM     45  C   UNL     1       9.604   2.640 -10.394  1.00  0.00     0.031 C 
ATOM     46  C   UNL     1       7.482  -3.644  -8.459  1.00  0.00     0.029 A 
ATOM     47  C   UNL     1       7.940  -3.530  -9.839  1.00  0.00     0.049 A 
ATOM     48  H   UNL     1       8.758  -1.857 -10.772  1.00  0.00     0.167 HD
ATOM     49  C   UNL     1      10.149   1.859 -12.676  1.00  0.00     0.031 A 
ATOM     50  C   UNL     1       7.907  -4.515 -10.756  1.00  0.00     0.031 A 
ATOM     51  C   UNL     1      10.267   0.840 -13.682  1.00  0.00     0.049 A 
ATOM     52  C   UNL     1       8.403  -4.227 -12.147  1.00  0.00     0.074 A 
ATOM     53  C   UNL     1      10.789   0.948 -14.958  1.00  0.00     0.029 A 
ATOM     54  N   UNL     1       9.851  -0.473 -13.524  1.00  0.00    -0.354 N 
ATOM     55  N   UNL     1       8.890  -3.112 -12.635  1.00  0.00    -0.248 NA
ATOM     56  C   UNL     1       8.350  -5.335 -13.111  1.00  0.00     0.031 C 
ATOM     57  C   UNL     1      10.629  -0.285 -15.596  1.00  0.00     0.029 A 
ATOM     58  C   UNL     1      10.067  -1.177 -14.695  1.00  0.00     0.049 A 
ATOM     59  H   UNL     1       9.460  -0.848 -12.702  1.00  0.00     0.167 HD
ATOM     60  C   UNL     1       9.222  -3.389 -13.954  1.00  0.00     0.074 A 
ATOM     61  C   UNL     1       8.901  -4.783 -14.183  1.00  0.00     0.031 C 
ATOM     62  C   UNL     1       9.742  -2.564 -14.896  1.00  0.00     0.031 A 
BRANCH  49  63
ATOM     63  C   UNL     1      10.531   3.268 -13.035  1.00  0.00    -0.014 A 
ATOM     64  C   UNL     1      11.668   3.882 -12.485  1.00  0.00     0.009 A 
ATOM     65  C   UNL     1       9.766   3.976 -13.976  1.00  0.00     0.009 A 
ATOM     66  C   UNL     1      12.011   5.186 -12.846  1.00  0.00     0.001 A 
ATOM     67  C   UNL     1      10.129   5.268 -14.357  1.00  0.00     0.001 A 
ATOM     68  C   UNL     1      11.246   5.875 -13.786  1.00  0.00     0.000 A 
ENDBRANCH  49  63
BRANCH  50  69
ATOM     69  C   UNL     1       7.378  -5.858 -10.398  1.00  0.00    -0.014 A 
ATOM     70  C   UNL     1       8.232  -6.971 -10.341  1.00  0.00     0.009 A 
ATOM     71  C   UNL     1       6.013  -6.039 -10.125  1.00  0.00     0.009 A 
ATOM     72  C   UNL     1       7.723  -8.240 -10.054  1.00  0.00     0.001 A 
ATOM     73  C   UNL     1       5.513  -7.303  -9.805  1.00  0.00     0.001 A 
ATOM     74  C   UNL     1       6.366  -8.405  -9.783  1.00  0.00     0.000 A 
ENDBRANCH  50  69
BRANCH  62  75
ATOM     75  C   UNL     1      10.022  -3.153 -16.248  1.00  0.00    -0.014 A 
ATOM     76  C   UNL     1       8.980  -3.471 -17.132  1.00  0.00     0.009 A 
ATOM     77  C   UNL     1      11.351  -3.326 -16.668  1.00  0.00     0.009 A 
ATOM     78  C   UNL     1       9.264  -3.975 -18.402  1.00  0.00     0.001 A 
ATOM     79  C   UNL     1      11.632  -3.800 -17.949  1.00  0.00     0.001 A 
ATOM     80  C   UNL     1      10.589  -4.131 -18.812  1.00  0.00     0.000 A 
ENDBRANCH  62  75
ENDBRANCH  36  37
ENDBRANCH  28  31
ENDBRANCH  26  27
ENDBRANCH  25  26
ENDBRANCH   1  25
TORSDOF 14
