REMARK SMILES Cc1cc(NC[C@H](C)[NH+](C)C)cc(C(=O)NCCCCNC(=O)c2ccc(-c3c4nc(c(-c5ccccc5)c5ccc([nH]5)c(-c5ccccc5)c5nc(c(-c6ccccc6)c6ccc3[nH]6)C=C5)C=C4)cc2)c1N
REMARK SMILES IDX 17 1 16 2 14 3 15 4 13 6 1 7 2 8 3 9 72 10 4 11 12 12 73 13
REMARK SMILES IDX 5 16 6 18 7 19 8 20 9 21 10 22 11 23 18 25 19 26 20 27 21 28
REMARK SMILES IDX 22 29 23 31 24 32 25 33 71 34 26 35 70 36 27 37 28 38 29 39
REMARK SMILES IDX 64 40 30 41 69 42 63 43 65 44 31 45 68 46 62 47 61 48 32 50
REMARK SMILES IDX 54 51 39 52 53 53 40 54 43 55 52 56 66 57 41 58 42 59 51 61
REMARK SMILES IDX 67 62 44 63 33 64 34 65 38 66 35 67 37 68 36 69 55 70 56 71
REMARK SMILES IDX 60 72 57 73 59 74 58 75 45 76 46 77 50 78 47 79 49 80 48 81
REMARK H PARENT 16 5 73 14 73 15 5 17 9 24 21 30 65 49 43 60
REMARK Flexibility Score: inf
ROOT
ATOM      1  C   UNL     1      -4.843   6.107  -0.712  1.00  0.00     0.116 C 
ENDROOT
BRANCH   1   2
ATOM      2  N   UNL     1      -5.346   7.349  -0.153  1.00  0.00    -0.352 N 
ATOM      3  C   UNL     1      -5.822   7.695   1.092  1.00  0.00     0.253 C 
ATOM      4  O   UNL     1      -6.163   8.873   1.234  1.00  0.00    -0.269 OA
ATOM      5  H   UNL     1      -5.347   8.095  -0.795  1.00  0.00     0.163 HD
BRANCH   3   6
ATOM      6  C   UNL     1      -5.910   6.746   2.255  1.00  0.00     0.065 A 
ATOM      7  C   UNL     1      -5.999   6.789   6.082  1.00  0.00     0.046 C 
ATOM      8  C   UNL     1      -5.973   6.321   4.652  1.00  0.00    -0.025 A 
ATOM      9  C   UNL     1      -5.998   4.935   4.393  1.00  0.00     0.031 A 
ATOM     10  C   UNL     1      -5.924   7.241   3.580  1.00  0.00     0.047 A 
ATOM     11  C   UNL     1      -5.997   4.437   3.093  1.00  0.00     0.035 A 
ATOM     12  C   UNL     1      -6.040   5.367   2.056  1.00  0.00     0.041 A 
BRANCH  10  13
ATOM     13  N   UNL     1      -5.741   8.603   3.847  1.00  0.00    -0.398 N 
ATOM     14  H   UNL     1      -5.755   8.929   4.776  1.00  0.00     0.156 HD
ATOM     15  H   UNL     1      -5.600   9.235   3.106  1.00  0.00     0.156 HD
ENDBRANCH  10  13
BRANCH  11  16
ATOM     16  N   UNL     1      -5.959   3.069   2.858  1.00  0.00    -0.379 N 
ATOM     17  H   UNL     1      -6.212   2.449   3.580  1.00  0.00     0.160 HD
BRANCH  16  18
ATOM     18  C   UNL     1      -5.551   2.532   1.558  1.00  0.00     0.177 C 
BRANCH  18  19
ATOM     19  C   UNL     1      -5.386   0.985   1.549  1.00  0.00     0.199 C 
ATOM     20  C   UNL     1      -4.466   0.594   0.377  1.00  0.00     0.077 C 
BRANCH  19  21
ATOM     21  N   UNL     1      -6.622   0.164   1.522  1.00  0.00    -0.336 N 
ATOM     22  C   UNL     1      -7.431   0.323   2.729  1.00  0.00     0.332 C 
ATOM     23  C   UNL     1      -7.458   0.352   0.336  1.00  0.00     0.332 C 
ATOM     24  H   UNL     1      -6.269  -0.792   1.481  1.00  0.00     0.347 HD
ENDBRANCH  19  21
ENDBRANCH  18  19
ENDBRANCH  16  18
ENDBRANCH  11  16
ENDBRANCH   3   6
ENDBRANCH   1   2
BRANCH   1  25
ATOM     25  C   UNL     1      -5.959   5.341  -1.433  1.00  0.00     0.023 C 
BRANCH  25  26
ATOM     26  C   UNL     1      -6.273   5.855  -2.838  1.00  0.00     0.023 C 
BRANCH  26  27
ATOM     27  C   UNL     1      -5.152   5.662  -3.850  1.00  0.00     0.116 C 
BRANCH  27  28
ATOM     28  N   UNL     1      -4.775   4.269  -4.037  1.00  0.00    -0.352 N 
ATOM     29  C   UNL     1      -4.288   3.665  -5.175  1.00  0.00     0.251 C 
ATOM     30  H   UNL     1      -4.882   3.686  -3.252  1.00  0.00     0.163 HD
ATOM     31  O   UNL     1      -4.096   2.462  -5.212  1.00  0.00    -0.269 OA
BRANCH  29  32
ATOM     32  C   UNL     1      -4.052   4.500  -6.371  1.00  0.00     0.039 A 
ATOM     33  C   UNL     1      -4.654   4.130  -7.575  1.00  0.00     0.014 A 
ATOM     34  C   UNL     1      -3.303   5.676  -6.279  1.00  0.00     0.014 A 
ATOM     35  C   UNL     1      -4.574   4.988  -8.672  1.00  0.00     0.010 A 
ATOM     36  C   UNL     1      -3.278   6.558  -7.353  1.00  0.00     0.010 A 
ATOM     37  C   UNL     1      -3.924   6.227  -8.554  1.00  0.00    -0.014 A 
BRANCH  37  38
ATOM     38  C   UNL     1      -3.937   7.208  -9.665  1.00  0.00     0.031 A 
ATOM     39  C   UNL     1      -2.659   7.586 -10.356  1.00  0.00     0.074 A 
ATOM     40  C   UNL     1      -5.091   7.820  -9.993  1.00  0.00     0.049 A 
ATOM     41  N   UNL     1      -2.464   8.472 -11.300  1.00  0.00    -0.248 NA
ATOM     42  C   UNL     1      -1.437   6.899  -9.910  1.00  0.00     0.031 C 
ATOM     43  C   UNL     1      -6.391   7.578  -9.362  1.00  0.00     0.029 A 
ATOM     44  N   UNL     1      -5.354   8.782 -10.935  1.00  0.00    -0.354 N 
ATOM     45  C   UNL     1      -1.098   8.461 -11.547  1.00  0.00     0.074 A 
ATOM     46  C   UNL     1      -0.508   7.513 -10.626  1.00  0.00     0.031 C 
ATOM     47  C   UNL     1      -7.316   8.354  -9.951  1.00  0.00     0.029 A 
ATOM     48  C   UNL     1      -6.671   9.169 -10.974  1.00  0.00     0.049 A 
ATOM     49  H   UNL     1      -4.663   9.160 -11.527  1.00  0.00     0.167 HD
ATOM     50  C   UNL     1      -0.399   9.165 -12.468  1.00  0.00     0.031 A 
ATOM     51  C   UNL     1      -7.290  10.081 -11.746  1.00  0.00     0.031 A 
ATOM     52  C   UNL     1      -0.986  10.098 -13.392  1.00  0.00     0.049 A 
ATOM     53  C   UNL     1      -6.494  10.844 -12.766  1.00  0.00     0.074 A 
ATOM     54  C   UNL     1      -0.370  10.813 -14.404  1.00  0.00     0.029 A 
ATOM     55  N   UNL     1      -2.328  10.445 -13.414  1.00  0.00    -0.354 N 
ATOM     56  N   UNL     1      -5.214  10.771 -13.036  1.00  0.00    -0.248 NA
ATOM     57  C   UNL     1      -7.233  11.807 -13.595  1.00  0.00     0.031 C 
ATOM     58  C   UNL     1      -1.333  11.623 -15.015  1.00  0.00     0.029 A 
ATOM     59  C   UNL     1      -2.556  11.378 -14.411  1.00  0.00     0.049 A 
ATOM     60  H   UNL     1      -3.016  10.082 -12.811  1.00  0.00     0.167 HD
ATOM     61  C   UNL     1      -4.997  11.659 -14.081  1.00  0.00     0.074 A 
ATOM     62  C   UNL     1      -6.280  12.249 -14.404  1.00  0.00     0.031 C 
ATOM     63  C   UNL     1      -3.839  11.956 -14.718  1.00  0.00     0.031 A 
BRANCH  50  64
ATOM     64  C   UNL     1       1.087   8.951 -12.512  1.00  0.00    -0.014 A 
ATOM     65  C   UNL     1       1.632   7.755 -13.005  1.00  0.00     0.009 A 
ATOM     66  C   UNL     1       1.952   9.965 -12.076  1.00  0.00     0.009 A 
ATOM     67  C   UNL     1       3.015   7.564 -13.023  1.00  0.00     0.001 A 
ATOM     68  C   UNL     1       3.336   9.781 -12.120  1.00  0.00     0.001 A 
ATOM     69  C   UNL     1       3.865   8.578 -12.584  1.00  0.00     0.000 A 
ENDBRANCH  50  64
BRANCH  51  70
ATOM     70  C   UNL     1      -8.751  10.304 -11.602  1.00  0.00    -0.014 A 
ATOM     71  C   UNL     1      -9.638   9.826 -12.578  1.00  0.00     0.009 A 
ATOM     72  C   UNL     1      -9.264  10.988 -10.491  1.00  0.00     0.009 A 
ATOM     73  C   UNL     1     -11.011  10.049 -12.454  1.00  0.00     0.001 A 
ATOM     74  C   UNL     1     -10.640  11.188 -10.358  1.00  0.00     0.001 A 
ATOM     75  C   UNL     1     -11.511  10.725 -11.343  1.00  0.00     0.000 A 
ENDBRANCH  51  70
BRANCH  63  76
ATOM     76  C   UNL     1      -3.913  12.940 -15.849  1.00  0.00    -0.014 A 
ATOM     77  C   UNL     1      -4.068  14.313 -15.607  1.00  0.00     0.009 A 
ATOM     78  C   UNL     1      -3.785  12.488 -17.172  1.00  0.00     0.009 A 
ATOM     79  C   UNL     1      -4.122  15.213 -16.673  1.00  0.00     0.001 A 
ATOM     80  C   UNL     1      -3.815  13.393 -18.233  1.00  0.00     0.001 A 
ATOM     81  C   UNL     1      -3.991  14.754 -17.983  1.00  0.00     0.000 A 
ENDBRANCH  63  76
ENDBRANCH  37  38
ENDBRANCH  29  32
ENDBRANCH  27  28
ENDBRANCH  26  27
ENDBRANCH  25  26
ENDBRANCH   1  25
TORSDOF 16
