REMARK SMILES COc1ccc(NS(=O)(=O)c2ccc(NC(=O)[C@H]3CCCC[C@@H]3C(=O)NCCCCNC(=O)c3ccc(-c4c5nc(c(-c6ccccc6)c6ccc([nH]6)c(-c6ccccc6)c6nc(c(-c7ccccc7)c7ccc4[nH]7)C=C6)C=C5)cc3)cc2)cc1
REMARK SMILES IDX 24 1 25 2 26 3 23 5 18 6 19 7 20 8 22 9 21 10 16 11 15 12
REMARK SMILES IDX 17 14 14 15 11 16 12 17 83 18 13 19 82 20 8 21 9 22 10 23
REMARK SMILES IDX 7 24 6 26 3 27 4 28 85 29 5 30 84 31 2 32 1 33 27 34 28 35
REMARK SMILES IDX 29 36 30 37 31 38 32 39 33 41 34 42 35 43 81 44 36 45 80 46
REMARK SMILES IDX 37 47 38 48 39 49 74 50 40 51 79 52 73 53 75 54 41 55 78 56
REMARK SMILES IDX 72 57 71 58 42 60 64 61 49 62 63 63 50 64 53 65 62 66 76 67
REMARK SMILES IDX 51 68 52 69 61 71 77 72 54 73 43 74 44 75 48 76 45 77 47 78
REMARK SMILES IDX 46 79 65 80 66 81 70 82 67 83 69 84 68 85 55 86 56 87 60 88
REMARK SMILES IDX 57 89 59 90 58 91
REMARK H PARENT 26 4 15 13 7 25 31 40 75 59 53 70
REMARK Flexibility Score: inf
ROOT
ATOM      1  C   UNL     1      -5.624  -1.416  -0.820  1.00  0.00     0.223 C 
ATOM      2  O   UNL     1      -4.944  -1.725   0.158  1.00  0.00    -0.275 OA
ATOM      3  N   UNL     1      -6.995  -1.573  -0.739  1.00  0.00    -0.356 N 
ATOM      4  H   UNL     1      -7.318  -1.952   0.110  1.00  0.00     0.163 HD
ENDROOT
BRANCH   1   5
ATOM      5  C   UNL     1      -4.997  -0.802  -2.073  1.00  0.00     0.091 C 
ATOM      6  C   UNL     1      -4.430  -1.688  -3.148  1.00  0.00     0.091 C 
ATOM      7  C   UNL     1      -2.993  -2.108  -2.749  1.00  0.00     0.014 C 
ATOM      8  C   UNL     1      -2.076  -0.918  -2.466  1.00  0.00     0.001 C 
ATOM      9  C   UNL     1      -4.118   0.418  -1.804  1.00  0.00     0.014 C 
ATOM     10  C   UNL     1      -2.681   0.059  -1.463  1.00  0.00     0.001 C 
BRANCH   6  11
ATOM     11  C   UNL     1      -4.508  -1.101  -4.602  1.00  0.00     0.228 C 
ATOM     12  N   UNL     1      -5.121   0.024  -5.104  1.00  0.00    -0.326 N 
ATOM     13  H   UNL     1      -4.944   0.070  -6.072  1.00  0.00     0.169 HD
ATOM     14  O   UNL     1      -3.898  -1.742  -5.481  1.00  0.00    -0.274 OA
BRANCH  12  15
ATOM     15  C   UNL     1      -5.920   1.148  -4.736  1.00  0.00     0.041 A 
ATOM     16  C   UNL     1      -7.082   3.608  -3.899  1.00  0.00     0.087 A 
ATOM     17  C   UNL     1      -7.257   2.474  -3.147  1.00  0.00     0.024 A 
ATOM     18  C   UNL     1      -6.513   3.492  -5.173  1.00  0.00     0.024 A 
ATOM     19  C   UNL     1      -6.741   1.276  -3.628  1.00  0.00     0.027 A 
ATOM     20  C   UNL     1      -5.917   2.271  -5.573  1.00  0.00     0.027 A 
BRANCH  16  21
ATOM     21  S   UNL     1      -7.655   5.137  -3.232  1.00  0.00     0.261 S 
ATOM     22  O   UNL     1      -8.895   4.832  -2.527  1.00  0.00    -0.201 OA
ATOM     23  O   UNL     1      -7.638   6.122  -4.279  1.00  0.00    -0.201 OA
BRANCH  21  24
ATOM     24  N   UNL     1      -6.601   5.643  -2.004  1.00  0.00    -0.280 N 
ATOM     25  H   UNL     1      -6.835   6.476  -1.534  1.00  0.00     0.180 HD
BRANCH  24  26
ATOM     26  C   UNL     1      -5.401   4.976  -1.582  1.00  0.00     0.049 A 
ATOM     27  C   UNL     1      -2.939   3.963  -0.618  1.00  0.00     0.119 A 
ATOM     28  C   UNL     1      -3.272   3.878  -1.968  1.00  0.00     0.048 A 
ATOM     29  C   UNL     1      -3.810   4.612   0.249  1.00  0.00     0.048 A 
ATOM     30  C   UNL     1      -4.474   4.410  -2.450  1.00  0.00     0.030 A 
ATOM     31  C   UNL     1      -5.029   5.117  -0.234  1.00  0.00     0.030 A 
BRANCH  27  32
ATOM     32  O   UNL     1      -1.718   3.451  -0.285  1.00  0.00    -0.497 OA
ATOM     33  C   UNL     1      -1.587   2.960   1.044  1.00  0.00     0.278 C 
ENDBRANCH  27  32
ENDBRANCH  24  26
ENDBRANCH  21  24
ENDBRANCH  16  21
ENDBRANCH  12  15
ENDBRANCH   6  11
ENDBRANCH   1   5
BRANCH   3  34
ATOM     34  C   UNL     1      -8.040  -1.265  -1.711  1.00  0.00     0.116 C 
BRANCH  34  35
ATOM     35  C   UNL     1      -9.339  -2.051  -1.579  1.00  0.00     0.023 C 
BRANCH  35  36
ATOM     36  C   UNL     1     -10.171  -1.731  -0.341  1.00  0.00     0.023 C 
BRANCH  36  37
ATOM     37  C   UNL     1     -10.677  -0.292  -0.229  1.00  0.00     0.116 C 
BRANCH  37  38
ATOM     38  N   UNL     1     -11.685   0.054  -1.223  1.00  0.00    -0.352 N 
ATOM     39  C   UNL     1     -13.027   0.327  -1.070  1.00  0.00     0.251 C 
ATOM     40  H   UNL     1     -11.355   0.100  -2.150  1.00  0.00     0.163 HD
ATOM     41  O   UNL     1     -13.743   0.463  -2.057  1.00  0.00    -0.269 OA
BRANCH  39  42
ATOM     42  C   UNL     1     -13.621   0.416   0.283  1.00  0.00     0.039 A 
ATOM     43  C   UNL     1     -14.821  -0.253   0.542  1.00  0.00     0.014 A 
ATOM     44  C   UNL     1     -12.996   1.142   1.298  1.00  0.00     0.014 A 
ATOM     45  C   UNL     1     -15.336  -0.277   1.841  1.00  0.00     0.010 A 
ATOM     46  C   UNL     1     -13.458   1.039   2.608  1.00  0.00     0.010 A 
ATOM     47  C   UNL     1     -14.629   0.323   2.897  1.00  0.00    -0.014 A 
BRANCH  47  48
ATOM     48  C   UNL     1     -15.089   0.198   4.306  1.00  0.00     0.031 A 
ATOM     49  C   UNL     1     -15.451   1.423   5.101  1.00  0.00     0.074 A 
ATOM     50  C   UNL     1     -15.114  -1.015   4.896  1.00  0.00     0.049 A 
ATOM     51  N   UNL     1     -15.816   1.516   6.356  1.00  0.00    -0.248 NA
ATOM     52  C   UNL     1     -15.370   2.717   4.404  1.00  0.00     0.031 C 
ATOM     53  C   UNL     1     -14.749  -2.280   4.255  1.00  0.00     0.029 A 
ATOM     54  N   UNL     1     -15.458  -1.381   6.175  1.00  0.00    -0.354 N 
ATOM     55  C   UNL     1     -15.989   2.872   6.600  1.00  0.00     0.074 A 
ATOM     56  C   UNL     1     -15.637   3.569   5.382  1.00  0.00     0.031 C 
ATOM     57  C   UNL     1     -14.923  -3.284   5.129  1.00  0.00     0.029 A 
ATOM     58  C   UNL     1     -15.362  -2.733   6.407  1.00  0.00     0.049 A 
ATOM     59  H   UNL     1     -15.747  -0.737   6.860  1.00  0.00     0.167 HD
ATOM     60  C   UNL     1     -16.419   3.485   7.729  1.00  0.00     0.031 A 
ATOM     61  C   UNL     1     -15.591  -3.450   7.524  1.00  0.00     0.031 A 
ATOM     62  C   UNL     1     -16.776   2.794   8.940  1.00  0.00     0.049 A 
ATOM     63  C   UNL     1     -16.041  -2.742   8.772  1.00  0.00     0.074 A 
ATOM     64  C   UNL     1     -17.280   3.322  10.116  1.00  0.00     0.029 A 
ATOM     65  N   UNL     1     -16.660   1.426   9.133  1.00  0.00    -0.354 N 
ATOM     66  N   UNL     1     -16.273  -1.466   8.962  1.00  0.00    -0.248 NA
ATOM     67  C   UNL     1     -16.271  -3.578   9.960  1.00  0.00     0.031 C 
ATOM     68  C   UNL     1     -17.407   2.283  11.042  1.00  0.00     0.029 A 
ATOM     69  C   UNL     1     -17.051   1.097  10.421  1.00  0.00     0.049 A 
ATOM     70  H   UNL     1     -16.347   0.784   8.456  1.00  0.00     0.167 HD
ATOM     71  C   UNL     1     -16.707  -1.351  10.277  1.00  0.00     0.074 A 
ATOM     72  C   UNL     1     -16.722  -2.688  10.832  1.00  0.00     0.031 C 
ATOM     73  C   UNL     1     -17.063  -0.237  10.962  1.00  0.00     0.031 A 
BRANCH  60  74
ATOM     74  C   UNL     1     -16.517   4.987   7.711  1.00  0.00    -0.014 A 
ATOM     75  C   UNL     1     -17.478   5.648   6.930  1.00  0.00     0.009 A 
ATOM     76  C   UNL     1     -15.660   5.750   8.521  1.00  0.00     0.009 A 
ATOM     77  C   UNL     1     -17.552   7.043   6.930  1.00  0.00     0.001 A 
ATOM     78  C   UNL     1     -15.759   7.142   8.544  1.00  0.00     0.001 A 
ATOM     79  C   UNL     1     -16.698   7.788   7.741  1.00  0.00     0.000 A 
ENDBRANCH  60  74
BRANCH  61  80
ATOM     80  C   UNL     1     -15.411  -4.927   7.518  1.00  0.00    -0.014 A 
ATOM     81  C   UNL     1     -16.517  -5.782   7.646  1.00  0.00     0.009 A 
ATOM     82  C   UNL     1     -14.130  -5.491   7.405  1.00  0.00     0.009 A 
ATOM     83  C   UNL     1     -16.341  -7.167   7.696  1.00  0.00     0.001 A 
ATOM     84  C   UNL     1     -13.961  -6.877   7.420  1.00  0.00     0.001 A 
ATOM     85  C   UNL     1     -15.064  -7.713   7.578  1.00  0.00     0.000 A 
ENDBRANCH  61  80
BRANCH  73  86
ATOM     86  C   UNL     1     -17.541  -0.419  12.377  1.00  0.00    -0.014 A 
ATOM     87  C   UNL     1     -16.663  -0.789  13.407  1.00  0.00     0.009 A 
ATOM     88  C   UNL     1     -18.889  -0.176  12.687  1.00  0.00     0.009 A 
ATOM     89  C   UNL     1     -17.134  -0.947  14.713  1.00  0.00     0.001 A 
ATOM     90  C   UNL     1     -19.349  -0.301  13.999  1.00  0.00     0.001 A 
ATOM     91  C   UNL     1     -18.474  -0.697  15.008  1.00  0.00     0.000 A 
ENDBRANCH  73  86
ENDBRANCH  47  48
ENDBRANCH  39  42
ENDBRANCH  37  38
ENDBRANCH  36  37
ENDBRANCH  35  36
ENDBRANCH  34  35
ENDBRANCH   3  34
TORSDOF 17
