REMARK SMILES Cc1c(CC(=O)NCCCCNC(=O)c2ccc(-c3c4nc(c(-c5ccccc5)c5ccc([nH]5)c(-c5ccccc5)c5nc(c(-c6ccccc6)c6ccc3[nH]6)C=C5)C=C4)cc2)c2cc(O)ccc2n1C(=O)c1ccc(Cl)cc1
REMARK SMILES IDX 9 1 8 2 7 3 5 4 6 5 4 7 3 8 1 9 2 10 70 11 63 12 69 13 64 14
REMARK SMILES IDX 68 15 65 16 67 17 71 18 72 19 73 20 74 21 79 22 75 23 78 24
REMARK SMILES IDX 76 25 77 26 66 27 10 29 11 30 12 31 13 32 14 34 15 35 16 36
REMARK SMILES IDX 62 37 17 38 61 39 18 40 19 41 20 42 55 43 21 44 60 45 54 46
REMARK SMILES IDX 56 47 22 48 59 49 53 50 52 51 23 53 45 54 30 55 44 56 31 57
REMARK SMILES IDX 34 58 43 59 57 60 32 61 33 62 42 64 58 65 35 66 24 67 25 68
REMARK SMILES IDX 29 69 26 70 28 71 27 72 46 73 47 74 51 75 48 76 50 77 49 78
REMARK SMILES IDX 36 79 37 80 41 81 38 82 40 83 39 84
REMARK H PARENT 7 6 66 28 12 33 56 52 34 63
REMARK Flexibility Score: inf
ROOT
ATOM      1  C   UNL     1      -2.852   1.178   0.029  1.00  0.00     0.023 C 
ENDROOT
BRANCH   1   2
ATOM      2  C   UNL     1      -2.416  -0.217  -0.412  1.00  0.00     0.116 C 
BRANCH   2   3
ATOM      3  N   UNL     1      -2.753  -0.474  -1.796  1.00  0.00    -0.356 N 
ATOM      4  C   UNL     1      -1.910  -0.637  -2.858  1.00  0.00     0.224 C 
ATOM      5  O   UNL     1      -2.406  -0.859  -3.966  1.00  0.00    -0.275 OA
ATOM      6  H   UNL     1      -3.714  -0.539  -1.998  1.00  0.00     0.163 HD
BRANCH   4   7
ATOM      7  C   UNL     1      -0.405  -0.613  -2.648  1.00  0.00     0.138 C 
BRANCH   7   8
ATOM      8  C   UNL     1       0.117   0.726  -2.204  1.00  0.00    -0.009 A 
ATOM      9  C   UNL     1       1.336   0.066  -0.000  1.00  0.00     0.065 C 
ATOM     10  C   UNL     1       0.853   1.010  -1.060  1.00  0.00     0.028 A 
ATOM     11  N   UNL     1       1.059   2.396  -0.986  1.00  0.00    -0.280 N 
ATOM     12  C   UNL     1      -0.027   1.946  -2.922  1.00  0.00     0.008 A 
ATOM     13  C   UNL     1       0.633   2.950  -2.204  1.00  0.00     0.057 A 
ATOM     14  C   UNL     1      -0.647   2.265  -4.151  1.00  0.00     0.056 A 
ATOM     15  C   UNL     1       0.752   4.245  -2.755  1.00  0.00     0.031 A 
ATOM     16  C   UNL     1      -0.581   3.563  -4.644  1.00  0.00     0.116 A 
ATOM     17  C   UNL     1       0.121   4.543  -3.967  1.00  0.00     0.048 A 
BRANCH  11  18
ATOM     18  C   UNL     1       1.605   3.090   0.134  1.00  0.00     0.262 C 
ATOM     19  O   UNL     1       1.978   2.441   1.113  1.00  0.00    -0.268 OA
BRANCH  18  20
ATOM     20  C   UNL     1       1.784   4.546   0.239  1.00  0.00     0.040 A 
ATOM     21  C   UNL     1       0.689   5.416   0.243  1.00  0.00     0.015 A 
ATOM     22  C   UNL     1       3.091   5.038   0.333  1.00  0.00     0.015 A 
ATOM     23  C   UNL     1       0.914   6.795   0.253  1.00  0.00     0.021 A 
ATOM     24  C   UNL     1       3.308   6.415   0.352  1.00  0.00     0.021 A 
ATOM     25  C   UNL     1       2.221   7.287   0.292  1.00  0.00     0.041 A 
ATOM     26  Cl  UNL     1       2.496   8.984   0.248  1.00  0.00    -0.084 Cl
ENDBRANCH  18  20
ENDBRANCH  11  18
BRANCH  16  27
ATOM     27  O   UNL     1      -1.212   3.828  -5.823  1.00  0.00    -0.508 OA
ATOM     28  H   UNL     1      -1.682   3.148  -6.265  1.00  0.00     0.293 HD
ENDBRANCH  16  27
ENDBRANCH   7   8
ENDBRANCH   4   7
ENDBRANCH   2   3
ENDBRANCH   1   2
BRANCH   1  29
ATOM     29  C   UNL     1      -4.373   1.367   0.095  1.00  0.00     0.023 C 
BRANCH  29  30
ATOM     30  C   UNL     1      -5.116   0.259   0.848  1.00  0.00     0.116 C 
BRANCH  30  31
ATOM     31  N   UNL     1      -4.644   0.064   2.204  1.00  0.00    -0.352 N 
ATOM     32  C   UNL     1      -4.946   0.623   3.414  1.00  0.00     0.251 C 
ATOM     33  H   UNL     1      -3.948  -0.630   2.268  1.00  0.00     0.163 HD
ATOM     34  O   UNL     1      -4.404   0.117   4.400  1.00  0.00    -0.269 OA
BRANCH  32  35
ATOM     35  C   UNL     1      -5.816   1.813   3.610  1.00  0.00     0.039 A 
ATOM     36  C   UNL     1      -6.517   2.474   2.602  1.00  0.00     0.014 A 
ATOM     37  C   UNL     1      -5.870   2.337   4.916  1.00  0.00     0.014 A 
ATOM     38  C   UNL     1      -7.159   3.675   2.859  1.00  0.00     0.010 A 
ATOM     39  C   UNL     1      -6.531   3.531   5.187  1.00  0.00     0.010 A 
ATOM     40  C   UNL     1      -7.130   4.224   4.141  1.00  0.00    -0.014 A 
BRANCH  40  41
ATOM     41  C   UNL     1      -7.776   5.519   4.311  1.00  0.00     0.031 A 
ATOM     42  C   UNL     1      -9.237   5.555   4.036  1.00  0.00     0.074 A 
ATOM     43  C   UNL     1      -7.117   6.619   4.719  1.00  0.00     0.049 A 
ATOM     44  N   UNL     1      -9.870   6.260   3.154  1.00  0.00    -0.248 NA
ATOM     45  C   UNL     1     -10.090   4.626   4.791  1.00  0.00     0.031 C 
ATOM     46  C   UNL     1      -5.771   6.696   5.294  1.00  0.00     0.029 A 
ATOM     47  N   UNL     1      -7.569   7.903   4.797  1.00  0.00    -0.354 N 
ATOM     48  C   UNL     1     -11.222   5.970   3.328  1.00  0.00     0.074 A 
ATOM     49  C   UNL     1     -11.291   4.888   4.277  1.00  0.00     0.031 C 
ATOM     50  C   UNL     1      -5.610   7.905   5.877  1.00  0.00     0.029 A 
ATOM     51  C   UNL     1      -6.768   8.727   5.570  1.00  0.00     0.049 A 
ATOM     52  H   UNL     1      -8.386   8.215   4.346  1.00  0.00     0.167 HD
ATOM     53  C   UNL     1     -12.206   6.755   2.811  1.00  0.00     0.031 A 
ATOM     54  C   UNL     1      -7.064   9.979   5.982  1.00  0.00     0.031 A 
ATOM     55  C   UNL     1     -11.714   7.648   1.800  1.00  0.00     0.049 A 
ATOM     56  C   UNL     1      -8.093  10.541   5.085  1.00  0.00     0.074 A 
ATOM     57  C   UNL     1     -11.338   7.543   0.481  1.00  0.00     0.029 A 
ATOM     58  N   UNL     1     -11.276   8.863   2.257  1.00  0.00    -0.354 N 
ATOM     59  N   UNL     1      -7.884  10.814   3.829  1.00  0.00    -0.248 NA
ATOM     60  C   UNL     1      -9.490  10.551   5.500  1.00  0.00     0.031 C 
ATOM     61  C   UNL     1     -10.415   8.605   0.258  1.00  0.00     0.029 A 
ATOM     62  C   UNL     1     -10.271   9.323   1.447  1.00  0.00     0.049 A 
ATOM     63  H   UNL     1     -11.630   9.334   3.046  1.00  0.00     0.167 HD
ATOM     64  C   UNL     1      -9.110  10.619   3.221  1.00  0.00     0.074 A 
ATOM     65  C   UNL     1     -10.081  10.644   4.306  1.00  0.00     0.031 C 
ATOM     66  C   UNL     1      -9.193  10.155   1.942  1.00  0.00     0.031 A 
BRANCH  53  67
ATOM     67  C   UNL     1     -13.541   6.994   3.476  1.00  0.00    -0.014 A 
ATOM     68  C   UNL     1     -13.807   6.663   4.817  1.00  0.00     0.009 A 
ATOM     69  C   UNL     1     -14.479   7.829   2.837  1.00  0.00     0.009 A 
ATOM     70  C   UNL     1     -14.933   7.145   5.492  1.00  0.00     0.001 A 
ATOM     71  C   UNL     1     -15.588   8.345   3.521  1.00  0.00     0.001 A 
ATOM     72  C   UNL     1     -15.812   8.006   4.851  1.00  0.00     0.000 A 
ENDBRANCH  53  67
BRANCH  54  73
ATOM     73  C   UNL     1      -6.726  10.599   7.277  1.00  0.00    -0.014 A 
ATOM     74  C   UNL     1      -6.676   9.804   8.437  1.00  0.00     0.009 A 
ATOM     75  C   UNL     1      -6.740  11.992   7.429  1.00  0.00     0.009 A 
ATOM     76  C   UNL     1      -6.690  10.381   9.709  1.00  0.00     0.001 A 
ATOM     77  C   UNL     1      -6.756  12.570   8.704  1.00  0.00     0.001 A 
ATOM     78  C   UNL     1      -6.750  11.764   9.842  1.00  0.00     0.000 A 
ENDBRANCH  54  73
BRANCH  66  79
ATOM     79  C   UNL     1      -7.972  10.274   1.069  1.00  0.00    -0.014 A 
ATOM     80  C   UNL     1      -8.089  10.973  -0.142  1.00  0.00     0.009 A 
ATOM     81  C   UNL     1      -6.767   9.608   1.343  1.00  0.00     0.009 A 
ATOM     82  C   UNL     1      -7.039  10.993  -1.062  1.00  0.00     0.001 A 
ATOM     83  C   UNL     1      -5.705   9.651   0.435  1.00  0.00     0.001 A 
ATOM     84  C   UNL     1      -5.846  10.335  -0.772  1.00  0.00     0.000 A 
ENDBRANCH  66  79
ENDBRANCH  40  41
ENDBRANCH  32  35
ENDBRANCH  30  31
ENDBRANCH  29  30
ENDBRANCH   1  29
TORSDOF 15
