REMARK SMILES CCN(CCOC)C(=O)c1cccn1CC(=O)NCCCCNC(=O)c1ccc(-c2c3nc(c(-c4ccccc4)c4ccc([nH]4)c(-c4ccccc4)c4nc(c(-c5ccccc5)c5ccc2[nH]5)C=C4)C=C3)cc1
REMARK SMILES IDX 16 1 17 2 18 3 15 5 14 6 10 7 11 8 12 9 13 10 8 11 9 12 3 13
REMARK SMILES IDX 2 14 1 15 4 16 5 17 6 18 7 19 19 20 20 21 21 22 22 23 23 24
REMARK SMILES IDX 24 25 25 27 26 28 27 29 73 30 28 31 72 32 29 33 30 34 31 35
REMARK SMILES IDX 66 36 32 37 71 38 65 39 67 40 33 41 70 42 64 43 63 44 34 46
REMARK SMILES IDX 56 47 41 48 55 49 42 50 45 51 54 52 68 53 43 54 44 55 53 57
REMARK SMILES IDX 69 58 46 59 35 60 36 61 40 62 37 63 39 64 38 65 57 66 58 67
REMARK SMILES IDX 62 68 59 69 61 70 60 71 47 72 48 73 52 74 49 75 51 76 50 77
REMARK H PARENT 18 4 23 26 67 45 45 56
REMARK Flexibility Score: inf
ROOT
ATOM      1  C   UNL     1       4.040  -4.543  -1.308  1.00  0.00     0.239 C 
ATOM      2  O   UNL     1       4.883  -5.423  -1.120  1.00  0.00    -0.273 OA
ATOM      3  N   UNL     1       2.743  -4.818  -0.970  1.00  0.00    -0.355 N 
ATOM      4  H   UNL     1       2.579  -5.718  -0.605  1.00  0.00     0.163 HD
ENDROOT
BRANCH   1   5
ATOM      5  C   UNL     1       4.426  -3.179  -1.853  1.00  0.00     0.222 C 
BRANCH   5   6
ATOM      6  N   UNL     1       3.913  -2.950  -3.199  1.00  0.00    -0.334 N 
ATOM      7  C   UNL     1       3.040  -1.943  -3.600  1.00  0.00     0.107 A 
ATOM      8  C   UNL     1       2.804  -2.176  -4.949  1.00  0.00     0.033 A 
ATOM      9  C   UNL     1       3.535  -3.314  -5.361  1.00  0.00     0.020 A 
ATOM     10  C   UNL     1       4.234  -3.754  -4.267  1.00  0.00     0.087 A 
BRANCH   7  11
ATOM     11  C   UNL     1       2.591  -0.868  -2.718  1.00  0.00     0.270 C 
ATOM     12  O   UNL     1       3.403  -0.291  -1.995  1.00  0.00    -0.267 OA
BRANCH  11  13
ATOM     13  N   UNL     1       1.224  -0.562  -2.605  1.00  0.00    -0.335 N 
BRANCH  13  14
ATOM     14  C   UNL     1       0.815   0.377  -1.552  1.00  0.00     0.116 C 
ATOM     15  C   UNL     1       0.977  -0.182  -0.142  1.00  0.00     0.027 C 
ENDBRANCH  13  14
BRANCH  13  16
ATOM     16  C   UNL     1       0.174  -0.973  -3.546  1.00  0.00     0.148 C 
BRANCH  16  17
ATOM     17  C   UNL     1      -0.195   0.121  -4.567  1.00  0.00     0.181 C 
BRANCH  17  18
ATOM     18  O   UNL     1       0.842   0.368  -5.514  1.00  0.00    -0.383 OA
ATOM     19  C   UNL     1       1.789   1.349  -5.107  1.00  0.00     0.194 C 
ENDBRANCH  17  18
ENDBRANCH  16  17
ENDBRANCH  13  16
ENDBRANCH  11  13
ENDBRANCH   7  11
ENDBRANCH   5   6
ENDBRANCH   1   5
BRANCH   3  20
ATOM     20  C   UNL     1       1.578  -3.964  -1.077  1.00  0.00     0.116 C 
BRANCH  20  21
ATOM     21  C   UNL     1       0.671  -4.359  -2.241  1.00  0.00     0.023 C 
BRANCH  21  22
ATOM     22  C   UNL     1      -0.123  -5.653  -2.024  1.00  0.00     0.023 C 
BRANCH  22  23
ATOM     23  C   UNL     1      -1.127  -5.584  -0.871  1.00  0.00     0.116 C 
BRANCH  23  24
ATOM     24  N   UNL     1      -2.154  -4.583  -1.120  1.00  0.00    -0.352 N 
ATOM     25  C   UNL     1      -3.151  -4.123  -0.296  1.00  0.00     0.251 C 
ATOM     26  H   UNL     1      -2.129  -4.174  -2.015  1.00  0.00     0.163 HD
ATOM     27  O   UNL     1      -4.139  -3.593  -0.791  1.00  0.00    -0.269 OA
BRANCH  25  28
ATOM     28  C   UNL     1      -3.061  -4.249   1.173  1.00  0.00     0.039 A 
ATOM     29  C   UNL     1      -4.222  -4.594   1.878  1.00  0.00     0.014 A 
ATOM     30  C   UNL     1      -1.885  -3.935   1.862  1.00  0.00     0.014 A 
ATOM     31  C   UNL     1      -4.184  -4.700   3.265  1.00  0.00     0.010 A 
ATOM     32  C   UNL     1      -1.840  -4.048   3.250  1.00  0.00     0.010 A 
ATOM     33  C   UNL     1      -2.982  -4.462   3.946  1.00  0.00    -0.014 A 
BRANCH  33  34
ATOM     34  C   UNL     1      -2.869  -4.910   5.354  1.00  0.00     0.031 A 
ATOM     35  C   UNL     1      -2.656  -6.443   5.422  1.00  0.00     0.074 A 
ATOM     36  C   UNL     1      -2.993  -3.957   6.331  1.00  0.00     0.049 A 
ATOM     37  N   UNL     1      -2.951  -7.291   6.357  1.00  0.00    -0.248 NA
ATOM     38  C   UNL     1      -2.078  -7.149   4.239  1.00  0.00     0.031 C 
ATOM     39  C   UNL     1      -3.139  -2.504   6.077  1.00  0.00     0.029 A 
ATOM     40  N   UNL     1      -3.027  -3.988   7.712  1.00  0.00    -0.354 N 
ATOM     41  C   UNL     1      -2.463  -8.563   5.966  1.00  0.00     0.074 A 
ATOM     42  C   UNL     1      -2.020  -8.428   4.614  1.00  0.00     0.031 C 
ATOM     43  C   UNL     1      -3.328  -1.823   7.229  1.00  0.00     0.029 A 
ATOM     44  C   UNL     1      -3.322  -2.748   8.345  1.00  0.00     0.049 A 
ATOM     45  H   UNL     1      -2.857  -4.812   8.224  1.00  0.00     0.167 HD
ATOM     46  C   UNL     1      -2.321  -9.608   6.834  1.00  0.00     0.031 A 
ATOM     47  C   UNL     1      -3.604  -2.494   9.662  1.00  0.00     0.031 A 
ATOM     48  C   UNL     1      -2.870  -9.264   8.098  1.00  0.00     0.049 A 
ATOM     49  C   UNL     1      -3.399  -3.768  10.364  1.00  0.00     0.074 A 
ATOM     50  C   UNL     1      -4.149  -9.092   8.553  1.00  0.00     0.029 A 
ATOM     51  N   UNL     1      -1.993  -8.695   8.986  1.00  0.00    -0.354 N 
ATOM     52  N   UNL     1      -2.245  -4.301  10.620  1.00  0.00    -0.248 NA
ATOM     53  C   UNL     1      -4.577  -4.566  10.726  1.00  0.00     0.031 C 
ATOM     54  C   UNL     1      -4.029  -7.977   9.412  1.00  0.00     0.029 A 
ATOM     55  C   UNL     1      -2.675  -7.689   9.617  1.00  0.00     0.049 A 
ATOM     56  H   UNL     1      -1.056  -8.957   9.139  1.00  0.00     0.167 HD
ATOM     57  C   UNL     1      -2.574  -5.621  10.797  1.00  0.00     0.074 A 
ATOM     58  C   UNL     1      -3.968  -5.657  11.180  1.00  0.00     0.031 C 
ATOM     59  C   UNL     1      -1.902  -6.581  10.114  1.00  0.00     0.031 A 
BRANCH  46  60
ATOM     60  C   UNL     1      -1.446 -10.837   6.792  1.00  0.00    -0.014 A 
ATOM     61  C   UNL     1      -1.582 -11.754   7.867  1.00  0.00     0.009 A 
ATOM     62  C   UNL     1      -0.286 -10.932   6.019  1.00  0.00     0.009 A 
ATOM     63  C   UNL     1      -0.535 -12.587   8.265  1.00  0.00     0.001 A 
ATOM     64  C   UNL     1       0.748 -11.808   6.389  1.00  0.00     0.001 A 
ATOM     65  C   UNL     1       0.644 -12.593   7.537  1.00  0.00     0.000 A 
ENDBRANCH  46  60
BRANCH  47  66
ATOM     66  C   UNL     1      -4.151  -1.361  10.504  1.00  0.00    -0.014 A 
ATOM     67  C   UNL     1      -4.237  -0.018  10.132  1.00  0.00     0.009 A 
ATOM     68  C   UNL     1      -4.681  -1.664  11.792  1.00  0.00     0.009 A 
ATOM     69  C   UNL     1      -4.910   0.924  10.947  1.00  0.00     0.001 A 
ATOM     70  C   UNL     1      -5.388  -0.752  12.580  1.00  0.00     0.001 A 
ATOM     71  C   UNL     1      -5.519   0.550  12.146  1.00  0.00     0.000 A 
ENDBRANCH  47  66
BRANCH  59  72
ATOM     72  C   UNL     1      -0.521  -6.184   9.617  1.00  0.00    -0.014 A 
ATOM     73  C   UNL     1       0.478  -5.853  10.544  1.00  0.00     0.009 A 
ATOM     74  C   UNL     1      -0.207  -6.030   8.253  1.00  0.00     0.009 A 
ATOM     75  C   UNL     1       1.728  -5.372  10.132  1.00  0.00     0.001 A 
ATOM     76  C   UNL     1       1.044  -5.547   7.835  1.00  0.00     0.001 A 
ATOM     77  C   UNL     1       2.011  -5.215   8.778  1.00  0.00     0.000 A 
ENDBRANCH  59  72
ENDBRANCH  33  34
ENDBRANCH  25  28
ENDBRANCH  23  24
ENDBRANCH  22  23
ENDBRANCH  21  22
ENDBRANCH  20  21
ENDBRANCH   3  20
TORSDOF 18
