REMARK SMILES Cc1cnn(C2(C(=O)NCCCCNC(=O)c3ccc(-c4c5nc(c(-c6ccccc6)c6ccc([nH]6)c(-c6ccccc6)c6nc(c(-c7ccccc7)c7ccc4[nH]7)C=C6)C=C5)cc3)CCN(C(=O)c3cc4ccccc4[nH]3)CC2)c1
REMARK SMILES IDX 12 1 11 2 10 3 9 4 7 5 8 6 6 8 65 9 80 10 66 11 79 12 67 13
REMARK SMILES IDX 68 14 69 15 5 16 1 17 2 18 3 19 81 20 4 21 70 22 71 23 78 24
REMARK SMILES IDX 72 25 77 26 73 28 76 29 74 30 75 31 13 32 14 33 15 34 16 36
REMARK SMILES IDX 17 37 18 38 64 39 19 40 63 41 20 42 21 43 22 44 57 45 23 46
REMARK SMILES IDX 62 47 56 48 58 49 24 50 61 51 55 52 54 53 25 55 47 56 32 57
REMARK SMILES IDX 46 58 33 59 36 60 45 61 59 62 34 63 35 64 44 66 60 67 37 68
REMARK SMILES IDX 26 69 27 70 31 71 28 72 30 73 29 74 48 75 49 76 53 77 50 78
REMARK SMILES IDX 52 79 51 80 38 81 39 82 43 83 40 84 42 85 41 86
REMARK H PARENT 9 7 78 27 14 35 58 54 36 65
REMARK Flexibility Score: inf
ROOT
ATOM      1  C   UNL     1      -1.774  -6.719  -6.919  1.00  0.00     0.023 C 
ENDROOT
BRANCH   1   2
ATOM      2  C   UNL     1      -2.021  -5.252  -6.540  1.00  0.00     0.023 C 
BRANCH   2   3
ATOM      3  C   UNL     1      -2.636  -5.000  -5.158  1.00  0.00     0.116 C 
BRANCH   3   4
ATOM      4  N   UNL     1      -1.766  -5.423  -4.069  1.00  0.00    -0.354 N 
ATOM      5  C   UNL     1      -1.113  -4.758  -3.054  1.00  0.00     0.248 C 
ATOM      6  O   UNL     1      -0.499  -5.526  -2.311  1.00  0.00    -0.272 OA
ATOM      7  H   UNL     1      -1.611  -6.395  -4.055  1.00  0.00     0.163 HD
BRANCH   5   8
ATOM      8  C   UNL     1      -1.220  -3.198  -2.871  1.00  0.00     0.144 C 
ATOM      9  C   UNL     1      -0.715  -2.540  -4.185  1.00  0.00     0.062 C 
ATOM     10  C   UNL     1      -2.702  -2.917  -2.501  1.00  0.00     0.062 C 
ATOM     11  C   UNL     1      -1.408  -1.245  -4.580  1.00  0.00     0.123 C 
ATOM     12  C   UNL     1      -3.226  -1.556  -2.931  1.00  0.00     0.123 C 
ATOM     13  N   UNL     1      -2.834  -1.258  -4.303  1.00  0.00    -0.337 N 
ATOM     14  C   UNL     1      -3.729  -0.990  -5.339  1.00  0.00     0.270 C 
ATOM     15  O   UNL     1      -3.402  -1.100  -6.517  1.00  0.00    -0.267 OA
BRANCH   8  16
ATOM     16  N   UNL     1      -0.380  -2.635  -1.760  1.00  0.00    -0.257 N 
ATOM     17  C   UNL     1       1.107   0.014   0.299  1.00  0.00     0.048 C 
ATOM     18  C   UNL     1       0.636  -1.210  -0.384  1.00  0.00    -0.013 A 
ATOM     19  C   UNL     1       0.981  -2.548  -0.128  1.00  0.00     0.138 A 
ATOM     20  C   UNL     1      -0.254  -1.302  -1.429  1.00  0.00     0.113 A 
ATOM     21  N   UNL     1       0.366  -3.401  -0.946  1.00  0.00    -0.180 NA
ENDBRANCH   8  16
BRANCH  14  22
ATOM     22  C   UNL     1      -5.074  -0.623  -4.967  1.00  0.00     0.105 A 
ATOM     23  C   UNL     1      -5.531   0.377  -4.123  1.00  0.00     0.042 A 
ATOM     24  N   UNL     1      -6.186  -1.232  -5.496  1.00  0.00    -0.351 N 
ATOM     25  C   UNL     1      -6.949   0.300  -4.072  1.00  0.00     0.000 A 
ATOM     26  C   UNL     1      -7.330  -0.752  -4.902  1.00  0.00     0.046 A 
ATOM     27  H   UNL     1      -6.167  -1.918  -6.202  1.00  0.00     0.167 HD
ATOM     28  C   UNL     1      -7.946   1.024  -3.391  1.00  0.00     0.010 A 
ATOM     29  C   UNL     1      -8.661  -1.153  -5.052  1.00  0.00     0.026 A 
ATOM     30  C   UNL     1      -9.285   0.647  -3.542  1.00  0.00     0.001 A 
ATOM     31  C   UNL     1      -9.633  -0.434  -4.350  1.00  0.00     0.002 A 
ENDBRANCH  14  22
ENDBRANCH   5   8
ENDBRANCH   3   4
ENDBRANCH   2   3
ENDBRANCH   1   2
BRANCH   1  32
ATOM     32  C   UNL     1      -3.025  -7.584  -6.977  1.00  0.00     0.116 C 
BRANCH  32  33
ATOM     33  N   UNL     1      -3.986  -7.139  -7.985  1.00  0.00    -0.352 N 
ATOM     34  C   UNL     1      -5.244  -7.656  -8.244  1.00  0.00     0.251 C 
ATOM     35  H   UNL     1      -3.704  -6.381  -8.547  1.00  0.00     0.163 HD
ATOM     36  O   UNL     1      -5.801  -7.472  -9.312  1.00  0.00    -0.269 OA
BRANCH  34  37
ATOM     37  C   UNL     1      -5.910  -8.428  -7.180  1.00  0.00     0.039 A 
ATOM     38  C   UNL     1      -6.573  -9.628  -7.450  1.00  0.00     0.014 A 
ATOM     39  C   UNL     1      -5.820  -7.936  -5.881  1.00  0.00     0.014 A 
ATOM     40  C   UNL     1      -7.064 -10.378  -6.383  1.00  0.00     0.010 A 
ATOM     41  C   UNL     1      -6.172  -8.738  -4.827  1.00  0.00     0.010 A 
ATOM     42  C   UNL     1      -6.837  -9.936  -5.069  1.00  0.00    -0.014 A 
BRANCH  42  43
ATOM     43  C   UNL     1      -7.151 -10.780  -3.920  1.00  0.00     0.031 A 
ATOM     44  C   UNL     1      -6.476 -12.104  -3.940  1.00  0.00     0.074 A 
ATOM     45  C   UNL     1      -7.780 -10.311  -2.820  1.00  0.00     0.049 A 
ATOM     46  N   UNL     1      -7.022 -13.260  -4.122  1.00  0.00    -0.248 NA
ATOM     47  C   UNL     1      -5.003 -12.144  -3.902  1.00  0.00     0.031 C 
ATOM     48  C   UNL     1      -8.209  -8.928  -2.560  1.00  0.00     0.029 A 
ATOM     49  N   UNL     1      -8.059 -10.933  -1.639  1.00  0.00    -0.354 N 
ATOM     50  C   UNL     1      -5.997 -14.192  -3.971  1.00  0.00     0.074 A 
ATOM     51  C   UNL     1      -4.767 -13.449  -4.058  1.00  0.00     0.031 C 
ATOM     52  C   UNL     1      -8.457  -8.766  -1.242  1.00  0.00     0.029 A 
ATOM     53  C   UNL     1      -8.393 -10.066  -0.602  1.00  0.00     0.049 A 
ATOM     54  H   UNL     1      -8.027 -11.911  -1.530  1.00  0.00     0.167 HD
ATOM     55  C   UNL     1      -6.259 -15.426  -3.453  1.00  0.00     0.031 A 
ATOM     56  C   UNL     1      -8.611 -10.388   0.695  1.00  0.00     0.031 A 
ATOM     57  C   UNL     1      -7.681 -15.653  -3.377  1.00  0.00     0.049 A 
ATOM     58  C   UNL     1      -8.947 -11.824   0.739  1.00  0.00     0.074 A 
ATOM     59  C   UNL     1      -8.717 -15.899  -4.248  1.00  0.00     0.029 A 
ATOM     60  N   UNL     1      -8.229 -15.226  -2.195  1.00  0.00    -0.354 N 
ATOM     61  N   UNL     1     -10.044 -12.308   0.233  1.00  0.00    -0.248 NA
ATOM     62  C   UNL     1      -7.909 -12.800   1.038  1.00  0.00     0.031 C 
ATOM     63  C   UNL     1      -9.890 -15.389  -3.611  1.00  0.00     0.029 A 
ATOM     64  C   UNL     1      -9.545 -14.897  -2.353  1.00  0.00     0.049 A 
ATOM     65  H   UNL     1      -7.739 -15.164  -1.344  1.00  0.00     0.167 HD
ATOM     66  C   UNL     1      -9.665 -13.535  -0.274  1.00  0.00     0.074 A 
ATOM     67  C   UNL     1      -8.423 -13.866   0.417  1.00  0.00     0.031 C 
ATOM     68  C   UNL     1     -10.213 -14.004  -1.432  1.00  0.00     0.031 A 
BRANCH  55  69
ATOM     69  C   UNL     1      -5.334 -16.168  -2.499  1.00  0.00    -0.014 A 
ATOM     70  C   UNL     1      -5.811 -17.364  -1.921  1.00  0.00     0.009 A 
ATOM     71  C   UNL     1      -4.193 -15.603  -1.903  1.00  0.00     0.009 A 
ATOM     72  C   UNL     1      -5.248 -17.895  -0.754  1.00  0.00     0.001 A 
ATOM     73  C   UNL     1      -3.607 -16.149  -0.755  1.00  0.00     0.001 A 
ATOM     74  C   UNL     1      -4.154 -17.277  -0.161  1.00  0.00     0.000 A 
ENDBRANCH  55  69
BRANCH  56  75
ATOM     75  C   UNL     1      -8.440  -9.605   1.934  1.00  0.00    -0.014 A 
ATOM     76  C   UNL     1      -9.148  -9.946   3.098  1.00  0.00     0.009 A 
ATOM     77  C   UNL     1      -7.354  -8.722   2.057  1.00  0.00     0.009 A 
ATOM     78  C   UNL     1      -8.744  -9.470   4.352  1.00  0.00     0.001 A 
ATOM     79  C   UNL     1      -6.950  -8.248   3.311  1.00  0.00     0.001 A 
ATOM     80  C   UNL     1      -7.632  -8.639   4.460  1.00  0.00     0.000 A 
ENDBRANCH  56  75
BRANCH  68  81
ATOM     81  C   UNL     1     -11.518 -13.403  -1.868  1.00  0.00    -0.014 A 
ATOM     82  C   UNL     1     -11.667 -12.065  -2.267  1.00  0.00     0.009 A 
ATOM     83  C   UNL     1     -12.627 -14.256  -1.950  1.00  0.00     0.009 A 
ATOM     84  C   UNL     1     -12.906 -11.589  -2.710  1.00  0.00     0.001 A 
ATOM     85  C   UNL     1     -13.856 -13.787  -2.412  1.00  0.00     0.001 A 
ATOM     86  C   UNL     1     -13.998 -12.453  -2.785  1.00  0.00     0.000 A 
ENDBRANCH  68  81
ENDBRANCH  42  43
ENDBRANCH  34  37
ENDBRANCH  32  33
ENDBRANCH   1  32
TORSDOF 13
