REMARK SMILES CCCc1cc(OC(F)(F)F)cc2c1O[C@@H](C(F)(F)F)C(C(=O)NCCCCNC(=O)c1ccc(-c3c4nc(c(-c5ccccc5)c5ccc([nH]5)c(-c5ccccc5)c5nc(c(-c6ccccc6)c6ccc3[nH]6)C=C5)C=C4)cc1)=C2
REMARK SMILES IDX 26 1 25 2 24 3 22 4 23 5 21 7 4 8 5 9 14 10 6 11 13 12 15 13
REMARK SMILES IDX 12 14 80 15 16 16 3 17 2 18 1 19 7 20 8 21 9 22 10 23 11 24
REMARK SMILES IDX 17 25 18 26 19 27 20 28 27 29 28 30 29 31 30 32 31 34 32 35
REMARK SMILES IDX 33 36 79 37 34 38 78 39 35 40 36 41 37 42 72 43 38 44 77 45
REMARK SMILES IDX 71 46 73 47 39 48 76 49 70 50 69 51 40 53 62 54 47 55 61 56
REMARK SMILES IDX 48 57 51 58 60 59 74 60 49 61 50 62 59 64 75 65 52 66 41 67
REMARK SMILES IDX 42 68 46 69 43 70 45 71 44 72 63 73 64 74 68 75 65 76 67 77
REMARK SMILES IDX 66 78 53 79 54 80 58 81 55 82 57 83 56 84
REMARK H PARENT 24 6 29 33 73 52 51 63
REMARK Flexibility Score: inf
ROOT
ATOM      1  C   UNL     1      -2.010  -2.121   8.924  1.00  0.00     0.023 C 
ENDROOT
BRANCH   1   2
ATOM      2  C   UNL     1      -0.835  -3.023   8.524  1.00  0.00     0.116 C 
BRANCH   2   3
ATOM      3  N   UNL     1      -1.335  -4.230   7.887  1.00  0.00    -0.352 N 
ATOM      4  C   UNL     1      -1.633  -4.534   6.594  1.00  0.00     0.251 C 
ATOM      5  O   UNL     1      -2.224  -5.588   6.378  1.00  0.00    -0.270 OA
ATOM      6  H   UNL     1      -1.488  -4.973   8.514  1.00  0.00     0.163 HD
BRANCH   4   7
ATOM      7  C   UNL     1      -1.200  -3.689   5.447  1.00  0.00     0.067 C 
ATOM      8  C   UNL     1       0.685  -1.541   2.355  1.00  0.00    -0.002 A 
ATOM      9  C   UNL     1       0.963  -0.179   2.588  1.00  0.00     0.054 A 
ATOM     10  C   UNL     1      -0.029  -2.260   3.328  1.00  0.00     0.131 A 
ATOM     11  C   UNL     1       0.455   0.487   3.700  1.00  0.00     0.130 A 
ATOM     12  C   UNL     1      -0.510  -1.603   4.459  1.00  0.00     0.021 A 
ATOM     13  O   UNL     1      -0.151  -3.610   3.170  1.00  0.00    -0.475 OA
ATOM     14  C   UNL     1      -0.284  -0.232   4.632  1.00  0.00     0.058 A 
ATOM     15  C   UNL     1      -1.131  -2.355   5.532  1.00  0.00     0.025 C 
ATOM     16  C   UNL     1      -0.965  -4.380   4.108  1.00  0.00     0.314 C 
BRANCH   8  17
ATOM     17  C   UNL     1       1.198  -2.185   1.083  1.00  0.00     0.039 C 
BRANCH  17  18
ATOM     18  C   UNL     1       0.531  -1.678  -0.207  1.00  0.00     0.001 C 
ATOM     19  C   UNL     1       0.932  -0.269  -0.628  1.00  0.00     0.004 C 
ENDBRANCH  17  18
ENDBRANCH   8  17
BRANCH  11  20
ATOM     20  O   UNL     1       0.639   1.804   4.004  1.00  0.00    -0.406 OA
BRANCH  20  21
ATOM     21  C   UNL     1       1.045   2.660   2.947  1.00  0.00     0.573 C 
ATOM     22  F   UNL     1       2.318   2.405   2.580  1.00  0.00    -0.132 F 
ATOM     23  F   UNL     1       0.232   2.536   1.877  1.00  0.00    -0.132 F 
ATOM     24  F   UNL     1       0.980   3.939   3.379  1.00  0.00    -0.132 F 
ENDBRANCH  20  21
ENDBRANCH  11  20
BRANCH  16  25
ATOM     25  C   UNL     1      -0.388  -5.815   4.144  1.00  0.00     0.429 C 
ATOM     26  F   UNL     1      -1.333  -6.755   4.365  1.00  0.00    -0.167 F 
ATOM     27  F   UNL     1       0.167  -6.142   2.945  1.00  0.00    -0.167 F 
ATOM     28  F   UNL     1       0.583  -5.959   5.075  1.00  0.00    -0.167 F 
ENDBRANCH  16  25
ENDBRANCH   4   7
ENDBRANCH   2   3
ENDBRANCH   1   2
BRANCH   1  29
ATOM     29  C   UNL     1      -2.728  -2.563  10.201  1.00  0.00     0.023 C 
BRANCH  29  30
ATOM     30  C   UNL     1      -1.861  -2.541  11.453  1.00  0.00     0.116 C 
BRANCH  30  31
ATOM     31  N   UNL     1      -1.277  -1.236  11.715  1.00  0.00    -0.352 N 
ATOM     32  C   UNL     1      -0.996  -0.648  12.923  1.00  0.00     0.251 C 
ATOM     33  H   UNL     1      -1.052  -0.702  10.919  1.00  0.00     0.163 HD
ATOM     34  O   UNL     1      -0.624   0.517  12.970  1.00  0.00    -0.269 OA
BRANCH  32  35
ATOM     35  C   UNL     1      -1.179  -1.423  14.168  1.00  0.00     0.039 A 
ATOM     36  C   UNL     1      -1.812  -0.809  15.250  1.00  0.00     0.014 A 
ATOM     37  C   UNL     1      -0.733  -2.743  14.266  1.00  0.00     0.014 A 
ATOM     38  C   UNL     1      -2.030  -1.535  16.420  1.00  0.00     0.010 A 
ATOM     39  C   UNL     1      -1.030  -3.492  15.399  1.00  0.00     0.010 A 
ATOM     40  C   UNL     1      -1.661  -2.889  16.496  1.00  0.00    -0.014 A 
BRANCH  40  41
ATOM     41  C   UNL     1      -1.904  -3.671  17.733  1.00  0.00     0.031 A 
ATOM     42  C   UNL     1      -0.746  -4.214  18.524  1.00  0.00     0.074 A 
ATOM     43  C   UNL     1      -3.169  -3.909  18.130  1.00  0.00     0.049 A 
ATOM     44  N   UNL     1      -0.759  -4.893  19.644  1.00  0.00    -0.248 NA
ATOM     45  C   UNL     1       0.602  -3.988  17.977  1.00  0.00     0.031 C 
ATOM     46  C   UNL     1      -4.376  -3.478  17.421  1.00  0.00     0.029 A 
ATOM     47  N   UNL     1      -3.648  -4.564  19.235  1.00  0.00    -0.354 N 
ATOM     48  C   UNL     1       0.571  -5.180  19.926  1.00  0.00     0.074 A 
ATOM     49  C   UNL     1       1.358  -4.662  18.830  1.00  0.00     0.031 C 
ATOM     50  C   UNL     1      -5.455  -3.840  18.134  1.00  0.00     0.029 A 
ATOM     51  C   UNL     1      -5.019  -4.559  19.326  1.00  0.00     0.049 A 
ATOM     52  H   UNL     1      -3.065  -4.997  19.901  1.00  0.00     0.167 HD
ATOM     53  C   UNL     1       1.095  -5.795  21.012  1.00  0.00     0.031 A 
ATOM     54  C   UNL     1      -5.832  -5.070  20.269  1.00  0.00     0.031 A 
ATOM     55  C   UNL     1       0.311  -6.307  22.104  1.00  0.00     0.049 A 
ATOM     56  C   UNL     1      -5.225  -5.757  21.461  1.00  0.00     0.074 A 
ATOM     57  C   UNL     1       0.747  -6.901  23.276  1.00  0.00     0.029 A 
ATOM     58  N   UNL     1      -1.075  -6.289  22.155  1.00  0.00    -0.354 N 
ATOM     59  N   UNL     1      -3.961  -5.949  21.752  1.00  0.00    -0.248 NA
ATOM     60  C   UNL     1      -6.162  -6.282  22.463  1.00  0.00     0.031 C 
ATOM     61  C   UNL     1      -0.378  -7.296  24.008  1.00  0.00     0.029 A 
ATOM     62  C   UNL     1      -1.512  -6.886  23.326  1.00  0.00     0.049 A 
ATOM     63  H   UNL     1      -1.661  -5.908  21.462  1.00  0.00     0.167 HD
ATOM     64  C   UNL     1      -3.950  -6.590  22.984  1.00  0.00     0.074 A 
ATOM     65  C   UNL     1      -5.333  -6.730  23.395  1.00  0.00     0.031 C 
ATOM     66  C   UNL     1      -2.892  -7.026  23.713  1.00  0.00     0.031 A 
BRANCH  53  67
ATOM     67  C   UNL     1       2.591  -5.952  21.064  1.00  0.00    -0.014 A 
ATOM     68  C   UNL     1       3.438  -4.840  21.210  1.00  0.00     0.009 A 
ATOM     69  C   UNL     1       3.163  -7.232  20.991  1.00  0.00     0.009 A 
ATOM     70  C   UNL     1       4.824  -5.003  21.238  1.00  0.00     0.001 A 
ATOM     71  C   UNL     1       4.548  -7.395  21.054  1.00  0.00     0.001 A 
ATOM     72  C   UNL     1       5.378  -6.281  21.166  1.00  0.00     0.000 A 
ENDBRANCH  53  67
BRANCH  54  73
ATOM     73  C   UNL     1      -7.306  -4.931  20.140  1.00  0.00    -0.014 A 
ATOM     74  C   UNL     1      -8.027  -4.110  21.022  1.00  0.00     0.009 A 
ATOM     75  C   UNL     1      -8.005  -5.630  19.143  1.00  0.00     0.009 A 
ATOM     76  C   UNL     1      -9.418  -4.020  20.930  1.00  0.00     0.001 A 
ATOM     77  C   UNL     1      -9.392  -5.512  19.032  1.00  0.00     0.001 A 
ATOM     78  C   UNL     1     -10.098  -4.718  19.933  1.00  0.00     0.000 A 
ENDBRANCH  54  73
BRANCH  66  79
ATOM     79  C   UNL     1      -3.195  -7.663  25.042  1.00  0.00    -0.014 A 
ATOM     80  C   UNL     1      -3.827  -8.913  25.130  1.00  0.00     0.009 A 
ATOM     81  C   UNL     1      -2.827  -7.004  26.226  1.00  0.00     0.009 A 
ATOM     82  C   UNL     1      -4.131  -9.465  26.376  1.00  0.00     0.001 A 
ATOM     83  C   UNL     1      -3.098  -7.575  27.469  1.00  0.00     0.001 A 
ATOM     84  C   UNL     1      -3.763  -8.798  27.543  1.00  0.00     0.000 A 
ENDBRANCH  66  79
ENDBRANCH  40  41
ENDBRANCH  32  35
ENDBRANCH  30  31
ENDBRANCH  29  30
ENDBRANCH   1  29
TORSDOF 16
