REMARK SMILES CC(C)COc1ccc(CC(=O)NCCCCNC(=O)c2ccc(-c3c4nc(c(-c5ccccc5)c5ccc([nH]5)c(-c5ccccc5)c5nc(c(-c6ccccc6)c6ccc3[nH]6)C=C5)C=C4)cc2)cc1
REMARK SMILES IDX 14 1 13 2 11 3 12 4 10 6 9 7 6 8 7 9 70 10 8 11 69 12 5 13
REMARK SMILES IDX 4 14 2 15 1 16 3 17 15 18 16 19 17 20 18 21 19 22 20 24
REMARK SMILES IDX 21 25 22 26 68 27 23 28 67 29 24 30 25 31 26 32 61 33 27 34
REMARK SMILES IDX 66 35 60 36 62 37 28 38 65 39 59 40 58 41 29 43 51 44 36 45
REMARK SMILES IDX 50 46 37 47 40 48 49 49 63 50 38 51 39 52 48 54 64 55 41 56
REMARK SMILES IDX 30 57 31 58 35 59 32 60 34 61 33 62 52 63 53 64 57 65 54 66
REMARK SMILES IDX 56 67 55 68 42 69 43 70 47 71 44 72 46 73 45 74
REMARK H PARENT 13 5 18 23 62 42 40 53
REMARK Flexibility Score: inf
ROOT
ATOM      1  C   UNL     1       1.615   5.329   0.924  1.00  0.00     0.116 C 
ENDROOT
BRANCH   1   2
ATOM      2  N   UNL     1       0.721   6.187   1.683  1.00  0.00    -0.356 N 
ATOM      3  C   UNL     1      -0.180   5.868   2.657  1.00  0.00     0.224 C 
ATOM      4  O   UNL     1      -0.888   6.772   3.108  1.00  0.00    -0.275 OA
ATOM      5  H   UNL     1       0.774   7.145   1.460  1.00  0.00     0.163 HD
BRANCH   3   6
ATOM      6  C   UNL     1      -0.260   4.456   3.212  1.00  0.00     0.135 C 
BRANCH   6   7
ATOM      7  C   UNL     1      -0.705   3.401   2.230  1.00  0.00    -0.038 A 
ATOM      8  C   UNL     1      -1.215   1.509   0.215  1.00  0.00     0.119 A 
ATOM      9  C   UNL     1      -1.936   2.705   0.264  1.00  0.00     0.047 A 
ATOM     10  C   UNL     1      -0.363   1.199   1.268  1.00  0.00     0.047 A 
ATOM     11  C   UNL     1      -1.706   3.635   1.283  1.00  0.00     0.008 A 
ATOM     12  C   UNL     1      -0.086   2.146   2.253  1.00  0.00     0.008 A 
BRANCH   8  13
ATOM     13  O   UNL     1      -1.368   0.783  -0.930  1.00  0.00    -0.493 OA
BRANCH  13  14
ATOM     14  C   UNL     1      -0.845  -0.544  -1.006  1.00  0.00     0.232 C 
BRANCH  14  15
ATOM     15  C   UNL     1       0.552  -0.641  -1.662  1.00  0.00     0.020 C 
ATOM     16  C   UNL     1       1.706  -0.167  -0.776  1.00  0.00     0.011 C 
ATOM     17  C   UNL     1       0.818  -2.096  -2.061  1.00  0.00     0.011 C 
ENDBRANCH  14  15
ENDBRANCH  13  14
ENDBRANCH   8  13
ENDBRANCH   6   7
ENDBRANCH   3   6
ENDBRANCH   1   2
BRANCH   1  18
ATOM     18  C   UNL     1       1.159   5.166  -0.528  1.00  0.00     0.023 C 
BRANCH  18  19
ATOM     19  C   UNL     1       1.104   6.463  -1.341  1.00  0.00     0.023 C 
BRANCH  19  20
ATOM     20  C   UNL     1       2.417   7.233  -1.436  1.00  0.00     0.116 C 
BRANCH  20  21
ATOM     21  N   UNL     1       3.468   6.484  -2.107  1.00  0.00    -0.352 N 
ATOM     22  C   UNL     1       4.325   6.885  -3.105  1.00  0.00     0.251 C 
ATOM     23  H   UNL     1       3.582   5.555  -1.802  1.00  0.00     0.163 HD
ATOM     24  O   UNL     1       5.067   6.073  -3.642  1.00  0.00    -0.269 OA
BRANCH  22  25
ATOM     25  C   UNL     1       4.325   8.295  -3.558  1.00  0.00     0.039 A 
ATOM     26  C   UNL     1       4.309   8.559  -4.930  1.00  0.00     0.014 A 
ATOM     27  C   UNL     1       4.326   9.349  -2.641  1.00  0.00     0.014 A 
ATOM     28  C   UNL     1       4.208   9.877  -5.382  1.00  0.00     0.010 A 
ATOM     29  C   UNL     1       4.156  10.657  -3.091  1.00  0.00     0.010 A 
ATOM     30  C   UNL     1       4.082  10.933  -4.465  1.00  0.00    -0.014 A 
BRANCH  30  31
ATOM     31  C   UNL     1       3.829  12.325  -4.921  1.00  0.00     0.031 A 
ATOM     32  C   UNL     1       4.828  13.414  -4.647  1.00  0.00     0.074 A 
ATOM     33  C   UNL     1       2.658  12.623  -5.518  1.00  0.00     0.049 A 
ATOM     34  N   UNL     1       4.742  14.695  -4.901  1.00  0.00    -0.248 NA
ATOM     35  C   UNL     1       6.078  13.015  -3.982  1.00  0.00     0.031 C 
ATOM     36  C   UNL     1       1.588  11.667  -5.813  1.00  0.00     0.029 A 
ATOM     37  N   UNL     1       2.165  13.821  -5.974  1.00  0.00    -0.354 N 
ATOM     38  C   UNL     1       5.916  15.257  -4.416  1.00  0.00     0.074 A 
ATOM     39  C   UNL     1       6.677  14.184  -3.812  1.00  0.00     0.031 C 
ATOM     40  C   UNL     1       0.578  12.310  -6.418  1.00  0.00     0.029 A 
ATOM     41  C   UNL     1       0.903  13.729  -6.510  1.00  0.00     0.049 A 
ATOM     42  H   UNL     1       2.668  14.666  -5.921  1.00  0.00     0.167 HD
ATOM     43  C   UNL     1       6.330  16.546  -4.479  1.00  0.00     0.031 A 
ATOM     44  C   UNL     1       0.089  14.681  -7.005  1.00  0.00     0.031 A 
ATOM     45  C   UNL     1       5.571  17.613  -5.076  1.00  0.00     0.049 A 
ATOM     46  C   UNL     1       0.555  16.110  -7.024  1.00  0.00     0.074 A 
ATOM     47  C   UNL     1       5.932  18.940  -5.238  1.00  0.00     0.029 A 
ATOM     48  N   UNL     1       4.294  17.480  -5.598  1.00  0.00    -0.354 N 
ATOM     49  N   UNL     1       1.699  16.612  -6.627  1.00  0.00    -0.248 NA
ATOM     50  C   UNL     1      -0.384  17.103  -7.565  1.00  0.00     0.031 C 
ATOM     51  C   UNL     1       4.847  19.623  -5.798  1.00  0.00     0.029 A 
ATOM     52  C   UNL     1       3.837  18.709  -6.047  1.00  0.00     0.049 A 
ATOM     53  H   UNL     1       3.787  16.638  -5.644  1.00  0.00     0.167 HD
ATOM     54  C   UNL     1       1.626  17.974  -6.889  1.00  0.00     0.074 A 
ATOM     55  C   UNL     1       0.336  18.215  -7.501  1.00  0.00     0.031 C 
ATOM     56  C   UNL     1       2.546  18.939  -6.643  1.00  0.00     0.031 A 
BRANCH  43  57
ATOM     57  C   UNL     1       7.664  16.876  -3.866  1.00  0.00    -0.014 A 
ATOM     58  C   UNL     1       8.863  16.424  -4.440  1.00  0.00     0.009 A 
ATOM     59  C   UNL     1       7.724  17.686  -2.721  1.00  0.00     0.009 A 
ATOM     60  C   UNL     1      10.092  16.744  -3.857  1.00  0.00     0.001 A 
ATOM     61  C   UNL     1       8.955  18.030  -2.159  1.00  0.00     0.001 A 
ATOM     62  C   UNL     1      10.137  17.550  -2.721  1.00  0.00     0.000 A 
ENDBRANCH  43  57
BRANCH  44  63
ATOM     63  C   UNL     1      -1.257  14.316  -7.519  1.00  0.00    -0.014 A 
ATOM     64  C   UNL     1      -1.544  14.399  -8.890  1.00  0.00     0.009 A 
ATOM     65  C   UNL     1      -2.266  13.890  -6.641  1.00  0.00     0.009 A 
ATOM     66  C   UNL     1      -2.820  14.088  -9.367  1.00  0.00     0.001 A 
ATOM     67  C   UNL     1      -3.531  13.549  -7.124  1.00  0.00     0.001 A 
ATOM     68  C   UNL     1      -3.810  13.658  -8.485  1.00  0.00     0.000 A 
ENDBRANCH  44  63
BRANCH  56  69
ATOM     69  C   UNL     1       2.196  20.343  -7.055  1.00  0.00    -0.014 A 
ATOM     70  C   UNL     1       1.220  21.082  -6.368  1.00  0.00     0.009 A 
ATOM     71  C   UNL     1       2.878  20.946  -8.123  1.00  0.00     0.009 A 
ATOM     72  C   UNL     1       0.911  22.385  -6.765  1.00  0.00     0.001 A 
ATOM     73  C   UNL     1       2.591  22.260  -8.497  1.00  0.00     0.001 A 
ATOM     74  C   UNL     1       1.601  22.974  -7.824  1.00  0.00     0.000 A 
ENDBRANCH  56  69
ENDBRANCH  30  31
ENDBRANCH  22  25
ENDBRANCH  20  21
ENDBRANCH  19  20
ENDBRANCH  18  19
ENDBRANCH   1  18
TORSDOF 15
