REMARK SMILES C#CCN(CC(=O)NCCCCNC(=O)c1ccc(-c2c3nc(c(-c4ccccc4)c4ccc([nH]4)c(-c4ccccc4)c4nc(c(-c5ccccc5)c5ccc2[nH]5)C=C4)C=C3)cc1)C(=O)[C@H]1C[NH2+]C[C@H]1C
REMARK SMILES IDX 10 1 9 2 8 3 6 4 7 5 5 7 4 8 3 9 2 10 1 11 64 12 65 13 66 14
REMARK SMILES IDX 67 15 70 16 68 17 69 18 71 19 11 22 12 23 13 24 14 25 15 27
REMARK SMILES IDX 16 28 17 29 63 30 18 31 62 32 19 33 20 34 21 35 56 36 22 37
REMARK SMILES IDX 61 38 55 39 57 40 23 41 60 42 54 43 53 44 24 46 46 47 31 48
REMARK SMILES IDX 45 49 32 50 35 51 44 52 58 53 33 54 34 55 43 57 59 58 36 59
REMARK SMILES IDX 25 60 26 61 30 62 27 63 29 64 28 65 47 66 48 67 52 68 49 69
REMARK SMILES IDX 51 70 50 71 37 72 38 73 42 74 39 75 41 76 40 77
REMARK H PARENT 8 6 68 20 68 21 13 26 57 45 35 56
REMARK Flexibility Score: inf
ROOT
ATOM      1  C   UNL     1      -4.750  -1.145  -1.268  1.00  0.00     0.023 C 
ENDROOT
BRANCH   1   2
ATOM      2  C   UNL     1      -5.095  -0.067  -0.243  1.00  0.00     0.116 C 
BRANCH   2   3
ATOM      3  N   UNL     1      -5.380  -0.628   1.058  1.00  0.00    -0.355 N 
ATOM      4  C   UNL     1      -4.574  -0.710   2.153  1.00  0.00     0.239 C 
ATOM      5  O   UNL     1      -5.059  -1.160   3.194  1.00  0.00    -0.273 OA
ATOM      6  H   UNL     1      -6.284  -1.002   1.168  1.00  0.00     0.163 HD
BRANCH   4   7
ATOM      7  C   UNL     1      -3.132  -0.183   2.123  1.00  0.00     0.220 C 
BRANCH   7   8
ATOM      8  N   UNL     1      -2.257  -0.836   1.143  1.00  0.00    -0.322 N 
BRANCH   8   9
ATOM      9  C   UNL     1      -1.737  -0.032   0.038  1.00  0.00     0.209 C 
BRANCH   9  10
ATOM     10  C   UNL     1      -0.217  -0.032   0.038  1.00  0.00    -0.085 C 
ATOM     11  C   UNL     1       1.087  -0.032   0.038  1.00  0.00     0.006 C 
ENDBRANCH   9  10
ENDBRANCH   8   9
BRANCH   8  12
ATOM     12  C   UNL     1      -1.884  -2.178   1.192  1.00  0.00     0.233 C 
ATOM     13  O   UNL     1      -1.366  -2.720   0.212  1.00  0.00    -0.274 OA
BRANCH  12  14
ATOM     14  C   UNL     1      -2.182  -2.993   2.449  1.00  0.00     0.142 C 
ATOM     15  C   UNL     1      -1.729  -4.443   2.284  1.00  0.00     0.274 C 
ATOM     16  C   UNL     1      -1.516  -2.586   3.776  1.00  0.00     0.059 C 
ATOM     17  N   UNL     1      -1.772  -4.978   3.652  1.00  0.00    -0.345 N 
ATOM     18  C   UNL     1      -1.167  -3.918   4.463  1.00  0.00     0.264 C 
ATOM     19  C   UNL     1      -0.266  -1.714   3.667  1.00  0.00     0.015 C 
ATOM     20  H   UNL     1      -1.232  -5.840   3.721  1.00  0.00     0.346 HD
ATOM     21  H   UNL     1      -2.718  -5.212   3.953  1.00  0.00     0.346 HD
ENDBRANCH  12  14
ENDBRANCH   8  12
ENDBRANCH   7   8
ENDBRANCH   4   7
ENDBRANCH   2   3
ENDBRANCH   1   2
BRANCH   1  22
ATOM     22  C   UNL     1      -5.921  -2.032  -1.689  1.00  0.00     0.023 C 
BRANCH  22  23
ATOM     23  C   UNL     1      -7.150  -1.286  -2.188  1.00  0.00     0.116 C 
BRANCH  23  24
ATOM     24  N   UNL     1      -6.867  -0.370  -3.283  1.00  0.00    -0.352 N 
ATOM     25  C   UNL     1      -7.677  -0.036  -4.341  1.00  0.00     0.251 C 
ATOM     26  H   UNL     1      -5.984   0.064  -3.263  1.00  0.00     0.163 HD
ATOM     27  O   UNL     1      -7.263   0.686  -5.242  1.00  0.00    -0.269 OA
BRANCH  25  28
ATOM     28  C   UNL     1      -9.041  -0.596  -4.403  1.00  0.00     0.039 A 
ATOM     29  C   UNL     1      -9.450  -1.244  -5.570  1.00  0.00     0.014 A 
ATOM     30  C   UNL     1      -9.888  -0.527  -3.293  1.00  0.00     0.014 A 
ATOM     31  C   UNL     1     -10.688  -1.886  -5.601  1.00  0.00     0.010 A 
ATOM     32  C   UNL     1     -11.089  -1.227  -3.302  1.00  0.00     0.010 A 
ATOM     33  C   UNL     1     -11.499  -1.913  -4.455  1.00  0.00    -0.014 A 
BRANCH  33  34
ATOM     34  C   UNL     1     -12.781  -2.659  -4.440  1.00  0.00     0.031 A 
ATOM     35  C   UNL     1     -14.079  -1.922  -4.271  1.00  0.00     0.074 A 
ATOM     36  C   UNL     1     -12.770  -4.004  -4.510  1.00  0.00     0.049 A 
ATOM     37  N   UNL     1     -15.293  -2.401  -4.174  1.00  0.00    -0.248 NA
ATOM     38  C   UNL     1     -14.001  -0.455  -4.173  1.00  0.00     0.031 C 
ATOM     39  C   UNL     1     -11.573  -4.840  -4.631  1.00  0.00     0.029 A 
ATOM     40  N   UNL     1     -13.803  -4.907  -4.480  1.00  0.00    -0.354 N 
ATOM     41  C   UNL     1     -16.117  -1.299  -3.985  1.00  0.00     0.074 A 
ATOM     42  C   UNL     1     -15.263  -0.133  -3.932  1.00  0.00     0.031 C 
ATOM     43  C   UNL     1     -11.943  -6.130  -4.693  1.00  0.00     0.029 A 
ATOM     44  C   UNL     1     -13.395  -6.215  -4.577  1.00  0.00     0.049 A 
ATOM     45  H   UNL     1     -14.748  -4.642  -4.397  1.00  0.00     0.167 HD
ATOM     46  C   UNL     1     -17.467  -1.258  -3.883  1.00  0.00     0.031 A 
ATOM     47  C   UNL     1     -14.110  -7.355  -4.571  1.00  0.00     0.031 A 
ATOM     48  C   UNL     1     -18.318  -2.415  -3.950  1.00  0.00     0.049 A 
ATOM     49  C   UNL     1     -15.606  -7.283  -4.451  1.00  0.00     0.074 A 
ATOM     50  C   UNL     1     -19.701  -2.471  -3.917  1.00  0.00     0.029 A 
ATOM     51  N   UNL     1     -17.866  -3.721  -4.060  1.00  0.00    -0.354 N 
ATOM     52  N   UNL     1     -16.376  -6.228  -4.343  1.00  0.00    -0.248 NA
ATOM     53  C   UNL     1     -16.332  -8.561  -4.464  1.00  0.00     0.031 C 
ATOM     54  C   UNL     1     -20.084  -3.816  -3.962  1.00  0.00     0.029 A 
ATOM     55  C   UNL     1     -18.942  -4.592  -4.075  1.00  0.00     0.049 A 
ATOM     56  H   UNL     1     -16.920  -3.988  -4.120  1.00  0.00     0.167 HD
ATOM     57  C   UNL     1     -17.677  -6.712  -4.302  1.00  0.00     0.074 A 
ATOM     58  C   UNL     1     -17.592  -8.154  -4.412  1.00  0.00     0.031 C 
ATOM     59  C   UNL     1     -18.839  -6.024  -4.185  1.00  0.00     0.031 A 
BRANCH  46  60
ATOM     60  C   UNL     1     -18.103   0.089  -3.684  1.00  0.00    -0.014 A 
ATOM     61  C   UNL     1     -18.129   1.040  -4.717  1.00  0.00     0.009 A 
ATOM     62  C   UNL     1     -18.710   0.401  -2.458  1.00  0.00     0.009 A 
ATOM     63  C   UNL     1     -18.715   2.291  -4.512  1.00  0.00     0.001 A 
ATOM     64  C   UNL     1     -19.321   1.641  -2.266  1.00  0.00     0.001 A 
ATOM     65  C   UNL     1     -19.315   2.588  -3.289  1.00  0.00     0.000 A 
ENDBRANCH  46  60
BRANCH  47  66
ATOM     66  C   UNL     1     -13.422  -8.666  -4.701  1.00  0.00    -0.014 A 
ATOM     67  C   UNL     1     -13.540  -9.415  -5.882  1.00  0.00     0.009 A 
ATOM     68  C   UNL     1     -12.652  -9.178  -3.645  1.00  0.00     0.009 A 
ATOM     69  C   UNL     1     -12.921 -10.662  -5.993  1.00  0.00     0.001 A 
ATOM     70  C   UNL     1     -12.012 -10.413  -3.770  1.00  0.00     0.001 A 
ATOM     71  C   UNL     1     -12.155 -11.158  -4.940  1.00  0.00     0.000 A 
ENDBRANCH  47  66
BRANCH  59  72
ATOM     72  C   UNL     1     -20.113  -6.820  -4.204  1.00  0.00    -0.014 A 
ATOM     73  C   UNL     1     -20.497  -7.605  -3.106  1.00  0.00     0.009 A 
ATOM     74  C   UNL     1     -20.958  -6.749  -5.322  1.00  0.00     0.009 A 
ATOM     75  C   UNL     1     -21.691  -8.329  -3.142  1.00  0.00     0.001 A 
ATOM     76  C   UNL     1     -22.163  -7.452  -5.343  1.00  0.00     0.001 A 
ATOM     77  C   UNL     1     -22.524  -8.248  -4.257  1.00  0.00     0.000 A 
ENDBRANCH  59  72
ENDBRANCH  33  34
ENDBRANCH  25  28
ENDBRANCH  23  24
ENDBRANCH  22  23
ENDBRANCH   1  22
TORSDOF 16
