REMARK SMILES Cc1ccc(C(=O)[C@@H](C)[C@H](C)C(=O)NCCCCNC(=O)c2ccc(-c3c4nc(c(-c5ccccc5)c5ccc([nH]5)c(-c5ccccc5)c5nc(c(-c6ccccc6)c6ccc3[nH]6)C=C5)C=C4)cc2)cc1
REMARK SMILES IDX 16 1 15 2 14 3 12 4 13 5 10 7 11 8 8 9 9 10 6 11 7 12 5 13
REMARK SMILES IDX 1 14 2 15 3 16 71 17 4 18 70 19 17 20 18 21 19 22 20 23
REMARK SMILES IDX 21 25 22 26 23 27 69 28 24 29 68 30 25 31 26 32 27 33 62 34
REMARK SMILES IDX 28 35 67 36 61 37 63 38 29 39 66 40 60 41 59 42 30 44 52 45
REMARK SMILES IDX 37 46 51 47 38 48 41 49 50 50 64 51 39 52 40 53 49 55 65 56
REMARK SMILES IDX 42 57 31 58 32 59 36 60 33 61 35 62 34 63 53 64 54 65 58 66
REMARK SMILES IDX 55 67 57 68 56 69 43 70 44 71 48 72 45 73 47 74 46 75
REMARK H PARENT 14 6 19 24 63 43 41 54
REMARK Flexibility Score: inf
ROOT
ATOM      1  C   UNL     1      -6.896   3.702   0.512  1.00  0.00     0.023 C 
ENDROOT
BRANCH   1   2
ATOM      2  C   UNL     1      -6.576   3.913  -0.972  1.00  0.00     0.116 C 
BRANCH   2   3
ATOM      3  N   UNL     1      -5.162   4.154  -1.245  1.00  0.00    -0.356 N 
ATOM      4  C   UNL     1      -4.016   3.469  -1.450  1.00  0.00     0.223 C 
ATOM      5  O   UNL     1      -3.064   4.188  -1.791  1.00  0.00    -0.275 OA
ATOM      6  H   UNL     1      -4.989   5.122  -1.296  1.00  0.00     0.163 HD
BRANCH   4   7
ATOM      7  C   UNL     1      -3.751   1.962  -1.283  1.00  0.00     0.086 C 
ATOM      8  C   UNL     1      -3.835   1.506   0.171  1.00  0.00     0.019 C 
BRANCH   7   9
ATOM      9  C   UNL     1      -4.212   0.983  -2.404  1.00  0.00     0.070 C 
ATOM     10  C   UNL     1      -5.030   1.585  -3.544  1.00  0.00     0.017 C 
BRANCH   9  11
ATOM     11  C   UNL     1      -4.712  -0.431  -2.020  1.00  0.00     0.166 C 
ATOM     12  O   UNL     1      -4.022  -1.420  -2.282  1.00  0.00    -0.294 OA
BRANCH  11  13
ATOM     13  C   UNL     1      -6.033  -0.671  -1.363  1.00  0.00     0.018 A 
ATOM     14  C   UNL     1      -9.771  -1.321   0.715  1.00  0.00     0.044 C 
ATOM     15  C   UNL     1      -8.476  -1.110  -0.011  1.00  0.00    -0.051 A 
ATOM     16  C   UNL     1      -7.758  -2.183  -0.553  1.00  0.00     0.004 A 
ATOM     17  C   UNL     1      -7.972   0.176  -0.169  1.00  0.00     0.004 A 
ATOM     18  C   UNL     1      -6.542  -1.966  -1.221  1.00  0.00     0.012 A 
ATOM     19  C   UNL     1      -6.767   0.378  -0.838  1.00  0.00     0.012 A 
ENDBRANCH  11  13
ENDBRANCH   9  11
ENDBRANCH   7   9
ENDBRANCH   4   7
ENDBRANCH   2   3
ENDBRANCH   1   2
BRANCH   1  20
ATOM     20  C   UNL     1      -8.337   3.981   0.986  1.00  0.00     0.023 C 
BRANCH  20  21
ATOM     21  C   UNL     1      -9.454   3.863  -0.048  1.00  0.00     0.116 C 
BRANCH  21  22
ATOM     22  N   UNL     1     -10.662   3.175   0.400  1.00  0.00    -0.352 N 
ATOM     23  C   UNL     1     -11.846   2.918  -0.292  1.00  0.00     0.251 C 
ATOM     24  H   UNL     1     -10.637   2.844   1.326  1.00  0.00     0.163 HD
ATOM     25  O   UNL     1     -12.703   2.225   0.213  1.00  0.00    -0.269 OA
BRANCH  23  26
ATOM     26  C   UNL     1     -12.004   3.394  -1.698  1.00  0.00     0.039 A 
ATOM     27  C   UNL     1     -12.648   2.568  -2.630  1.00  0.00     0.014 A 
ATOM     28  C   UNL     1     -11.397   4.563  -2.133  1.00  0.00     0.014 A 
ATOM     29  C   UNL     1     -12.445   2.784  -3.995  1.00  0.00     0.010 A 
ATOM     30  C   UNL     1     -11.069   4.696  -3.462  1.00  0.00     0.010 A 
ATOM     31  C   UNL     1     -11.549   3.773  -4.391  1.00  0.00    -0.014 A 
BRANCH  31  32
ATOM     32  C   UNL     1     -10.977   3.894  -5.724  1.00  0.00     0.031 A 
ATOM     33  C   UNL     1     -11.369   5.007  -6.606  1.00  0.00     0.074 A 
ATOM     34  C   UNL     1      -9.958   3.078  -6.068  1.00  0.00     0.049 A 
ATOM     35  N   UNL     1     -11.149   5.037  -7.875  1.00  0.00    -0.248 NA
ATOM     36  C   UNL     1     -12.082   6.182  -6.117  1.00  0.00     0.031 C 
ATOM     37  C   UNL     1      -9.026   3.213  -7.183  1.00  0.00     0.029 A 
ATOM     38  N   UNL     1      -9.707   1.804  -5.563  1.00  0.00    -0.354 N 
ATOM     39  C   UNL     1     -11.427   6.309  -8.316  1.00  0.00     0.074 A 
ATOM     40  C   UNL     1     -12.061   6.966  -7.198  1.00  0.00     0.031 C 
ATOM     41  C   UNL     1      -8.501   2.007  -7.454  1.00  0.00     0.029 A 
ATOM     42  C   UNL     1      -9.201   1.036  -6.629  1.00  0.00     0.049 A 
ATOM     43  H   UNL     1      -9.856   1.499  -4.639  1.00  0.00     0.167 HD
ATOM     44  C   UNL     1     -10.987   6.698  -9.545  1.00  0.00     0.031 A 
ATOM     45  C   UNL     1      -9.943  -0.008  -7.109  1.00  0.00     0.031 A 
ATOM     46  C   UNL     1     -10.364   5.594 -10.275  1.00  0.00     0.049 A 
ATOM     47  C   UNL     1     -10.463   0.195  -8.522  1.00  0.00     0.074 A 
ATOM     48  C   UNL     1      -9.059   5.221 -10.551  1.00  0.00     0.029 A 
ATOM     49  N   UNL     1     -11.148   4.494 -10.585  1.00  0.00    -0.354 N 
ATOM     50  N   UNL     1     -10.276   1.272  -9.238  1.00  0.00    -0.248 NA
ATOM     51  C   UNL     1     -11.324  -0.776  -9.201  1.00  0.00     0.031 C 
ATOM     52  C   UNL     1      -9.072   3.864 -10.996  1.00  0.00     0.029 A 
ATOM     53  C   UNL     1     -10.383   3.428 -11.013  1.00  0.00     0.049 A 
ATOM     54  H   UNL     1     -12.129   4.475 -10.508  1.00  0.00     0.167 HD
ATOM     55  C   UNL     1     -10.989   1.176 -10.401  1.00  0.00     0.074 A 
ATOM     56  C   UNL     1     -11.627  -0.126 -10.338  1.00  0.00     0.031 C 
ATOM     57  C   UNL     1     -11.052   2.177 -11.324  1.00  0.00     0.031 A 
BRANCH  44  58
ATOM     58  C   UNL     1     -10.949   8.134 -10.005  1.00  0.00    -0.014 A 
ATOM     59  C   UNL     1     -10.021   8.523 -10.988  1.00  0.00     0.009 A 
ATOM     60  C   UNL     1     -11.765   9.157  -9.493  1.00  0.00     0.009 A 
ATOM     61  C   UNL     1      -9.861   9.862 -11.370  1.00  0.00     0.001 A 
ATOM     62  C   UNL     1     -11.585  10.503  -9.838  1.00  0.00     0.001 A 
ATOM     63  C   UNL     1     -10.624  10.857 -10.774  1.00  0.00     0.000 A 
ENDBRANCH  44  58
BRANCH  45  64
ATOM     64  C   UNL     1     -10.674  -0.727  -6.022  1.00  0.00    -0.014 A 
ATOM     65  C   UNL     1      -9.908  -1.353  -5.014  1.00  0.00     0.009 A 
ATOM     66  C   UNL     1     -12.026  -0.465  -5.764  1.00  0.00     0.009 A 
ATOM     67  C   UNL     1     -10.439  -1.568  -3.740  1.00  0.00     0.001 A 
ATOM     68  C   UNL     1     -12.561  -0.709  -4.493  1.00  0.00     0.001 A 
ATOM     69  C   UNL     1     -11.758  -1.216  -3.471  1.00  0.00     0.000 A 
ENDBRANCH  45  64
BRANCH  57  70
ATOM     70  C   UNL     1     -11.802   2.041 -12.615  1.00  0.00    -0.014 A 
ATOM     71  C   UNL     1     -11.676   0.904 -13.425  1.00  0.00     0.009 A 
ATOM     72  C   UNL     1     -12.564   3.114 -13.117  1.00  0.00     0.009 A 
ATOM     73  C   UNL     1     -12.328   0.822 -14.660  1.00  0.00     0.001 A 
ATOM     74  C   UNL     1     -13.197   3.044 -14.360  1.00  0.00     0.001 A 
ATOM     75  C   UNL     1     -13.088   1.892 -15.127  1.00  0.00     0.000 A 
ENDBRANCH  57  70
ENDBRANCH  31  32
ENDBRANCH  23  26
ENDBRANCH  21  22
ENDBRANCH  20  21
ENDBRANCH   1  20
TORSDOF 14
