REMARK SMILES O=C(NCCCCNC(=O)[C@]1(CCc2cccnc2)C[C@H]2CC[C@@H]1O2)c1ccc(-c2c3nc(c(-c4ccccc4)c4ccc([nH]4)c(-c4ccccc4)c4nc(c(-c5ccccc5)c5ccc2[nH]5)C=C4)C=C3)cc1
REMARK SMILES IDX 6 1 5 2 4 3 3 4 1 5 2 6 26 8 27 9 73 10 28 11 72 12 29 13
REMARK SMILES IDX 30 14 31 15 66 16 32 17 71 18 65 19 67 20 33 21 70 22 64 23
REMARK SMILES IDX 63 24 34 26 56 27 41 28 55 29 42 30 45 31 54 32 68 33 43 34
REMARK SMILES IDX 44 35 53 37 69 38 46 39 35 40 36 41 40 42 37 43 39 44 38 45
REMARK SMILES IDX 57 46 58 47 62 48 59 49 61 50 60 51 47 52 48 53 52 54 49 55
REMARK SMILES IDX 51 56 50 57 7 58 8 59 9 60 10 62 11 63 20 64 24 65 21 66
REMARK SMILES IDX 23 67 25 68 22 69 12 70 13 71 14 72 15 73 19 74 16 75 18 76
REMARK SMILES IDX 17 77
REMARK H PARENT 3 7 67 25 45 36 8 61
REMARK Flexibility Score: inf
ROOT
ATOM      1  C   UNL     1       3.219  -0.421  -3.991  1.00  0.00     0.023 C 
ENDROOT
BRANCH   1   2
ATOM      2  C   UNL     1       3.458  -0.914  -2.554  1.00  0.00     0.023 C 
BRANCH   2   3
ATOM      3  C   UNL     1       3.581   0.133  -1.463  1.00  0.00     0.116 C 
BRANCH   3   4
ATOM      4  N   UNL     1       2.264   0.540  -1.002  1.00  0.00    -0.352 N 
ATOM      5  O   UNL     1       0.564   0.638   0.469  1.00  0.00    -0.269 OA
ATOM      6  C   UNL     1       1.774   0.580   0.283  1.00  0.00     0.251 C 
ATOM      7  H   UNL     1       1.637   0.826  -1.705  1.00  0.00     0.163 HD
BRANCH   6   8
ATOM      8  C   UNL     1       2.699   0.574   1.443  1.00  0.00     0.039 A 
ATOM      9  C   UNL     1       3.916   1.256   1.388  1.00  0.00     0.014 A 
ATOM     10  C   UNL     1       2.302  -0.043   2.636  1.00  0.00     0.014 A 
ATOM     11  C   UNL     1       4.768   1.256   2.487  1.00  0.00     0.010 A 
ATOM     12  C   UNL     1       3.119   0.034   3.770  1.00  0.00     0.010 A 
ATOM     13  C   UNL     1       4.357   0.691   3.704  1.00  0.00    -0.014 A 
BRANCH  13  14
ATOM     14  C   UNL     1       5.176   0.920   4.921  1.00  0.00     0.031 A 
ATOM     15  C   UNL     1       5.811  -0.217   5.666  1.00  0.00     0.074 A 
ATOM     16  C   UNL     1       5.337   2.189   5.350  1.00  0.00     0.049 A 
ATOM     17  N   UNL     1       6.541  -0.180   6.753  1.00  0.00    -0.248 NA
ATOM     18  C   UNL     1       5.596  -1.570   5.132  1.00  0.00     0.031 C 
ATOM     19  C   UNL     1       4.755   3.374   4.711  1.00  0.00     0.029 A 
ATOM     20  N   UNL     1       6.045   2.700   6.406  1.00  0.00    -0.354 N 
ATOM     21  C   UNL     1       6.853  -1.502   7.047  1.00  0.00     0.074 A 
ATOM     22  C   UNL     1       6.213  -2.318   6.036  1.00  0.00     0.031 C 
ATOM     23  C   UNL     1       5.174   4.473   5.353  1.00  0.00     0.029 A 
ATOM     24  C   UNL     1       5.982   4.070   6.495  1.00  0.00     0.049 A 
ATOM     25  H   UNL     1       6.550   2.140   7.040  1.00  0.00     0.167 HD
ATOM     26  C   UNL     1       7.604  -1.985   8.066  1.00  0.00     0.031 A 
ATOM     27  C   UNL     1       6.492   4.913   7.410  1.00  0.00     0.031 A 
ATOM     28  C   UNL     1       8.226  -1.161   9.073  1.00  0.00     0.049 A 
ATOM     29  C   UNL     1       7.281   4.344   8.552  1.00  0.00     0.074 A 
ATOM     30  C   UNL     1       9.028  -1.551  10.132  1.00  0.00     0.029 A 
ATOM     31  N   UNL     1       8.107   0.219   9.150  1.00  0.00    -0.354 N 
ATOM     32  N   UNL     1       7.593   3.095   8.796  1.00  0.00    -0.248 NA
ATOM     33  C   UNL     1       7.786   5.301   9.544  1.00  0.00     0.031 C 
ATOM     34  C   UNL     1       9.343  -0.414  10.884  1.00  0.00     0.029 A 
ATOM     35  C   UNL     1       8.797   0.693  10.254  1.00  0.00     0.049 A 
ATOM     36  H   UNL     1       7.606   0.779   8.514  1.00  0.00     0.167 HD
ATOM     37  C   UNL     1       8.351   3.116   9.958  1.00  0.00     0.074 A 
ATOM     38  C   UNL     1       8.470   4.506  10.353  1.00  0.00     0.031 C 
ATOM     39  C   UNL     1       8.899   2.079  10.636  1.00  0.00     0.031 A 
BRANCH  26  40
ATOM     40  C   UNL     1       7.766  -3.479   8.166  1.00  0.00    -0.014 A 
ATOM     41  C   UNL     1       8.527  -4.200   7.232  1.00  0.00     0.009 A 
ATOM     42  C   UNL     1       7.180  -4.172   9.238  1.00  0.00     0.009 A 
ATOM     43  C   UNL     1       8.666  -5.585   7.349  1.00  0.00     0.001 A 
ATOM     44  C   UNL     1       7.346  -5.552   9.370  1.00  0.00     0.001 A 
ATOM     45  C   UNL     1       8.080  -6.259   8.420  1.00  0.00     0.000 A 
ENDBRANCH  26  40
BRANCH  27  46
ATOM     46  C   UNL     1       6.251   6.375   7.292  1.00  0.00    -0.014 A 
ATOM     47  C   UNL     1       7.306   7.256   7.012  1.00  0.00     0.009 A 
ATOM     48  C   UNL     1       4.957   6.898   7.449  1.00  0.00     0.009 A 
ATOM     49  C   UNL     1       7.075   8.630   6.918  1.00  0.00     0.001 A 
ATOM     50  C   UNL     1       4.722   8.268   7.318  1.00  0.00     0.001 A 
ATOM     51  C   UNL     1       5.783   9.134   7.064  1.00  0.00     0.000 A 
ENDBRANCH  27  46
BRANCH  39  52
ATOM     52  C   UNL     1       9.711   2.420  11.854  1.00  0.00    -0.014 A 
ATOM     53  C   UNL     1       9.108   2.898  13.028  1.00  0.00     0.009 A 
ATOM     54  C   UNL     1      11.103   2.241  11.829  1.00  0.00     0.009 A 
ATOM     55  C   UNL     1       9.889   3.230  14.137  1.00  0.00     0.001 A 
ATOM     56  C   UNL     1      11.877   2.540  12.950  1.00  0.00     0.001 A 
ATOM     57  C   UNL     1      11.271   3.046  14.099  1.00  0.00     0.000 A 
ENDBRANCH  39  52
ENDBRANCH  13  14
ENDBRANCH   6   8
ENDBRANCH   3   4
ENDBRANCH   2   3
ENDBRANCH   1   2
BRANCH   1  58
ATOM     58  C   UNL     1       4.119   0.590  -4.785  1.00  0.00     0.116 C 
BRANCH  58  59
ATOM     59  N   UNL     1       5.589   0.487  -4.993  1.00  0.00    -0.356 N 
ATOM     60  C   UNL     1       6.559  -0.221  -5.675  1.00  0.00     0.228 C 
ATOM     61  H   UNL     1       6.032   1.173  -4.443  1.00  0.00     0.163 HD
ATOM     62  O   UNL     1       7.714   0.180  -5.489  1.00  0.00    -0.274 OA
BRANCH  60  63
ATOM     63  C   UNL     1       6.285  -1.371  -6.658  1.00  0.00     0.078 C 
ATOM     64  C   UNL     1       7.367  -2.465  -6.923  1.00  0.00     0.051 C 
ATOM     65  C   UNL     1       6.343  -0.628  -8.038  1.00  0.00     0.134 C 
ATOM     66  C   UNL     1       7.631  -2.336  -8.420  1.00  0.00     0.120 C 
ATOM     67  C   UNL     1       5.624  -1.294  -9.190  1.00  0.00     0.036 C 
ATOM     68  O   UNL     1       7.716  -0.906  -8.493  1.00  0.00    -0.374 OA
ATOM     69  C   UNL     1       6.391  -2.611  -9.294  1.00  0.00     0.035 C 
BRANCH  63  70
ATOM     70  C   UNL     1       5.079  -2.141  -6.147  1.00  0.00     0.024 C 
BRANCH  70  71
ATOM     71  C   UNL     1       5.318  -2.965  -4.811  1.00  0.00     0.038 C 
BRANCH  71  72
ATOM     72  C   UNL     1       6.359  -2.716  -3.709  1.00  0.00    -0.030 A 
ATOM     73  C   UNL     1       6.608  -1.522  -3.021  1.00  0.00     0.007 A 
ATOM     74  C   UNL     1       7.031  -3.806  -3.158  1.00  0.00     0.114 A 
ATOM     75  C   UNL     1       7.475  -1.422  -1.933  1.00  0.00     0.020 A 
ATOM     76  N   UNL     1       7.867  -3.769  -2.083  1.00  0.00    -0.264 NA
ATOM     77  C   UNL     1       8.076  -2.574  -1.498  1.00  0.00     0.111 A 
ENDBRANCH  71  72
ENDBRANCH  70  71
ENDBRANCH  63  70
ENDBRANCH  60  63
ENDBRANCH  58  59
ENDBRANCH   1  58
TORSDOF 14
