REMARK SMILES CC[NH2+][C@@]1(C(=O)NCCCCNC(=O)c2ccc(-c3c4nc(c(-c5ccccc5)c5ccc([nH]5)c(-c5ccccc5)c5nc(c(-c6ccccc6)c6ccc3[nH]6)C=C5)C=C4)cc2)CC[C@@H]([NH+]2CC[NH+](C(C)C)CC2)C1
REMARK SMILES IDX 9 1 8 2 7 3 5 4 6 5 4 7 63 8 75 9 64 10 65 11 3 12 2 15 1 16
REMARK SMILES IDX 66 17 67 18 74 19 68 21 73 22 69 23 70 25 71 26 72 27 10 28
REMARK SMILES IDX 11 29 12 30 13 31 14 33 15 34 16 35 62 36 17 37 61 38 18 39
REMARK SMILES IDX 19 40 20 41 55 42 21 43 60 44 54 45 56 46 22 47 59 48 53 49
REMARK SMILES IDX 52 50 23 52 45 53 30 54 44 55 31 56 34 57 43 58 57 59 32 60
REMARK SMILES IDX 33 61 42 63 58 64 35 65 24 66 25 67 29 68 26 69 28 70 27 71
REMARK SMILES IDX 46 72 47 73 51 74 48 75 50 76 49 77 36 78 37 79 41 80 38 81
REMARK SMILES IDX 40 82 39 83
REMARK H PARENT 7 6 3 13 3 14 66 20 69 24 12 32 56 51 34 62
REMARK Flexibility Score: inf
ROOT
ATOM      1  C   UNL     1      -2.154  -4.162  -5.530  1.00  0.00     0.023 C 
ENDROOT
BRANCH   1   2
ATOM      2  C   UNL     1      -1.947  -2.647  -5.489  1.00  0.00     0.116 C 
BRANCH   2   3
ATOM      3  N   UNL     1      -2.220  -2.099  -4.184  1.00  0.00    -0.351 N 
ATOM      4  C   UNL     1      -1.429  -1.804  -3.117  1.00  0.00     0.281 C 
ATOM      5  O   UNL     1      -2.067  -1.411  -2.132  1.00  0.00    -0.268 OA
ATOM      6  H   UNL     1      -3.172  -1.898  -4.035  1.00  0.00     0.163 HD
BRANCH   4   7
ATOM      7  C   UNL     1       0.150  -1.954  -3.111  1.00  0.00     0.181 C 
ATOM      8  C   UNL     1       0.878  -1.173  -4.216  1.00  0.00     0.085 C 
ATOM      9  C   UNL     1       0.575  -3.426  -3.291  1.00  0.00     0.144 C 
ATOM     10  C   UNL     1       1.518  -2.160  -5.188  1.00  0.00     0.072 C 
ATOM     11  C   UNL     1       1.278  -3.575  -4.647  1.00  0.00     0.191 C 
BRANCH   7  12
ATOM     12  N   UNL     1       0.675  -1.562  -1.763  1.00  0.00    -0.334 N 
ATOM     13  H   UNL     1       0.180  -2.119  -1.066  1.00  0.00     0.347 HD
ATOM     14  H   UNL     1       1.680  -1.728  -1.811  1.00  0.00     0.347 HD
BRANCH  12  15
ATOM     15  C   UNL     1       0.539  -0.157  -1.382  1.00  0.00     0.257 C 
ATOM     16  C   UNL     1       1.153   0.030   0.001  1.00  0.00     0.071 C 
ENDBRANCH  12  15
ENDBRANCH   7  12
BRANCH  11  17
ATOM     17  N   UNL     1       2.415  -4.497  -4.795  1.00  0.00    -0.323 N 
ATOM     18  C   UNL     1       3.705  -4.078  -4.235  1.00  0.00     0.324 C 
ATOM     19  C   UNL     1       2.143  -5.877  -4.356  1.00  0.00     0.324 C 
ATOM     20  H   UNL     1       2.516  -4.464  -5.809  1.00  0.00     0.348 HD
ATOM     21  C   UNL     1       3.853  -4.231  -2.713  1.00  0.00     0.324 C 
ATOM     22  C   UNL     1       2.337  -6.178  -2.848  1.00  0.00     0.324 C 
ATOM     23  N   UNL     1       3.466  -5.532  -2.156  1.00  0.00    -0.324 N 
ATOM     24  H   UNL     1       3.097  -5.273  -1.241  1.00  0.00     0.348 HD
BRANCH  23  25
ATOM     25  C   UNL     1       4.561  -6.440  -1.797  1.00  0.00     0.178 C 
ATOM     26  C   UNL     1       5.459  -6.840  -2.967  1.00  0.00     0.075 C 
ATOM     27  C   UNL     1       5.396  -5.853  -0.649  1.00  0.00     0.075 C 
ENDBRANCH  23  25
ENDBRANCH  11  17
ENDBRANCH   4   7
ENDBRANCH   2   3
ENDBRANCH   1   2
BRANCH   1  28
ATOM     28  C   UNL     1      -3.579  -4.611  -5.846  1.00  0.00     0.023 C 
BRANCH  28  29
ATOM     29  C   UNL     1      -4.134  -4.090  -7.163  1.00  0.00     0.116 C 
BRANCH  29  30
ATOM     30  N   UNL     1      -3.278  -4.334  -8.317  1.00  0.00    -0.352 N 
ATOM     31  C   UNL     1      -3.647  -4.283  -9.641  1.00  0.00     0.251 C 
ATOM     32  H   UNL     1      -2.338  -4.558  -8.129  1.00  0.00     0.163 HD
ATOM     33  O   UNL     1      -2.865  -4.568 -10.540  1.00  0.00    -0.269 OA
BRANCH  31  34
ATOM     34  C   UNL     1      -5.046  -3.932  -9.941  1.00  0.00     0.039 A 
ATOM     35  C   UNL     1      -5.860  -4.884 -10.558  1.00  0.00     0.014 A 
ATOM     36  C   UNL     1      -5.574  -2.731  -9.464  1.00  0.00     0.014 A 
ATOM     37  C   UNL     1      -7.234  -4.662 -10.623  1.00  0.00     0.010 A 
ATOM     38  C   UNL     1      -6.949  -2.548  -9.462  1.00  0.00     0.010 A 
ATOM     39  C   UNL     1      -7.792  -3.515 -10.034  1.00  0.00    -0.014 A 
BRANCH  39  40
ATOM     40  C   UNL     1      -9.259  -3.305  -9.998  1.00  0.00     0.031 A 
ATOM     41  C   UNL     1      -9.861  -2.139 -10.730  1.00  0.00     0.074 A 
ATOM     42  C   UNL     1     -10.033  -4.108  -9.242  1.00  0.00     0.049 A 
ATOM     43  N   UNL     1     -11.106  -1.740 -10.762  1.00  0.00    -0.248 NA
ATOM     44  C   UNL     1      -8.937  -1.290 -11.500  1.00  0.00     0.031 C 
ATOM     45  C   UNL     1      -9.561  -5.239  -8.439  1.00  0.00     0.029 A 
ATOM     46  N   UNL     1     -11.387  -4.090  -9.022  1.00  0.00    -0.354 N 
ATOM     47  C   UNL     1     -11.107  -0.579 -11.523  1.00  0.00     0.074 A 
ATOM     48  C   UNL     1      -9.737  -0.314 -11.901  1.00  0.00     0.031 C 
ATOM     49  C   UNL     1     -10.612  -5.823  -7.840  1.00  0.00     0.029 A 
ATOM     50  C   UNL     1     -11.825  -5.091  -8.189  1.00  0.00     0.049 A 
ATOM     51  H   UNL     1     -11.989  -3.422  -9.423  1.00  0.00     0.167 HD
ATOM     52  C   UNL     1     -12.159   0.189 -11.891  1.00  0.00     0.031 A 
ATOM     53  C   UNL     1     -13.066  -5.384  -7.758  1.00  0.00     0.031 A 
ATOM     54  C   UNL     1     -13.525  -0.101 -11.556  1.00  0.00     0.049 A 
ATOM     55  C   UNL     1     -14.220  -4.534  -8.213  1.00  0.00     0.074 A 
ATOM     56  C   UNL     1     -14.670   0.563 -11.960  1.00  0.00     0.029 A 
ATOM     57  N   UNL     1     -13.930  -1.145 -10.741  1.00  0.00    -0.354 N 
ATOM     58  N   UNL     1     -14.214  -3.490  -9.005  1.00  0.00    -0.248 NA
ATOM     59  C   UNL     1     -15.553  -4.912  -7.721  1.00  0.00     0.031 C 
ATOM     60  C   UNL     1     -15.768  -0.061 -11.360  1.00  0.00     0.029 A 
ATOM     61  C   UNL     1     -15.307  -1.134 -10.615  1.00  0.00     0.049 A 
ATOM     62  H   UNL     1     -13.327  -1.796 -10.315  1.00  0.00     0.167 HD
ATOM     63  C   UNL     1     -15.543  -3.107  -9.132  1.00  0.00     0.074 A 
ATOM     64  C   UNL     1     -16.327  -4.035  -8.345  1.00  0.00     0.031 C 
ATOM     65  C   UNL     1     -16.067  -2.077  -9.838  1.00  0.00     0.031 A 
BRANCH  52  66
ATOM     66  C   UNL     1     -11.867   1.415 -12.705  1.00  0.00    -0.014 A 
ATOM     67  C   UNL     1     -11.481   1.319 -14.052  1.00  0.00     0.009 A 
ATOM     68  C   UNL     1     -12.012   2.685 -12.127  1.00  0.00     0.009 A 
ATOM     69  C   UNL     1     -11.214   2.471 -14.793  1.00  0.00     0.001 A 
ATOM     70  C   UNL     1     -11.769   3.836 -12.878  1.00  0.00     0.001 A 
ATOM     71  C   UNL     1     -11.363   3.728 -14.207  1.00  0.00     0.000 A 
ENDBRANCH  52  66
BRANCH  53  72
ATOM     72  C   UNL     1     -13.299  -6.552  -6.870  1.00  0.00    -0.014 A 
ATOM     73  C   UNL     1     -13.937  -7.700  -7.365  1.00  0.00     0.009 A 
ATOM     74  C   UNL     1     -12.916  -6.517  -5.521  1.00  0.00     0.009 A 
ATOM     75  C   UNL     1     -14.218  -8.775  -6.520  1.00  0.00     0.001 A 
ATOM     76  C   UNL     1     -13.176  -7.604  -4.683  1.00  0.00     0.001 A 
ATOM     77  C   UNL     1     -13.836  -8.727  -5.180  1.00  0.00     0.000 A 
ENDBRANCH  53  72
BRANCH  65  78
ATOM     78  C   UNL     1     -17.560  -1.928  -9.826  1.00  0.00    -0.014 A 
ATOM     79  C   UNL     1     -18.230  -1.419  -8.704  1.00  0.00     0.009 A 
ATOM     80  C   UNL     1     -18.299  -2.261 -10.972  1.00  0.00     0.009 A 
ATOM     81  C   UNL     1     -19.617  -1.270  -8.721  1.00  0.00     0.001 A 
ATOM     82  C   UNL     1     -19.683  -2.089 -10.995  1.00  0.00     0.001 A 
ATOM     83  C   UNL     1     -20.341  -1.601  -9.867  1.00  0.00     0.000 A 
ENDBRANCH  65  78
ENDBRANCH  39  40
ENDBRANCH  31  34
ENDBRANCH  29  30
ENDBRANCH  28  29
ENDBRANCH   1  28
TORSDOF 15
