REMARK SMILES O=C(NCCCCNC(=O)[C@@H]1Cc2[nH]cnc2CN1C(=O)NCC(F)(F)F)c1ccc(-c2c3nc(c(-c4ccccc4)c4ccc([nH]4)c(-c4ccccc4)c4nc(c(-c5ccccc5)c5ccc2[nH]5)C=C4)C=C3)cc1
REMARK SMILES IDX 6 1 5 2 4 3 3 4 1 5 2 6 28 8 29 9 75 10 30 11 74 12 31 13
REMARK SMILES IDX 32 14 33 15 68 16 34 17 73 18 67 19 69 20 35 21 72 22 66 23
REMARK SMILES IDX 65 24 36 26 58 27 43 28 57 29 44 30 47 31 56 32 70 33 45 34
REMARK SMILES IDX 46 35 55 37 71 38 48 39 37 40 38 41 42 42 39 43 41 44 40 45
REMARK SMILES IDX 59 46 60 47 64 48 61 49 63 50 62 51 49 52 50 53 54 54 51 55
REMARK SMILES IDX 53 56 52 57 7 58 8 59 9 60 10 62 11 63 12 64 19 65 13 66
REMARK SMILES IDX 18 67 14 68 17 69 15 70 16 72 20 73 21 74 22 75 23 77 24 78
REMARK SMILES IDX 25 79 26 80 27 81
REMARK H PARENT 3 7 69 25 47 36 8 61 14 71 22 76
REMARK Flexibility Score: inf
ROOT
ATOM      1  C   UNL     1       6.081  -8.303  -0.507  1.00  0.00     0.023 C 
ENDROOT
BRANCH   1   2
ATOM      2  C   UNL     1       4.797  -8.978  -0.033  1.00  0.00     0.023 C 
BRANCH   2   3
ATOM      3  C   UNL     1       4.282 -10.145  -0.880  1.00  0.00     0.116 C 
BRANCH   3   4
ATOM      4  N   UNL     1       5.226 -11.207  -1.155  1.00  0.00    -0.352 N 
ATOM      5  O   UNL     1       6.248 -13.169  -1.123  1.00  0.00    -0.269 OA
ATOM      6  C   UNL     1       5.641 -12.327  -0.478  1.00  0.00     0.251 C 
ATOM      7  H   UNL     1       5.674 -11.102  -2.026  1.00  0.00     0.163 HD
BRANCH   6   8
ATOM      8  C   UNL     1       5.481 -12.525   0.988  1.00  0.00     0.039 A 
ATOM      9  C   UNL     1       4.665 -11.767   1.824  1.00  0.00     0.014 A 
ATOM     10  C   UNL     1       6.283 -13.530   1.560  1.00  0.00     0.014 A 
ATOM     11  C   UNL     1       4.758 -11.895   3.204  1.00  0.00     0.010 A 
ATOM     12  C   UNL     1       6.349 -13.697   2.938  1.00  0.00     0.010 A 
ATOM     13  C   UNL     1       5.622 -12.841   3.759  1.00  0.00    -0.014 A 
BRANCH  13  14
ATOM     14  C   UNL     1       5.593 -13.014   5.206  1.00  0.00     0.031 A 
ATOM     15  C   UNL     1       4.294 -13.514   5.736  1.00  0.00     0.074 A 
ATOM     16  C   UNL     1       6.673 -12.884   6.000  1.00  0.00     0.049 A 
ATOM     17  N   UNL     1       3.501 -12.944   6.583  1.00  0.00    -0.248 NA
ATOM     18  C   UNL     1       3.765 -14.762   5.161  1.00  0.00     0.031 C 
ATOM     19  C   UNL     1       8.065 -12.693   5.590  1.00  0.00     0.029 A 
ATOM     20  N   UNL     1       6.762 -13.025   7.354  1.00  0.00    -0.354 N 
ATOM     21  C   UNL     1       2.457 -13.844   6.792  1.00  0.00     0.074 A 
ATOM     22  C   UNL     1       2.593 -14.866   5.786  1.00  0.00     0.031 C 
ATOM     23  C   UNL     1       8.875 -12.972   6.636  1.00  0.00     0.029 A 
ATOM     24  C   UNL     1       8.057 -13.234   7.810  1.00  0.00     0.049 A 
ATOM     25  H   UNL     1       5.982 -12.983   7.952  1.00  0.00     0.167 HD
ATOM     26  C   UNL     1       1.709 -13.822   7.929  1.00  0.00     0.031 A 
ATOM     27  C   UNL     1       8.426 -13.670   9.040  1.00  0.00     0.031 A 
ATOM     28  C   UNL     1       1.811 -12.561   8.617  1.00  0.00     0.049 A 
ATOM     29  C   UNL     1       7.288 -13.465   9.961  1.00  0.00     0.074 A 
ATOM     30  C   UNL     1       1.545 -11.243   8.303  1.00  0.00     0.029 A 
ATOM     31  N   UNL     1       2.585 -12.525   9.751  1.00  0.00    -0.354 N 
ATOM     32  N   UNL     1       6.880 -12.295  10.358  1.00  0.00    -0.248 NA
ATOM     33  C   UNL     1       6.335 -14.550  10.134  1.00  0.00     0.031 C 
ATOM     34  C   UNL     1       2.557 -10.493   8.973  1.00  0.00     0.029 A 
ATOM     35  C   UNL     1       3.346 -11.392   9.691  1.00  0.00     0.049 A 
ATOM     36  H   UNL     1       2.592 -13.194  10.474  1.00  0.00     0.167 HD
ATOM     37  C   UNL     1       5.499 -12.403  10.406  1.00  0.00     0.074 A 
ATOM     38  C   UNL     1       5.230 -13.839  10.374  1.00  0.00     0.031 C 
ATOM     39  C   UNL     1       4.703 -11.317  10.180  1.00  0.00     0.031 A 
BRANCH  26  40
ATOM     40  C   UNL     1       1.290 -15.087   8.653  1.00  0.00    -0.014 A 
ATOM     41  C   UNL     1       0.609 -14.960   9.880  1.00  0.00     0.009 A 
ATOM     42  C   UNL     1       1.817 -16.359   8.358  1.00  0.00     0.009 A 
ATOM     43  C   UNL     1       0.585 -16.004  10.812  1.00  0.00     0.001 A 
ATOM     44  C   UNL     1       1.753 -17.418   9.267  1.00  0.00     0.001 A 
ATOM     45  C   UNL     1       1.174 -17.227  10.512  1.00  0.00     0.000 A 
ENDBRANCH  26  40
BRANCH  27  46
ATOM     46  C   UNL     1       9.594 -14.497   9.415  1.00  0.00    -0.014 A 
ATOM     47  C   UNL     1      10.003 -14.598  10.755  1.00  0.00     0.009 A 
ATOM     48  C   UNL     1      10.149 -15.402   8.493  1.00  0.00     0.009 A 
ATOM     49  C   UNL     1      10.904 -15.592  11.160  1.00  0.00     0.001 A 
ATOM     50  C   UNL     1      11.053 -16.389   8.895  1.00  0.00     0.001 A 
ATOM     51  C   UNL     1      11.419 -16.494  10.232  1.00  0.00     0.000 A 
ENDBRANCH  27  46
BRANCH  39  52
ATOM     52  C   UNL     1       5.347  -9.956  10.162  1.00  0.00    -0.014 A 
ATOM     53  C   UNL     1       6.356  -9.597   9.251  1.00  0.00     0.009 A 
ATOM     54  C   UNL     1       4.814  -8.961  10.995  1.00  0.00     0.009 A 
ATOM     55  C   UNL     1       6.841  -8.287   9.202  1.00  0.00     0.001 A 
ATOM     56  C   UNL     1       5.283  -7.648  10.930  1.00  0.00     0.001 A 
ATOM     57  C   UNL     1       6.300  -7.313  10.039  1.00  0.00     0.000 A 
ENDBRANCH  39  52
ENDBRANCH  13  14
ENDBRANCH   6   8
ENDBRANCH   3   4
ENDBRANCH   2   3
ENDBRANCH   1   2
BRANCH   1  58
ATOM     58  C   UNL     1       6.137  -7.926  -1.978  1.00  0.00     0.116 C 
BRANCH  58  59
ATOM     59  N   UNL     1       5.061  -7.054  -2.400  1.00  0.00    -0.354 N 
ATOM     60  C   UNL     1       5.013  -6.131  -3.400  1.00  0.00     0.243 C 
ATOM     61  H   UNL     1       4.230  -7.143  -1.879  1.00  0.00     0.163 HD
ATOM     62  O   UNL     1       3.919  -5.573  -3.556  1.00  0.00    -0.273 OA
BRANCH  60  63
ATOM     63  C   UNL     1       6.286  -5.604  -4.130  1.00  0.00     0.182 C 
ATOM     64  C   UNL     1       5.862  -4.923  -5.474  1.00  0.00     0.091 C 
ATOM     65  N   UNL     1       7.411  -6.554  -4.392  1.00  0.00    -0.306 N 
ATOM     66  C   UNL     1       5.649  -6.004  -6.469  1.00  0.00     0.042 A 
ATOM     67  C   UNL     1       7.084  -7.712  -5.271  1.00  0.00     0.180 C 
ATOM     68  N   UNL     1       4.865  -6.017  -7.582  1.00  0.00    -0.348 N 
ATOM     69  C   UNL     1       6.195  -7.264  -6.378  1.00  0.00     0.081 A 
ATOM     70  C   UNL     1       4.948  -7.283  -8.104  1.00  0.00     0.197 A 
ATOM     71  H   UNL     1       4.341  -5.265  -7.942  1.00  0.00     0.167 HD
ATOM     72  N   UNL     1       5.745  -8.057  -7.397  1.00  0.00    -0.240 NA
BRANCH  65  73
ATOM     73  C   UNL     1       8.672  -6.544  -3.879  1.00  0.00     0.318 C 
ATOM     74  O   UNL     1       9.389  -7.548  -3.918  1.00  0.00    -0.249 OA
ATOM     75  N   UNL     1       9.242  -5.475  -3.304  1.00  0.00    -0.329 N 
ATOM     76  H   UNL     1      10.109  -5.703  -2.896  1.00  0.00     0.165 HD
BRANCH  75  77
ATOM     77  C   UNL     1       8.916  -4.059  -3.123  1.00  0.00     0.233 C 
BRANCH  77  78
ATOM     78  C   UNL     1       8.488  -3.690  -1.700  1.00  0.00     0.405 C 
ATOM     79  F   UNL     1       9.546  -3.710  -0.858  1.00  0.00    -0.169 F 
ATOM     80  F   UNL     1       7.961  -2.445  -1.667  1.00  0.00    -0.169 F 
ATOM     81  F   UNL     1       7.556  -4.540  -1.216  1.00  0.00    -0.169 F 
ENDBRANCH  77  78
ENDBRANCH  75  77
ENDBRANCH  65  73
ENDBRANCH  60  63
ENDBRANCH  58  59
ENDBRANCH   1  58
TORSDOF 14
