REMARK SMILES Cc1ccc(-c2csc(NC(=O)[C@H]3[C@@H](C(=O)NCCCCNC(=O)c4ccc(-c5c6nc(c(-c7ccccc7)c7ccc([nH]7)c(-c7ccccc7)c7nc(c(-c8ccccc8)c8ccc5[nH]8)C=C7)C=C6)cc4)[C@H]4C=C[C@@H]3C4)c2C(=O)NC2CC2)cc1
REMARK SMILES IDX 18 1 17 2 15 3 16 4 14 6 13 7 76 8 73 9 75 10 77 11 74 12
REMARK SMILES IDX 11 13 10 14 12 16 9 17 6 18 7 19 78 20 8 21 5 22 1 23 2 24
REMARK SMILES IDX 3 25 86 26 4 27 85 28 79 29 80 30 81 31 82 33 83 34 84 35
REMARK SMILES IDX 19 36 20 37 21 38 22 39 23 40 24 42 25 43 26 44 72 45 27 46
REMARK SMILES IDX 71 47 28 48 29 49 30 50 65 51 31 52 70 53 64 54 66 55 32 56
REMARK SMILES IDX 69 57 63 58 62 59 33 61 55 62 40 63 54 64 41 65 44 66 53 67
REMARK SMILES IDX 67 68 42 69 43 70 52 72 68 73 45 74 34 75 35 76 39 77 36 78
REMARK SMILES IDX 38 79 37 80 56 81 57 82 61 83 58 84 60 85 59 86 46 87 47 88
REMARK SMILES IDX 51 89 48 90 50 91 49 92
REMARK H PARENT 17 5 10 15 81 32 22 41 66 60 44 71
REMARK Flexibility Score: inf
ROOT
ATOM      1  C   UNL     1      -4.330   1.508   0.162  1.00  0.00     0.116 C 
ENDROOT
BRANCH   1   2
ATOM      2  N   UNL     1      -5.084   1.328  -1.065  1.00  0.00    -0.356 N 
ATOM      3  C   UNL     1      -6.420   1.144  -1.283  1.00  0.00     0.224 C 
ATOM      4  O   UNL     1      -6.771   0.940  -2.446  1.00  0.00    -0.275 OA
ATOM      5  H   UNL     1      -4.538   1.340  -1.884  1.00  0.00     0.163 HD
BRANCH   3   6
ATOM      6  C   UNL     1      -7.405   1.327  -0.130  1.00  0.00     0.098 C 
ATOM      7  C   UNL     1      -8.601   0.307   0.053  1.00  0.00     0.099 C 
ATOM      8  C   UNL     1      -9.832   1.247  -0.083  1.00  0.00     0.025 C 
ATOM      9  C   UNL     1      -8.144   2.692  -0.298  1.00  0.00     0.025 C 
ATOM     10  C   UNL     1      -9.918   1.813  -1.474  1.00  0.00    -0.027 C 
ATOM     11  C   UNL     1      -9.322   2.498   0.652  1.00  0.00     0.017 C 
ATOM     12  C   UNL     1      -8.927   2.706  -1.595  1.00  0.00    -0.027 C 
BRANCH   7  13
ATOM     13  C   UNL     1      -8.508  -0.960  -0.798  1.00  0.00     0.229 C 
ATOM     14  N   UNL     1      -9.614  -1.642  -1.220  1.00  0.00    -0.317 N 
ATOM     15  H   UNL     1      -9.497  -2.139  -2.062  1.00  0.00     0.170 HD
ATOM     16  O   UNL     1      -7.406  -1.447  -1.077  1.00  0.00    -0.274 OA
BRANCH  14  17
ATOM     17  C   UNL     1     -10.871  -1.746  -0.654  1.00  0.00     0.108 A 
ATOM     18  C   UNL     1     -13.165  -1.953  -0.328  1.00  0.00     0.007 A 
ATOM     19  C   UNL     1     -12.697  -1.695   0.950  1.00  0.00     0.076 A 
ATOM     20  C   UNL     1     -12.074  -2.064  -1.291  1.00  0.00     0.082 A 
ATOM     21  S   UNL     1     -11.005  -1.694   1.040  1.00  0.00    -0.125 S 
BRANCH  18  22
ATOM     22  C   UNL     1     -14.610  -2.091  -0.482  1.00  0.00    -0.017 A 
ATOM     23  C   UNL     1     -18.718  -3.077  -1.284  1.00  0.00     0.044 C 
ATOM     24  C   UNL     1     -17.336  -2.637  -0.901  1.00  0.00    -0.051 A 
ATOM     25  C   UNL     1     -16.598  -3.412  -0.004  1.00  0.00     0.004 A 
ATOM     26  C   UNL     1     -16.723  -1.536  -1.520  1.00  0.00     0.004 A 
ATOM     27  C   UNL     1     -15.256  -3.122   0.223  1.00  0.00     0.009 A 
ATOM     28  C   UNL     1     -15.362  -1.261  -1.314  1.00  0.00     0.009 A 
ENDBRANCH  18  22
BRANCH  20  29
ATOM     29  C   UNL     1     -12.082  -2.203  -2.751  1.00  0.00     0.255 C 
ATOM     30  O   UNL     1     -11.501  -1.356  -3.440  1.00  0.00    -0.269 OA
ATOM     31  N   UNL     1     -12.582  -3.261  -3.471  1.00  0.00    -0.349 N 
ATOM     32  H   UNL     1     -12.441  -3.120  -4.436  1.00  0.00     0.164 HD
BRANCH  31  33
ATOM     33  C   UNL     1     -13.242  -4.497  -3.238  1.00  0.00     0.082 C 
ATOM     34  C   UNL     1     -13.785  -5.064  -1.976  1.00  0.00     0.027 C 
ATOM     35  C   UNL     1     -14.722  -4.452  -2.981  1.00  0.00     0.027 C 
ENDBRANCH  31  33
ENDBRANCH  20  29
ENDBRANCH  14  17
ENDBRANCH   7  13
ENDBRANCH   3   6
ENDBRANCH   1   2
BRANCH   1  36
ATOM     36  C   UNL     1      -3.695   0.198   0.648  1.00  0.00     0.023 C 
BRANCH  36  37
ATOM     37  C   UNL     1      -2.744  -0.477  -0.348  1.00  0.00     0.023 C 
BRANCH  37  38
ATOM     38  C   UNL     1      -1.515   0.343  -0.723  1.00  0.00     0.116 C 
BRANCH  38  39
ATOM     39  N   UNL     1      -0.392   0.226   0.193  1.00  0.00    -0.352 N 
ATOM     40  C   UNL     1       0.796   0.952   0.240  1.00  0.00     0.251 C 
ATOM     41  H   UNL     1      -0.486  -0.470   0.883  1.00  0.00     0.163 HD
ATOM     42  O   UNL     1       1.658   0.650   1.047  1.00  0.00    -0.269 OA
BRANCH  40  43
ATOM     43  C   UNL     1       0.949   2.178  -0.586  1.00  0.00     0.039 A 
ATOM     44  C   UNL     1       1.511   3.307   0.028  1.00  0.00     0.014 A 
ATOM     45  C   UNL     1       0.368   2.296  -1.844  1.00  0.00     0.014 A 
ATOM     46  C   UNL     1       1.230   4.574  -0.479  1.00  0.00     0.010 A 
ATOM     47  C   UNL     1      -0.001   3.549  -2.294  1.00  0.00     0.010 A 
ATOM     48  C   UNL     1       0.358   4.681  -1.562  1.00  0.00    -0.014 A 
BRANCH  48  49
ATOM     49  C   UNL     1      -0.347   5.911  -1.896  1.00  0.00     0.031 A 
ATOM     50  C   UNL     1       0.064   6.722  -3.063  1.00  0.00     0.074 A 
ATOM     51  C   UNL     1      -1.436   6.274  -1.175  1.00  0.00     0.049 A 
ATOM     52  N   UNL     1      -0.090   8.002  -3.141  1.00  0.00    -0.248 NA
ATOM     53  C   UNL     1       0.707   6.146  -4.243  1.00  0.00     0.031 C 
ATOM     54  C   UNL     1      -2.382   7.340  -1.504  1.00  0.00     0.029 A 
ATOM     55  N   UNL     1      -1.830   5.883   0.109  1.00  0.00    -0.354 N 
ATOM     56  C   UNL     1       0.112   8.352  -4.455  1.00  0.00     0.074 A 
ATOM     57  C   UNL     1       0.701   7.189  -5.080  1.00  0.00     0.031 C 
ATOM     58  C   UNL     1      -2.999   7.729  -0.377  1.00  0.00     0.029 A 
ATOM     59  C   UNL     1      -2.348   7.035   0.721  1.00  0.00     0.049 A 
ATOM     60  H   UNL     1      -1.758   4.984   0.503  1.00  0.00     0.167 HD
ATOM     61  C   UNL     1      -0.393   9.520  -4.940  1.00  0.00     0.031 A 
ATOM     62  C   UNL     1      -1.799   7.647   1.813  1.00  0.00     0.031 A 
ATOM     63  C   UNL     1      -1.112  10.278  -3.924  1.00  0.00     0.049 A 
ATOM     64  C   UNL     1      -1.461   9.110   1.581  1.00  0.00     0.074 A 
ATOM     65  C   UNL     1      -2.460  10.419  -3.637  1.00  0.00     0.029 A 
ATOM     66  N   UNL     1      -0.422  10.783  -2.830  1.00  0.00    -0.354 N 
ATOM     67  N   UNL     1      -1.361   9.648   0.397  1.00  0.00    -0.248 NA
ATOM     68  C   UNL     1      -1.152  10.067   2.644  1.00  0.00     0.031 C 
ATOM     69  C   UNL     1      -2.579  10.969  -2.335  1.00  0.00     0.029 A 
ATOM     70  C   UNL     1      -1.304  11.181  -1.844  1.00  0.00     0.049 A 
ATOM     71  H   UNL     1       0.558  10.848  -2.765  1.00  0.00     0.167 HD
ATOM     72  C   UNL     1      -0.997  10.965   0.509  1.00  0.00     0.074 A 
ATOM     73  C   UNL     1      -0.885  11.183   1.939  1.00  0.00     0.031 C 
ATOM     74  C   UNL     1      -0.809  11.747  -0.596  1.00  0.00     0.031 A 
BRANCH  61  75
ATOM     75  C   UNL     1      -0.496   9.790  -6.418  1.00  0.00    -0.014 A 
ATOM     76  C   UNL     1      -1.635  10.432  -6.938  1.00  0.00     0.009 A 
ATOM     77  C   UNL     1       0.479   9.394  -7.348  1.00  0.00     0.009 A 
ATOM     78  C   UNL     1      -1.838  10.580  -8.315  1.00  0.00     0.001 A 
ATOM     79  C   UNL     1       0.265   9.505  -8.729  1.00  0.00     0.001 A 
ATOM     80  C   UNL     1      -0.900  10.088  -9.213  1.00  0.00     0.000 A 
ENDBRANCH  61  75
BRANCH  62  81
ATOM     81  C   UNL     1      -1.026   6.745   2.707  1.00  0.00    -0.014 A 
ATOM     82  C   UNL     1      -1.728   5.780   3.454  1.00  0.00     0.009 A 
ATOM     83  C   UNL     1       0.358   6.593   2.544  1.00  0.00     0.009 A 
ATOM     84  C   UNL     1      -1.084   4.628   3.916  1.00  0.00     0.001 A 
ATOM     85  C   UNL     1       1.000   5.441   3.017  1.00  0.00     0.001 A 
ATOM     86  C   UNL     1       0.273   4.443   3.666  1.00  0.00     0.000 A 
ENDBRANCH  62  81
BRANCH  74  87
ATOM     87  C   UNL     1      -0.213  13.135  -0.643  1.00  0.00    -0.014 A 
ATOM     88  C   UNL     1       0.571  13.703   0.368  1.00  0.00     0.009 A 
ATOM     89  C   UNL     1      -0.336  13.887  -1.837  1.00  0.00     0.009 A 
ATOM     90  C   UNL     1       1.167  14.964   0.208  1.00  0.00     0.001 A 
ATOM     91  C   UNL     1       0.293  15.120  -2.019  1.00  0.00     0.001 A 
ATOM     92  C   UNL     1       1.039  15.666  -0.987  1.00  0.00     0.000 A 
ENDBRANCH  74  87
ENDBRANCH  48  49
ENDBRANCH  40  43
ENDBRANCH  38  39
ENDBRANCH  37  38
ENDBRANCH  36  37
ENDBRANCH   1  36
TORSDOF 16
