REMARK SMILES O=C(NCCCCNC(=O)[C@H]1C[C@H](O)CN1C(=O)CCOc1ccc(F)cc1)c1ccc(-c2c3nc(c(-c4ccccc4)c4ccc([nH]4)c(-c4ccccc4)c4nc(c(-c5ccccc5)c5ccc2[nH]5)C=C4)C=C3)cc1
REMARK SMILES IDX 7 1 6 2 5 3 4 4 3 5 1 6 2 7 29 9 30 10 76 11 31 12 75 13
REMARK SMILES IDX 32 14 33 15 34 16 69 17 35 18 74 19 68 20 70 21 36 22 73 23
REMARK SMILES IDX 67 24 66 25 37 27 59 28 44 29 58 30 45 31 48 32 57 33 71 34
REMARK SMILES IDX 46 35 47 36 56 38 72 39 49 40 38 41 39 42 43 43 40 44 42 45
REMARK SMILES IDX 41 46 60 47 61 48 65 49 62 50 64 51 63 52 50 53 51 54 55 55
REMARK SMILES IDX 52 56 54 57 53 58 8 59 9 60 10 62 11 63 12 64 16 65 13 66
REMARK SMILES IDX 15 67 17 68 18 69 19 70 20 71 21 72 22 73 23 74 28 75 24 76
REMARK SMILES IDX 27 77 25 78 26 79 14 80
REMARK H PARENT 3 8 70 26 48 37 8 61 14 81
REMARK Flexibility Score: inf
ROOT
ATOM      1  C   UNL     1       6.179   2.663   1.711  1.00  0.00     0.116 C 
ENDROOT
BRANCH   1   2
ATOM      2  C   UNL     1       5.124   3.128   0.707  1.00  0.00     0.023 C 
BRANCH   2   3
ATOM      3  C   UNL     1       5.134   2.358  -0.609  1.00  0.00     0.023 C 
BRANCH   3   4
ATOM      4  C   UNL     1       4.588   0.950  -0.461  1.00  0.00     0.116 C 
BRANCH   4   5
ATOM      5  N   UNL     1       3.175   0.906  -0.111  1.00  0.00    -0.352 N 
ATOM      6  O   UNL     1       1.143  -0.113  -0.008  1.00  0.00    -0.269 OA
ATOM      7  C   UNL     1       2.337  -0.178  -0.249  1.00  0.00     0.251 C 
ATOM      8  H   UNL     1       2.781   1.730   0.259  1.00  0.00     0.163 HD
BRANCH   7   9
ATOM      9  C   UNL     1       2.948  -1.420  -0.756  1.00  0.00     0.039 A 
ATOM     10  C   UNL     1       4.020  -1.983  -0.061  1.00  0.00     0.014 A 
ATOM     11  C   UNL     1       2.551  -1.913  -2.000  1.00  0.00     0.014 A 
ATOM     12  C   UNL     1       4.783  -2.964  -0.673  1.00  0.00     0.010 A 
ATOM     13  C   UNL     1       3.272  -2.958  -2.577  1.00  0.00     0.010 A 
ATOM     14  C   UNL     1       4.406  -3.472  -1.928  1.00  0.00    -0.014 A 
BRANCH  14  15
ATOM     15  C   UNL     1       5.151  -4.619  -2.492  1.00  0.00     0.031 A 
ATOM     16  C   UNL     1       5.959  -4.494  -3.750  1.00  0.00     0.074 A 
ATOM     17  C   UNL     1       5.086  -5.789  -1.830  1.00  0.00     0.049 A 
ATOM     18  N   UNL     1       6.636  -5.420  -4.380  1.00  0.00    -0.248 NA
ATOM     19  C   UNL     1       6.014  -3.169  -4.389  1.00  0.00     0.031 C 
ATOM     20  C   UNL     1       4.323  -6.018  -0.598  1.00  0.00     0.029 A 
ATOM     21  N   UNL     1       5.675  -6.998  -2.085  1.00  0.00    -0.354 N 
ATOM     22  C   UNL     1       7.171  -4.803  -5.503  1.00  0.00     0.074 A 
ATOM     23  C   UNL     1       6.742  -3.421  -5.471  1.00  0.00     0.031 C 
ATOM     24  C   UNL     1       4.523  -7.276  -0.185  1.00  0.00     0.029 A 
ATOM     25  C   UNL     1       5.365  -7.960  -1.157  1.00  0.00     0.049 A 
ATOM     26  H   UNL     1       6.262  -7.161  -2.859  1.00  0.00     0.167 HD
ATOM     27  C   UNL     1       7.944  -5.350  -6.472  1.00  0.00     0.031 A 
ATOM     28  C   UNL     1       5.692  -9.262  -1.107  1.00  0.00     0.031 A 
ATOM     29  C   UNL     1       8.378  -6.723  -6.484  1.00  0.00     0.049 A 
ATOM     30  C   UNL     1       6.528  -9.838  -2.206  1.00  0.00     0.074 A 
ATOM     31  C   UNL     1       9.208  -7.356  -7.394  1.00  0.00     0.029 A 
ATOM     32  N   UNL     1       8.012  -7.676  -5.547  1.00  0.00    -0.354 N 
ATOM     33  N   UNL     1       7.048  -9.233  -3.246  1.00  0.00    -0.248 NA
ATOM     34  C   UNL     1       6.809 -11.277  -2.132  1.00  0.00     0.031 C 
ATOM     35  C   UNL     1       9.307  -8.704  -7.032  1.00  0.00     0.029 A 
ATOM     36  C   UNL     1       8.572  -8.899  -5.875  1.00  0.00     0.049 A 
ATOM     37  H   UNL     1       7.440  -7.507  -4.764  1.00  0.00     0.167 HD
ATOM     38  C   UNL     1       7.713 -10.219  -3.958  1.00  0.00     0.074 A 
ATOM     39  C   UNL     1       7.558 -11.453  -3.212  1.00  0.00     0.031 C 
ATOM     40  C   UNL     1       8.383 -10.115  -5.130  1.00  0.00     0.031 A 
BRANCH  27  41
ATOM     41  C   UNL     1       8.353  -4.479  -7.625  1.00  0.00    -0.014 A 
ATOM     42  C   UNL     1       9.390  -3.542  -7.501  1.00  0.00     0.009 A 
ATOM     43  C   UNL     1       7.752  -4.667  -8.880  1.00  0.00     0.009 A 
ATOM     44  C   UNL     1       9.808  -2.803  -8.611  1.00  0.00     0.001 A 
ATOM     45  C   UNL     1       8.184  -3.938  -9.990  1.00  0.00     0.001 A 
ATOM     46  C   UNL     1       9.210  -3.005  -9.854  1.00  0.00     0.000 A 
ENDBRANCH  27  41
BRANCH  28  47
ATOM     47  C   UNL     1       5.176 -10.104  -0.001  1.00  0.00    -0.014 A 
ATOM     48  C   UNL     1       6.034 -10.567   1.006  1.00  0.00     0.009 A 
ATOM     49  C   UNL     1       3.809 -10.418   0.068  1.00  0.00     0.009 A 
ATOM     50  C   UNL     1       5.533 -11.340   2.055  1.00  0.00     0.001 A 
ATOM     51  C   UNL     1       3.308 -11.167   1.132  1.00  0.00     0.001 A 
ATOM     52  C   UNL     1       4.171 -11.634   2.121  1.00  0.00     0.000 A 
ENDBRANCH  28  47
BRANCH  40  53
ATOM     53  C   UNL     1       8.985 -11.378  -5.668  1.00  0.00    -0.014 A 
ATOM     54  C   UNL     1       8.180 -12.350  -6.279  1.00  0.00     0.009 A 
ATOM     55  C   UNL     1      10.367 -11.594  -5.567  1.00  0.00     0.009 A 
ATOM     56  C   UNL     1       8.745 -13.534  -6.753  1.00  0.00     0.001 A 
ATOM     57  C   UNL     1      10.932 -12.770  -6.062  1.00  0.00     0.001 A 
ATOM     58  C   UNL     1      10.120 -13.742  -6.646  1.00  0.00     0.000 A 
ENDBRANCH  40  53
ENDBRANCH  14  15
ENDBRANCH   7   9
ENDBRANCH   4   5
ENDBRANCH   3   4
ENDBRANCH   2   3
ENDBRANCH   1   2
BRANCH   1  59
ATOM     59  N   UNL     1       7.387   3.439   1.597  1.00  0.00    -0.354 N 
ATOM     60  C   UNL     1       7.689   4.656   2.122  1.00  0.00     0.242 C 
ATOM     61  H   UNL     1       8.101   3.026   1.058  1.00  0.00     0.163 HD
ATOM     62  O   UNL     1       8.854   5.032   1.947  1.00  0.00    -0.273 OA
BRANCH  60  63
ATOM     63  C   UNL     1       6.706   5.463   3.028  1.00  0.00     0.177 C 
ATOM     64  C   UNL     1       7.216   6.904   3.145  1.00  0.00     0.069 C 
ATOM     65  N   UNL     1       5.326   5.686   2.558  1.00  0.00    -0.328 N 
ATOM     66  C   UNL     1       6.630   7.565   1.897  1.00  0.00     0.136 C 
ATOM     67  C   UNL     1       5.253   6.910   1.767  1.00  0.00     0.152 C 
BRANCH  65  68
ATOM     68  C   UNL     1       4.245   5.003   3.074  1.00  0.00     0.226 C 
ATOM     69  O   UNL     1       4.380   4.074   3.873  1.00  0.00    -0.275 OA
BRANCH  68  70
ATOM     70  C   UNL     1       2.851   5.396   2.623  1.00  0.00     0.141 C 
BRANCH  70  71
ATOM     71  C   UNL     1       1.990   5.784   3.822  1.00  0.00     0.239 C 
BRANCH  71  72
ATOM     72  O   UNL     1       2.245   7.130   4.240  1.00  0.00    -0.493 OA
BRANCH  72  73
ATOM     73  C   UNL     1       3.302   7.375   5.071  1.00  0.00     0.119 A 
ATOM     74  C   UNL     1       3.960   6.438   5.869  1.00  0.00     0.049 A 
ATOM     75  C   UNL     1       3.735   8.706   5.082  1.00  0.00     0.049 A 
ATOM     76  C   UNL     1       5.083   6.810   6.613  1.00  0.00     0.043 A 
ATOM     77  C   UNL     1       4.845   9.084   5.838  1.00  0.00     0.043 A 
ATOM     78  C   UNL     1       5.518   8.128   6.587  1.00  0.00     0.123 A 
ATOM     79  F   UNL     1       6.607   8.478   7.282  1.00  0.00    -0.207 F 
ENDBRANCH  72  73
ENDBRANCH  71  72
ENDBRANCH  70  71
ENDBRANCH  68  70
ENDBRANCH  65  68
BRANCH  66  80
ATOM     80  O   UNL     1       6.538   8.973   2.051  1.00  0.00    -0.391 OA
ATOM     81  H   UNL     1       5.999   9.178   2.831  1.00  0.00     0.211 HD
ENDBRANCH  66  80
ENDBRANCH  60  63
ENDBRANCH   1  59
TORSDOF 17
