REMARK SMILES COc1ccc(OC)c(C[NH2+][C@@H](C(=O)NCCCCNC(=O)c2ccc(-c3c4nc(c(-c5ccccc5)c5ccc([nH]5)c(-c5ccccc5)c5nc(c(-c6ccccc6)c6ccc3[nH]6)C=C5)C=C4)cc2)C(C)C)c1
REMARK SMILES IDX 16 1 15 2 13 3 14 4 12 6 11 7 10 10 9 11 3 12 4 13 74 14
REMARK SMILES IDX 5 15 6 16 2 17 1 18 7 19 8 20 71 21 72 22 73 23 17 24 18 25
REMARK SMILES IDX 19 26 20 27 21 28 22 30 23 31 24 32 70 33 25 34 69 35 26 36
REMARK SMILES IDX 27 37 28 38 63 39 29 40 68 41 62 42 64 43 30 44 67 45 61 46
REMARK SMILES IDX 60 47 31 49 53 50 38 51 52 52 39 53 42 54 51 55 65 56 40 57
REMARK SMILES IDX 41 58 50 60 66 61 43 62 32 63 33 64 37 65 34 66 36 67 35 68
REMARK SMILES IDX 54 69 55 70 59 71 56 72 58 73 57 74 44 75 45 76 49 77 46 78
REMARK SMILES IDX 48 79 47 80
REMARK H PARENT 15 5 11 8 11 9 20 29 64 48 42 59
REMARK Flexibility Score: inf
ROOT
ATOM      1  C   UNL     1       5.937  -3.515  -1.060  1.00  0.00     0.116 C 
ENDROOT
BRANCH   1   2
ATOM      2  N   UNL     1       6.544  -3.320   0.249  1.00  0.00    -0.351 N 
ATOM      3  C   UNL     1       6.483  -4.053   1.407  1.00  0.00     0.278 C 
ATOM      4  O   UNL     1       7.011  -3.552   2.404  1.00  0.00    -0.268 OA
ATOM      5  H   UNL     1       7.101  -2.511   0.316  1.00  0.00     0.163 HD
BRANCH   3   6
ATOM      6  C   UNL     1       5.743  -5.430   1.476  1.00  0.00     0.275 C 
BRANCH   6   7
ATOM      7  N   UNL     1       4.336  -5.266   1.972  1.00  0.00    -0.332 N 
ATOM      8  H   UNL     1       3.870  -6.173   1.965  1.00  0.00     0.347 HD
ATOM      9  H   UNL     1       4.361  -4.891   2.920  1.00  0.00     0.347 HD
BRANCH   7  10
ATOM     10  C   UNL     1       3.606  -4.348   1.122  1.00  0.00     0.302 C 
BRANCH  10  11
ATOM     11  C   UNL     1       2.117  -4.183   1.250  1.00  0.00     0.052 A 
ATOM     12  C   UNL     1       0.302  -2.526   1.153  1.00  0.00     0.119 A 
ATOM     13  C   UNL     1      -0.629  -3.554   1.131  1.00  0.00     0.050 A 
ATOM     14  C   UNL     1       1.654  -2.842   1.249  1.00  0.00     0.059 A 
ATOM     15  C   UNL     1      -0.199  -4.885   1.146  1.00  0.00     0.051 A 
ATOM     16  C   UNL     1       1.166  -5.206   1.169  1.00  0.00     0.127 A 
BRANCH  12  17
ATOM     17  O   UNL     1      -0.178  -1.246   1.121  1.00  0.00    -0.497 OA
ATOM     18  C   UNL     1       0.555  -0.366   0.268  1.00  0.00     0.278 C 
ENDBRANCH  12  17
BRANCH  16  19
ATOM     19  O   UNL     1       1.438  -6.546   1.169  1.00  0.00    -0.496 OA
ATOM     20  C   UNL     1       2.272  -6.992   0.105  1.00  0.00     0.278 C 
ENDBRANCH  16  19
ENDBRANCH  10  11
ENDBRANCH   7  10
ENDBRANCH   6   7
BRANCH   6  21
ATOM     21  C   UNL     1       6.495  -6.390   2.444  1.00  0.00     0.051 C 
ATOM     22  C   UNL     1       5.758  -7.724   2.630  1.00  0.00     0.014 C 
ATOM     23  C   UNL     1       7.919  -6.684   1.953  1.00  0.00     0.014 C 
ENDBRANCH   6  21
ENDBRANCH   3   6
ENDBRANCH   1   2
BRANCH   1  24
ATOM     24  C   UNL     1       4.750  -2.568  -1.293  1.00  0.00     0.023 C 
BRANCH  24  25
ATOM     25  C   UNL     1       5.109  -1.127  -1.617  1.00  0.00     0.023 C 
BRANCH  25  26
ATOM     26  C   UNL     1       5.547  -0.924  -3.051  1.00  0.00     0.116 C 
BRANCH  26  27
ATOM     27  N   UNL     1       4.498  -1.228  -4.018  1.00  0.00    -0.352 N 
ATOM     28  C   UNL     1       4.090  -0.502  -5.117  1.00  0.00     0.251 C 
ATOM     29  H   UNL     1       4.012  -2.070  -3.863  1.00  0.00     0.163 HD
ATOM     30  O   UNL     1       3.121  -0.845  -5.767  1.00  0.00    -0.269 OA
BRANCH  28  31
ATOM     31  C   UNL     1       4.829   0.732  -5.459  1.00  0.00     0.039 A 
ATOM     32  C   UNL     1       4.112   1.899  -5.724  1.00  0.00     0.014 A 
ATOM     33  C   UNL     1       6.224   0.745  -5.434  1.00  0.00     0.014 A 
ATOM     34  C   UNL     1       4.799   3.103  -5.877  1.00  0.00     0.010 A 
ATOM     35  C   UNL     1       6.896   1.956  -5.471  1.00  0.00     0.010 A 
ATOM     36  C   UNL     1       6.192   3.147  -5.704  1.00  0.00    -0.014 A 
BRANCH  36  37
ATOM     37  C   UNL     1       6.952   4.416  -5.796  1.00  0.00     0.031 A 
ATOM     38  C   UNL     1       8.020   4.561  -6.847  1.00  0.00     0.074 A 
ATOM     39  C   UNL     1       6.744   5.397  -4.897  1.00  0.00     0.049 A 
ATOM     40  N   UNL     1       8.877   5.533  -7.026  1.00  0.00    -0.248 NA
ATOM     41  C   UNL     1       8.172   3.444  -7.797  1.00  0.00     0.031 C 
ATOM     42  C   UNL     1       5.772   5.359  -3.800  1.00  0.00     0.029 A 
ATOM     43  N   UNL     1       7.346   6.622  -4.761  1.00  0.00    -0.354 N 
ATOM     44  C   UNL     1       9.683   5.130  -8.083  1.00  0.00     0.074 A 
ATOM     45  C   UNL     1       9.257   3.803  -8.466  1.00  0.00     0.031 C 
ATOM     46  C   UNL     1       5.821   6.522  -3.129  1.00  0.00     0.029 A 
ATOM     47  C   UNL     1       6.851   7.369  -3.720  1.00  0.00     0.049 A 
ATOM     48  H   UNL     1       8.066   6.936  -5.355  1.00  0.00     0.167 HD
ATOM     49  C   UNL     1      10.671   5.814  -8.703  1.00  0.00     0.031 A 
ATOM     50  C   UNL     1       7.193   8.598  -3.292  1.00  0.00     0.031 A 
ATOM     51  C   UNL     1      11.066   7.149  -8.353  1.00  0.00     0.049 A 
ATOM     52  C   UNL     1       8.281   9.346  -4.012  1.00  0.00     0.074 A 
ATOM     53  C   UNL     1      12.017   7.954  -8.954  1.00  0.00     0.029 A 
ATOM     54  N   UNL     1      10.514   7.882  -7.314  1.00  0.00    -0.354 N 
ATOM     55  N   UNL     1       8.998   8.970  -5.043  1.00  0.00    -0.248 NA
ATOM     56  C   UNL     1       8.596  10.693  -3.516  1.00  0.00     0.031 C 
ATOM     57  C   UNL     1      12.061   9.166  -8.259  1.00  0.00     0.029 A 
ATOM     58  C   UNL     1      11.108   9.130  -7.254  1.00  0.00     0.049 A 
ATOM     59  H   UNL     1       9.805   7.563  -6.710  1.00  0.00     0.167 HD
ATOM     60  C   UNL     1       9.828  10.045  -5.337  1.00  0.00     0.074 A 
ATOM     61  C   UNL     1       9.514  11.091  -4.386  1.00  0.00     0.031 C 
ATOM     62  C   UNL     1      10.767  10.157  -6.307  1.00  0.00     0.031 A 
BRANCH  49  63
ATOM     63  C   UNL     1      11.377   5.128  -9.838  1.00  0.00    -0.014 A 
ATOM     64  C   UNL     1      10.730   4.906 -11.064  1.00  0.00     0.009 A 
ATOM     65  C   UNL     1      12.710   4.718  -9.689  1.00  0.00     0.009 A 
ATOM     66  C   UNL     1      11.392   4.255 -12.106  1.00  0.00     0.001 A 
ATOM     67  C   UNL     1      13.379   4.093 -10.742  1.00  0.00     0.001 A 
ATOM     68  C   UNL     1      12.717   3.853 -11.946  1.00  0.00     0.000 A 
ENDBRANCH  49  63
BRANCH  50  69
ATOM     69  C   UNL     1       6.485   9.220  -2.143  1.00  0.00    -0.014 A 
ATOM     70  C   UNL     1       5.611  10.299  -2.350  1.00  0.00     0.009 A 
ATOM     71  C   UNL     1       6.697   8.761  -0.834  1.00  0.00     0.009 A 
ATOM     72  C   UNL     1       4.992  10.928  -1.267  1.00  0.00     0.001 A 
ATOM     73  C   UNL     1       6.055   9.374   0.244  1.00  0.00     0.001 A 
ATOM     74  C   UNL     1       5.213  10.464   0.028  1.00  0.00     0.000 A 
ENDBRANCH  50  69
BRANCH  62  75
ATOM     75  C   UNL     1      11.486  11.470  -6.415  1.00  0.00    -0.014 A 
ATOM     76  C   UNL     1      12.470  11.838  -5.486  1.00  0.00     0.009 A 
ATOM     77  C   UNL     1      11.204  12.327  -7.490  1.00  0.00     0.009 A 
ATOM     78  C   UNL     1      13.138  13.056  -5.615  1.00  0.00     0.001 A 
ATOM     79  C   UNL     1      11.892  13.532  -7.631  1.00  0.00     0.001 A 
ATOM     80  C   UNL     1      12.852  13.899  -6.690  1.00  0.00     0.000 A 
ENDBRANCH  62  75
ENDBRANCH  36  37
ENDBRANCH  28  31
ENDBRANCH  26  27
ENDBRANCH  25  26
ENDBRANCH  24  25
ENDBRANCH   1  24
TORSDOF 17
