REMARK SMILES Cc1cc(N2N=C(C(=O)NCCCCNC(=O)c3ccc(-c4c5nc(c(-c6ccccc6)c6ccc([nH]6)c(-c6ccccc6)c6nc(c(-c7ccccc7)c7ccc4[nH]7)C=C6)C=C5)cc3)C[C@H]2c2ccccc2)c([N+](=O)[O-])cc1C
REMARK SMILES IDX 12 1 11 2 10 3 8 4 9 5 7 7 5 8 6 9 67 10 66 11 4 12 1 13
REMARK SMILES IDX 2 14 3 15 79 16 78 17 80 18 74 19 75 20 76 21 77 22 68 23
REMARK SMILES IDX 69 24 73 25 70 26 72 27 71 28 13 29 14 30 15 31 16 32 17 34
REMARK SMILES IDX 18 35 19 36 65 37 20 38 64 39 21 40 22 41 23 42 58 43 24 44
REMARK SMILES IDX 63 45 57 46 59 47 25 48 62 49 56 50 55 51 26 53 48 54 33 55
REMARK SMILES IDX 47 56 34 57 37 58 46 59 60 60 35 61 36 62 45 64 61 65 38 66
REMARK SMILES IDX 27 67 28 68 32 69 29 70 31 71 30 72 49 73 50 74 54 75 51 76
REMARK SMILES IDX 53 77 52 78 39 79 40 80 44 81 41 82 43 83 42 84
REMARK H PARENT 10 6 15 33 59 52 37 63
REMARK Flexibility Score: inf
ROOT
ATOM      1  C   UNL     1      -8.775   2.935  -0.867  1.00  0.00     0.023 C 
ENDROOT
BRANCH   1   2
ATOM      2  C   UNL     1      -7.630   3.520  -0.048  1.00  0.00     0.116 C 
BRANCH   2   3
ATOM      3  N   UNL     1      -7.285   2.674   1.074  1.00  0.00    -0.351 N 
ATOM      4  C   UNL     1      -6.164   1.970   1.437  1.00  0.00     0.267 C 
ATOM      5  O   UNL     1      -6.227   1.315   2.475  1.00  0.00    -0.268 OA
ATOM      6  H   UNL     1      -8.019   2.582   1.722  1.00  0.00     0.163 HD
BRANCH   4   7
ATOM      7  C   UNL     1      -4.849   1.986   0.669  1.00  0.00     0.128 C 
ATOM      8  N   UNL     1      -2.757   1.699   0.313  1.00  0.00    -0.250 N 
ATOM      9  N   UNL     1      -3.768   1.492   1.199  1.00  0.00    -0.171 NA
ATOM     10  C   UNL     1      -3.195   2.318  -0.942  1.00  0.00     0.144 C 
ATOM     11  C   UNL     1      -4.700   2.487  -0.729  1.00  0.00     0.096 C 
BRANCH   8  12
ATOM     12  C   UNL     1      -1.670   0.824   0.287  1.00  0.00     0.138 A 
ATOM     13  C   UNL     1       2.112   1.333   0.291  1.00  0.00     0.045 C 
ATOM     14  C   UNL     1       0.790   0.616   0.256  1.00  0.00    -0.046 A 
ATOM     15  C   UNL     1      -0.384   1.381   0.378  1.00  0.00     0.039 A 
ATOM     16  C   UNL     1       0.688  -0.775   0.095  1.00  0.00    -0.041 A 
ATOM     17  C   UNL     1      -0.589  -1.361   0.047  1.00  0.00     0.091 A 
ATOM     18  C   UNL     1       1.885  -1.678  -0.022  1.00  0.00     0.045 C 
ATOM     19  C   UNL     1      -1.745  -0.564   0.132  1.00  0.00     0.294 A 
BRANCH  19  20
ATOM     20  N   UNL     1      -3.025  -1.233  -0.051  1.00  0.00     0.065 N 
ATOM     21  O   UNL     1      -3.223  -2.268   0.604  1.00  0.00    -0.258 OA
ATOM     22  O   UNL     1      -3.784  -0.798  -0.934  1.00  0.00    -0.258 OA
ENDBRANCH  19  20
ENDBRANCH   8  12
BRANCH  10  23
ATOM     23  C   UNL     1      -2.427   3.606  -1.222  1.00  0.00    -0.023 A 
ATOM     24  C   UNL     1      -2.798   4.859  -0.705  1.00  0.00     0.006 A 
ATOM     25  C   UNL     1      -1.258   3.538  -2.003  1.00  0.00     0.006 A 
ATOM     26  C   UNL     1      -2.057   6.006  -0.999  1.00  0.00     0.000 A 
ATOM     27  C   UNL     1      -0.495   4.678  -2.261  1.00  0.00     0.000 A 
ATOM     28  C   UNL     1      -0.903   5.915  -1.771  1.00  0.00     0.000 A 
ENDBRANCH  10  23
ENDBRANCH   4   7
ENDBRANCH   2   3
ENDBRANCH   1   2
BRANCH   1  29
ATOM     29  C   UNL     1     -10.155   3.121  -0.241  1.00  0.00     0.023 C 
BRANCH  29  30
ATOM     30  C   UNL     1     -10.524   4.561   0.103  1.00  0.00     0.116 C 
BRANCH  30  31
ATOM     31  N   UNL     1     -10.369   5.487  -1.011  1.00  0.00    -0.352 N 
ATOM     32  C   UNL     1     -11.191   6.521  -1.387  1.00  0.00     0.251 C 
ATOM     33  H   UNL     1      -9.568   5.354  -1.568  1.00  0.00     0.163 HD
ATOM     34  O   UNL     1     -10.966   7.159  -2.411  1.00  0.00    -0.269 OA
BRANCH  32  35
ATOM     35  C   UNL     1     -12.376   6.828  -0.565  1.00  0.00     0.039 A 
ATOM     36  C   UNL     1     -13.625   6.905  -1.184  1.00  0.00     0.014 A 
ATOM     37  C   UNL     1     -12.257   6.970   0.820  1.00  0.00     0.014 A 
ATOM     38  C   UNL     1     -14.771   7.047  -0.401  1.00  0.00     0.010 A 
ATOM     39  C   UNL     1     -13.403   7.034   1.602  1.00  0.00     0.010 A 
ATOM     40  C   UNL     1     -14.671   7.069   1.000  1.00  0.00    -0.014 A 
BRANCH  40  41
ATOM     41  C   UNL     1     -15.879   7.115   1.857  1.00  0.00     0.031 A 
ATOM     42  C   UNL     1     -16.123   8.295   2.753  1.00  0.00     0.074 A 
ATOM     43  C   UNL     1     -16.710   6.055   1.894  1.00  0.00     0.049 A 
ATOM     44  N   UNL     1     -17.081   8.486   3.624  1.00  0.00    -0.248 NA
ATOM     45  C   UNL     1     -15.143   9.391   2.686  1.00  0.00     0.031 C 
ATOM     46  C   UNL     1     -16.548   4.822   1.121  1.00  0.00     0.029 A 
ATOM     47  N   UNL     1     -17.849   5.840   2.628  1.00  0.00    -0.354 N 
ATOM     48  C   UNL     1     -16.804   9.707   4.225  1.00  0.00     0.074 A 
ATOM     49  C   UNL     1     -15.565  10.189   3.655  1.00  0.00     0.031 C 
ATOM     50  C   UNL     1     -17.561   3.988   1.408  1.00  0.00     0.029 A 
ATOM     51  C   UNL     1     -18.422   4.612   2.408  1.00  0.00     0.049 A 
ATOM     52  H   UNL     1     -18.220   6.504   3.254  1.00  0.00     0.167 HD
ATOM     53  C   UNL     1     -17.525  10.377   5.155  1.00  0.00     0.031 A 
ATOM     54  C   UNL     1     -19.515   4.047   2.954  1.00  0.00     0.031 A 
ATOM     55  C   UNL     1     -18.766   9.906   5.707  1.00  0.00     0.049 A 
ATOM     56  C   UNL     1     -20.313   4.818   3.965  1.00  0.00     0.074 A 
ATOM     57  C   UNL     1     -19.613  10.547   6.594  1.00  0.00     0.029 A 
ATOM     58  N   UNL     1     -19.334   8.673   5.429  1.00  0.00    -0.354 N 
ATOM     59  N   UNL     1     -20.088   6.012   4.457  1.00  0.00    -0.248 NA
ATOM     60  C   UNL     1     -21.525   4.170   4.486  1.00  0.00     0.031 C 
ATOM     61  C   UNL     1     -20.672   9.681   6.888  1.00  0.00     0.029 A 
ATOM     62  C   UNL     1     -20.509   8.522   6.146  1.00  0.00     0.049 A 
ATOM     63  H   UNL     1     -18.958   8.003   4.813  1.00  0.00     0.167 HD
ATOM     64  C   UNL     1     -21.138   6.267   5.329  1.00  0.00     0.074 A 
ATOM     65  C   UNL     1     -22.010   5.111   5.284  1.00  0.00     0.031 C 
ATOM     66  C   UNL     1     -21.361   7.362   6.096  1.00  0.00     0.031 A 
BRANCH  53  67
ATOM     67  C   UNL     1     -16.974  11.690   5.636  1.00  0.00    -0.014 A 
ATOM     68  C   UNL     1     -16.937  12.816   4.798  1.00  0.00     0.009 A 
ATOM     69  C   UNL     1     -16.493  11.805   6.949  1.00  0.00     0.009 A 
ATOM     70  C   UNL     1     -16.388  14.018   5.251  1.00  0.00     0.001 A 
ATOM     71  C   UNL     1     -15.972  13.016   7.409  1.00  0.00     0.001 A 
ATOM     72  C   UNL     1     -15.909  14.117   6.556  1.00  0.00     0.000 A 
ENDBRANCH  53  67
BRANCH  54  73
ATOM     73  C   UNL     1     -19.925   2.682   2.537  1.00  0.00    -0.014 A 
ATOM     74  C   UNL     1     -21.047   2.495   1.714  1.00  0.00     0.009 A 
ATOM     75  C   UNL     1     -19.189   1.560   2.947  1.00  0.00     0.009 A 
ATOM     76  C   UNL     1     -21.433   1.210   1.327  1.00  0.00     0.001 A 
ATOM     77  C   UNL     1     -19.562   0.278   2.537  1.00  0.00     0.001 A 
ATOM     78  C   UNL     1     -20.688   0.104   1.733  1.00  0.00     0.000 A 
ENDBRANCH  54  73
BRANCH  66  79
ATOM     79  C   UNL     1     -22.608   7.370   6.933  1.00  0.00    -0.014 A 
ATOM     80  C   UNL     1     -22.714   6.577   8.086  1.00  0.00     0.009 A 
ATOM     81  C   UNL     1     -23.673   8.215   6.586  1.00  0.00     0.009 A 
ATOM     82  C   UNL     1     -23.876   6.610   8.859  1.00  0.00     0.001 A 
ATOM     83  C   UNL     1     -24.823   8.265   7.375  1.00  0.00     0.001 A 
ATOM     84  C   UNL     1     -24.927   7.457   8.505  1.00  0.00     0.000 A 
ENDBRANCH  66  79
ENDBRANCH  40  41
ENDBRANCH  32  35
ENDBRANCH  30  31
ENDBRANCH  29  30
ENDBRANCH   1  29
TORSDOF 14
