REMARK SMILES C[C@@H]1CC[C@@](C(=O)NCCCCNC(=O)c2ccc(-c3c4nc(c(-c5ccccc5)c5ccc([nH]5)c(-c5ccccc5)c5nc(c(-c6ccccc6)c6ccc3[nH]6)C=C5)C=C4)cc2)([C@@H]2CCC[C@H](S(C)(=O)=O)C2)C1
REMARK SMILES IDX 10 1 9 2 8 3 6 4 7 5 5 7 1 8 2 9 3 10 74 11 4 12 64 13 65 14
REMARK SMILES IDX 73 15 66 16 68 17 67 18 69 19 70 20 71 21 72 22 11 23 12 24
REMARK SMILES IDX 13 25 14 26 15 28 16 29 17 30 63 31 18 32 62 33 19 34 20 35
REMARK SMILES IDX 21 36 56 37 22 38 61 39 55 40 57 41 23 42 60 43 54 44 53 45
REMARK SMILES IDX 24 47 46 48 31 49 45 50 32 51 35 52 44 53 58 54 33 55 34 56
REMARK SMILES IDX 43 58 59 59 36 60 25 61 26 62 30 63 27 64 29 65 28 66 47 67
REMARK SMILES IDX 48 68 52 69 49 70 51 71 50 72 37 73 38 74 42 75 39 76 41 77
REMARK SMILES IDX 40 78
REMARK H PARENT 8 6 13 27 57 46 35 57
REMARK Flexibility Score: inf
ROOT
ATOM      1  C   UNL     1       1.037  -1.408  -3.386  1.00  0.00     0.023 C 
ENDROOT
BRANCH   1   2
ATOM      2  C   UNL     1       1.043  -0.295  -2.345  1.00  0.00     0.116 C 
BRANCH   2   3
ATOM      3  N   UNL     1      -0.020   0.667  -2.538  1.00  0.00    -0.356 N 
ATOM      4  C   UNL     1      -0.959   1.186  -1.705  1.00  0.00     0.226 C 
ATOM      5  O   UNL     1      -1.557   2.172  -2.153  1.00  0.00    -0.274 OA
ATOM      6  H   UNL     1      -0.073   1.016  -3.457  1.00  0.00     0.163 HD
BRANCH   4   7
ATOM      7  C   UNL     1      -1.220   0.697  -0.247  1.00  0.00     0.052 C 
ATOM      8  C   UNL     1       2.180   0.233   0.845  1.00  0.00     0.007 C 
ATOM      9  C   UNL     1       0.710   0.209   1.272  1.00  0.00    -0.013 C 
ATOM     10  C   UNL     1      -0.017  -1.099   0.972  1.00  0.00     0.004 C 
ATOM     11  C   UNL     1      -0.110   1.331   0.634  1.00  0.00     0.020 C 
ATOM     12  C   UNL     1      -1.117  -0.827  -0.051  1.00  0.00     0.017 C 
BRANCH   7  13
ATOM     13  C   UNL     1      -2.660   1.212   0.195  1.00  0.00     0.006 C 
ATOM     14  C   UNL     1      -3.019   0.904   1.670  1.00  0.00     0.005 C 
ATOM     15  C   UNL     1      -3.787   0.666  -0.724  1.00  0.00     0.024 C 
ATOM     16  C   UNL     1      -4.401   1.435   2.046  1.00  0.00     0.002 C 
ATOM     17  C   UNL     1      -5.176   1.197  -0.338  1.00  0.00     0.108 C 
ATOM     18  C   UNL     1      -5.487   0.892   1.126  1.00  0.00     0.020 C 
BRANCH  17  19
ATOM     19  S   UNL     1      -6.419   0.501  -1.450  1.00  0.00     0.150 S 
ATOM     20  C   UNL     1      -7.960   1.192  -0.896  1.00  0.00     0.158 C 
ATOM     21  O   UNL     1      -6.178   1.033  -2.779  1.00  0.00    -0.229 OA
ATOM     22  O   UNL     1      -6.483  -0.932  -1.233  1.00  0.00    -0.229 OA
ENDBRANCH  17  19
ENDBRANCH   7  13
ENDBRANCH   4   7
ENDBRANCH   2   3
ENDBRANCH   1   2
BRANCH   1  23
ATOM     23  C   UNL     1       1.556  -0.997  -4.762  1.00  0.00     0.023 C 
BRANCH  23  24
ATOM     24  C   UNL     1       2.908  -0.290  -4.773  1.00  0.00     0.116 C 
BRANCH  24  25
ATOM     25  N   UNL     1       3.961  -1.007  -4.061  1.00  0.00    -0.352 N 
ATOM     26  C   UNL     1       5.279  -1.168  -4.420  1.00  0.00     0.251 C 
ATOM     27  H   UNL     1       3.693  -1.432  -3.215  1.00  0.00     0.163 HD
ATOM     28  O   UNL     1       6.043  -1.842  -3.740  1.00  0.00    -0.269 OA
BRANCH  26  29
ATOM     29  C   UNL     1       5.744  -0.555  -5.678  1.00  0.00     0.039 A 
ATOM     30  C   UNL     1       6.278  -1.380  -6.670  1.00  0.00     0.014 A 
ATOM     31  C   UNL     1       5.534   0.806  -5.912  1.00  0.00     0.014 A 
ATOM     32  C   UNL     1       6.502  -0.858  -7.944  1.00  0.00     0.010 A 
ATOM     33  C   UNL     1       5.694   1.306  -7.199  1.00  0.00     0.010 A 
ATOM     34  C   UNL     1       6.155   0.472  -8.231  1.00  0.00    -0.014 A 
BRANCH  34  35
ATOM     35  C   UNL     1       6.210   1.005  -9.614  1.00  0.00     0.031 A 
ATOM     36  C   UNL     1       7.131   2.143  -9.945  1.00  0.00     0.074 A 
ATOM     37  C   UNL     1       5.349   0.541 -10.541  1.00  0.00     0.049 A 
ATOM     38  N   UNL     1       7.224   2.832 -11.054  1.00  0.00    -0.248 NA
ATOM     39  C   UNL     1       8.043   2.586  -8.879  1.00  0.00     0.031 C 
ATOM     40  C   UNL     1       4.364  -0.524 -10.331  1.00  0.00     0.029 A 
ATOM     41  N   UNL     1       5.151   0.923 -11.844  1.00  0.00    -0.354 N 
ATOM     42  C   UNL     1       8.175   3.812 -10.806  1.00  0.00     0.074 A 
ATOM     43  C   UNL     1       8.608   3.647  -9.435  1.00  0.00     0.031 C 
ATOM     44  C   UNL     1       3.679  -0.720 -11.470  1.00  0.00     0.029 A 
ATOM     45  C   UNL     1       4.149   0.227 -12.475  1.00  0.00     0.049 A 
ATOM     46  H   UNL     1       5.677   1.629 -12.284  1.00  0.00     0.167 HD
ATOM     47  C   UNL     1       8.652   4.760 -11.647  1.00  0.00     0.031 A 
ATOM     48  C   UNL     1       3.654   0.345 -13.721  1.00  0.00     0.031 A 
ATOM     49  C   UNL     1       8.247   4.906 -13.018  1.00  0.00     0.049 A 
ATOM     50  C   UNL     1       4.228   1.378 -14.648  1.00  0.00     0.074 A 
ATOM     51  C   UNL     1       8.728   5.789 -13.969  1.00  0.00     0.029 A 
ATOM     52  N   UNL     1       7.266   4.146 -13.634  1.00  0.00    -0.354 N 
ATOM     53  N   UNL     1       5.172   2.258 -14.417  1.00  0.00    -0.248 NA
ATOM     54  C   UNL     1       3.673   1.428 -16.008  1.00  0.00     0.031 C 
ATOM     55  C   UNL     1       8.017   5.581 -15.156  1.00  0.00     0.029 A 
ATOM     56  C   UNL     1       7.119   4.546 -14.951  1.00  0.00     0.049 A 
ATOM     57  H   UNL     1       6.751   3.429 -13.200  1.00  0.00     0.167 HD
ATOM     58  C   UNL     1       5.340   2.950 -15.608  1.00  0.00     0.074 A 
ATOM     59  C   UNL     1       4.409   2.382 -16.562  1.00  0.00     0.031 C 
ATOM     60  C   UNL     1       6.192   3.966 -15.886  1.00  0.00     0.031 A 
BRANCH  47  61
ATOM     61  C   UNL     1       9.668   5.717 -11.094  1.00  0.00    -0.014 A 
ATOM     62  C   UNL     1      10.984   5.306 -10.831  1.00  0.00     0.009 A 
ATOM     63  C   UNL     1       9.307   7.050 -10.847  1.00  0.00     0.009 A 
ATOM     64  C   UNL     1      11.909   6.204 -10.296  1.00  0.00     0.001 A 
ATOM     65  C   UNL     1      10.241   7.952 -10.335  1.00  0.00     0.001 A 
ATOM     66  C   UNL     1      11.538   7.526 -10.051  1.00  0.00     0.000 A 
ENDBRANCH  47  61
BRANCH  48  67
ATOM     67  C   UNL     1       2.564  -0.555 -14.175  1.00  0.00    -0.014 A 
ATOM     68  C   UNL     1       2.841  -1.611 -15.056  1.00  0.00     0.009 A 
ATOM     69  C   UNL     1       1.247  -0.365 -13.730  1.00  0.00     0.009 A 
ATOM     70  C   UNL     1       1.815  -2.448 -15.499  1.00  0.00     0.001 A 
ATOM     71  C   UNL     1       0.228  -1.218 -14.159  1.00  0.00     0.001 A 
ATOM     72  C   UNL     1       0.511  -2.253 -15.048  1.00  0.00     0.000 A 
ENDBRANCH  48  67
BRANCH  60  73
ATOM     73  C   UNL     1       6.181   4.504 -17.286  1.00  0.00    -0.014 A 
ATOM     74  C   UNL     1       5.159   5.356 -17.727  1.00  0.00     0.009 A 
ATOM     75  C   UNL     1       7.234   4.188 -18.159  1.00  0.00     0.009 A 
ATOM     76  C   UNL     1       5.179   5.865 -19.027  1.00  0.00     0.001 A 
ATOM     77  C   UNL     1       7.262   4.715 -19.450  1.00  0.00     0.001 A 
ATOM     78  C   UNL     1       6.232   5.547 -19.886  1.00  0.00     0.000 A 
ENDBRANCH  60  73
ENDBRANCH  34  35
ENDBRANCH  26  29
ENDBRANCH  24  25
ENDBRANCH  23  24
ENDBRANCH   1  23
TORSDOF 13
