REMARK SMILES C[C@H]([NH2+]C1CC1)[C@H](C)C(=O)NCCCCNC(=O)c1ccc(-c2c3nc(c(-c4ccccc4)c4ccc([nH]4)c(-c4ccccc4)c4nc(c(-c5ccccc5)c5ccc2[nH]5)C=C4)C=C3)cc1
REMARK SMILES IDX 13 1 12 2 11 3 9 4 10 5 7 7 8 8 2 9 1 10 3 11 4 14 5 15 6 16
REMARK SMILES IDX 14 17 15 18 16 19 17 20 18 22 19 23 20 24 66 25 21 26 65 27
REMARK SMILES IDX 22 28 23 29 24 30 59 31 25 32 64 33 58 34 60 35 26 36 63 37
REMARK SMILES IDX 57 38 56 39 27 41 49 42 34 43 48 44 35 45 38 46 47 47 61 48
REMARK SMILES IDX 36 49 37 50 46 52 62 53 39 54 28 55 29 56 33 57 30 58 32 59
REMARK SMILES IDX 31 60 50 61 51 62 55 63 52 64 54 65 53 66 40 67 41 68 45 69
REMARK SMILES IDX 42 70 44 71 43 72
REMARK H PARENT 11 6 3 12 3 13 16 21 60 40 38 51
REMARK Flexibility Score: inf
ROOT
ATOM      1  C   UNL     1       1.194   2.119   4.202  1.00  0.00     0.023 C 
ENDROOT
BRANCH   1   2
ATOM      2  C   UNL     1      -0.012   1.365   3.653  1.00  0.00     0.116 C 
BRANCH   2   3
ATOM      3  N   UNL     1      -0.878   2.228   2.869  1.00  0.00    -0.356 N 
ATOM      4  C   UNL     1      -1.299   2.125   1.577  1.00  0.00     0.228 C 
ATOM      5  O   UNL     1      -2.037   3.017   1.149  1.00  0.00    -0.275 OA
ATOM      6  H   UNL     1      -1.217   3.017   3.349  1.00  0.00     0.163 HD
BRANCH   4   7
ATOM      7  C   UNL     1      -0.904   0.945   0.690  1.00  0.00     0.133 C 
ATOM      8  C   UNL     1       0.605   0.986   0.411  1.00  0.00     0.024 C 
BRANCH   7   9
ATOM      9  C   UNL     1      -1.487  -0.390   1.235  1.00  0.00     0.191 C 
ATOM     10  C   UNL     1      -0.932  -1.649   0.561  1.00  0.00     0.076 C 
BRANCH   9  11
ATOM     11  N   UNL     1      -2.953  -0.384   1.356  1.00  0.00    -0.341 N 
ATOM     12  H   UNL     1      -3.205   0.551   1.679  1.00  0.00     0.346 HD
ATOM     13  H   UNL     1      -3.112  -1.190   1.961  1.00  0.00     0.346 HD
BRANCH  11  14
ATOM     14  C   UNL     1      -3.842  -0.676   0.237  1.00  0.00     0.183 C 
ATOM     15  C   UNL     1      -4.179   0.418  -0.742  1.00  0.00     0.071 C 
ATOM     16  C   UNL     1      -3.463  -0.814  -1.205  1.00  0.00     0.071 C 
ENDBRANCH  11  14
ENDBRANCH   9  11
ENDBRANCH   7   9
ENDBRANCH   4   7
ENDBRANCH   2   3
ENDBRANCH   1   2
BRANCH   1  17
ATOM     17  C   UNL     1       0.864   3.165   5.264  1.00  0.00     0.023 C 
BRANCH  17  18
ATOM     18  C   UNL     1       0.052   2.651   6.449  1.00  0.00     0.116 C 
BRANCH  18  19
ATOM     19  N   UNL     1       0.671   1.515   7.112  1.00  0.00    -0.352 N 
ATOM     20  C   UNL     1       0.918   1.302   8.445  1.00  0.00     0.251 C 
ATOM     21  H   UNL     1       0.958   0.788   6.513  1.00  0.00     0.163 HD
ATOM     22  O   UNL     1       1.587   0.336   8.794  1.00  0.00    -0.269 OA
BRANCH  20  23
ATOM     23  C   UNL     1       0.407   2.251   9.458  1.00  0.00     0.039 A 
ATOM     24  C   UNL     1       1.246   2.612  10.514  1.00  0.00     0.014 A 
ATOM     25  C   UNL     1      -0.884   2.780   9.377  1.00  0.00     0.014 A 
ATOM     26  C   UNL     1       0.811   3.549  11.451  1.00  0.00     0.010 A 
ATOM     27  C   UNL     1      -1.281   3.782  10.259  1.00  0.00     0.010 A 
ATOM     28  C   UNL     1      -0.441   4.171  11.311  1.00  0.00    -0.014 A 
BRANCH  28  29
ATOM     29  C   UNL     1      -0.855   5.241  12.254  1.00  0.00     0.031 A 
ATOM     30  C   UNL     1      -2.048   5.063  13.151  1.00  0.00     0.074 A 
ATOM     31  C   UNL     1      -0.154   6.392  12.289  1.00  0.00     0.049 A 
ATOM     32  N   UNL     1      -2.500   5.859  14.088  1.00  0.00    -0.248 NA
ATOM     33  C   UNL     1      -2.855   3.847  12.960  1.00  0.00     0.031 C 
ATOM     34  C   UNL     1       0.982   6.717  11.422  1.00  0.00     0.029 A 
ATOM     35  N   UNL     1      -0.283   7.495  13.094  1.00  0.00    -0.354 N 
ATOM     36  C   UNL     1      -3.641   5.246  14.590  1.00  0.00     0.074 A 
ATOM     37  C   UNL     1      -3.848   4.043  13.815  1.00  0.00     0.031 C 
ATOM     38  C   UNL     1       1.479   7.912  11.780  1.00  0.00     0.029 A 
ATOM     39  C   UNL     1       0.678   8.452  12.872  1.00  0.00     0.049 A 
ATOM     40  H   UNL     1      -0.996   7.592  13.765  1.00  0.00     0.167 HD
ATOM     41  C   UNL     1      -4.433   5.635  15.618  1.00  0.00     0.031 A 
ATOM     42  C   UNL     1       0.899   9.628  13.487  1.00  0.00     0.031 A 
ATOM     43  C   UNL     1      -4.228   6.835  16.386  1.00  0.00     0.049 A 
ATOM     44  C   UNL     1       0.015  10.031  14.633  1.00  0.00     0.074 A 
ATOM     45  C   UNL     1      -4.939   7.289  17.484  1.00  0.00     0.029 A 
ATOM     46  N   UNL     1      -3.244   7.778  16.131  1.00  0.00    -0.354 N 
ATOM     47  N   UNL     1      -1.003   9.393  15.158  1.00  0.00    -0.248 NA
ATOM     48  C   UNL     1       0.329  11.309  15.287  1.00  0.00     0.031 C 
ATOM     49  C   UNL     1      -4.423   8.535  17.855  1.00  0.00     0.029 A 
ATOM     50  C   UNL     1      -3.346   8.825  17.033  1.00  0.00     0.049 A 
ATOM     51  H   UNL     1      -2.572   7.714  15.414  1.00  0.00     0.167 HD
ATOM     52  C   UNL     1      -1.434  10.177  16.220  1.00  0.00     0.074 A 
ATOM     53  C   UNL     1      -0.549  11.323  16.279  1.00  0.00     0.031 C 
ATOM     54  C   UNL     1      -2.469   9.967  17.072  1.00  0.00     0.031 A 
BRANCH  41  55
ATOM     55  C   UNL     1      -5.604   4.754  15.962  1.00  0.00    -0.014 A 
ATOM     56  C   UNL     1      -5.420   3.475  16.514  1.00  0.00     0.009 A 
ATOM     57  C   UNL     1      -6.912   5.222  15.764  1.00  0.00     0.009 A 
ATOM     58  C   UNL     1      -6.519   2.670  16.821  1.00  0.00     0.001 A 
ATOM     59  C   UNL     1      -8.010   4.428  16.102  1.00  0.00     0.001 A 
ATOM     60  C   UNL     1      -7.813   3.149  16.620  1.00  0.00     0.000 A 
ENDBRANCH  41  55
BRANCH  42  61
ATOM     61  C   UNL     1       2.028  10.493  13.054  1.00  0.00    -0.014 A 
ATOM     62  C   UNL     1       3.147  10.680  13.880  1.00  0.00     0.009 A 
ATOM     63  C   UNL     1       1.991  11.140  11.808  1.00  0.00     0.009 A 
ATOM     64  C   UNL     1       4.190  11.519  13.482  1.00  0.00     0.001 A 
ATOM     65  C   UNL     1       3.050  11.952  11.398  1.00  0.00     0.001 A 
ATOM     66  C   UNL     1       4.144  12.149  12.240  1.00  0.00     0.000 A 
ENDBRANCH  42  61
BRANCH  54  67
ATOM     67  C   UNL     1      -2.671  10.986  18.160  1.00  0.00    -0.014 A 
ATOM     68  C   UNL     1      -3.102  12.292  17.875  1.00  0.00     0.009 A 
ATOM     69  C   UNL     1      -2.428  10.629  19.496  1.00  0.00     0.009 A 
ATOM     70  C   UNL     1      -3.228  13.233  18.899  1.00  0.00     0.001 A 
ATOM     71  C   UNL     1      -2.592  11.561  20.521  1.00  0.00     0.001 A 
ATOM     72  C   UNL     1      -2.976  12.867  20.220  1.00  0.00     0.000 A 
ENDBRANCH  54  67
ENDBRANCH  28  29
ENDBRANCH  20  23
ENDBRANCH  18  19
ENDBRANCH  17  18
ENDBRANCH   1  17
TORSDOF 14
