REMARK SMILES Cc1n[nH]c(S[C@H]2CC[C@]([NH3+])(C(=O)NCCCCNC(=O)c3ccc(-c4c5nc(c(-c6ccccc6)c6ccc([nH]6)c(-c6ccccc6)c6nc(c(-c7ccccc7)c7ccc4[nH]7)C=C6)C=C5)cc3)C2)n1
REMARK SMILES IDX 16 1 15 2 14 3 12 4 13 5 10 7 7 8 8 9 70 10 9 11 6 12 5 13
REMARK SMILES IDX 1 14 2 15 3 16 71 17 4 18 11 20 17 24 18 25 19 26 20 27
REMARK SMILES IDX 21 29 22 30 23 31 69 32 24 33 68 34 25 35 26 36 27 37 62 38
REMARK SMILES IDX 28 39 67 40 61 41 63 42 29 43 66 44 60 45 59 46 30 48 52 49
REMARK SMILES IDX 37 50 51 51 38 52 41 53 50 54 64 55 39 56 40 57 49 59 65 60
REMARK SMILES IDX 42 61 31 62 32 63 36 64 33 65 35 66 34 67 53 68 54 69 58 70
REMARK SMILES IDX 55 71 57 72 56 73 43 74 44 75 48 76 45 77 47 78 46 79
REMARK H PARENT 14 6 4 19 11 21 11 22 11 23 19 28 63 47 41 58
REMARK Flexibility Score: inf
ROOT
ATOM      1  C   UNL     1      -4.687   2.365   8.979  1.00  0.00     0.023 C 
ENDROOT
BRANCH   1   2
ATOM      2  C   UNL     1      -3.832   1.094   9.064  1.00  0.00     0.116 C 
BRANCH   2   3
ATOM      3  N   UNL     1      -3.692   0.421   7.791  1.00  0.00    -0.351 N 
ATOM      4  C   UNL     1      -2.873   0.628   6.724  1.00  0.00     0.281 C 
ATOM      5  O   UNL     1      -3.043  -0.148   5.774  1.00  0.00    -0.268 OA
ATOM      6  H   UNL     1      -4.312  -0.335   7.673  1.00  0.00     0.163 HD
BRANCH   4   7
ATOM      7  C   UNL     1      -1.739   1.687   6.674  1.00  0.00     0.175 C 
ATOM      8  C   UNL     1      -0.199   2.912   5.222  1.00  0.00     0.062 C 
ATOM      9  C   UNL     1       0.618   2.048   6.207  1.00  0.00     0.022 C 
ATOM     10  C   UNL     1      -1.597   2.266   5.250  1.00  0.00     0.094 C 
ATOM     11  C   UNL     1      -0.360   1.050   6.850  1.00  0.00     0.080 C 
BRANCH   8  12
ATOM     12  S   UNL     1      -0.381   4.701   5.582  1.00  0.00    -0.083 SA
BRANCH  12  13
ATOM     13  C   UNL     1       1.132   5.268   6.156  1.00  0.00     0.183 A 
ATOM     14  C   UNL     1       3.355   7.499   7.729  1.00  0.00     0.092 C 
ATOM     15  C   UNL     1       2.681   6.406   7.000  1.00  0.00     0.148 A 
ATOM     16  N   UNL     1       3.348   5.452   6.334  1.00  0.00    -0.158 NA
ATOM     17  N   UNL     1       1.316   6.316   6.923  1.00  0.00    -0.206 NA
ATOM     18  N   UNL     1       2.334   4.756   5.789  1.00  0.00    -0.254 N 
ATOM     19  H   UNL     1       2.449   3.975   5.200  1.00  0.00     0.192 HD
ENDBRANCH  12  13
ENDBRANCH   8  12
BRANCH   7  20
ATOM     20  N   UNL     1      -1.845   2.798   7.617  1.00  0.00    -0.345 N 
ATOM     21  H   UNL     1      -1.050   3.426   7.494  1.00  0.00     0.345 HD
ATOM     22  H   UNL     1      -1.847   2.436   8.570  1.00  0.00     0.345 HD
ATOM     23  H   UNL     1      -2.711   3.308   7.445  1.00  0.00     0.345 HD
ENDBRANCH   7  20
ENDBRANCH   4   7
ENDBRANCH   2   3
ENDBRANCH   1   2
BRANCH   1  24
ATOM     24  C   UNL     1      -6.206   2.167   8.935  1.00  0.00     0.023 C 
BRANCH  24  25
ATOM     25  C   UNL     1      -6.822   1.580  10.195  1.00  0.00     0.116 C 
BRANCH  25  26
ATOM     26  N   UNL     1      -6.548   2.370  11.404  1.00  0.00    -0.352 N 
ATOM     27  C   UNL     1      -6.714   2.009  12.737  1.00  0.00     0.251 C 
ATOM     28  H   UNL     1      -6.199   3.277  11.249  1.00  0.00     0.163 HD
ATOM     29  O   UNL     1      -6.826   2.844  13.617  1.00  0.00    -0.269 OA
BRANCH  27  30
ATOM     30  C   UNL     1      -6.706   0.573  13.065  1.00  0.00     0.039 A 
ATOM     31  C   UNL     1      -7.543  -0.021  14.013  1.00  0.00     0.014 A 
ATOM     32  C   UNL     1      -5.840  -0.196  12.306  1.00  0.00     0.014 A 
ATOM     33  C   UNL     1      -7.510  -1.410  14.142  1.00  0.00     0.010 A 
ATOM     34  C   UNL     1      -6.069  -1.528  12.195  1.00  0.00     0.010 A 
ATOM     35  C   UNL     1      -6.758  -2.149  13.219  1.00  0.00    -0.014 A 
BRANCH  35  36
ATOM     36  C   UNL     1      -6.662  -3.595  13.210  1.00  0.00     0.031 A 
ATOM     37  C   UNL     1      -7.934  -4.284  12.907  1.00  0.00     0.074 A 
ATOM     38  C   UNL     1      -5.462  -4.219  13.164  1.00  0.00     0.049 A 
ATOM     39  N   UNL     1      -8.648  -4.987  13.716  1.00  0.00    -0.248 NA
ATOM     40  C   UNL     1      -8.572  -4.035  11.603  1.00  0.00     0.031 C 
ATOM     41  C   UNL     1      -4.114  -3.631  13.077  1.00  0.00     0.029 A 
ATOM     42  N   UNL     1      -5.203  -5.545  13.050  1.00  0.00    -0.354 N 
ATOM     43  C   UNL     1      -9.727  -5.445  12.970  1.00  0.00     0.074 A 
ATOM     44  C   UNL     1      -9.739  -4.661  11.762  1.00  0.00     0.031 C 
ATOM     45  C   UNL     1      -3.228  -4.579  12.692  1.00  0.00     0.029 A 
ATOM     46  C   UNL     1      -3.905  -5.861  12.665  1.00  0.00     0.049 A 
ATOM     47  H   UNL     1      -5.885  -6.233  13.226  1.00  0.00     0.167 HD
ATOM     48  C   UNL     1     -10.360  -6.607  13.291  1.00  0.00     0.031 A 
ATOM     49  C   UNL     1      -3.447  -7.091  12.316  1.00  0.00     0.031 A 
ATOM     50  C   UNL     1      -9.943  -7.087  14.587  1.00  0.00     0.049 A 
ATOM     51  C   UNL     1      -4.413  -8.079  12.858  1.00  0.00     0.074 A 
ATOM     52  C   UNL     1     -10.003  -6.582  15.871  1.00  0.00     0.029 A 
ATOM     53  N   UNL     1      -8.961  -8.052  14.605  1.00  0.00    -0.354 N 
ATOM     54  N   UNL     1      -4.601  -8.263  14.134  1.00  0.00    -0.248 NA
ATOM     55  C   UNL     1      -5.515  -8.490  12.000  1.00  0.00     0.031 C 
ATOM     56  C   UNL     1      -8.741  -6.909  16.450  1.00  0.00     0.029 A 
ATOM     57  C   UNL     1      -8.020  -7.674  15.530  1.00  0.00     0.049 A 
ATOM     58  H   UNL     1      -8.938  -8.867  14.054  1.00  0.00     0.167 HD
ATOM     59  C   UNL     1      -5.978  -8.376  14.276  1.00  0.00     0.074 A 
ATOM     60  C   UNL     1      -6.480  -8.602  12.919  1.00  0.00     0.031 C 
ATOM     61  C   UNL     1      -6.607  -7.973  15.421  1.00  0.00     0.031 A 
BRANCH  48  62
ATOM     62  C   UNL     1     -11.025  -7.514  12.288  1.00  0.00    -0.014 A 
ATOM     63  C   UNL     1     -11.666  -8.674  12.760  1.00  0.00     0.009 A 
ATOM     64  C   UNL     1     -10.833  -7.423  10.897  1.00  0.00     0.009 A 
ATOM     65  C   UNL     1     -12.019  -9.716  11.895  1.00  0.00     0.001 A 
ATOM     66  C   UNL     1     -11.221  -8.443  10.025  1.00  0.00     0.001 A 
ATOM     67  C   UNL     1     -11.788  -9.604  10.529  1.00  0.00     0.000 A 
ENDBRANCH  48  62
BRANCH  49  68
ATOM     68  C   UNL     1      -2.438  -7.449  11.291  1.00  0.00    -0.014 A 
ATOM     69  C   UNL     1      -1.902  -8.747  11.227  1.00  0.00     0.009 A 
ATOM     70  C   UNL     1      -2.211  -6.600  10.192  1.00  0.00     0.009 A 
ATOM     71  C   UNL     1      -1.211  -9.190  10.088  1.00  0.00     0.001 A 
ATOM     72  C   UNL     1      -1.520  -7.041   9.057  1.00  0.00     0.001 A 
ATOM     73  C   UNL     1      -1.035  -8.342   8.997  1.00  0.00     0.000 A 
ENDBRANCH  49  68
BRANCH  61  74
ATOM     74  C   UNL     1      -5.745  -7.572  16.599  1.00  0.00    -0.014 A 
ATOM     75  C   UNL     1      -4.839  -6.496  16.567  1.00  0.00     0.009 A 
ATOM     76  C   UNL     1      -5.980  -8.197  17.832  1.00  0.00     0.009 A 
ATOM     77  C   UNL     1      -4.172  -6.078  17.725  1.00  0.00     0.001 A 
ATOM     78  C   UNL     1      -5.330  -7.767  18.992  1.00  0.00     0.001 A 
ATOM     79  C   UNL     1      -4.423  -6.712  18.939  1.00  0.00     0.000 A 
ENDBRANCH  61  74
ENDBRANCH  35  36
ENDBRANCH  27  30
ENDBRANCH  25  26
ENDBRANCH  24  25
ENDBRANCH   1  24
TORSDOF 14
