REMARK SMILES CN(C)S(=O)(=O)c1ccc(-n2c(CCC(=O)NCCCCNC(=O)c3ccc(-c4c5nc(c(-c6ccccc6)c6ccc([nH]6)c(-c6ccccc6)c6nc(c(-c7ccccc7)c7ccc4[nH]7)C=C6)C=C5)cc3)ccc2-c2ccc(F)cc2)cc1
REMARK SMILES IDX 18 1 17 2 15 3 16 4 14 6 13 7 12 8 11 9 75 10 73 11 74 12
REMARK SMILES IDX 10 13 7 14 8 15 84 16 9 17 83 18 4 19 5 20 6 21 2 22 1 23
REMARK SMILES IDX 3 24 76 25 77 26 82 27 78 28 81 29 79 30 80 31 19 32 20 33
REMARK SMILES IDX 21 34 22 35 23 36 24 38 25 39 26 40 72 41 27 42 71 43 28 44
REMARK SMILES IDX 29 45 30 46 65 47 31 48 70 49 64 50 66 51 32 52 69 53 63 54
REMARK SMILES IDX 62 55 33 57 55 58 40 59 54 60 41 61 44 62 53 63 67 64 42 65
REMARK SMILES IDX 43 66 52 68 68 69 45 70 34 71 35 72 39 73 36 74 38 75 37 76
REMARK SMILES IDX 56 77 57 78 61 79 58 80 60 81 59 82 46 83 47 84 51 85 48 86
REMARK SMILES IDX 50 87 49 88
REMARK H PARENT 17 5 22 37 66 56 44 67
REMARK Flexibility Score: inf
ROOT
ATOM      1  C   UNL     1      -1.541  -5.864   6.702  1.00  0.00     0.116 C 
ENDROOT
BRANCH   1   2
ATOM      2  N   UNL     1      -0.251  -6.154   6.106  1.00  0.00    -0.356 N 
ATOM      3  C   UNL     1       0.994  -5.962   6.639  1.00  0.00     0.220 C 
ATOM      4  O   UNL     1       1.970  -6.134   5.907  1.00  0.00    -0.275 OA
ATOM      5  H   UNL     1      -0.274  -6.539   5.201  1.00  0.00     0.163 HD
BRANCH   3   6
ATOM      6  C   UNL     1       1.167  -5.537   8.092  1.00  0.00     0.106 C 
BRANCH   6   7
ATOM      7  C   UNL     1       1.766  -4.130   8.325  1.00  0.00     0.064 C 
BRANCH   7   8
ATOM      8  C   UNL     1       0.736  -3.044   8.602  1.00  0.00     0.024 A 
ATOM      9  N   UNL     1       0.327  -1.949   7.785  1.00  0.00    -0.314 N 
ATOM     10  C   UNL     1      -0.662  -1.243   8.526  1.00  0.00     0.053 A 
ATOM     11  C   UNL     1       0.053  -2.964   9.804  1.00  0.00     0.024 A 
ATOM     12  C   UNL     1      -0.794  -1.856   9.762  1.00  0.00     0.029 A 
BRANCH   9  13
ATOM     13  C   UNL     1       0.706  -1.683   6.404  1.00  0.00     0.046 A 
ATOM     14  C   UNL     1       1.128  -1.361   3.617  1.00  0.00     0.082 A 
ATOM     15  C   UNL     1       0.678  -0.286   4.381  1.00  0.00     0.024 A 
ATOM     16  C   UNL     1       1.428  -2.563   4.237  1.00  0.00     0.024 A 
ATOM     17  C   UNL     1       0.476  -0.449   5.771  1.00  0.00     0.028 A 
ATOM     18  C   UNL     1       1.226  -2.704   5.605  1.00  0.00     0.028 A 
BRANCH  14  19
ATOM     19  S   UNL     1       1.359  -1.327   1.862  1.00  0.00     0.242 S 
ATOM     20  O   UNL     1       0.716  -2.512   1.326  1.00  0.00    -0.207 OA
ATOM     21  O   UNL     1       2.767  -1.074   1.644  1.00  0.00    -0.207 OA
BRANCH  19  22
ATOM     22  N   UNL     1       0.476   0.011   1.266  1.00  0.00    -0.204 NA
ATOM     23  C   UNL     1       0.904   0.362  -0.116  1.00  0.00     0.124 C 
ATOM     24  C   UNL     1      -0.998  -0.132   1.332  1.00  0.00     0.124 C 
ENDBRANCH  19  22
ENDBRANCH  14  19
ENDBRANCH   9  13
BRANCH  10  25
ATOM     25  C   UNL     1      -1.623  -0.228   8.050  1.00  0.00    -0.001 A 
ATOM     26  C   UNL     1      -1.778   1.004   8.694  1.00  0.00     0.013 A 
ATOM     27  C   UNL     1      -2.531  -0.557   7.040  1.00  0.00     0.013 A 
ATOM     28  C   UNL     1      -2.812   1.875   8.317  1.00  0.00     0.040 A 
ATOM     29  C   UNL     1      -3.575   0.288   6.673  1.00  0.00     0.040 A 
ATOM     30  C   UNL     1      -3.705   1.504   7.317  1.00  0.00     0.123 A 
ATOM     31  F   UNL     1      -4.707   2.325   6.975  1.00  0.00    -0.207 F 
ENDBRANCH  10  25
ENDBRANCH   7   8
ENDBRANCH   6   7
ENDBRANCH   3   6
ENDBRANCH   1   2
BRANCH   1  32
ATOM     32  C   UNL     1      -1.798  -4.369   6.674  1.00  0.00     0.023 C 
BRANCH  32  33
ATOM     33  C   UNL     1      -2.425  -3.842   5.387  1.00  0.00     0.023 C 
BRANCH  33  34
ATOM     34  C   UNL     1      -3.939  -3.788   5.469  1.00  0.00     0.116 C 
BRANCH  34  35
ATOM     35  N   UNL     1      -4.489  -3.166   6.684  1.00  0.00    -0.352 N 
ATOM     36  C   UNL     1      -5.802  -2.875   6.973  1.00  0.00     0.251 C 
ATOM     37  H   UNL     1      -3.833  -2.927   7.378  1.00  0.00     0.163 HD
ATOM     38  O   UNL     1      -6.128  -2.226   7.944  1.00  0.00    -0.269 OA
BRANCH  36  39
ATOM     39  C   UNL     1      -6.806  -3.351   6.008  1.00  0.00     0.039 A 
ATOM     40  C   UNL     1      -7.669  -2.435   5.408  1.00  0.00     0.014 A 
ATOM     41  C   UNL     1      -6.719  -4.677   5.586  1.00  0.00     0.014 A 
ATOM     42  C   UNL     1      -8.368  -2.836   4.280  1.00  0.00     0.010 A 
ATOM     43  C   UNL     1      -7.291  -5.027   4.390  1.00  0.00     0.010 A 
ATOM     44  C   UNL     1      -8.133  -4.112   3.749  1.00  0.00    -0.014 A 
BRANCH  44  45
ATOM     45  C   UNL     1      -8.783  -4.531   2.498  1.00  0.00     0.031 A 
ATOM     46  C   UNL     1      -8.268  -3.803   1.266  1.00  0.00     0.074 A 
ATOM     47  C   UNL     1      -9.719  -5.512   2.646  1.00  0.00     0.049 A 
ATOM     48  N   UNL     1      -8.894  -3.516   0.168  1.00  0.00    -0.248 NA
ATOM     49  C   UNL     1      -6.893  -3.240   1.271  1.00  0.00     0.031 C 
ATOM     50  C   UNL     1     -10.081  -6.114   3.950  1.00  0.00     0.029 A 
ATOM     51  N   UNL     1     -10.533  -6.208   1.784  1.00  0.00    -0.354 N 
ATOM     52  C   UNL     1      -7.991  -2.852  -0.686  1.00  0.00     0.074 A 
ATOM     53  C   UNL     1      -6.801  -2.631   0.084  1.00  0.00     0.031 C 
ATOM     54  C   UNL     1     -11.036  -7.045   3.803  1.00  0.00     0.029 A 
ATOM     55  C   UNL     1     -11.416  -7.114   2.411  1.00  0.00     0.049 A 
ATOM     56  H   UNL     1     -10.502  -6.085   0.808  1.00  0.00     0.167 HD
ATOM     57  C   UNL     1      -8.249  -2.634  -2.011  1.00  0.00     0.031 A 
ATOM     58  C   UNL     1     -12.452  -7.824   1.884  1.00  0.00     0.031 A 
ATOM     59  C   UNL     1      -9.543  -3.131  -2.348  1.00  0.00     0.049 A 
ATOM     60  C   UNL     1     -12.504  -7.502   0.450  1.00  0.00     0.074 A 
ATOM     61  C   UNL     1     -10.820  -2.715  -2.072  1.00  0.00     0.029 A 
ATOM     62  N   UNL     1      -9.592  -4.428  -2.799  1.00  0.00    -0.354 N 
ATOM     63  N   UNL     1     -11.666  -7.926  -0.446  1.00  0.00    -0.248 NA
ATOM     64  C   UNL     1     -13.486  -6.512  -0.011  1.00  0.00     0.031 C 
ATOM     65  C   UNL     1     -11.542  -3.923  -1.915  1.00  0.00     0.029 A 
ATOM     66  C   UNL     1     -10.715  -4.999  -2.251  1.00  0.00     0.049 A 
ATOM     67  H   UNL     1      -8.946  -4.865  -3.400  1.00  0.00     0.167 HD
ATOM     68  C   UNL     1     -11.789  -6.983  -1.442  1.00  0.00     0.074 A 
ATOM     69  C   UNL     1     -13.082  -6.362  -1.270  1.00  0.00     0.031 C 
ATOM     70  C   UNL     1     -10.679  -6.418  -1.982  1.00  0.00     0.031 A 
BRANCH  57  71
ATOM     71  C   UNL     1      -7.353  -2.222  -3.149  1.00  0.00    -0.014 A 
ATOM     72  C   UNL     1      -7.973  -1.893  -4.381  1.00  0.00     0.009 A 
ATOM     73  C   UNL     1      -5.967  -2.408  -3.169  1.00  0.00     0.009 A 
ATOM     74  C   UNL     1      -7.267  -1.866  -5.586  1.00  0.00     0.001 A 
ATOM     75  C   UNL     1      -5.249  -2.343  -4.374  1.00  0.00     0.001 A 
ATOM     76  C   UNL     1      -5.902  -2.108  -5.583  1.00  0.00     0.000 A 
ENDBRANCH  57  71
BRANCH  58  77
ATOM     77  C   UNL     1     -13.563  -8.635   2.479  1.00  0.00    -0.014 A 
ATOM     78  C   UNL     1     -13.555  -9.206   3.757  1.00  0.00     0.009 A 
ATOM     79  C   UNL     1     -14.741  -8.841   1.722  1.00  0.00     0.009 A 
ATOM     80  C   UNL     1     -14.696  -9.836   4.286  1.00  0.00     0.001 A 
ATOM     81  C   UNL     1     -15.883  -9.452   2.245  1.00  0.00     0.001 A 
ATOM     82  C   UNL     1     -15.867  -9.934   3.541  1.00  0.00     0.000 A 
ENDBRANCH  58  77
BRANCH  70  83
ATOM     83  C   UNL     1      -9.407  -7.233  -1.816  1.00  0.00    -0.014 A 
ATOM     84  C   UNL     1      -9.316  -8.514  -2.380  1.00  0.00     0.009 A 
ATOM     85  C   UNL     1      -8.335  -6.805  -1.012  1.00  0.00     0.009 A 
ATOM     86  C   UNL     1      -8.214  -9.342  -2.130  1.00  0.00     0.001 A 
ATOM     87  C   UNL     1      -7.227  -7.627  -0.764  1.00  0.00     0.001 A 
ATOM     88  C   UNL     1      -7.171  -8.901  -1.319  1.00  0.00     0.000 A 
ENDBRANCH  70  83
ENDBRANCH  44  45
ENDBRANCH  36  39
ENDBRANCH  34  35
ENDBRANCH  33  34
ENDBRANCH  32  33
ENDBRANCH   1  32
TORSDOF 17
