REMARK SMILES CCCCCCCCNC(=O)Oc1cccc(-c2ccc([C@@H](C)C(=O)NCCCCNC(=O)c3ccc(-c4c5nc(c(-c6ccccc6)c6ccc([nH]6)c(-c6ccccc6)c6nc(c(-c7ccccc7)c7ccc4[nH]7)C=C6)C=C5)cc3)cc2F)c1
REMARK SMILES IDX 18 1 19 2 20 3 21 4 82 5 83 6 84 7 17 8 13 9 14 10 85 11
REMARK SMILES IDX 15 12 16 13 12 14 10 15 9 16 11 18 8 19 7 20 6 21 5 22 4 23
REMARK SMILES IDX 3 24 2 25 1 26 22 27 23 28 24 29 25 30 26 31 27 33 28 34
REMARK SMILES IDX 29 35 30 36 31 37 32 38 33 40 34 41 35 42 81 43 36 44 80 45
REMARK SMILES IDX 37 46 38 47 39 48 74 49 40 50 79 51 73 52 75 53 41 54 78 55
REMARK SMILES IDX 72 56 71 57 42 59 64 60 49 61 63 62 50 63 53 64 62 65 76 66
REMARK SMILES IDX 51 67 52 68 61 70 77 71 54 72 43 73 44 74 48 75 45 76 47 77
REMARK SMILES IDX 46 78 65 79 66 80 70 81 67 82 69 83 68 84 55 85 56 86 60 87
REMARK SMILES IDX 57 88 59 89 58 90
REMARK H PARENT 9 17 26 32 31 39 75 58 53 69
REMARK Flexibility Score: inf
ROOT
ATOM      1  C   UNL     1      -6.083  -1.314 -11.347  1.00  0.00     0.018 A 
ATOM      2  C   UNL     1      -7.119  -1.841 -12.136  1.00  0.00     0.012 A 
ATOM      3  C   UNL     1      -8.148  -1.036 -12.641  1.00  0.00     0.005 A 
ATOM      4  C   UNL     1      -8.233   0.318 -12.309  1.00  0.00    -0.033 A 
ATOM      5  C   UNL     1      -7.186   0.865 -11.555  1.00  0.00     0.044 A 
ATOM      6  C   UNL     1      -6.128   0.068 -11.107  1.00  0.00     0.131 A 
ATOM      7  F   UNL     1      -5.144   0.677 -10.427  1.00  0.00    -0.206 F 
ENDROOT
BRANCH   1   8
ATOM      8  C   UNL     1      -5.036  -2.199 -10.784  1.00  0.00    -0.012 A 
ATOM      9  C   UNL     1      -3.512  -2.823  -8.992  1.00  0.00     0.133 A 
ATOM     10  C   UNL     1      -3.087  -3.947  -9.688  1.00  0.00     0.047 A 
ATOM     11  C   UNL     1      -4.468  -1.954  -9.523  1.00  0.00     0.056 A 
ATOM     12  C   UNL     1      -3.635  -4.213 -10.936  1.00  0.00     0.004 A 
ATOM     13  C   UNL     1      -4.589  -3.344 -11.478  1.00  0.00     0.009 A 
BRANCH   9  14
ATOM     14  O   UNL     1      -2.842  -2.522  -7.799  1.00  0.00    -0.410 OA
BRANCH  14  15
ATOM     15  C   UNL     1      -3.600  -2.336  -6.655  1.00  0.00     0.412 C 
ATOM     16  N   UNL     1      -2.847  -1.935  -5.585  1.00  0.00    -0.321 N 
ATOM     17  H   UNL     1      -3.320  -1.811  -4.731  1.00  0.00     0.167 HD
ATOM     18  O   UNL     1      -4.808  -2.510  -6.550  1.00  0.00    -0.224 OA
BRANCH  16  19
ATOM     19  C   UNL     1      -1.421  -1.676  -5.587  1.00  0.00     0.119 C 
BRANCH  19  20
ATOM     20  C   UNL     1      -1.101  -0.246  -5.154  1.00  0.00     0.021 C 
BRANCH  20  21
ATOM     21  C   UNL     1      -1.509   0.095  -3.716  1.00  0.00     0.002 C 
BRANCH  21  22
ATOM     22  C   UNL     1      -0.925  -0.825  -2.638  1.00  0.00     0.000 C 
BRANCH  22  23
ATOM     23  C   UNL     1       0.606  -0.855  -2.575  1.00  0.00    -0.000 C 
BRANCH  23  24
ATOM     24  C   UNL     1       1.265   0.479  -2.208  1.00  0.00    -0.000 C 
BRANCH  24  25
ATOM     25  C   UNL     1       0.843   1.067  -0.859  1.00  0.00    -0.003 C 
ATOM     26  C   UNL     1       1.161   0.161   0.321  1.00  0.00     0.004 C 
ENDBRANCH  24  25
ENDBRANCH  23  24
ENDBRANCH  22  23
ENDBRANCH  21  22
ENDBRANCH  20  21
ENDBRANCH  19  20
ENDBRANCH  16  19
ENDBRANCH  14  15
ENDBRANCH   9  14
ENDBRANCH   1   8
BRANCH   4  27
ATOM     27  C   UNL     1      -9.417   1.193 -12.687  1.00  0.00     0.105 C 
ATOM     28  C   UNL     1      -9.969   1.000 -14.098  1.00  0.00     0.023 C 
BRANCH  27  29
ATOM     29  C   UNL     1     -10.502   1.258 -11.598  1.00  0.00     0.227 C 
ATOM     30  O   UNL     1     -10.647   2.292 -10.935  1.00  0.00    -0.274 OA
ATOM     31  N   UNL     1     -11.351   0.234 -11.310  1.00  0.00    -0.356 N 
ATOM     32  H   UNL     1     -12.035   0.453 -10.637  1.00  0.00     0.163 HD
BRANCH  31  33
ATOM     33  C   UNL     1     -11.429  -1.120 -11.818  1.00  0.00     0.116 C 
BRANCH  33  34
ATOM     34  C   UNL     1     -10.704  -2.117 -10.912  1.00  0.00     0.023 C 
BRANCH  34  35
ATOM     35  C   UNL     1     -11.545  -2.681  -9.770  1.00  0.00     0.023 C 
BRANCH  35  36
ATOM     36  C   UNL     1     -12.776  -3.471 -10.199  1.00  0.00     0.116 C 
BRANCH  36  37
ATOM     37  N   UNL     1     -12.487  -4.599 -11.074  1.00  0.00    -0.352 N 
ATOM     38  C   UNL     1     -13.159  -5.797 -11.161  1.00  0.00     0.251 C 
ATOM     39  H   UNL     1     -11.716  -4.491 -11.676  1.00  0.00     0.163 HD
ATOM     40  O   UNL     1     -12.758  -6.691 -11.898  1.00  0.00    -0.269 OA
BRANCH  38  41
ATOM     41  C   UNL     1     -14.348  -6.008 -10.311  1.00  0.00     0.039 A 
ATOM     42  C   UNL     1     -14.407  -7.144  -9.502  1.00  0.00     0.014 A 
ATOM     43  C   UNL     1     -15.359  -5.045 -10.258  1.00  0.00     0.014 A 
ATOM     44  C   UNL     1     -15.442  -7.273  -8.574  1.00  0.00     0.010 A 
ATOM     45  C   UNL     1     -16.341  -5.136  -9.280  1.00  0.00     0.010 A 
ATOM     46  C   UNL     1     -16.391  -6.248  -8.426  1.00  0.00    -0.014 A 
BRANCH  46  47
ATOM     47  C   UNL     1     -17.443  -6.314  -7.381  1.00  0.00     0.031 A 
ATOM     48  C   UNL     1     -18.893  -6.359  -7.777  1.00  0.00     0.074 A 
ATOM     49  C   UNL     1     -17.099  -6.254  -6.080  1.00  0.00     0.049 A 
ATOM     50  N   UNL     1     -19.957  -6.347  -7.015  1.00  0.00    -0.248 NA
ATOM     51  C   UNL     1     -19.186  -6.392  -9.219  1.00  0.00     0.031 C 
ATOM     52  C   UNL     1     -15.731  -6.156  -5.565  1.00  0.00     0.029 A 
ATOM     53  N   UNL     1     -17.878  -6.258  -4.950  1.00  0.00    -0.354 N 
ATOM     54  C   UNL     1     -21.040  -6.348  -7.885  1.00  0.00     0.074 A 
ATOM     55  C   UNL     1     -20.507  -6.308  -9.228  1.00  0.00     0.031 C 
ATOM     56  C   UNL     1     -15.767  -6.141  -4.223  1.00  0.00     0.029 A 
ATOM     57  C   UNL     1     -17.157  -6.187  -3.783  1.00  0.00     0.049 A 
ATOM     58  H   UNL     1     -18.861  -6.307  -4.974  1.00  0.00     0.167 HD
ATOM     59  C   UNL     1     -22.361  -6.400  -7.593  1.00  0.00     0.031 A 
ATOM     60  C   UNL     1     -17.570  -6.161  -2.502  1.00  0.00     0.031 A 
ATOM     61  C   UNL     1     -22.892  -6.459  -6.258  1.00  0.00     0.049 A 
ATOM     62  C   UNL     1     -19.042  -6.222  -2.204  1.00  0.00     0.074 A 
ATOM     63  C   UNL     1     -24.212  -6.578  -5.860  1.00  0.00     0.029 A 
ATOM     64  N   UNL     1     -22.127  -6.405  -5.104  1.00  0.00    -0.354 N 
ATOM     65  N   UNL     1     -20.051  -6.295  -3.037  1.00  0.00    -0.248 NA
ATOM     66  C   UNL     1     -19.430  -6.209  -0.786  1.00  0.00     0.031 C 
ATOM     67  C   UNL     1     -24.249  -6.551  -4.462  1.00  0.00     0.029 A 
ATOM     68  C   UNL     1     -22.948  -6.468  -3.991  1.00  0.00     0.049 A 
ATOM     69  H   UNL     1     -21.145  -6.333  -5.079  1.00  0.00     0.167 HD
ATOM     70  C   UNL     1     -21.191  -6.365  -2.246  1.00  0.00     0.074 A 
ATOM     71  C   UNL     1     -20.747  -6.341  -0.867  1.00  0.00     0.031 C 
ATOM     72  C   UNL     1     -22.489  -6.444  -2.627  1.00  0.00     0.031 A 
BRANCH  59  73
ATOM     73  C   UNL     1     -23.323  -6.393  -8.748  1.00  0.00    -0.014 A 
ATOM     74  C   UNL     1     -23.435  -7.499  -9.607  1.00  0.00     0.009 A 
ATOM     75  C   UNL     1     -24.144  -5.277  -8.968  1.00  0.00     0.009 A 
ATOM     76  C   UNL     1     -24.321  -7.470 -10.686  1.00  0.00     0.001 A 
ATOM     77  C   UNL     1     -25.050  -5.263 -10.030  1.00  0.00     0.001 A 
ATOM     78  C   UNL     1     -25.130  -6.354 -10.894  1.00  0.00     0.000 A 
ENDBRANCH  59  73
BRANCH  60  79
ATOM     79  C   UNL     1     -16.576  -6.096  -1.398  1.00  0.00    -0.014 A 
ATOM     80  C   UNL     1     -16.355  -7.212  -0.576  1.00  0.00     0.009 A 
ATOM     81  C   UNL     1     -15.850  -4.920  -1.155  1.00  0.00     0.009 A 
ATOM     82  C   UNL     1     -15.448  -7.143   0.483  1.00  0.00     0.001 A 
ATOM     83  C   UNL     1     -14.923  -4.863  -0.112  1.00  0.00     0.001 A 
ATOM     84  C   UNL     1     -14.730  -5.971   0.712  1.00  0.00     0.000 A 
ENDBRANCH  60  79
BRANCH  72  85
ATOM     85  C   UNL     1     -23.519  -6.545  -1.539  1.00  0.00    -0.014 A 
ATOM     86  C   UNL     1     -23.847  -5.439  -0.740  1.00  0.00     0.009 A 
ATOM     87  C   UNL     1     -24.201  -7.756  -1.340  1.00  0.00     0.009 A 
ATOM     88  C   UNL     1     -24.817  -5.553   0.257  1.00  0.00     0.001 A 
ATOM     89  C   UNL     1     -25.189  -7.859  -0.361  1.00  0.00     0.001 A 
ATOM     90  C   UNL     1     -25.490  -6.760   0.442  1.00  0.00     0.000 A 
ENDBRANCH  72  85
ENDBRANCH  46  47
ENDBRANCH  38  41
ENDBRANCH  36  37
ENDBRANCH  35  36
ENDBRANCH  34  35
ENDBRANCH  33  34
ENDBRANCH  31  33
ENDBRANCH  27  29
ENDBRANCH   4  27
TORSDOF 22
