REMARK SMILES C[C@]1(C(=O)NCCCCNC(=O)c2ccc(-c3c4nc(c(-c5ccccc5)c5ccc([nH]5)c(-c5ccccc5)c5nc(c(-c6ccccc6)c6ccc3[nH]6)C=C5)C=C4)cc2)[NH2+]C2(C(=O)c3ccccc3C2=O)[C@@H]2C(=O)N(c3ccccc3)C(=O)[C@H]21
REMARK SMILES IDX 8 1 7 2 6 3 5 4 3 5 4 6 2 8 1 9 61 10 85 11 62 12 73 15
REMARK SMILES IDX 83 16 63 17 71 18 74 19 76 20 84 21 64 22 65 23 70 24 72 25
REMARK SMILES IDX 75 26 66 27 69 28 67 29 68 30 77 31 78 32 82 33 79 34 81 35
REMARK SMILES IDX 80 36 9 37 10 38 11 39 12 41 13 42 14 43 60 44 15 45 59 46
REMARK SMILES IDX 16 47 17 48 18 49 53 50 19 51 58 52 52 53 54 54 20 55 57 56
REMARK SMILES IDX 51 57 50 58 21 60 43 61 28 62 42 63 29 64 32 65 41 66 55 67
REMARK SMILES IDX 30 68 31 69 40 71 56 72 33 73 22 74 23 75 27 76 24 77 26 78
REMARK SMILES IDX 25 79 44 80 45 81 49 82 46 83 48 84 47 85 34 86 35 87 39 88
REMARK SMILES IDX 36 89 38 90 37 91
REMARK H PARENT 5 7 61 13 61 14 10 40 54 59 32 70
REMARK Flexibility Score: inf
ROOT
ATOM      1  C   UNL     1      -0.919   3.033   5.928  1.00  0.00     0.023 C 
ENDROOT
BRANCH   1   2
ATOM      2  C   UNL     1      -1.420   2.494   4.607  1.00  0.00     0.023 C 
BRANCH   2   3
ATOM      3  C   UNL     1      -0.405   2.453   3.477  1.00  0.00     0.116 C 
BRANCH   3   4
ATOM      4  N   UNL     1       0.389   1.287   3.272  1.00  0.00    -0.351 N 
ATOM      5  C   UNL     1       0.763   0.701   2.094  1.00  0.00     0.281 C 
ATOM      6  O   UNL     1       1.481  -0.300   2.245  1.00  0.00    -0.268 OA
ATOM      7  H   UNL     1       0.712   0.843   4.090  1.00  0.00     0.163 HD
BRANCH   5   8
ATOM      8  C   UNL     1       0.372   1.192   0.618  1.00  0.00     0.186 C 
ATOM      9  C   UNL     1       0.961   0.115  -0.333  1.00  0.00     0.091 C 
ATOM     10  N   UNL     1      -1.124   1.276   0.358  1.00  0.00    -0.314 N 
ATOM     11  C   UNL     1       0.826   2.539   0.126  1.00  0.00     0.170 C 
ATOM     12  C   UNL     1      -1.519   2.731   0.101  1.00  0.00     0.236 C 
ATOM     13  H   UNL     1      -1.630   0.925   1.171  1.00  0.00     0.348 HD
ATOM     14  H   UNL     1      -1.358   0.712  -0.460  1.00  0.00     0.348 HD
ATOM     15  C   UNL     1      -0.286   3.507   0.476  1.00  0.00     0.177 C 
ATOM     16  C   UNL     1       2.019   3.288   0.588  1.00  0.00     0.244 C 
ATOM     17  C   UNL     1      -2.049   2.995  -1.313  1.00  0.00     0.232 C 
ATOM     18  C   UNL     1      -2.781   3.010   0.952  1.00  0.00     0.232 C 
ATOM     19  C   UNL     1       0.344   4.780   0.002  1.00  0.00     0.245 C 
ATOM     20  N   UNL     1       1.701   4.619   0.314  1.00  0.00    -0.250 N 
ATOM     21  O   UNL     1       3.024   2.803   1.069  1.00  0.00    -0.273 OA
ATOM     22  O   UNL     1      -1.451   2.802  -2.355  1.00  0.00    -0.286 OA
ATOM     23  C   UNL     1      -3.437   3.496  -1.216  1.00  0.00     0.036 A 
ATOM     24  C   UNL     1      -3.842   3.496   0.105  1.00  0.00     0.036 A 
ATOM     25  O   UNL     1      -3.003   2.832   2.133  1.00  0.00    -0.286 OA
ATOM     26  O   UNL     1      -0.272   5.762  -0.370  1.00  0.00    -0.273 OA
ATOM     27  C   UNL     1      -4.320   3.901  -2.197  1.00  0.00     0.013 A 
ATOM     28  C   UNL     1      -5.108   3.868   0.527  1.00  0.00     0.013 A 
ATOM     29  C   UNL     1      -5.612   4.297  -1.801  1.00  0.00     0.001 A 
ATOM     30  C   UNL     1      -6.005   4.277  -0.449  1.00  0.00     0.001 A 
BRANCH  20  31
ATOM     31  C   UNL     1       2.612   5.652   0.602  1.00  0.00     0.052 A 
ATOM     32  C   UNL     1       3.910   5.606   0.075  1.00  0.00     0.027 A 
ATOM     33  C   UNL     1       2.290   6.626   1.553  1.00  0.00     0.027 A 
ATOM     34  C   UNL     1       4.872   6.530   0.485  1.00  0.00     0.002 A 
ATOM     35  C   UNL     1       3.273   7.514   2.002  1.00  0.00     0.002 A 
ATOM     36  C   UNL     1       4.559   7.471   1.463  1.00  0.00     0.000 A 
ENDBRANCH  20  31
ENDBRANCH   5   8
ENDBRANCH   3   4
ENDBRANCH   2   3
ENDBRANCH   1   2
BRANCH   1  37
ATOM     37  C   UNL     1      -0.184   4.365   5.843  1.00  0.00     0.116 C 
BRANCH  37  38
ATOM     38  N   UNL     1      -0.996   5.511   5.420  1.00  0.00    -0.352 N 
ATOM     39  C   UNL     1      -1.343   6.657   6.111  1.00  0.00     0.251 C 
ATOM     40  H   UNL     1      -1.349   5.455   4.502  1.00  0.00     0.163 HD
ATOM     41  O   UNL     1      -2.051   7.516   5.596  1.00  0.00    -0.269 OA
BRANCH  39  42
ATOM     42  C   UNL     1      -0.909   6.799   7.516  1.00  0.00     0.039 A 
ATOM     43  C   UNL     1       0.405   6.504   7.854  1.00  0.00     0.014 A 
ATOM     44  C   UNL     1      -1.858   7.037   8.513  1.00  0.00     0.014 A 
ATOM     45  C   UNL     1       0.674   6.093   9.148  1.00  0.00     0.010 A 
ATOM     46  C   UNL     1      -1.522   6.800   9.851  1.00  0.00     0.010 A 
ATOM     47  C   UNL     1      -0.283   6.227  10.171  1.00  0.00    -0.014 A 
BRANCH  47  48
ATOM     48  C   UNL     1       0.054   5.734  11.537  1.00  0.00     0.031 A 
ATOM     49  C   UNL     1      -0.782   4.686  12.234  1.00  0.00     0.074 A 
ATOM     50  C   UNL     1       1.199   6.160  12.111  1.00  0.00     0.049 A 
ATOM     51  N   UNL     1      -0.574   4.110  13.394  1.00  0.00    -0.248 NA
ATOM     52  C   UNL     1      -2.009   4.227  11.561  1.00  0.00     0.031 C 
ATOM     53  C   UNL     1       2.107   7.155  11.533  1.00  0.00     0.029 A 
ATOM     54  N   UNL     1       1.830   5.771  13.265  1.00  0.00    -0.354 N 
ATOM     55  C   UNL     1      -1.652   3.256  13.602  1.00  0.00     0.074 A 
ATOM     56  C   UNL     1      -2.529   3.403  12.462  1.00  0.00     0.031 C 
ATOM     57  C   UNL     1       3.223   7.211  12.268  1.00  0.00     0.029 A 
ATOM     58  C   UNL     1       3.066   6.349  13.432  1.00  0.00     0.049 A 
ATOM     59  H   UNL     1       1.436   5.141  13.911  1.00  0.00     0.167 HD
ATOM     60  C   UNL     1      -1.885   2.419  14.642  1.00  0.00     0.031 A 
ATOM     61  C   UNL     1       3.977   6.221  14.414  1.00  0.00     0.031 A 
ATOM     62  C   UNL     1      -0.996   2.252  15.764  1.00  0.00     0.049 A 
ATOM     63  C   UNL     1       3.679   5.312  15.567  1.00  0.00     0.074 A 
ATOM     64  C   UNL     1      -1.142   1.414  16.856  1.00  0.00     0.029 A 
ATOM     65  N   UNL     1       0.204   2.924  15.934  1.00  0.00    -0.354 N 
ATOM     66  N   UNL     1       2.646   4.527  15.749  1.00  0.00    -0.248 NA
ATOM     67  C   UNL     1       4.665   5.279  16.654  1.00  0.00     0.031 C 
ATOM     68  C   UNL     1      -0.064   1.627  17.719  1.00  0.00     0.029 A 
ATOM     69  C   UNL     1       0.794   2.540  17.128  1.00  0.00     0.049 A 
ATOM     70  H   UNL     1       0.582   3.577  15.302  1.00  0.00     0.167 HD
ATOM     71  C   UNL     1       2.857   3.902  16.970  1.00  0.00     0.074 A 
ATOM     72  C   UNL     1       4.135   4.374  17.466  1.00  0.00     0.031 C 
ATOM     73  C   UNL     1       2.057   3.025  17.623  1.00  0.00     0.031 A 
BRANCH  60  74
ATOM     74  C   UNL     1      -3.162   1.617  14.645  1.00  0.00    -0.014 A 
ATOM     75  C   UNL     1      -4.143   1.876  15.617  1.00  0.00     0.009 A 
ATOM     76  C   UNL     1      -3.351   0.538  13.767  1.00  0.00     0.009 A 
ATOM     77  C   UNL     1      -5.274   1.064  15.723  1.00  0.00     0.001 A 
ATOM     78  C   UNL     1      -4.500  -0.254  13.855  1.00  0.00     0.001 A 
ATOM     79  C   UNL     1      -5.454   0.002  14.839  1.00  0.00     0.000 A 
ENDBRANCH  60  74
BRANCH  61  80
ATOM     80  C   UNL     1       5.246   6.992  14.332  1.00  0.00    -0.014 A 
ATOM     81  C   UNL     1       5.232   8.396  14.382  1.00  0.00     0.009 A 
ATOM     82  C   UNL     1       6.469   6.335  14.130  1.00  0.00     0.009 A 
ATOM     83  C   UNL     1       6.404   9.128  14.188  1.00  0.00     0.001 A 
ATOM     84  C   UNL     1       7.648   7.069  13.976  1.00  0.00     0.001 A 
ATOM     85  C   UNL     1       7.612   8.463  13.990  1.00  0.00     0.000 A 
ENDBRANCH  61  80
BRANCH  73  86
ATOM     86  C   UNL     1       2.533   2.510  18.953  1.00  0.00    -0.014 A 
ATOM     87  C   UNL     1       2.878   1.156  19.096  1.00  0.00     0.009 A 
ATOM     88  C   UNL     1       2.570   3.343  20.081  1.00  0.00     0.009 A 
ATOM     89  C   UNL     1       3.240   0.645  20.342  1.00  0.00     0.001 A 
ATOM     90  C   UNL     1       2.967   2.837  21.320  1.00  0.00     0.001 A 
ATOM     91  C   UNL     1       3.292   1.487  21.452  1.00  0.00     0.000 A 
ENDBRANCH  73  86
ENDBRANCH  47  48
ENDBRANCH  39  42
ENDBRANCH  37  38
ENDBRANCH   1  37
TORSDOF 12
