REMARK SMILES O=C(NCCCCNC(=O)[C@H]1Cc2c([nH]c3ccccc23)[C@H](c2c[nH]c3ccccc23)[NH2+]1)c1ccc(-c2c3nc(c(-c4ccccc4)c4ccc([nH]4)c(-c4ccccc4)c4nc(c(-c5ccccc5)c5ccc2[nH]5)C=C4)C=C3)cc1
REMARK SMILES IDX 5 1 4 2 3 3 1 4 2 5 33 7 34 8 80 9 35 10 79 11 36 12 37 13
REMARK SMILES IDX 38 14 73 15 39 16 78 17 72 18 74 19 40 20 77 21 71 22 70 23
REMARK SMILES IDX 41 25 63 26 48 27 62 28 49 29 52 30 61 31 75 32 50 33 51 34
REMARK SMILES IDX 60 36 76 37 53 38 42 39 43 40 47 41 44 42 46 43 45 44 64 45
REMARK SMILES IDX 65 46 69 47 66 48 68 49 67 50 54 51 55 52 59 53 56 54 58 55
REMARK SMILES IDX 57 56 6 57 7 58 8 59 9 60 10 62 11 63 12 64 32 65 13 66
REMARK SMILES IDX 22 67 14 70 21 71 15 72 16 73 20 74 17 76 19 77 18 78 23 79
REMARK SMILES IDX 24 80 31 81 25 82 26 83 30 84 27 86 29 87 28 88
REMARK H PARENT 3 6 74 24 52 35 8 61 32 68 32 69 15 75 25 85
REMARK Flexibility Score: inf
ROOT
ATOM      1  C   UNL     1       4.785   0.112   2.588  1.00  0.00     0.023 C 
ENDROOT
BRANCH   1   2
ATOM      2  C   UNL     1       4.445  -0.266   1.155  1.00  0.00     0.116 C 
BRANCH   2   3
ATOM      3  N   UNL     1       3.024  -0.499   0.955  1.00  0.00    -0.352 N 
ATOM      4  O   UNL     1       1.032  -0.302  -0.090  1.00  0.00    -0.269 OA
ATOM      5  C   UNL     1       2.244  -0.147  -0.119  1.00  0.00     0.251 C 
ATOM      6  H   UNL     1       2.561  -0.971   1.684  1.00  0.00     0.163 HD
BRANCH   5   7
ATOM      7  C   UNL     1       2.890   0.455  -1.302  1.00  0.00     0.039 A 
ATOM      8  C   UNL     1       4.024  -0.133  -1.869  1.00  0.00     0.014 A 
ATOM      9  C   UNL     1       2.353   1.629  -1.834  1.00  0.00     0.014 A 
ATOM     10  C   UNL     1       4.688   0.513  -2.905  1.00  0.00     0.010 A 
ATOM     11  C   UNL     1       2.983   2.240  -2.917  1.00  0.00     0.010 A 
ATOM     12  C   UNL     1       4.165   1.697  -3.445  1.00  0.00    -0.014 A 
BRANCH  12  13
ATOM     13  C   UNL     1       4.819   2.327  -4.613  1.00  0.00     0.031 A 
ATOM     14  C   UNL     1       5.470   3.673  -4.498  1.00  0.00     0.074 A 
ATOM     15  C   UNL     1       4.787   1.682  -5.793  1.00  0.00     0.049 A 
ATOM     16  N   UNL     1       6.024   4.399  -5.435  1.00  0.00    -0.248 NA
ATOM     17  C   UNL     1       5.494   4.288  -3.163  1.00  0.00     0.031 C 
ATOM     18  C   UNL     1       4.173   0.371  -6.020  1.00  0.00     0.029 A 
ATOM     19  N   UNL     1       5.269   2.044  -7.022  1.00  0.00    -0.354 N 
ATOM     20  C   UNL     1       6.439   5.568  -4.811  1.00  0.00     0.074 A 
ATOM     21  C   UNL     1       6.059   5.461  -3.418  1.00  0.00     0.031 C 
ATOM     22  C   UNL     1       4.323   0.036  -7.309  1.00  0.00     0.029 A 
ATOM     23  C   UNL     1       4.990   1.129  -8.006  1.00  0.00     0.049 A 
ATOM     24  H   UNL     1       5.767   2.878  -7.184  1.00  0.00     0.167 HD
ATOM     25  C   UNL     1       7.076   6.632  -5.354  1.00  0.00     0.031 A 
ATOM     26  C   UNL     1       5.212   1.176  -9.332  1.00  0.00     0.031 A 
ATOM     27  C   UNL     1       7.446   6.731  -6.742  1.00  0.00     0.049 A 
ATOM     28  C   UNL     1       5.890   2.378  -9.915  1.00  0.00     0.074 A 
ATOM     29  C   UNL     1       8.139   7.745  -7.380  1.00  0.00     0.029 A 
ATOM     30  N   UNL     1       7.142   5.784  -7.709  1.00  0.00    -0.354 N 
ATOM     31  N   UNL     1       6.319   3.456  -9.306  1.00  0.00    -0.248 NA
ATOM     32  C   UNL     1       6.115   2.371 -11.366  1.00  0.00     0.031 C 
ATOM     33  C   UNL     1       8.208   7.436  -8.743  1.00  0.00     0.029 A 
ATOM     34  C   UNL     1       7.604   6.205  -8.945  1.00  0.00     0.049 A 
ATOM     35  H   UNL     1       6.668   4.938  -7.541  1.00  0.00     0.167 HD
ATOM     36  C   UNL     1       6.879   4.251 -10.294  1.00  0.00     0.074 A 
ATOM     37  C   UNL     1       6.746   3.525 -11.542  1.00  0.00     0.031 C 
ATOM     38  C   UNL     1       7.454   5.473 -10.176  1.00  0.00     0.031 A 
BRANCH  25  39
ATOM     39  C   UNL     1       7.376   7.794  -4.449  1.00  0.00    -0.014 A 
ATOM     40  C   UNL     1       8.370   7.716  -3.461  1.00  0.00     0.009 A 
ATOM     41  C   UNL     1       6.666   8.995  -4.604  1.00  0.00     0.009 A 
ATOM     42  C   UNL     1       8.619   8.806  -2.622  1.00  0.00     0.001 A 
ATOM     43  C   UNL     1       6.935  10.090  -3.781  1.00  0.00     0.001 A 
ATOM     44  C   UNL     1       7.904   9.991  -2.784  1.00  0.00     0.000 A 
ENDBRANCH  25  39
BRANCH  26  45
ATOM     45  C   UNL     1       4.755   0.049 -10.180  1.00  0.00    -0.014 A 
ATOM     46  C   UNL     1       5.673  -0.870 -10.705  1.00  0.00     0.009 A 
ATOM     47  C   UNL     1       3.383  -0.151 -10.408  1.00  0.00     0.009 A 
ATOM     48  C   UNL     1       5.227  -1.966 -11.447  1.00  0.00     0.001 A 
ATOM     49  C   UNL     1       2.939  -1.260 -11.129  1.00  0.00     0.001 A 
ATOM     50  C   UNL     1       3.861  -2.164 -11.651  1.00  0.00     0.000 A 
ENDBRANCH  26  45
BRANCH  38  51
ATOM     51  C   UNL     1       8.004   6.092 -11.428  1.00  0.00    -0.014 A 
ATOM     52  C   UNL     1       7.154   6.663 -12.387  1.00  0.00     0.009 A 
ATOM     53  C   UNL     1       9.393   6.152 -11.621  1.00  0.00     0.009 A 
ATOM     54  C   UNL     1       7.687   7.266 -13.528  1.00  0.00     0.001 A 
ATOM     55  C   UNL     1       9.922   6.776 -12.751  1.00  0.00     0.001 A 
ATOM     56  C   UNL     1       9.069   7.327 -13.706  1.00  0.00     0.000 A 
ENDBRANCH  38  51
ENDBRANCH  12  13
ENDBRANCH   5   7
ENDBRANCH   2   3
ENDBRANCH   1   2
BRANCH   1  57
ATOM     57  C   UNL     1       4.374  -0.923   3.635  1.00  0.00     0.023 C 
BRANCH  57  58
ATOM     58  C   UNL     1       5.066  -2.283   3.495  1.00  0.00     0.116 C 
BRANCH  58  59
ATOM     59  N   UNL     1       6.460  -2.183   3.872  1.00  0.00    -0.351 N 
ATOM     60  C   UNL     1       7.072  -2.498   5.048  1.00  0.00     0.278 C 
ATOM     61  H   UNL     1       7.058  -1.834   3.172  1.00  0.00     0.163 HD
ATOM     62  O   UNL     1       8.282  -2.257   5.127  1.00  0.00    -0.268 OA
BRANCH  60  63
ATOM     63  C   UNL     1       6.341  -3.218   6.202  1.00  0.00     0.277 C 
ATOM     64  C   UNL     1       5.131  -2.439   6.763  1.00  0.00     0.114 C 
ATOM     65  N   UNL     1       6.078  -4.628   5.782  1.00  0.00    -0.324 N 
ATOM     66  C   UNL     1       4.240  -3.339   7.538  1.00  0.00    -0.006 A 
ATOM     67  C   UNL     1       5.524  -5.468   6.856  1.00  0.00     0.264 C 
ATOM     68  H   UNL     1       6.957  -5.041   5.471  1.00  0.00     0.347 HD
ATOM     69  H   UNL     1       5.381  -4.594   5.038  1.00  0.00     0.347 HD
ATOM     70  C   UNL     1       4.438  -4.704   7.561  1.00  0.00     0.083 A 
ATOM     71  C   UNL     1       3.062  -3.047   8.272  1.00  0.00     0.003 A 
ATOM     72  N   UNL     1       3.436  -5.251   8.318  1.00  0.00    -0.353 N 
ATOM     73  C   UNL     1       2.586  -4.262   8.768  1.00  0.00     0.046 A 
ATOM     74  C   UNL     1       2.344  -1.869   8.552  1.00  0.00     0.010 A 
ATOM     75  H   UNL     1       3.337  -6.211   8.512  1.00  0.00     0.166 HD
ATOM     76  C   UNL     1       1.435  -4.350   9.559  1.00  0.00     0.026 A 
ATOM     77  C   UNL     1       1.185  -1.942   9.331  1.00  0.00     0.001 A 
ATOM     78  C   UNL     1       0.743  -3.165   9.832  1.00  0.00     0.002 A 
BRANCH  67  79
ATOM     79  C   UNL     1       6.557  -6.045   7.815  1.00  0.00     0.041 A 
ATOM     80  C   UNL     1       6.227  -7.000   8.773  1.00  0.00     0.093 A 
ATOM     81  C   UNL     1       7.984  -5.824   7.976  1.00  0.00     0.009 A 
ATOM     82  N   UNL     1       7.318  -7.265   9.546  1.00  0.00    -0.361 N 
ATOM     83  C   UNL     1       8.399  -6.554   9.096  1.00  0.00     0.046 A 
ATOM     84  C   UNL     1       8.984  -5.074   7.311  1.00  0.00     0.011 A 
ATOM     85  H   UNL     1       7.328  -7.877  10.316  1.00  0.00     0.166 HD
ATOM     86  C   UNL     1       9.705  -6.519   9.605  1.00  0.00     0.026 A 
ATOM     87  C   UNL     1      10.293  -5.021   7.808  1.00  0.00     0.001 A 
ATOM     88  C   UNL     1      10.645  -5.726   8.949  1.00  0.00     0.002 A 
ENDBRANCH  67  79
ENDBRANCH  60  63
ENDBRANCH  58  59
ENDBRANCH  57  58
ENDBRANCH   1  57
TORSDOF 12
