REMARK SMILES Cc1cc2c(cc1C(=O)c1ccccc1C(=O)NCCCCNC(=O)c1ccc(-c3c4nc(c(-c5ccccc5)c5ccc([nH]5)c(-c5ccccc5)c5nc(c(-c6ccccc6)c6ccc3[nH]6)C=C5)C=C4)cc1)CCCC2
REMARK SMILES IDX 20 1 19 2 18 3 16 4 17 5 15 7 10 8 11 9 12 10 14 11 13 12
REMARK SMILES IDX 8 13 9 14 7 15 1 16 2 17 3 18 4 19 6 20 5 21 77 22 74 23
REMARK SMILES IDX 76 24 75 25 21 26 22 27 23 28 24 29 25 31 26 32 27 33 73 34
REMARK SMILES IDX 28 35 72 36 29 37 30 38 31 39 66 40 32 41 71 42 65 43 67 44
REMARK SMILES IDX 33 45 70 46 64 47 63 48 34 50 56 51 41 52 55 53 42 54 45 55
REMARK SMILES IDX 54 56 68 57 43 58 44 59 53 61 69 62 46 63 35 64 36 65 40 66
REMARK SMILES IDX 37 67 39 68 38 69 57 70 58 71 62 72 59 73 61 74 60 75 47 76
REMARK SMILES IDX 48 77 52 78 49 79 51 80 50 81
REMARK H PARENT 18 6 23 30 67 49 45 60
REMARK Flexibility Score: inf
ROOT
ATOM      1  C   UNL     1       0.452  -2.090   4.174  1.00  0.00     0.023 C 
ENDROOT
BRANCH   1   2
ATOM      2  C   UNL     1      -0.271  -1.022   3.370  1.00  0.00     0.116 C 
BRANCH   2   3
ATOM      3  N   UNL     1      -0.456   0.262   3.975  1.00  0.00    -0.352 N 
ATOM      4  C   UNL     1      -0.674   1.487   3.392  1.00  0.00     0.252 C 
ATOM      5  O   UNL     1      -0.860   2.420   4.181  1.00  0.00    -0.269 OA
ATOM      6  H   UNL     1      -0.421   0.269   4.959  1.00  0.00     0.163 HD
BRANCH   4   7
ATOM      7  C   UNL     1      -0.630   1.818   1.923  1.00  0.00     0.050 A 
ATOM      8  C   UNL     1      -1.081   1.093   0.802  1.00  0.00     0.035 A 
ATOM      9  C   UNL     1      -1.162   1.706  -0.468  1.00  0.00     0.013 A 
ATOM     10  C   UNL     1      -0.686   2.997  -0.674  1.00  0.00     0.001 A 
ATOM     11  C   UNL     1      -0.146   3.126   1.671  1.00  0.00     0.014 A 
ATOM     12  C   UNL     1      -0.153   3.700   0.395  1.00  0.00     0.001 A 
BRANCH   8  13
ATOM     13  C   UNL     1      -1.554  -0.294   0.802  1.00  0.00     0.194 C 
ATOM     14  O   UNL     1      -2.696  -0.479   1.216  1.00  0.00    -0.289 OA
BRANCH  13  15
ATOM     15  C   UNL     1      -0.689  -1.457   0.338  1.00  0.00     0.026 A 
ATOM     16  C   UNL     1       1.396  -0.134  -0.478  1.00  0.00     0.045 C 
ATOM     17  C   UNL     1       0.628  -1.391  -0.173  1.00  0.00    -0.040 A 
ATOM     18  C   UNL     1       1.336  -2.594  -0.384  1.00  0.00     0.008 A 
ATOM     19  C   UNL     1       0.816  -3.841  -0.023  1.00  0.00    -0.044 A 
ATOM     20  C   UNL     1      -1.223  -2.731   0.645  1.00  0.00     0.016 A 
ATOM     21  C   UNL     1      -0.474  -3.912   0.509  1.00  0.00    -0.044 A 
ATOM     22  C   UNL     1       1.645  -5.080  -0.257  1.00  0.00     0.036 C 
ATOM     23  C   UNL     1      -1.017  -5.205   1.070  1.00  0.00     0.036 C 
ATOM     24  C   UNL     1       1.218  -6.256   0.616  1.00  0.00     0.005 C 
ATOM     25  C   UNL     1      -0.292  -6.446   0.553  1.00  0.00     0.005 C 
ENDBRANCH  13  15
ENDBRANCH   8  13
ENDBRANCH   4   7
ENDBRANCH   2   3
ENDBRANCH   1   2
BRANCH   1  26
ATOM     26  C   UNL     1      -0.189  -2.529   5.483  1.00  0.00     0.023 C 
BRANCH  26  27
ATOM     27  C   UNL     1      -1.702  -2.722   5.484  1.00  0.00     0.116 C 
BRANCH  27  28
ATOM     28  N   UNL     1      -2.194  -3.763   4.586  1.00  0.00    -0.352 N 
ATOM     29  C   UNL     1      -2.759  -4.995   4.840  1.00  0.00     0.251 C 
ATOM     30  H   UNL     1      -2.107  -3.547   3.630  1.00  0.00     0.163 HD
ATOM     31  O   UNL     1      -3.065  -5.736   3.909  1.00  0.00    -0.269 OA
BRANCH  29  32
ATOM     32  C   UNL     1      -2.930  -5.466   6.232  1.00  0.00     0.039 A 
ATOM     33  C   UNL     1      -3.417  -4.614   7.218  1.00  0.00     0.014 A 
ATOM     34  C   UNL     1      -2.518  -6.758   6.574  1.00  0.00     0.014 A 
ATOM     35  C   UNL     1      -3.206  -4.931   8.553  1.00  0.00     0.010 A 
ATOM     36  C   UNL     1      -2.433  -7.128   7.921  1.00  0.00     0.010 A 
ATOM     37  C   UNL     1      -2.683  -6.181   8.925  1.00  0.00    -0.014 A 
BRANCH  37  38
ATOM     38  C   UNL     1      -2.353  -6.435  10.356  1.00  0.00     0.031 A 
ATOM     39  C   UNL     1      -0.934  -6.726  10.786  1.00  0.00     0.074 A 
ATOM     40  C   UNL     1      -3.314  -6.291  11.292  1.00  0.00     0.049 A 
ATOM     41  N   UNL     1      -0.463  -6.907  11.996  1.00  0.00    -0.248 NA
ATOM     42  C   UNL     1       0.088  -6.832   9.732  1.00  0.00     0.031 C 
ATOM     43  C   UNL     1      -4.718  -5.981  11.015  1.00  0.00     0.029 A 
ATOM     44  N   UNL     1      -3.247  -6.330  12.662  1.00  0.00    -0.354 N 
ATOM     45  C   UNL     1       0.893  -7.178  11.843  1.00  0.00     0.074 A 
ATOM     46  C   UNL     1       1.169  -7.161  10.425  1.00  0.00     0.031 C 
ATOM     47  C   UNL     1      -5.356  -5.763  12.173  1.00  0.00     0.029 A 
ATOM     48  C   UNL     1      -4.432  -6.002  13.277  1.00  0.00     0.049 A 
ATOM     49  H   UNL     1      -2.430  -6.569  13.157  1.00  0.00     0.167 HD
ATOM     50  C   UNL     1       1.826  -7.411  12.797  1.00  0.00     0.031 A 
ATOM     51  C   UNL     1      -4.752  -5.908  14.581  1.00  0.00     0.031 A 
ATOM     52  C   UNL     1       1.564  -7.395  14.212  1.00  0.00     0.049 A 
ATOM     53  C   UNL     1      -3.708  -6.198  15.617  1.00  0.00     0.074 A 
ATOM     54  C   UNL     1       2.453  -7.608  15.251  1.00  0.00     0.029 A 
ATOM     55  N   UNL     1       0.329  -7.142  14.785  1.00  0.00    -0.354 N 
ATOM     56  N   UNL     1      -2.439  -6.478  15.449  1.00  0.00    -0.248 NA
ATOM     57  C   UNL     1      -4.140  -6.172  17.021  1.00  0.00     0.031 C 
ATOM     58  C   UNL     1       1.746  -7.532  16.453  1.00  0.00     0.029 A 
ATOM     59  C   UNL     1       0.429  -7.214  16.164  1.00  0.00     0.049 A 
ATOM     60  H   UNL     1      -0.496  -6.940  14.287  1.00  0.00     0.167 HD
ATOM     61  C   UNL     1      -1.920  -6.662  16.723  1.00  0.00     0.074 A 
ATOM     62  C   UNL     1      -3.005  -6.434  17.656  1.00  0.00     0.031 C 
ATOM     63  C   UNL     1      -0.658  -6.997  17.083  1.00  0.00     0.031 A 
BRANCH  50  64
ATOM     64  C   UNL     1       3.230  -7.722  12.355  1.00  0.00    -0.014 A 
ATOM     65  C   UNL     1       3.741  -9.019  12.530  1.00  0.00     0.009 A 
ATOM     66  C   UNL     1       4.079  -6.720  11.860  1.00  0.00     0.009 A 
ATOM     67  C   UNL     1       5.075  -9.304  12.231  1.00  0.00     0.001 A 
ATOM     68  C   UNL     1       5.406  -7.015  11.536  1.00  0.00     0.001 A 
ATOM     69  C   UNL     1       5.905  -8.303  11.730  1.00  0.00     0.000 A 
ENDBRANCH  50  64
BRANCH  51  70
ATOM     70  C   UNL     1      -6.135  -5.522  14.963  1.00  0.00    -0.014 A 
ATOM     71  C   UNL     1      -7.213  -6.385  14.703  1.00  0.00     0.009 A 
ATOM     72  C   UNL     1      -6.394  -4.265  15.529  1.00  0.00     0.009 A 
ATOM     73  C   UNL     1      -8.523  -5.984  14.968  1.00  0.00     0.001 A 
ATOM     74  C   UNL     1      -7.705  -3.880  15.822  1.00  0.00     0.001 A 
ATOM     75  C   UNL     1      -8.768  -4.734  15.531  1.00  0.00     0.000 A 
ENDBRANCH  51  70
BRANCH  63  76
ATOM     76  C   UNL     1      -0.367  -7.143  18.548  1.00  0.00    -0.014 A 
ATOM     77  C   UNL     1       0.435  -6.192  19.199  1.00  0.00     0.009 A 
ATOM     78  C   UNL     1      -0.810  -8.266  19.262  1.00  0.00     0.009 A 
ATOM     79  C   UNL     1       0.797  -6.369  20.535  1.00  0.00     0.001 A 
ATOM     80  C   UNL     1      -0.467  -8.427  20.606  1.00  0.00     0.001 A 
ATOM     81  C   UNL     1       0.343  -7.484  21.238  1.00  0.00     0.000 A 
ENDBRANCH  63  76
ENDBRANCH  37  38
ENDBRANCH  29  32
ENDBRANCH  27  28
ENDBRANCH  26  27
ENDBRANCH   1  26
TORSDOF 13
