REMARK SMILES CCc1cccc(-c2ccc([C@@H](C)C(=O)NCCCCNC(=O)c3ccc(-c4c5nc(c(-c6ccccc6)c6ccc([nH]6)c(-c6ccccc6)c6nc(c(-c7ccccc7)c7ccc4[nH]7)C=C6)C=C5)cc3)cc2)c1
REMARK SMILES IDX 18 1 17 2 16 3 14 4 15 5 12 7 13 8 11 9 8 10 9 11 73 12
REMARK SMILES IDX 10 13 72 14 7 15 3 16 4 17 74 18 5 19 6 20 2 21 1 22 19 23
REMARK SMILES IDX 20 24 21 25 22 26 23 28 24 29 25 30 71 31 26 32 70 33 27 34
REMARK SMILES IDX 28 35 29 36 64 37 30 38 69 39 63 40 65 41 31 42 68 43 62 44
REMARK SMILES IDX 61 45 32 47 54 48 39 49 53 50 40 51 43 52 52 53 66 54 41 55
REMARK SMILES IDX 42 56 51 58 67 59 44 60 33 61 34 62 38 63 35 64 37 65 36 66
REMARK SMILES IDX 55 67 56 68 60 69 57 70 59 71 58 72 45 73 46 74 50 75 47 76
REMARK SMILES IDX 49 77 48 78
REMARK H PARENT 16 6 21 27 65 46 43 57
REMARK Flexibility Score: inf
ROOT
ATOM      1  C   UNL     1       3.824   6.758   3.643  1.00  0.00     0.023 C 
ENDROOT
BRANCH   1   2
ATOM      2  C   UNL     1       3.151   8.093   3.965  1.00  0.00     0.116 C 
BRANCH   2   3
ATOM      3  N   UNL     1       2.275   8.535   2.901  1.00  0.00    -0.356 N 
ATOM      4  C   UNL     1       0.932   8.388   2.726  1.00  0.00     0.227 C 
ATOM      5  O   UNL     1       0.467   8.818   1.663  1.00  0.00    -0.274 OA
ATOM      6  H   UNL     1       2.728   9.027   2.179  1.00  0.00     0.163 HD
BRANCH   4   7
ATOM      7  C   UNL     1       0.002   7.742   3.766  1.00  0.00     0.105 C 
ATOM      8  C   UNL     1      -0.054   8.491   5.098  1.00  0.00     0.023 C 
BRANCH   7   9
ATOM      9  C   UNL     1       0.147   6.231   3.843  1.00  0.00    -0.036 A 
ATOM     10  C   UNL     1       0.521   3.389   3.753  1.00  0.00    -0.018 A 
ATOM     11  C   UNL     1       1.173   4.195   4.702  1.00  0.00     0.009 A 
ATOM     12  C   UNL     1      -0.368   4.045   2.886  1.00  0.00     0.009 A 
ATOM     13  C   UNL     1       0.965   5.581   4.769  1.00  0.00     0.005 A 
ATOM     14  C   UNL     1      -0.534   5.436   2.912  1.00  0.00     0.005 A 
BRANCH  10  15
ATOM     15  C   UNL     1       0.774   1.926   3.660  1.00  0.00    -0.018 A 
ATOM     16  C   UNL     1       0.868  -0.154   2.327  1.00  0.00    -0.048 A 
ATOM     17  C   UNL     1       1.272  -0.858   3.465  1.00  0.00     0.004 A 
ATOM     18  C   UNL     1       0.627   1.227   2.442  1.00  0.00     0.012 A 
ATOM     19  C   UNL     1       1.433  -0.199   4.680  1.00  0.00     0.001 A 
ATOM     20  C   UNL     1       1.179   1.172   4.776  1.00  0.00     0.009 A 
BRANCH  16  21
ATOM     21  C   UNL     1       0.622  -0.898   1.035  1.00  0.00     0.032 C 
ATOM     22  C   UNL     1       1.206  -0.236  -0.207  1.00  0.00     0.009 C 
ENDBRANCH  16  21
ENDBRANCH  10  15
ENDBRANCH   7   9
ENDBRANCH   4   7
ENDBRANCH   2   3
ENDBRANCH   1   2
BRANCH   1  23
ATOM     23  C   UNL     1       5.111   6.863   2.829  1.00  0.00     0.023 C 
BRANCH  23  24
ATOM     24  C   UNL     1       6.242   7.637   3.496  1.00  0.00     0.116 C 
BRANCH  24  25
ATOM     25  N   UNL     1       6.641   7.112   4.794  1.00  0.00    -0.352 N 
ATOM     26  C   UNL     1       7.886   7.173   5.382  1.00  0.00     0.251 C 
ATOM     27  H   UNL     1       5.938   6.660   5.314  1.00  0.00     0.163 HD
ATOM     28  O   UNL     1       8.104   6.630   6.457  1.00  0.00    -0.269 OA
BRANCH  26  29
ATOM     29  C   UNL     1       8.973   7.865   4.661  1.00  0.00     0.039 A 
ATOM     30  C   UNL     1      10.159   7.175   4.402  1.00  0.00     0.014 A 
ATOM     31  C   UNL     1       8.778   9.158   4.170  1.00  0.00     0.014 A 
ATOM     32  C   UNL     1      11.121   7.752   3.571  1.00  0.00     0.010 A 
ATOM     33  C   UNL     1       9.703   9.699   3.287  1.00  0.00     0.010 A 
ATOM     34  C   UNL     1      10.878   8.998   2.972  1.00  0.00    -0.014 A 
BRANCH  34  35
ATOM     35  C   UNL     1      11.829   9.600   2.007  1.00  0.00     0.031 A 
ATOM     36  C   UNL     1      12.499  10.903   2.337  1.00  0.00     0.074 A 
ATOM     37  C   UNL     1      12.002   9.039   0.795  1.00  0.00     0.049 A 
ATOM     38  N   UNL     1      13.242  11.666   1.578  1.00  0.00    -0.248 NA
ATOM     39  C   UNL     1      12.268  11.436   3.689  1.00  0.00     0.031 C 
ATOM     40  C   UNL     1      11.369   7.803   0.332  1.00  0.00     0.029 A 
ATOM     41  N   UNL     1      12.748   9.454  -0.279  1.00  0.00    -0.354 N 
ATOM     42  C   UNL     1      13.537  12.784   2.347  1.00  0.00     0.074 A 
ATOM     43  C   UNL     1      12.860  12.618   3.615  1.00  0.00     0.031 C 
ATOM     44  C   UNL     1      11.761   7.555  -0.929  1.00  0.00     0.029 A 
ATOM     45  C   UNL     1      12.641   8.631  -1.373  1.00  0.00     0.049 A 
ATOM     46  H   UNL     1      13.306  10.265  -0.267  1.00  0.00     0.167 HD
ATOM     47  C   UNL     1      14.314  13.847   2.034  1.00  0.00     0.031 A 
ATOM     48  C   UNL     1      13.180   8.738  -2.602  1.00  0.00     0.031 A 
ATOM     49  C   UNL     1      15.008  14.000   0.784  1.00  0.00     0.049 A 
ATOM     50  C   UNL     1      14.064   9.909  -2.920  1.00  0.00     0.074 A 
ATOM     51  C   UNL     1      15.873  15.007   0.395  1.00  0.00     0.029 A 
ATOM     52  N   UNL     1      14.917  13.114  -0.278  1.00  0.00    -0.354 N 
ATOM     53  N   UNL     1      14.384  10.929  -2.161  1.00  0.00    -0.248 NA
ATOM     54  C   UNL     1      14.671   9.938  -4.258  1.00  0.00     0.031 C 
ATOM     55  C   UNL     1      16.281  14.746  -0.918  1.00  0.00     0.029 A 
ATOM     56  C   UNL     1      15.701  13.557  -1.329  1.00  0.00     0.049 A 
ATOM     57  H   UNL     1      14.374  12.293  -0.284  1.00  0.00     0.167 HD
ATOM     58  C   UNL     1      15.245  11.710  -2.920  1.00  0.00     0.074 A 
ATOM     59  C   UNL     1      15.405  11.041  -4.196  1.00  0.00     0.031 C 
ATOM     60  C   UNL     1      15.850  12.876  -2.588  1.00  0.00     0.031 A 
BRANCH  47  61
ATOM     61  C   UNL     1      14.439  14.928   3.069  1.00  0.00    -0.014 A 
ATOM     62  C   UNL     1      15.157  14.717   4.257  1.00  0.00     0.009 A 
ATOM     63  C   UNL     1      13.823  16.171   2.858  1.00  0.00     0.009 A 
ATOM     64  C   UNL     1      15.214  15.712   5.234  1.00  0.00     0.001 A 
ATOM     65  C   UNL     1      13.906  17.174   3.825  1.00  0.00     0.001 A 
ATOM     66  C   UNL     1      14.590  16.940   5.017  1.00  0.00     0.000 A 
ENDBRANCH  47  61
BRANCH  48  67
ATOM     67  C   UNL     1      12.907   7.689  -3.617  1.00  0.00    -0.014 A 
ATOM     68  C   UNL     1      13.889   6.740  -3.937  1.00  0.00     0.009 A 
ATOM     69  C   UNL     1      11.657   7.616  -4.250  1.00  0.00     0.009 A 
ATOM     70  C   UNL     1      13.630   5.746  -4.883  1.00  0.00     0.001 A 
ATOM     71  C   UNL     1      11.393   6.607  -5.180  1.00  0.00     0.001 A 
ATOM     72  C   UNL     1      12.381   5.677  -5.500  1.00  0.00     0.000 A 
ENDBRANCH  48  67
BRANCH  60  73
ATOM     73  C   UNL     1      16.768  13.489  -3.606  1.00  0.00    -0.014 A 
ATOM     74  C   UNL     1      16.261  14.171  -4.721  1.00  0.00     0.009 A 
ATOM     75  C   UNL     1      18.156  13.434  -3.409  1.00  0.00     0.009 A 
ATOM     76  C   UNL     1      17.131  14.772  -5.633  1.00  0.00     0.001 A 
ATOM     77  C   UNL     1      19.022  14.053  -4.310  1.00  0.00     0.001 A 
ATOM     78  C   UNL     1      18.509  14.717  -5.424  1.00  0.00     0.000 A 
ENDBRANCH  60  73
ENDBRANCH  34  35
ENDBRANCH  26  29
ENDBRANCH  24  25
ENDBRANCH  23  24
ENDBRANCH   1  23
TORSDOF 14
