REMARK SMILES NS(=O)(=O)c1ccc(N2N=C(C(=O)NCCCCNC(=O)c3ccc(-c4c5nc(c(-c6ccccc6)c6ccc([nH]6)c(-c6ccccc6)c6nc(c(-c7ccccc7)c7ccc4[nH]7)C=C6)C=C5)cc3)C[C@H]2c2ccco2)cc1
REMARK SMILES IDX 16 1 15 2 14 3 12 4 13 5 11 7 9 8 10 9 71 10 70 11 8 12 5 13
REMARK SMILES IDX 6 14 78 15 7 16 77 17 2 18 3 19 4 20 1 21 72 24 73 25 76 26
REMARK SMILES IDX 74 27 75 28 17 29 18 30 19 31 20 32 21 34 22 35 23 36 69 37
REMARK SMILES IDX 24 38 68 39 25 40 26 41 27 42 62 43 28 44 67 45 61 46 63 47
REMARK SMILES IDX 29 48 66 49 60 50 59 51 30 53 52 54 37 55 51 56 38 57 41 58
REMARK SMILES IDX 50 59 64 60 39 61 40 62 49 64 65 65 42 66 31 67 32 68 36 69
REMARK SMILES IDX 33 70 35 71 34 72 53 73 54 74 58 75 55 76 57 77 56 78 43 79
REMARK SMILES IDX 44 80 48 81 45 82 47 83 46 84
REMARK H PARENT 14 6 1 22 1 23 19 33 63 52 41 63
REMARK Flexibility Score: inf
ROOT
ATOM      1  C   UNL     1       2.341  10.897   5.494  1.00  0.00     0.023 C 
ENDROOT
BRANCH   1   2
ATOM      2  C   UNL     1       2.687  10.838   4.009  1.00  0.00     0.116 C 
BRANCH   2   3
ATOM      3  N   UNL     1       3.795   9.938   3.760  1.00  0.00    -0.351 N 
ATOM      4  C   UNL     1       3.924   8.720   3.139  1.00  0.00     0.267 C 
ATOM      5  O   UNL     1       5.027   8.179   3.187  1.00  0.00    -0.268 OA
ATOM      6  H   UNL     1       4.648  10.276   4.116  1.00  0.00     0.163 HD
BRANCH   4   7
ATOM      7  C   UNL     1       2.806   8.026   2.372  1.00  0.00     0.128 C 
ATOM      8  N   UNL     1       1.881   6.618   1.055  1.00  0.00    -0.254 N 
ATOM      9  N   UNL     1       3.005   6.886   1.780  1.00  0.00    -0.171 NA
ATOM     10  C   UNL     1       0.779   7.548   1.319  1.00  0.00     0.180 C 
ATOM     11  C   UNL     1       1.434   8.586   2.232  1.00  0.00     0.099 C 
BRANCH   8  12
ATOM     12  C   UNL     1       1.625   5.325   0.601  1.00  0.00     0.060 A 
ATOM     13  C   UNL     1       0.984   2.741  -0.304  1.00  0.00     0.082 A 
ATOM     14  C   UNL     1       1.546   2.911   0.962  1.00  0.00     0.024 A 
ATOM     15  C   UNL     1       0.776   3.840  -1.137  1.00  0.00     0.024 A 
ATOM     16  C   UNL     1       1.875   4.200   1.401  1.00  0.00     0.029 A 
ATOM     17  C   UNL     1       1.095   5.118  -0.680  1.00  0.00     0.029 A 
BRANCH  13  18
ATOM     18  S   UNL     1       0.537   1.148  -0.919  1.00  0.00     0.238 S 
ATOM     19  O   UNL     1       1.144   0.971  -2.220  1.00  0.00    -0.207 OA
ATOM     20  O   UNL     1      -0.872   0.954  -0.684  1.00  0.00    -0.207 OA
BRANCH  18  21
ATOM     21  N   UNL     1       1.325   0.057   0.086  1.00  0.00    -0.225 NA
ATOM     22  H   UNL     1       1.112  -0.895  -0.211  1.00  0.00     0.137 HD
ATOM     23  H   UNL     1       1.011   0.192   1.047  1.00  0.00     0.137 HD
ENDBRANCH  18  21
ENDBRANCH  13  18
ENDBRANCH   8  12
BRANCH  10  24
ATOM     24  C   UNL     1       0.101   8.185   0.143  1.00  0.00     0.128 A 
ATOM     25  C   UNL     1      -1.035   7.857  -0.574  1.00  0.00     0.048 A 
ATOM     26  O   UNL     1       0.647   9.330  -0.369  1.00  0.00    -0.467 OA
ATOM     27  C   UNL     1      -1.183   8.849  -1.572  1.00  0.00     0.042 A 
ATOM     28  C   UNL     1      -0.142   9.729  -1.397  1.00  0.00     0.195 A 
ENDBRANCH  10  24
ENDBRANCH   4   7
ENDBRANCH   2   3
ENDBRANCH   1   2
BRANCH   1  29
ATOM     29  C   UNL     1       3.314  11.721   6.336  1.00  0.00     0.023 C 
BRANCH  29  30
ATOM     30  C   UNL     1       3.512  13.164   5.879  1.00  0.00     0.116 C 
BRANCH  30  31
ATOM     31  N   UNL     1       2.267  13.906   5.740  1.00  0.00    -0.352 N 
ATOM     32  C   UNL     1       2.008  15.217   6.057  1.00  0.00     0.251 C 
ATOM     33  H   UNL     1       1.509  13.400   5.368  1.00  0.00     0.163 HD
ATOM     34  O   UNL     1       0.870  15.665   5.966  1.00  0.00    -0.269 OA
BRANCH  32  35
ATOM     35  C   UNL     1       3.106  16.073   6.548  1.00  0.00     0.039 A 
ATOM     36  C   UNL     1       2.913  16.811   7.718  1.00  0.00     0.014 A 
ATOM     37  C   UNL     1       4.330  16.115   5.876  1.00  0.00     0.014 A 
ATOM     38  C   UNL     1       3.976  17.539   8.255  1.00  0.00     0.010 A 
ATOM     39  C   UNL     1       5.406  16.784   6.449  1.00  0.00     0.010 A 
ATOM     40  C   UNL     1       5.239  17.502   7.643  1.00  0.00    -0.014 A 
BRANCH  40  41
ATOM     41  C   UNL     1       6.401  18.210   8.233  1.00  0.00     0.031 A 
ATOM     42  C   UNL     1       7.043  19.348   7.490  1.00  0.00     0.074 A 
ATOM     43  C   UNL     1       6.922  17.784   9.400  1.00  0.00     0.049 A 
ATOM     44  N   UNL     1       8.106  20.043   7.805  1.00  0.00    -0.248 NA
ATOM     45  C   UNL     1       6.426  19.736   6.212  1.00  0.00     0.031 C 
ATOM     46  C   UNL     1       6.418  16.664  10.198  1.00  0.00     0.029 A 
ATOM     47  N   UNL     1       8.000  18.242  10.114  1.00  0.00    -0.354 N 
ATOM     48  C   UNL     1       8.299  20.931   6.754  1.00  0.00     0.074 A 
ATOM     49  C   UNL     1       7.271  20.658   5.774  1.00  0.00     0.031 C 
ATOM     50  C   UNL     1       7.169  16.541  11.305  1.00  0.00     0.029 A 
ATOM     51  C   UNL     1       8.226  17.546  11.277  1.00  0.00     0.049 A 
ATOM     52  H   UNL     1       8.559  18.998   9.821  1.00  0.00     0.167 HD
ATOM     53  C   UNL     1       9.235  21.900   6.624  1.00  0.00     0.031 A 
ATOM     54  C   UNL     1       9.180  17.701  12.214  1.00  0.00     0.031 A 
ATOM     55  C   UNL     1      10.242  22.189   7.608  1.00  0.00     0.049 A 
ATOM     56  C   UNL     1      10.202  18.790  12.051  1.00  0.00     0.074 A 
ATOM     57  C   UNL     1      11.197  23.191   7.597  1.00  0.00     0.029 A 
ATOM     58  N   UNL     1      10.423  21.475   8.782  1.00  0.00    -0.354 N 
ATOM     59  N   UNL     1      10.330  19.664  11.083  1.00  0.00    -0.248 NA
ATOM     60  C   UNL     1      11.203  18.921  13.119  1.00  0.00     0.031 C 
ATOM     61  C   UNL     1      11.981  23.059   8.748  1.00  0.00     0.029 A 
ATOM     62  C   UNL     1      11.484  22.005   9.497  1.00  0.00     0.049 A 
ATOM     63  H   UNL     1       9.878  20.706   9.066  1.00  0.00     0.167 HD
ATOM     64  C   UNL     1      11.405  20.468  11.439  1.00  0.00     0.074 A 
ATOM     65  C   UNL     1      11.886  19.984  12.717  1.00  0.00     0.031 C 
ATOM     66  C   UNL     1      11.944  21.515  10.770  1.00  0.00     0.031 A 
BRANCH  53  67
ATOM     67  C   UNL     1       9.210  22.717   5.364  1.00  0.00    -0.014 A 
ATOM     68  C   UNL     1       8.189  23.652   5.124  1.00  0.00     0.009 A 
ATOM     69  C   UNL     1      10.232  22.568   4.414  1.00  0.00     0.009 A 
ATOM     70  C   UNL     1       8.173  24.393   3.941  1.00  0.00     0.001 A 
ATOM     71  C   UNL     1      10.228  23.331   3.245  1.00  0.00     0.001 A 
ATOM     72  C   UNL     1       9.194  24.234   3.004  1.00  0.00     0.000 A 
ENDBRANCH  53  67
BRANCH  54  73
ATOM     73  C   UNL     1       9.198  16.821  13.411  1.00  0.00    -0.014 A 
ATOM     74  C   UNL     1       8.831  17.327  14.667  1.00  0.00     0.009 A 
ATOM     75  C   UNL     1       9.591  15.478  13.308  1.00  0.00     0.009 A 
ATOM     76  C   UNL     1       8.883  16.514  15.801  1.00  0.00     0.001 A 
ATOM     77  C   UNL     1       9.617  14.660  14.440  1.00  0.00     0.001 A 
ATOM     78  C   UNL     1       9.272  15.180  15.686  1.00  0.00     0.000 A 
ENDBRANCH  54  73
BRANCH  66  79
ATOM     79  C   UNL     1      13.085  22.236  11.427  1.00  0.00    -0.014 A 
ATOM     80  C   UNL     1      14.367  21.669  11.488  1.00  0.00     0.009 A 
ATOM     81  C   UNL     1      12.880  23.519  11.958  1.00  0.00     0.009 A 
ATOM     82  C   UNL     1      15.415  22.362  12.096  1.00  0.00     0.001 A 
ATOM     83  C   UNL     1      13.935  24.220  12.541  1.00  0.00     0.001 A 
ATOM     84  C   UNL     1      15.200  23.638  12.618  1.00  0.00     0.000 A 
ENDBRANCH  66  79
ENDBRANCH  40  41
ENDBRANCH  32  35
ENDBRANCH  30  31
ENDBRANCH  29  30
ENDBRANCH   1  29
TORSDOF 15
