REMARK SMILES O=C(NCCCCNC(=O)c1ccc(-c2c3nc(c(-c4ccccc4)c4ccc([nH]4)c(-c4ccccc4)c4nc(c(-c5ccccc5)c5ccc2[nH]5)C=C4)C=C3)cc1)C1=Cc2cc(Cl)ccc2O[C@@H]1C(F)(F)F
REMARK SMILES IDX 6 1 5 2 4 3 3 4 1 5 2 6 59 8 60 9 69 10 61 11 68 12 62 13
REMARK SMILES IDX 67 14 63 15 66 16 64 17 65 18 70 19 71 20 72 21 73 22 7 23
REMARK SMILES IDX 8 24 9 25 10 27 11 28 12 29 58 30 13 31 57 32 14 33 15 34
REMARK SMILES IDX 16 35 51 36 17 37 56 38 50 39 52 40 18 41 55 42 49 43 48 44
REMARK SMILES IDX 19 46 41 47 26 48 40 49 27 50 30 51 39 52 53 53 28 54 29 55
REMARK SMILES IDX 38 57 54 58 31 59 20 60 21 61 25 62 22 63 24 64 23 65 42 66
REMARK SMILES IDX 43 67 47 68 44 69 46 70 45 71 32 72 33 73 37 74 34 75 36 76
REMARK SMILES IDX 35 77
REMARK H PARENT 3 7 8 26 52 45 30 56
REMARK Flexibility Score: inf
ROOT
ATOM      1  C   UNL     1       4.093  -4.145   1.546  1.00  0.00     0.023 C 
ENDROOT
BRANCH   1   2
ATOM      2  C   UNL     1       4.221  -2.632   1.740  1.00  0.00     0.023 C 
BRANCH   2   3
ATOM      3  C   UNL     1       3.573  -1.803   0.627  1.00  0.00     0.116 C 
BRANCH   3   4
ATOM      4  N   UNL     1       2.518  -0.906   1.106  1.00  0.00    -0.352 N 
ATOM      5  O   UNL     1       1.195   0.935   1.071  1.00  0.00    -0.270 OA
ATOM      6  C   UNL     1       2.271   0.415   0.809  1.00  0.00     0.251 C 
ATOM      7  H   UNL     1       1.885  -1.313   1.740  1.00  0.00     0.163 HD
BRANCH   6   8
ATOM      8  C   UNL     1       3.314   1.157   0.080  1.00  0.00     0.067 C 
ATOM      9  C   UNL     1       4.507   1.311   0.668  1.00  0.00     0.025 C 
ATOM     10  C   UNL     1       3.105   1.391  -1.385  1.00  0.00     0.314 C 
ATOM     11  C   UNL     1       5.616   0.943  -0.222  1.00  0.00     0.019 A 
ATOM     12  O   UNL     1       4.150   0.786  -2.185  1.00  0.00    -0.475 OA
ATOM     13  C   UNL     1       6.814   0.540   0.378  1.00  0.00     0.032 A 
ATOM     14  C   UNL     1       5.357   0.588  -1.561  1.00  0.00     0.128 A 
ATOM     15  C   UNL     1       7.701  -0.269  -0.331  1.00  0.00     0.041 A 
ATOM     16  C   UNL     1       6.274  -0.183  -2.276  1.00  0.00     0.048 A 
ATOM     17  Cl  UNL     1       9.072  -0.922   0.477  1.00  0.00    -0.084 Cl
ATOM     18  C   UNL     1       7.435  -0.636  -1.649  1.00  0.00     0.024 A 
BRANCH  10  19
ATOM     19  C   UNL     1       2.975   2.891  -1.703  1.00  0.00     0.429 C 
ATOM     20  F   UNL     1       2.669   3.086  -3.010  1.00  0.00    -0.167 F 
ATOM     21  F   UNL     1       1.993   3.478  -0.980  1.00  0.00    -0.167 F 
ATOM     22  F   UNL     1       4.118   3.573  -1.456  1.00  0.00    -0.167 F 
ENDBRANCH  10  19
ENDBRANCH   6   8
ENDBRANCH   3   4
ENDBRANCH   2   3
ENDBRANCH   1   2
BRANCH   1  23
ATOM     23  C   UNL     1       4.658  -4.719   0.248  1.00  0.00     0.116 C 
BRANCH  23  24
ATOM     24  N   UNL     1       6.095  -4.569   0.085  1.00  0.00    -0.352 N 
ATOM     25  C   UNL     1       6.997  -5.489  -0.412  1.00  0.00     0.251 C 
ATOM     26  H   UNL     1       6.473  -3.703   0.363  1.00  0.00     0.163 HD
ATOM     27  O   UNL     1       8.194  -5.223  -0.482  1.00  0.00    -0.269 OA
BRANCH  25  28
ATOM     28  C   UNL     1       6.514  -6.830  -0.805  1.00  0.00     0.039 A 
ATOM     29  C   UNL     1       7.084  -7.955  -0.201  1.00  0.00     0.014 A 
ATOM     30  C   UNL     1       5.437  -6.970  -1.683  1.00  0.00     0.014 A 
ATOM     31  C   UNL     1       6.497  -9.209  -0.387  1.00  0.00     0.010 A 
ATOM     32  C   UNL     1       4.810  -8.207  -1.807  1.00  0.00     0.010 A 
ATOM     33  C   UNL     1       5.318  -9.334  -1.140  1.00  0.00    -0.014 A 
BRANCH  33  34
ATOM     34  C   UNL     1       4.574 -10.619  -1.201  1.00  0.00     0.031 A 
ATOM     35  C   UNL     1       4.392 -11.333  -2.511  1.00  0.00     0.074 A 
ATOM     36  C   UNL     1       3.985 -11.101  -0.088  1.00  0.00     0.049 A 
ATOM     37  N   UNL     1       3.713 -12.422  -2.769  1.00  0.00    -0.248 NA
ATOM     38  C   UNL     1       5.033 -10.728  -3.689  1.00  0.00     0.031 C 
ATOM     39  C   UNL     1       4.034 -10.481   1.239  1.00  0.00     0.029 A 
ATOM     40  N   UNL     1       3.219 -12.226   0.103  1.00  0.00    -0.354 N 
ATOM     41  C   UNL     1       3.827 -12.620  -4.139  1.00  0.00     0.074 A 
ATOM     42  C   UNL     1       4.602 -11.516  -4.663  1.00  0.00     0.031 C 
ATOM     43  C   UNL     1       3.356 -11.247   2.109  1.00  0.00     0.029 A 
ATOM     44  C   UNL     1       2.793 -12.390   1.399  1.00  0.00     0.049 A 
ATOM     45  H   UNL     1       2.996 -12.854  -0.621  1.00  0.00     0.167 HD
ATOM     46  C   UNL     1       3.349 -13.639  -4.892  1.00  0.00     0.031 A 
ATOM     47  C   UNL     1       2.034 -13.352   1.956  1.00  0.00     0.031 A 
ATOM     48  C   UNL     1       2.595 -14.748  -4.375  1.00  0.00     0.049 A 
ATOM     49  C   UNL     1       1.523 -14.477   1.101  1.00  0.00     0.074 A 
ATOM     50  C   UNL     1       2.121 -15.859  -5.052  1.00  0.00     0.029 A 
ATOM     51  N   UNL     1       2.206 -14.889  -3.053  1.00  0.00    -0.354 N 
ATOM     52  N   UNL     1       1.700 -14.685  -0.181  1.00  0.00    -0.248 NA
ATOM     53  C   UNL     1       0.715 -15.506   1.773  1.00  0.00     0.031 C 
ATOM     54  C   UNL     1       1.412 -16.654  -4.144  1.00  0.00     0.029 A 
ATOM     55  C   UNL     1       1.483 -16.059  -2.896  1.00  0.00     0.049 A 
ATOM     56  H   UNL     1       2.413 -14.251  -2.332  1.00  0.00     0.167 HD
ATOM     57  C   UNL     1       1.049 -15.878  -0.464  1.00  0.00     0.074 A 
ATOM     58  C   UNL     1       0.485 -16.356   0.782  1.00  0.00     0.031 C 
ATOM     59  C   UNL     1       0.930 -16.521  -1.650  1.00  0.00     0.031 A 
BRANCH  46  60
ATOM     60  C   UNL     1       3.631 -13.592  -6.367  1.00  0.00    -0.014 A 
ATOM     61  C   UNL     1       4.924 -13.821  -6.864  1.00  0.00     0.009 A 
ATOM     62  C   UNL     1       2.589 -13.338  -7.272  1.00  0.00     0.009 A 
ATOM     63  C   UNL     1       5.175 -13.757  -8.236  1.00  0.00     0.001 A 
ATOM     64  C   UNL     1       2.839 -13.301  -8.645  1.00  0.00     0.001 A 
ATOM     65  C   UNL     1       4.132 -13.500  -9.125  1.00  0.00     0.000 A 
ENDBRANCH  46  60
BRANCH  47  66
ATOM     66  C   UNL     1       1.726 -13.313   3.409  1.00  0.00    -0.014 A 
ATOM     67  C   UNL     1       2.339 -14.220   4.288  1.00  0.00     0.009 A 
ATOM     68  C   UNL     1       0.813 -12.380   3.924  1.00  0.00     0.009 A 
ATOM     69  C   UNL     1       2.025 -14.210   5.649  1.00  0.00     0.001 A 
ATOM     70  C   UNL     1       0.519 -12.356   5.289  1.00  0.00     0.001 A 
ATOM     71  C   UNL     1       1.118 -13.276   6.149  1.00  0.00     0.000 A 
ENDBRANCH  47  66
BRANCH  59  72
ATOM     72  C   UNL     1       0.189 -17.827  -1.651  1.00  0.00    -0.014 A 
ATOM     73  C   UNL     1      -1.210 -17.868  -1.547  1.00  0.00     0.009 A 
ATOM     74  C   UNL     1       0.898 -19.028  -1.800  1.00  0.00     0.009 A 
ATOM     75  C   UNL     1      -1.882 -19.092  -1.564  1.00  0.00     0.001 A 
ATOM     76  C   UNL     1       0.222 -20.248  -1.841  1.00  0.00     0.001 A 
ATOM     77  C   UNL     1      -1.166 -20.279  -1.715  1.00  0.00     0.000 A 
ENDBRANCH  59  72
ENDBRANCH  33  34
ENDBRANCH  25  28
ENDBRANCH  23  24
ENDBRANCH   1  23
TORSDOF 12
