REMARK SMILES O=C(NCCCCNC(=O)[C@H]1[C@H]2CC[C@H](CC2)[C@H]1C(=O)Nc1ccc(C(=O)N2CCCC2)cc1)c1ccc(-c2c3nc(c(-c4ccccc4)c4ccc([nH]4)c(-c4ccccc4)c4nc(c(-c5ccccc5)c5ccc2[nH]5)C=C4)C=C3)cc1
REMARK SMILES IDX 6 1 5 2 4 3 3 4 1 5 2 6 35 8 36 9 82 10 37 11 81 12 38 13
REMARK SMILES IDX 39 14 40 15 75 16 41 17 80 18 74 19 76 20 42 21 79 22 73 23
REMARK SMILES IDX 72 24 43 26 65 27 50 28 64 29 51 30 54 31 63 32 77 33 52 34
REMARK SMILES IDX 53 35 62 37 78 38 55 39 44 40 45 41 49 42 46 43 48 44 47 45
REMARK SMILES IDX 66 46 67 47 71 48 68 49 70 50 69 51 56 52 57 53 61 54 58 55
REMARK SMILES IDX 60 56 59 57 7 58 8 59 9 60 10 62 11 63 12 64 18 65 17 66
REMARK SMILES IDX 13 67 15 68 16 69 14 70 19 71 20 72 21 73 22 75 23 76 34 77
REMARK SMILES IDX 24 78 33 79 25 80 26 81 27 82 28 83 29 84 32 85 30 86 31 87
REMARK H PARENT 3 7 76 25 54 36 8 61 21 74
REMARK Flexibility Score: inf
ROOT
ATOM      1  C   UNL     1       4.168   2.873  -2.543  1.00  0.00     0.023 C 
ENDROOT
BRANCH   1   2
ATOM      2  C   UNL     1       4.734   1.514  -2.123  1.00  0.00     0.023 C 
BRANCH   2   3
ATOM      3  C   UNL     1       4.528   1.156  -0.657  1.00  0.00     0.116 C 
BRANCH   3   4
ATOM      4  N   UNL     1       3.121   1.036  -0.307  1.00  0.00    -0.352 N 
ATOM      5  O   UNL     1       1.188  -0.021   0.175  1.00  0.00    -0.269 OA
ATOM      6  C   UNL     1       2.412  -0.070   0.096  1.00  0.00     0.251 C 
ATOM      7  H   UNL     1       2.601   1.869  -0.368  1.00  0.00     0.163 HD
BRANCH   6   8
ATOM      8  C   UNL     1       3.124  -1.322   0.424  1.00  0.00     0.039 A 
ATOM      9  C   UNL     1       4.265  -1.295   1.228  1.00  0.00     0.014 A 
ATOM     10  C   UNL     1       2.636  -2.538  -0.063  1.00  0.00     0.014 A 
ATOM     11  C   UNL     1       4.998  -2.459   1.424  1.00  0.00     0.010 A 
ATOM     12  C   UNL     1       3.327  -3.723   0.210  1.00  0.00     0.010 A 
ATOM     13  C   UNL     1       4.529  -3.689   0.933  1.00  0.00    -0.014 A 
BRANCH  13  14
ATOM     14  C   UNL     1       5.277  -4.927   1.265  1.00  0.00     0.031 A 
ATOM     15  C   UNL     1       5.955  -5.745   0.202  1.00  0.00     0.074 A 
ATOM     16  C   UNL     1       5.376  -5.286   2.560  1.00  0.00     0.049 A 
ATOM     17  N   UNL     1       6.689  -6.821   0.339  1.00  0.00    -0.248 NA
ATOM     18  C   UNL     1       5.786  -5.308  -1.193  1.00  0.00     0.031 C 
ATOM     19  C   UNL     1       4.753  -4.575   3.681  1.00  0.00     0.029 A 
ATOM     20  N   UNL     1       6.055  -6.315   3.158  1.00  0.00    -0.354 N 
ATOM     21  C   UNL     1       7.059  -7.198  -0.946  1.00  0.00     0.074 A 
ATOM     22  C   UNL     1       6.449  -6.250  -1.853  1.00  0.00     0.031 C 
ATOM     23  C   UNL     1       5.126  -5.154   4.831  1.00  0.00     0.029 A 
ATOM     24  C   UNL     1       5.957  -6.312   4.528  1.00  0.00     0.049 A 
ATOM     25  H   UNL     1       6.564  -6.991   2.654  1.00  0.00     0.167 HD
ATOM     26  C   UNL     1       7.838  -8.237  -1.331  1.00  0.00     0.031 A 
ATOM     27  C   UNL     1       6.468  -7.155   5.443  1.00  0.00     0.031 A 
ATOM     28  C   UNL     1       8.442  -9.181  -0.426  1.00  0.00     0.049 A 
ATOM     29  C   UNL     1       7.301  -8.313   4.982  1.00  0.00     0.074 A 
ATOM     30  C   UNL     1       9.269 -10.252  -0.722  1.00  0.00     0.029 A 
ATOM     31  N   UNL     1       8.282  -9.170   0.951  1.00  0.00    -0.354 N 
ATOM     32  N   UNL     1       7.665  -8.633   3.765  1.00  0.00    -0.248 NA
ATOM     33  C   UNL     1       7.791  -9.226   6.023  1.00  0.00     0.031 C 
ATOM     34  C   UNL     1       9.568 -10.918   0.471  1.00  0.00     0.029 A 
ATOM     35  C   UNL     1       8.972 -10.230   1.516  1.00  0.00     0.049 A 
ATOM     36  H   UNL     1       7.755  -8.507   1.453  1.00  0.00     0.167 HD
ATOM     37  C   UNL     1       8.436  -9.779   3.893  1.00  0.00     0.074 A 
ATOM     38  C   UNL     1       8.511 -10.079   5.309  1.00  0.00     0.031 C 
ATOM     39  C   UNL     1       9.025 -10.521   2.925  1.00  0.00     0.031 A 
BRANCH  26  40
ATOM     40  C   UNL     1       8.070  -8.428  -2.805  1.00  0.00    -0.014 A 
ATOM     41  C   UNL     1       8.921  -7.575  -3.526  1.00  0.00     0.009 A 
ATOM     42  C   UNL     1       7.481  -9.517  -3.468  1.00  0.00     0.009 A 
ATOM     43  C   UNL     1       9.156  -7.795  -4.885  1.00  0.00     0.001 A 
ATOM     44  C   UNL     1       7.737  -9.748  -4.821  1.00  0.00     0.001 A 
ATOM     45  C   UNL     1       8.570  -8.884  -5.530  1.00  0.00     0.000 A 
ENDBRANCH  26  40
BRANCH  27  46
ATOM     46  C   UNL     1       6.183  -6.941   6.885  1.00  0.00    -0.014 A 
ATOM     47  C   UNL     1       7.201  -6.547   7.766  1.00  0.00     0.009 A 
ATOM     48  C   UNL     1       4.885  -7.127   7.386  1.00  0.00     0.009 A 
ATOM     49  C   UNL     1       6.928  -6.366   9.124  1.00  0.00     0.001 A 
ATOM     50  C   UNL     1       4.609  -6.915   8.738  1.00  0.00     0.001 A 
ATOM     51  C   UNL     1       5.633  -6.544   9.607  1.00  0.00     0.000 A 
ENDBRANCH  27  46
BRANCH  39  52
ATOM     52  C   UNL     1       9.815 -11.716   3.375  1.00  0.00    -0.014 A 
ATOM     53  C   UNL     1       9.174 -12.868   3.858  1.00  0.00     0.009 A 
ATOM     54  C   UNL     1      11.216 -11.692   3.306  1.00  0.00     0.009 A 
ATOM     55  C   UNL     1       9.925 -13.959   4.300  1.00  0.00     0.001 A 
ATOM     56  C   UNL     1      11.962 -12.795   3.723  1.00  0.00     0.001 A 
ATOM     57  C   UNL     1      11.317 -13.922   4.229  1.00  0.00     0.000 A 
ENDBRANCH  39  52
ENDBRANCH  13  14
ENDBRANCH   6   8
ENDBRANCH   3   4
ENDBRANCH   2   3
ENDBRANCH   1   2
BRANCH   1  58
ATOM     58  C   UNL     1       4.655   4.066  -1.722  1.00  0.00     0.116 C 
BRANCH  58  59
ATOM     59  N   UNL     1       6.090   4.231  -1.797  1.00  0.00    -0.356 N 
ATOM     60  C   UNL     1       6.841   5.361  -1.791  1.00  0.00     0.224 C 
ATOM     61  H   UNL     1       6.602   3.393  -1.861  1.00  0.00     0.163 HD
ATOM     62  O   UNL     1       8.014   5.226  -2.148  1.00  0.00    -0.275 OA
BRANCH  60  63
ATOM     63  C   UNL     1       6.242   6.732  -1.533  1.00  0.00     0.094 C 
ATOM     64  C   UNL     1       5.113   7.020  -0.492  1.00  0.00     0.002 C 
ATOM     65  C   UNL     1       7.266   7.886  -1.505  1.00  0.00     0.094 C 
ATOM     66  C   UNL     1       5.587   7.635   0.839  1.00  0.00     0.005 C 
ATOM     67  C   UNL     1       4.243   8.130  -1.127  1.00  0.00     0.005 C 
ATOM     68  C   UNL     1       6.576   9.139  -0.881  1.00  0.00     0.002 C 
ATOM     69  C   UNL     1       6.367   8.931   0.618  1.00  0.00     0.005 C 
ATOM     70  C   UNL     1       5.158   9.319  -1.500  1.00  0.00     0.005 C 
BRANCH  65  71
ATOM     71  C   UNL     1       8.769   7.747  -1.107  1.00  0.00     0.228 C 
ATOM     72  O   UNL     1       9.596   8.312  -1.846  1.00  0.00    -0.274 OA
ATOM     73  N   UNL     1       9.296   7.277   0.063  1.00  0.00    -0.326 N 
ATOM     74  H   UNL     1      10.243   7.519   0.182  1.00  0.00     0.169 HD
BRANCH  73  75
ATOM     75  C   UNL     1       8.787   6.529   1.125  1.00  0.00     0.041 A 
ATOM     76  C   UNL     1       8.902   7.030   2.419  1.00  0.00     0.027 A 
ATOM     77  C   UNL     1       8.204   5.284   0.956  1.00  0.00     0.027 A 
ATOM     78  C   UNL     1       8.157   6.446   3.454  1.00  0.00     0.016 A 
ATOM     79  C   UNL     1       7.452   4.697   1.979  1.00  0.00     0.016 A 
ATOM     80  C   UNL     1       7.330   5.332   3.213  1.00  0.00     0.040 A 
BRANCH  80  81
ATOM     81  C   UNL     1       6.225   5.086   4.203  1.00  0.00     0.253 C 
ATOM     82  O   UNL     1       6.294   5.645   5.298  1.00  0.00    -0.269 OA
ATOM     83  N   UNL     1       5.036   4.518   3.769  1.00  0.00    -0.339 N 
ATOM     84  C   UNL     1       4.806   3.184   3.250  1.00  0.00     0.120 C 
ATOM     85  C   UNL     1       3.770   5.087   4.210  1.00  0.00     0.120 C 
ATOM     86  C   UNL     1       3.437   3.314   2.606  1.00  0.00     0.023 C 
ATOM     87  C   UNL     1       2.688   4.196   3.600  1.00  0.00     0.023 C 
ENDBRANCH  80  81
ENDBRANCH  73  75
ENDBRANCH  65  71
ENDBRANCH  60  63
ENDBRANCH  58  59
ENDBRANCH   1  58
TORSDOF 14
