REMARK SMILES C[C@@H]1CC[C@H](C)[N@H+]1Cc1cc2c(cc1Cl)C=C(C(=O)NCCCCNC(=O)c1ccc(-c3c4nc(c(-c5ccccc5)c5ccc([nH]5)c(-c5ccccc5)c5nc(c(-c6ccccc6)c6ccc3[nH]6)C=C5)C=C4)cc1)[C@@H](C(F)(F)F)O2
REMARK SMILES IDX 22 1 21 2 20 3 18 4 19 5 17 7 9 8 10 9 14 10 11 11 13 12
REMARK SMILES IDX 15 13 12 14 81 15 16 16 76 17 8 18 7 19 6 20 5 21 4 22 3 23
REMARK SMILES IDX 2 24 1 26 77 27 78 28 79 29 80 30 23 31 24 32 25 33 26 34
REMARK SMILES IDX 27 36 28 37 29 38 75 39 30 40 74 41 31 42 32 43 33 44 68 45
REMARK SMILES IDX 34 46 73 47 67 48 69 49 35 50 72 51 66 52 65 53 36 55 58 56
REMARK SMILES IDX 43 57 57 58 44 59 47 60 56 61 70 62 45 63 46 64 55 66 71 67
REMARK SMILES IDX 48 68 37 69 38 70 42 71 39 72 41 73 40 74 59 75 60 76 64 77
REMARK SMILES IDX 61 78 63 79 62 80 49 81 50 82 54 83 51 84 53 85 52 86
REMARK H PARENT 20 6 7 25 25 35 69 54 47 65
REMARK Flexibility Score: inf
ROOT
ATOM      1  C   UNL     1      -8.635   0.597   2.692  1.00  0.00     0.023 C 
ENDROOT
BRANCH   1   2
ATOM      2  C   UNL     1      -8.126   0.725   4.125  1.00  0.00     0.116 C 
BRANCH   2   3
ATOM      3  N   UNL     1      -7.766  -0.564   4.686  1.00  0.00    -0.352 N 
ATOM      4  C   UNL     1      -6.620  -1.233   4.954  1.00  0.00     0.251 C 
ATOM      5  O   UNL     1      -6.770  -2.349   5.461  1.00  0.00    -0.270 OA
ATOM      6  H   UNL     1      -8.560  -1.088   4.937  1.00  0.00     0.163 HD
BRANCH   4   7
ATOM      7  C   UNL     1      -5.245  -0.728   4.678  1.00  0.00     0.067 C 
ATOM      8  C   UNL     1      -0.244  -0.356   4.046  1.00  0.00     0.029 A 
ATOM      9  C   UNL     1      -1.367   0.254   3.456  1.00  0.00     0.058 A 
ATOM     10  C   UNL     1      -0.468  -1.256   5.103  1.00  0.00     0.050 A 
ATOM     11  C   UNL     1      -2.656  -0.096   3.846  1.00  0.00     0.128 A 
ATOM     12  C   UNL     1      -1.769  -1.651   5.447  1.00  0.00     0.033 A 
ATOM     13  Cl  UNL     1       0.807  -1.876   6.091  1.00  0.00    -0.084 Cl
ATOM     14  C   UNL     1      -2.867  -1.088   4.801  1.00  0.00     0.019 A 
ATOM     15  O   UNL     1      -3.693   0.551   3.232  1.00  0.00    -0.475 OA
ATOM     16  C   UNL     1      -4.232  -1.523   5.073  1.00  0.00     0.025 C 
ATOM     17  C   UNL     1      -4.923   0.581   4.012  1.00  0.00     0.314 C 
BRANCH   8  18
ATOM     18  C   UNL     1       1.127  -0.022   3.483  1.00  0.00     0.301 C 
BRANCH  18  19
ATOM     19  N   UNL     1       1.604  -0.852   2.365  1.00  0.00    -0.327 N 
ATOM     20  C   UNL     1       1.152   0.174   0.157  1.00  0.00     0.075 C 
ATOM     21  C   UNL     1       0.764  -0.904   1.159  1.00  0.00     0.181 C 
ATOM     22  C   UNL     1       0.969  -2.307   0.592  1.00  0.00     0.071 C 
ATOM     23  C   UNL     1       1.207  -3.136   1.836  1.00  0.00     0.071 C 
ATOM     24  C   UNL     1       2.030  -2.210   2.722  1.00  0.00     0.181 C 
ATOM     25  H   UNL     1       2.432  -0.309   2.117  1.00  0.00     0.348 HD
ATOM     26  C   UNL     1       3.530  -2.338   2.453  1.00  0.00     0.075 C 
ENDBRANCH  18  19
ENDBRANCH   8  18
BRANCH  17  27
ATOM     27  C   UNL     1      -4.893   1.751   5.021  1.00  0.00     0.429 C 
ATOM     28  F   UNL     1      -4.950   2.940   4.370  1.00  0.00    -0.167 F 
ATOM     29  F   UNL     1      -5.951   1.725   5.868  1.00  0.00    -0.167 F 
ATOM     30  F   UNL     1      -3.781   1.763   5.789  1.00  0.00    -0.167 F 
ENDBRANCH  17  27
ENDBRANCH   4   7
ENDBRANCH   2   3
ENDBRANCH   1   2
BRANCH   1  31
ATOM     31  C   UNL     1     -10.109   0.204   2.581  1.00  0.00     0.023 C 
BRANCH  31  32
ATOM     32  C   UNL     1     -11.082   1.112   3.328  1.00  0.00     0.116 C 
BRANCH  32  33
ATOM     33  N   UNL     1     -10.947   2.528   3.014  1.00  0.00    -0.352 N 
ATOM     34  C   UNL     1     -11.913   3.505   3.118  1.00  0.00     0.251 C 
ATOM     35  H   UNL     1     -10.064   2.820   2.690  1.00  0.00     0.163 HD
ATOM     36  O   UNL     1     -11.696   4.655   2.765  1.00  0.00    -0.269 OA
BRANCH  34  37
ATOM     37  C   UNL     1     -13.245   3.106   3.610  1.00  0.00     0.039 A 
ATOM     38  C   UNL     1     -13.361   2.434   4.828  1.00  0.00     0.014 A 
ATOM     39  C   UNL     1     -14.353   3.280   2.778  1.00  0.00     0.014 A 
ATOM     40  C   UNL     1     -14.547   1.777   5.128  1.00  0.00     0.010 A 
ATOM     41  C   UNL     1     -15.566   2.682   3.122  1.00  0.00     0.010 A 
ATOM     42  C   UNL     1     -15.653   1.875   4.268  1.00  0.00    -0.014 A 
BRANCH  42  43
ATOM     43  C   UNL     1     -16.878   1.092   4.568  1.00  0.00     0.031 A 
ATOM     44  C   UNL     1     -17.304  -0.039   3.670  1.00  0.00     0.074 A 
ATOM     45  C   UNL     1     -17.562   1.354   5.697  1.00  0.00     0.049 A 
ATOM     46  N   UNL     1     -18.328  -0.847   3.798  1.00  0.00    -0.248 NA
ATOM     47  C   UNL     1     -16.480  -0.305   2.479  1.00  0.00     0.031 C 
ATOM     48  C   UNL     1     -17.222   2.399   6.665  1.00  0.00     0.029 A 
ATOM     49  N   UNL     1     -18.659   0.739   6.242  1.00  0.00    -0.354 N 
ATOM     50  C   UNL     1     -18.285  -1.693   2.697  1.00  0.00     0.074 A 
ATOM     51  C   UNL     1     -17.145  -1.297   1.901  1.00  0.00     0.031 C 
ATOM     52  C   UNL     1     -18.049   2.308   7.716  1.00  0.00     0.029 A 
ATOM     53  C   UNL     1     -19.018   1.246   7.467  1.00  0.00     0.049 A 
ATOM     54  H   UNL     1     -19.143   0.004   5.799  1.00  0.00     0.167 HD
ATOM     55  C   UNL     1     -19.119  -2.712   2.383  1.00  0.00     0.031 A 
ATOM     56  C   UNL     1     -20.020   0.903   8.297  1.00  0.00     0.031 A 
ATOM     57  C   UNL     1     -20.237  -3.123   3.189  1.00  0.00     0.049 A 
ATOM     58  C   UNL     1     -20.955  -0.202   7.901  1.00  0.00     0.074 A 
ATOM     59  C   UNL     1     -21.128  -4.157   2.955  1.00  0.00     0.029 A 
ATOM     60  N   UNL     1     -20.613  -2.530   4.383  1.00  0.00    -0.354 N 
ATOM     61  N   UNL     1     -20.909  -0.980   6.847  1.00  0.00    -0.248 NA
ATOM     62  C   UNL     1     -22.087  -0.467   8.800  1.00  0.00     0.031 C 
ATOM     63  C   UNL     1     -22.071  -4.161   3.986  1.00  0.00     0.029 A 
ATOM     64  C   UNL     1     -21.735  -3.163   4.887  1.00  0.00     0.049 A 
ATOM     65  H   UNL     1     -20.150  -1.773   4.808  1.00  0.00     0.167 HD
ATOM     66  C   UNL     1     -21.997  -1.833   6.961  1.00  0.00     0.074 A 
ATOM     67  C   UNL     1     -22.675  -1.491   8.194  1.00  0.00     0.031 C 
ATOM     68  C   UNL     1     -22.399  -2.810   6.114  1.00  0.00     0.031 A 
BRANCH  55  69
ATOM     69  C   UNL     1     -18.876  -3.461   1.104  1.00  0.00    -0.014 A 
ATOM     70  C   UNL     1     -19.758  -3.292   0.024  1.00  0.00     0.009 A 
ATOM     71  C   UNL     1     -17.849  -4.411   1.002  1.00  0.00     0.009 A 
ATOM     72  C   UNL     1     -19.626  -4.070  -1.128  1.00  0.00     0.001 A 
ATOM     73  C   UNL     1     -17.707  -5.174  -0.160  1.00  0.00     0.001 A 
ATOM     74  C   UNL     1     -18.600  -5.009  -1.219  1.00  0.00     0.000 A 
ENDBRANCH  55  69
BRANCH  56  75
ATOM     75  C   UNL     1     -20.180   1.620   9.587  1.00  0.00    -0.014 A 
ATOM     76  C   UNL     1     -20.583   2.965   9.612  1.00  0.00     0.009 A 
ATOM     77  C   UNL     1     -19.891   0.974  10.798  1.00  0.00     0.009 A 
ATOM     78  C   UNL     1     -20.669   3.656  10.822  1.00  0.00     0.001 A 
ATOM     79  C   UNL     1     -20.006   1.661  12.009  1.00  0.00     0.001 A 
ATOM     80  C   UNL     1     -20.386   3.002  12.019  1.00  0.00     0.000 A 
ENDBRANCH  56  75
BRANCH  68  81
ATOM     81  C   UNL     1     -23.622  -3.595   6.488  1.00  0.00    -0.014 A 
ATOM     82  C   UNL     1     -23.492  -4.928   6.910  1.00  0.00     0.009 A 
ATOM     83  C   UNL     1     -24.904  -3.047   6.334  1.00  0.00     0.009 A 
ATOM     84  C   UNL     1     -24.625  -5.702   7.162  1.00  0.00     0.001 A 
ATOM     85  C   UNL     1     -26.035  -3.817   6.611  1.00  0.00     0.001 A 
ATOM     86  C   UNL     1     -25.895  -5.145   7.016  1.00  0.00     0.000 A 
ENDBRANCH  68  81
ENDBRANCH  42  43
ENDBRANCH  34  37
ENDBRANCH  32  33
ENDBRANCH  31  32
ENDBRANCH   1  31
TORSDOF 14
