REMARK SMILES CC[C@@H](Sc1nnc2ccc3ccccc3n12)C(=O)Nc1cccc(C(=O)NCCCCNC(=O)c2ccc(-c3c4nc(c(-c5ccccc5)c5ccc([nH]5)c(-c5ccccc5)c5nc(c(-c6ccccc6)c6ccc3[nH]6)C=C5)C=C4)cc2)c1
REMARK SMILES IDX 29 1 28 2 26 3 27 4 25 6 21 7 22 8 84 9 23 10 24 11 20 12
REMARK SMILES IDX 18 13 19 14 3 16 2 17 1 18 4 19 5 20 6 21 17 22 7 23 8 24
REMARK SMILES IDX 16 25 9 26 11 27 15 28 10 29 12 30 14 31 13 32 30 33 31 34
REMARK SMILES IDX 32 35 33 36 34 37 35 39 36 40 37 41 83 42 38 43 82 44 39 45
REMARK SMILES IDX 40 46 41 47 76 48 42 49 81 50 75 51 77 52 43 53 80 54 74 55
REMARK SMILES IDX 73 56 44 58 66 59 51 60 65 61 52 62 55 63 64 64 78 65 53 66
REMARK SMILES IDX 54 67 63 69 79 70 56 71 45 72 46 73 50 74 47 75 49 76 48 77
REMARK SMILES IDX 67 78 68 79 72 80 69 81 71 82 70 83 57 84 58 85 62 86 59 87
REMARK SMILES IDX 61 88 60 89
REMARK H PARENT 28 5 20 15 33 38 77 57 55 68
REMARK Flexibility Score: inf
ROOT
ATOM      1  C   UNL     1      -3.869  -5.436  -2.447  1.00  0.00     0.116 C 
ENDROOT
BRANCH   1   2
ATOM      2  N   UNL     1      -4.784  -4.953  -1.436  1.00  0.00    -0.352 N 
ATOM      3  C   UNL     1      -4.951  -3.709  -0.863  1.00  0.00     0.251 C 
ATOM      4  O   UNL     1      -5.855  -3.584  -0.052  1.00  0.00    -0.269 OA
ATOM      5  H   UNL     1      -5.402  -5.639  -1.093  1.00  0.00     0.163 HD
BRANCH   3   6
ATOM      6  C   UNL     1      -4.058  -2.542  -1.148  1.00  0.00     0.041 A 
ATOM      7  C   UNL     1      -2.209  -1.465  -2.276  1.00  0.00     0.041 A 
ATOM      8  C   UNL     1      -2.347  -0.358  -1.457  1.00  0.00     0.026 A 
ATOM      9  C   UNL     1      -3.194  -2.448  -2.240  1.00  0.00     0.040 A 
ATOM     10  C   UNL     1      -3.263  -0.370  -0.410  1.00  0.00     0.003 A 
ATOM     11  C   UNL     1      -4.071  -1.489  -0.219  1.00  0.00     0.014 A 
BRANCH   7  12
ATOM     12  N   UNL     1      -1.115  -1.677  -3.131  1.00  0.00    -0.325 N 
ATOM     13  C   UNL     1       0.205  -1.903  -2.798  1.00  0.00     0.237 C 
ATOM     14  O   UNL     1       0.915  -2.368  -3.703  1.00  0.00    -0.273 OA
ATOM     15  H   UNL     1      -1.316  -1.661  -4.095  1.00  0.00     0.169 HD
BRANCH  13  16
ATOM     16  C   UNL     1       0.839  -1.651  -1.397  1.00  0.00     0.144 C 
BRANCH  16  17
ATOM     17  C   UNL     1       0.904  -0.131  -1.166  1.00  0.00     0.021 C 
ATOM     18  C   UNL     1       1.794   0.443  -0.081  1.00  0.00     0.005 C 
ENDBRANCH  16  17
BRANCH  16  19
ATOM     19  S   UNL     1       0.148  -2.920  -0.234  1.00  0.00    -0.072 SA
BRANCH  19  20
ATOM     20  C   UNL     1       0.798  -2.548   1.324  1.00  0.00     0.196 A 
ATOM     21  N   UNL     1       0.654  -1.349   1.837  1.00  0.00    -0.122 NA
ATOM     22  N   UNL     1       1.337  -3.403   2.286  1.00  0.00    -0.270 N 
ATOM     23  N   UNL     1       1.188  -1.331   3.087  1.00  0.00    -0.129 NA
ATOM     24  C   UNL     1       1.575  -2.552   3.370  1.00  0.00     0.161 A 
ATOM     25  C   UNL     1       1.626  -4.802   2.360  1.00  0.00     0.057 A 
ATOM     26  C   UNL     1       2.132  -3.049   4.569  1.00  0.00     0.050 A 
ATOM     27  C   UNL     1       2.145  -5.274   3.593  1.00  0.00    -0.001 A 
ATOM     28  C   UNL     1       1.420  -5.710   1.320  1.00  0.00     0.027 A 
ATOM     29  C   UNL     1       2.405  -4.351   4.701  1.00  0.00     0.014 A 
ATOM     30  C   UNL     1       2.423  -6.635   3.774  1.00  0.00     0.010 A 
ATOM     31  C   UNL     1       1.708  -7.070   1.516  1.00  0.00     0.002 A 
ATOM     32  C   UNL     1       2.200  -7.532   2.736  1.00  0.00     0.001 A 
ENDBRANCH  19  20
ENDBRANCH  16  19
ENDBRANCH  13  16
ENDBRANCH   7  12
ENDBRANCH   3   6
ENDBRANCH   1   2
BRANCH   1  33
ATOM     33  C   UNL     1      -3.498  -6.902  -2.333  1.00  0.00     0.023 C 
BRANCH  33  34
ATOM     34  C   UNL     1      -4.640  -7.908  -2.363  1.00  0.00     0.023 C 
BRANCH  34  35
ATOM     35  C   UNL     1      -5.655  -7.753  -3.497  1.00  0.00     0.116 C 
BRANCH  35  36
ATOM     36  N   UNL     1      -5.094  -7.639  -4.829  1.00  0.00    -0.352 N 
ATOM     37  C   UNL     1      -4.721  -8.530  -5.798  1.00  0.00     0.251 C 
ATOM     38  H   UNL     1      -4.948  -6.704  -5.099  1.00  0.00     0.163 HD
ATOM     39  O   UNL     1      -4.493  -8.056  -6.914  1.00  0.00    -0.269 OA
BRANCH  37  40
ATOM     40  C   UNL     1      -4.492  -9.984  -5.584  1.00  0.00     0.039 A 
ATOM     41  C   UNL     1      -4.712 -10.665  -4.390  1.00  0.00     0.014 A 
ATOM     42  C   UNL     1      -3.920 -10.688  -6.662  1.00  0.00     0.014 A 
ATOM     43  C   UNL     1      -4.233 -11.958  -4.220  1.00  0.00     0.010 A 
ATOM     44  C   UNL     1      -3.478 -11.998  -6.513  1.00  0.00     0.010 A 
ATOM     45  C   UNL     1      -3.577 -12.607  -5.268  1.00  0.00    -0.014 A 
BRANCH  45  46
ATOM     46  C   UNL     1      -3.081 -13.954  -5.010  1.00  0.00     0.031 A 
ATOM     47  C   UNL     1      -4.113 -14.956  -4.619  1.00  0.00     0.074 A 
ATOM     48  C   UNL     1      -1.796 -14.322  -5.176  1.00  0.00     0.049 A 
ATOM     49  N   UNL     1      -4.176 -15.657  -3.534  1.00  0.00    -0.248 NA
ATOM     50  C   UNL     1      -5.264 -15.134  -5.517  1.00  0.00     0.031 C 
ATOM     51  C   UNL     1      -0.710 -13.579  -5.818  1.00  0.00     0.029 A 
ATOM     52  N   UNL     1      -1.222 -15.526  -4.894  1.00  0.00    -0.354 N 
ATOM     53  C   UNL     1      -5.306 -16.464  -3.654  1.00  0.00     0.074 A 
ATOM     54  C   UNL     1      -5.988 -16.032  -4.849  1.00  0.00     0.031 C 
ATOM     55  C   UNL     1       0.297 -14.435  -6.107  1.00  0.00     0.029 A 
ATOM     56  C   UNL     1      -0.014 -15.736  -5.539  1.00  0.00     0.049 A 
ATOM     57  H   UNL     1      -1.629 -16.185  -4.287  1.00  0.00     0.167 HD
ATOM     58  C   UNL     1      -5.534 -17.532  -2.841  1.00  0.00     0.031 A 
ATOM     59  C   UNL     1       0.626 -16.923  -5.676  1.00  0.00     0.031 A 
ATOM     60  C   UNL     1      -4.742 -17.483  -1.644  1.00  0.00     0.049 A 
ATOM     61  C   UNL     1       0.115 -17.841  -4.631  1.00  0.00     0.074 A 
ATOM     62  C   UNL     1      -4.659 -16.604  -0.583  1.00  0.00     0.029 A 
ATOM     63  N   UNL     1      -3.609 -18.256  -1.581  1.00  0.00    -0.354 N 
ATOM     64  N   UNL     1       0.340 -17.685  -3.358  1.00  0.00    -0.248 NA
ATOM     65  C   UNL     1      -1.010 -18.700  -4.966  1.00  0.00     0.031 C 
ATOM     66  C   UNL     1      -3.273 -16.549  -0.266  1.00  0.00     0.029 A 
ATOM     67  C   UNL     1      -2.609 -17.446  -1.105  1.00  0.00     0.049 A 
ATOM     68  H   UNL     1      -3.530 -19.206  -1.828  1.00  0.00     0.167 HD
ATOM     69  C   UNL     1      -0.848 -18.051  -2.742  1.00  0.00     0.074 A 
ATOM     70  C   UNL     1      -1.606 -18.759  -3.772  1.00  0.00     0.031 C 
ATOM     71  C   UNL     1      -1.233 -17.507  -1.549  1.00  0.00     0.031 A 
BRANCH  58  72
ATOM     72  C   UNL     1      -6.269 -18.774  -3.268  1.00  0.00    -0.014 A 
ATOM     73  C   UNL     1      -6.498 -19.102  -4.617  1.00  0.00     0.009 A 
ATOM     74  C   UNL     1      -6.523 -19.784  -2.321  1.00  0.00     0.009 A 
ATOM     75  C   UNL     1      -6.946 -20.367  -5.007  1.00  0.00     0.001 A 
ATOM     76  C   UNL     1      -6.932 -21.066  -2.711  1.00  0.00     0.001 A 
ATOM     77  C   UNL     1      -7.140 -21.357  -4.055  1.00  0.00     0.000 A 
ENDBRANCH  58  72
BRANCH  59  78
ATOM     78  C   UNL     1       1.335 -17.415  -6.879  1.00  0.00    -0.014 A 
ATOM     79  C   UNL     1       0.974 -16.943  -8.155  1.00  0.00     0.009 A 
ATOM     80  C   UNL     1       2.165 -18.544  -6.812  1.00  0.00     0.009 A 
ATOM     81  C   UNL     1       1.394 -17.592  -9.319  1.00  0.00     0.001 A 
ATOM     82  C   UNL     1       2.582 -19.199  -7.979  1.00  0.00     0.001 A 
ATOM     83  C   UNL     1       2.185 -18.732  -9.230  1.00  0.00     0.000 A 
ENDBRANCH  59  78
BRANCH  71  84
ATOM     84  C   UNL     1      -0.252 -16.648  -0.781  1.00  0.00    -0.014 A 
ATOM     85  C   UNL     1      -0.115 -16.867   0.600  1.00  0.00     0.009 A 
ATOM     86  C   UNL     1       0.372 -15.516  -1.334  1.00  0.00     0.009 A 
ATOM     87  C   UNL     1       0.603 -15.979   1.404  1.00  0.00     0.001 A 
ATOM     88  C   UNL     1       1.117 -14.642  -0.534  1.00  0.00     0.001 A 
ATOM     89  C   UNL     1       1.222 -14.868   0.837  1.00  0.00     0.000 A 
ENDBRANCH  71  84
ENDBRANCH  45  46
ENDBRANCH  37  40
ENDBRANCH  35  36
ENDBRANCH  34  35
ENDBRANCH  33  34
ENDBRANCH   1  33
TORSDOF 16
