REMARK SMILES Cc1cc(Cl)ccc1Oc1cc(C)c(N)c(C(=O)NCCCCNC(=O)c2ccc(-c3c4nc(c(-c5ccccc5)c5ccc([nH]5)c(-c5ccccc5)c5nc(c(-c6ccccc6)c6ccc3[nH]6)C=C5)C=C4)cc2)c1
REMARK SMILES IDX 21 1 20 2 19 3 17 4 18 5 16 7 10 8 11 9 75 10 12 11 13 12
REMARK SMILES IDX 14 13 9 14 8 15 1 16 2 17 3 18 4 19 7 20 5 21 6 22 15 23
REMARK SMILES IDX 22 26 23 27 24 28 25 29 26 31 27 32 28 33 74 34 29 35 73 36
REMARK SMILES IDX 30 37 31 38 32 39 67 40 33 41 72 42 66 43 68 44 34 45 71 46
REMARK SMILES IDX 65 47 64 48 35 50 57 51 42 52 56 53 43 54 46 55 55 56 69 57
REMARK SMILES IDX 44 58 45 59 54 61 70 62 47 63 36 64 37 65 41 66 38 67 40 68
REMARK SMILES IDX 39 69 58 70 59 71 63 72 60 73 62 74 61 75 48 76 49 77 53 78
REMARK SMILES IDX 50 79 52 80 51 81
REMARK H PARENT 19 6 15 24 15 25 24 30 68 49 46 60
REMARK Flexibility Score: inf
ROOT
ATOM      1  C   UNL     1      -5.299  -1.164   4.295  1.00  0.00     0.023 C 
ENDROOT
BRANCH   1   2
ATOM      2  C   UNL     1      -6.468  -1.352   3.324  1.00  0.00     0.116 C 
BRANCH   2   3
ATOM      3  N   UNL     1      -7.164  -0.097   3.123  1.00  0.00    -0.352 N 
ATOM      4  C   UNL     1      -7.093   0.895   2.175  1.00  0.00     0.253 C 
ATOM      5  O   UNL     1      -7.861   1.846   2.357  1.00  0.00    -0.269 OA
ATOM      6  H   UNL     1      -7.836   0.085   3.820  1.00  0.00     0.163 HD
BRANCH   4   7
ATOM      7  C   UNL     1      -6.208   0.862   0.956  1.00  0.00     0.066 A 
ATOM      8  C   UNL     1      -4.302  -0.003  -0.276  1.00  0.00     0.128 A 
ATOM      9  C   UNL     1      -4.662   0.718  -1.404  1.00  0.00     0.052 A 
ATOM     10  C   UNL     1      -5.060   0.067   0.892  1.00  0.00     0.063 A 
ATOM     11  C   UNL     1      -5.736   1.613  -1.340  1.00  0.00    -0.024 A 
ATOM     12  C   UNL     1      -5.989   2.518  -2.517  1.00  0.00     0.047 C 
ATOM     13  C   UNL     1      -6.530   1.680  -0.168  1.00  0.00     0.048 A 
BRANCH   8  14
ATOM     14  O   UNL     1      -3.265  -0.889  -0.321  1.00  0.00    -0.457 OA
BRANCH  14  15
ATOM     15  C   UNL     1      -1.959  -0.481  -0.153  1.00  0.00     0.130 A 
ATOM     16  C   UNL     1      -2.230   2.067   0.237  1.00  0.00     0.048 C 
ATOM     17  C   UNL     1      -1.432   0.800   0.095  1.00  0.00    -0.007 A 
ATOM     18  C   UNL     1      -0.029   0.937   0.195  1.00  0.00     0.027 A 
ATOM     19  C   UNL     1       0.822  -0.162   0.087  1.00  0.00     0.041 A 
ATOM     20  C   UNL     1      -1.080  -1.579  -0.252  1.00  0.00     0.049 A 
ATOM     21  Cl  UNL     1       2.522   0.055   0.224  1.00  0.00    -0.084 Cl
ATOM     22  C   UNL     1       0.300  -1.427  -0.129  1.00  0.00     0.024 A 
ENDBRANCH  14  15
ENDBRANCH   8  14
BRANCH  13  23
ATOM     23  N   UNL     1      -7.568   2.609  -0.111  1.00  0.00    -0.398 N 
ATOM     24  H   UNL     1      -7.775   3.164  -0.897  1.00  0.00     0.156 HD
ATOM     25  H   UNL     1      -8.094   2.710   0.715  1.00  0.00     0.156 HD
ENDBRANCH  13  23
ENDBRANCH   4   7
ENDBRANCH   2   3
ENDBRANCH   1   2
BRANCH   1  26
ATOM     26  C   UNL     1      -5.716  -1.084   5.770  1.00  0.00     0.023 C 
BRANCH  26  27
ATOM     27  C   UNL     1      -6.388  -2.339   6.320  1.00  0.00     0.116 C 
BRANCH  27  28
ATOM     28  N   UNL     1      -5.576  -3.537   6.178  1.00  0.00    -0.352 N 
ATOM     29  C   UNL     1      -5.560  -4.660   6.970  1.00  0.00     0.251 C 
ATOM     30  H   UNL     1      -4.956  -3.544   5.414  1.00  0.00     0.163 HD
ATOM     31  O   UNL     1      -4.743  -5.548   6.773  1.00  0.00    -0.269 OA
BRANCH  29  32
ATOM     32  C   UNL     1      -6.513  -4.764   8.094  1.00  0.00     0.039 A 
ATOM     33  C   UNL     1      -6.020  -5.087   9.361  1.00  0.00     0.014 A 
ATOM     34  C   UNL     1      -7.875  -4.519   7.904  1.00  0.00     0.014 A 
ATOM     35  C   UNL     1      -6.887  -5.098  10.455  1.00  0.00     0.010 A 
ATOM     36  C   UNL     1      -8.726  -4.471   9.005  1.00  0.00     0.010 A 
ATOM     37  C   UNL     1      -8.239  -4.756  10.290  1.00  0.00    -0.014 A 
BRANCH  37  38
ATOM     38  C   UNL     1      -9.156  -4.676  11.452  1.00  0.00     0.031 A 
ATOM     39  C   UNL     1     -10.312  -5.628  11.571  1.00  0.00     0.074 A 
ATOM     40  C   UNL     1      -8.992  -3.694  12.360  1.00  0.00     0.049 A 
ATOM     41  N   UNL     1     -11.255  -5.671  12.479  1.00  0.00    -0.248 NA
ATOM     42  C   UNL     1     -10.443  -6.649  10.519  1.00  0.00     0.031 C 
ATOM     43  C   UNL     1      -7.942  -2.674  12.327  1.00  0.00     0.029 A 
ATOM     44  N   UNL     1      -9.719  -3.385  13.482  1.00  0.00    -0.354 N 
ATOM     45  C   UNL     1     -12.102  -6.702  12.093  1.00  0.00     0.074 A 
ATOM     46  C   UNL     1     -11.584  -7.235  10.852  1.00  0.00     0.031 C 
ATOM     47  C   UNL     1      -8.083  -1.863  13.388  1.00  0.00     0.029 A 
ATOM     48  C   UNL     1      -9.250  -2.284  14.156  1.00  0.00     0.049 A 
ATOM     49  H   UNL     1     -10.503  -3.904  13.777  1.00  0.00     0.167 HD
ATOM     50  C   UNL     1     -13.203  -7.173  12.724  1.00  0.00     0.031 A 
ATOM     51  C   UNL     1      -9.712  -1.676  15.265  1.00  0.00     0.031 A 
ATOM     52  C   UNL     1     -13.703  -6.660  13.971  1.00  0.00     0.049 A 
ATOM     53  C   UNL     1     -10.925  -2.233  15.957  1.00  0.00     0.074 A 
ATOM     54  C   UNL     1     -14.764  -7.124  14.730  1.00  0.00     0.029 A 
ATOM     55  N   UNL     1     -13.178  -5.567  14.641  1.00  0.00    -0.354 N 
ATOM     56  N   UNL     1     -11.662  -3.265  15.627  1.00  0.00    -0.248 NA
ATOM     57  C   UNL     1     -11.359  -1.548  17.183  1.00  0.00     0.031 C 
ATOM     58  C   UNL     1     -14.909  -6.282  15.837  1.00  0.00     0.029 A 
ATOM     59  C   UNL     1     -13.908  -5.325  15.792  1.00  0.00     0.049 A 
ATOM     60  H   UNL     1     -12.402  -5.040  14.343  1.00  0.00     0.167 HD
ATOM     61  C   UNL     1     -12.631  -3.369  16.617  1.00  0.00     0.074 A 
ATOM     62  C   UNL     1     -12.377  -2.306  17.567  1.00  0.00     0.031 C 
ATOM     63  C   UNL     1     -13.641  -4.265  16.728  1.00  0.00     0.031 A 
BRANCH  50  64
ATOM     64  C   UNL     1     -13.950  -8.301  12.070  1.00  0.00    -0.014 A 
ATOM     65  C   UNL     1     -13.419  -9.600  12.034  1.00  0.00     0.009 A 
ATOM     66  C   UNL     1     -15.221  -8.070  11.524  1.00  0.00     0.009 A 
ATOM     67  C   UNL     1     -14.135 -10.638  11.433  1.00  0.00     0.001 A 
ATOM     68  C   UNL     1     -15.945  -9.115  10.948  1.00  0.00     0.001 A 
ATOM     69  C   UNL     1     -15.398 -10.396  10.896  1.00  0.00     0.000 A 
ENDBRANCH  50  64
BRANCH  51  70
ATOM     70  C   UNL     1      -9.022  -0.474  15.800  1.00  0.00    -0.014 A 
ATOM     71  C   UNL     1      -8.282  -0.548  16.990  1.00  0.00     0.009 A 
ATOM     72  C   UNL     1      -9.109   0.756  15.129  1.00  0.00     0.009 A 
ATOM     73  C   UNL     1      -7.670   0.593  17.514  1.00  0.00     0.001 A 
ATOM     74  C   UNL     1      -8.473   1.888  15.641  1.00  0.00     0.001 A 
ATOM     75  C   UNL     1      -7.763   1.809  16.838  1.00  0.00     0.000 A 
ENDBRANCH  51  70
BRANCH  63  76
ATOM     76  C   UNL     1     -14.527  -4.154  17.935  1.00  0.00    -0.014 A 
ATOM     77  C   UNL     1     -15.472  -3.124  18.051  1.00  0.00     0.009 A 
ATOM     78  C   UNL     1     -14.441  -5.120  18.950  1.00  0.00     0.009 A 
ATOM     79  C   UNL     1     -16.295  -3.047  19.176  1.00  0.00     0.001 A 
ATOM     80  C   UNL     1     -15.284  -5.056  20.060  1.00  0.00     0.001 A 
ATOM     81  C   UNL     1     -16.204  -4.015  20.177  1.00  0.00     0.000 A 
ENDBRANCH  63  76
ENDBRANCH  37  38
ENDBRANCH  29  32
ENDBRANCH  27  28
ENDBRANCH  26  27
ENDBRANCH   1  26
TORSDOF 14
