REMARK SMILES Cc1ncc(CO)c([C@H]2[NH2+][C@@H](C(=O)NCCCCNC(=O)c3ccc(-c4c5nc(c(-c6ccccc6)c6ccc([nH]6)c(-c6ccccc6)c6nc(c(-c7ccccc7)c7ccc4[nH]7)C=C6)C=C5)cc3)Cc3[nH]cnc32)c1O
REMARK SMILES IDX 16 1 15 2 14 3 12 4 13 5 11 7 9 8 10 9 75 10 71 13 74 14
REMARK SMILES IDX 70 15 72 16 73 17 8 19 1 20 2 21 3 22 76 23 4 24 5 25 77 26
REMARK SMILES IDX 6 28 7 29 17 31 18 32 19 33 20 34 21 36 22 37 23 38 69 39
REMARK SMILES IDX 24 40 68 41 25 42 26 43 27 44 62 45 28 46 67 47 61 48 63 49
REMARK SMILES IDX 29 50 66 51 60 52 59 53 30 55 52 56 37 57 51 58 38 59 41 60
REMARK SMILES IDX 50 61 64 62 39 63 40 64 49 66 65 67 42 68 31 69 32 70 36 71
REMARK SMILES IDX 33 72 35 73 34 74 53 75 54 76 58 77 55 78 57 79 56 80 43 81
REMARK SMILES IDX 44 82 48 83 45 84 47 85 46 86
REMARK H PARENT 14 6 10 11 10 12 72 18 77 27 7 30 19 35 63 54 41 65
REMARK Flexibility Score: inf
ROOT
ATOM      1  C   UNL     1      -5.381   2.353   0.341  1.00  0.00     0.023 C 
ENDROOT
BRANCH   1   2
ATOM      2  C   UNL     1      -4.866   3.718   0.804  1.00  0.00     0.116 C 
BRANCH   2   3
ATOM      3  N   UNL     1      -4.193   3.679   2.095  1.00  0.00    -0.351 N 
ATOM      4  C   UNL     1      -2.876   3.900   2.416  1.00  0.00     0.278 C 
ATOM      5  O   UNL     1      -2.566   3.921   3.607  1.00  0.00    -0.268 OA
ATOM      6  H   UNL     1      -4.774   3.458   2.859  1.00  0.00     0.163 HD
BRANCH   4   7
ATOM      7  C   UNL     1      -1.856   4.047   1.283  1.00  0.00     0.279 C 
ATOM      8  C   UNL     1      -0.189   2.866   0.043  1.00  0.00     0.270 C 
ATOM      9  N   UNL     1      -0.808   2.993   1.390  1.00  0.00    -0.324 N 
ATOM     10  C   UNL     1       0.474   4.170  -0.291  1.00  0.00     0.124 A 
ATOM     11  H   UNL     1      -0.104   3.265   2.076  1.00  0.00     0.347 HD
ATOM     12  H   UNL     1      -1.210   2.106   1.694  1.00  0.00     0.347 HD
ATOM     13  C   UNL     1      -0.071   5.357   0.198  1.00  0.00     0.051 A 
ATOM     14  N   UNL     1       1.333   4.450  -1.324  1.00  0.00    -0.235 NA
ATOM     15  C   UNL     1      -1.202   5.449   1.185  1.00  0.00     0.131 C 
ATOM     16  N   UNL     1       0.524   6.364  -0.498  1.00  0.00    -0.348 N 
ATOM     17  C   UNL     1       1.363   5.767  -1.404  1.00  0.00     0.197 A 
ATOM     18  H   UNL     1       0.380   7.330  -0.375  1.00  0.00     0.167 HD
BRANCH   8  19
ATOM     19  C   UNL     1       0.452   1.513  -0.123  1.00  0.00     0.066 A 
ATOM     20  C   UNL     1      -1.172  -1.979  -0.114  1.00  0.00     0.071 C 
ATOM     21  C   UNL     1      -0.144  -0.887  -0.176  1.00  0.00     0.079 A 
ATOM     22  N   UNL     1       1.149  -1.251  -0.165  1.00  0.00    -0.257 NA
ATOM     23  C   UNL     1      -0.507   0.454  -0.200  1.00  0.00     0.146 A 
ATOM     24  C   UNL     1       2.067  -0.252  -0.115  1.00  0.00     0.118 A 
ATOM     25  C   UNL     1       1.795   1.128  -0.059  1.00  0.00     0.009 A 
BRANCH  23  26
ATOM     26  O   UNL     1      -1.853   0.754  -0.226  1.00  0.00    -0.505 OA
ATOM     27  H   UNL     1      -2.486   0.065  -0.276  1.00  0.00     0.293 HD
ENDBRANCH  23  26
BRANCH  25  28
ATOM     28  C   UNL     1       2.979   2.038   0.083  1.00  0.00     0.194 C 
BRANCH  28  29
ATOM     29  O   UNL     1       3.722   1.671   1.246  1.00  0.00    -0.392 OA
ATOM     30  H   UNL     1       3.155   1.751   2.030  1.00  0.00     0.211 HD
ENDBRANCH  28  29
ENDBRANCH  25  28
ENDBRANCH   8  19
ENDBRANCH   4   7
ENDBRANCH   2   3
ENDBRANCH   1   2
BRANCH   1  31
ATOM     31  C   UNL     1      -6.489   1.727   1.200  1.00  0.00     0.023 C 
BRANCH  31  32
ATOM     32  C   UNL     1      -7.734   2.588   1.372  1.00  0.00     0.116 C 
BRANCH  32  33
ATOM     33  N   UNL     1      -8.446   2.839   0.120  1.00  0.00    -0.352 N 
ATOM     34  C   UNL     1      -9.551   3.656  -0.074  1.00  0.00     0.251 C 
ATOM     35  H   UNL     1      -8.102   2.376  -0.678  1.00  0.00     0.163 HD
ATOM     36  O   UNL     1     -10.296   3.504  -1.024  1.00  0.00    -0.269 OA
BRANCH  34  37
ATOM     37  C   UNL     1      -9.790   4.738   0.899  1.00  0.00     0.039 A 
ATOM     38  C   UNL     1     -11.064   5.007   1.406  1.00  0.00     0.014 A 
ATOM     39  C   UNL     1      -8.682   5.460   1.329  1.00  0.00     0.014 A 
ATOM     40  C   UNL     1     -11.195   5.955   2.420  1.00  0.00     0.010 A 
ATOM     41  C   UNL     1      -8.786   6.272   2.426  1.00  0.00     0.010 A 
ATOM     42  C   UNL     1     -10.045   6.569   2.939  1.00  0.00    -0.014 A 
BRANCH  42  43
ATOM     43  C   UNL     1     -10.111   7.446   4.103  1.00  0.00     0.031 A 
ATOM     44  C   UNL     1     -10.695   6.825   5.324  1.00  0.00     0.074 A 
ATOM     45  C   UNL     1      -9.459   8.629   4.152  1.00  0.00     0.049 A 
ATOM     46  N   UNL     1     -11.781   7.161   5.935  1.00  0.00    -0.248 NA
ATOM     47  C   UNL     1     -10.057   5.614   5.866  1.00  0.00     0.031 C 
ATOM     48  C   UNL     1      -8.565   9.214   3.143  1.00  0.00     0.029 A 
ATOM     49  N   UNL     1      -9.345   9.504   5.187  1.00  0.00    -0.354 N 
ATOM     50  C   UNL     1     -11.866   6.336   7.054  1.00  0.00     0.074 A 
ATOM     51  C   UNL     1     -10.885   5.298   6.865  1.00  0.00     0.031 C 
ATOM     52  C   UNL     1      -7.815  10.185   3.710  1.00  0.00     0.029 A 
ATOM     53  C   UNL     1      -8.301  10.413   5.057  1.00  0.00     0.049 A 
ATOM     54  H   UNL     1      -9.951   9.494   5.963  1.00  0.00     0.167 HD
ATOM     55  C   UNL     1     -12.558   6.717   8.165  1.00  0.00     0.031 A 
ATOM     56  C   UNL     1      -7.846  11.273   6.001  1.00  0.00     0.031 A 
ATOM     57  C   UNL     1     -13.411   7.847   7.894  1.00  0.00     0.049 A 
ATOM     58  C   UNL     1      -8.912  11.415   7.018  1.00  0.00     0.074 A 
ATOM     59  C   UNL     1     -14.459   8.095   7.032  1.00  0.00     0.029 A 
ATOM     60  N   UNL     1     -12.952   9.079   8.296  1.00  0.00    -0.354 N 
ATOM     61  N   UNL     1     -10.059  11.981   6.776  1.00  0.00    -0.248 NA
ATOM     62  C   UNL     1      -8.885  10.521   8.165  1.00  0.00     0.031 C 
ATOM     63  C   UNL     1     -14.252   9.433   6.584  1.00  0.00     0.029 A 
ATOM     64  C   UNL     1     -13.144   9.950   7.258  1.00  0.00     0.049 A 
ATOM     65  H   UNL     1     -12.557   9.295   9.172  1.00  0.00     0.167 HD
ATOM     66  C   UNL     1     -10.986  11.185   7.431  1.00  0.00     0.074 A 
ATOM     67  C   UNL     1     -10.199  10.370   8.355  1.00  0.00     0.031 C 
ATOM     68  C   UNL     1     -12.261  11.056   6.958  1.00  0.00     0.031 A 
BRANCH  55  69
ATOM     69  C   UNL     1     -12.147   6.367   9.577  1.00  0.00    -0.014 A 
ATOM     70  C   UNL     1     -12.945   6.830  10.642  1.00  0.00     0.009 A 
ATOM     71  C   UNL     1     -10.874   5.872   9.914  1.00  0.00     0.009 A 
ATOM     72  C   UNL     1     -12.456   6.882  11.953  1.00  0.00     0.001 A 
ATOM     73  C   UNL     1     -10.399   5.883  11.229  1.00  0.00     0.001 A 
ATOM     74  C   UNL     1     -11.178   6.418  12.243  1.00  0.00     0.000 A 
ENDBRANCH  55  69
BRANCH  56  75
ATOM     75  C   UNL     1      -6.474  11.776   6.221  1.00  0.00    -0.014 A 
ATOM     76  C   UNL     1      -6.243  12.928   6.991  1.00  0.00     0.009 A 
ATOM     77  C   UNL     1      -5.367  10.967   5.906  1.00  0.00     0.009 A 
ATOM     78  C   UNL     1      -4.958  13.235   7.460  1.00  0.00     0.001 A 
ATOM     79  C   UNL     1      -4.084  11.274   6.374  1.00  0.00     0.001 A 
ATOM     80  C   UNL     1      -3.882  12.400   7.165  1.00  0.00     0.000 A 
ENDBRANCH  56  75
BRANCH  68  81
ATOM     81  C   UNL     1     -12.707  11.982   5.852  1.00  0.00    -0.014 A 
ATOM     82  C   UNL     1     -12.107  12.014   4.580  1.00  0.00     0.009 A 
ATOM     83  C   UNL     1     -13.878  12.727   6.053  1.00  0.00     0.009 A 
ATOM     84  C   UNL     1     -12.653  12.789   3.550  1.00  0.00     0.001 A 
ATOM     85  C   UNL     1     -14.434  13.483   5.020  1.00  0.00     0.001 A 
ATOM     86  C   UNL     1     -13.819  13.519   3.770  1.00  0.00     0.000 A 
ENDBRANCH  68  81
ENDBRANCH  42  43
ENDBRANCH  34  37
ENDBRANCH  32  33
ENDBRANCH  31  32
ENDBRANCH   1  31
TORSDOF 15
