REMARK SMILES O=C(NCCCCNC(=O)c1ccnc(-n2cnnn2)c1)c1ccc(-c2c3nc(c(-c4ccccc4)c4ccc([nH]4)c(-c4ccccc4)c4nc(c(-c5ccccc5)c5ccc2[nH]5)C=C4)C=C3)cc1
REMARK SMILES IDX 5 1 4 2 3 3 1 4 2 5 22 7 23 8 69 9 24 10 68 11 25 12 26 13
REMARK SMILES IDX 27 14 62 15 28 16 67 17 61 18 63 19 29 20 66 21 60 22 59 23
REMARK SMILES IDX 30 25 52 26 37 27 51 28 38 29 41 30 50 31 64 32 39 33 40 34
REMARK SMILES IDX 49 36 65 37 42 38 31 39 32 40 36 41 33 42 35 43 34 44 53 45
REMARK SMILES IDX 54 46 58 47 55 48 57 49 56 50 43 51 44 52 48 53 45 54 47 55
REMARK SMILES IDX 46 56 6 57 7 58 8 59 9 60 10 62 11 63 12 64 21 65 13 66
REMARK SMILES IDX 15 67 14 68 16 69 17 70 20 71 18 72 19 73
REMARK H PARENT 3 6 63 24 41 35 8 61
REMARK Flexibility Score: inf
ROOT
ATOM      1  C   UNL     1       4.955   0.056  -2.180  1.00  0.00     0.023 C 
ENDROOT
BRANCH   1   2
ATOM      2  C   UNL     1       4.690   0.812  -0.877  1.00  0.00     0.116 C 
BRANCH   2   3
ATOM      3  N   UNL     1       3.295   1.104  -0.628  1.00  0.00    -0.352 N 
ATOM      4  O   UNL     1       1.235   1.061   0.165  1.00  0.00    -0.269 OA
ATOM      5  C   UNL     1       2.265   0.417  -0.050  1.00  0.00     0.251 C 
ATOM      6  H   UNL     1       3.028   1.996  -0.946  1.00  0.00     0.163 HD
BRANCH   5   7
ATOM      7  C   UNL     1       2.273  -1.039   0.252  1.00  0.00     0.039 A 
ATOM      8  C   UNL     1       3.384  -1.883   0.188  1.00  0.00     0.014 A 
ATOM      9  C   UNL     1       1.021  -1.598   0.567  1.00  0.00     0.014 A 
ATOM     10  C   UNL     1       3.233  -3.260   0.307  1.00  0.00     0.010 A 
ATOM     11  C   UNL     1       0.866  -2.969   0.710  1.00  0.00     0.010 A 
ATOM     12  C   UNL     1       1.968  -3.800   0.528  1.00  0.00    -0.014 A 
BRANCH  12  13
ATOM     13  C   UNL     1       1.849  -5.243   0.701  1.00  0.00     0.031 A 
ATOM     14  C   UNL     1       2.494  -5.783   1.936  1.00  0.00     0.074 A 
ATOM     15  C   UNL     1       1.064  -5.992  -0.099  1.00  0.00     0.049 A 
ATOM     16  N   UNL     1       3.337  -6.758   2.048  1.00  0.00    -0.248 NA
ATOM     17  C   UNL     1       2.220  -5.083   3.205  1.00  0.00     0.031 C 
ATOM     18  C   UNL     1       0.164  -5.527  -1.158  1.00  0.00     0.029 A 
ATOM     19  N   UNL     1       0.796  -7.327  -0.036  1.00  0.00    -0.354 N 
ATOM     20  C   UNL     1       3.577  -6.906   3.415  1.00  0.00     0.074 A 
ATOM     21  C   UNL     1       2.964  -5.777   4.065  1.00  0.00     0.031 C 
ATOM     22  C   UNL     1      -0.723  -6.505  -1.450  1.00  0.00     0.029 A 
ATOM     23  C   UNL     1      -0.370  -7.696  -0.697  1.00  0.00     0.049 A 
ATOM     24  H   UNL     1       1.374  -7.970   0.434  1.00  0.00     0.167 HD
ATOM     25  C   UNL     1       4.072  -8.058   3.945  1.00  0.00     0.031 A 
ATOM     26  C   UNL     1      -1.047  -8.864  -0.566  1.00  0.00     0.031 A 
ATOM     27  C   UNL     1       4.742  -8.861   2.961  1.00  0.00     0.049 A 
ATOM     28  C   UNL     1      -0.133  -9.850   0.051  1.00  0.00     0.074 A 
ATOM     29  C   UNL     1       5.844  -8.692   2.148  1.00  0.00     0.029 A 
ATOM     30  N   UNL     1       4.061  -9.937   2.448  1.00  0.00    -0.354 N 
ATOM     31  N   UNL     1       0.918 -10.330  -0.548  1.00  0.00    -0.248 NA
ATOM     32  C   UNL     1      -0.137  -9.969   1.501  1.00  0.00     0.031 C 
ATOM     33  C   UNL     1       5.496  -9.337   0.925  1.00  0.00     0.029 A 
ATOM     34  C   UNL     1       4.233  -9.908   1.090  1.00  0.00     0.049 A 
ATOM     35  H   UNL     1       3.546 -10.603   2.959  1.00  0.00     0.167 HD
ATOM     36  C   UNL     1       1.884 -10.404   0.444  1.00  0.00     0.074 A 
ATOM     37  C   UNL     1       1.150 -10.263   1.701  1.00  0.00     0.031 C 
ATOM     38  C   UNL     1       3.211 -10.289   0.144  1.00  0.00     0.031 A 
BRANCH  25  39
ATOM     39  C   UNL     1       3.568  -8.644   5.246  1.00  0.00    -0.014 A 
ATOM     40  C   UNL     1       4.103  -9.869   5.686  1.00  0.00     0.009 A 
ATOM     41  C   UNL     1       2.388  -8.208   5.879  1.00  0.00     0.009 A 
ATOM     42  C   UNL     1       3.434 -10.661   6.628  1.00  0.00     0.001 A 
ATOM     43  C   UNL     1       1.740  -8.977   6.850  1.00  0.00     0.001 A 
ATOM     44  C   UNL     1       2.245 -10.220   7.199  1.00  0.00     0.000 A 
ENDBRANCH  25  39
BRANCH  26  45
ATOM     45  C   UNL     1      -2.509  -9.086  -0.636  1.00  0.00    -0.014 A 
ATOM     46  C   UNL     1      -3.039 -10.373  -0.824  1.00  0.00     0.009 A 
ATOM     47  C   UNL     1      -3.396  -8.064  -0.251  1.00  0.00     0.009 A 
ATOM     48  C   UNL     1      -4.401 -10.629  -0.606  1.00  0.00     0.001 A 
ATOM     49  C   UNL     1      -4.755  -8.318  -0.037  1.00  0.00     0.001 A 
ATOM     50  C   UNL     1      -5.255  -9.605  -0.202  1.00  0.00     0.000 A 
ENDBRANCH  26  45
BRANCH  38  51
ATOM     51  C   UNL     1       3.611 -10.282  -1.310  1.00  0.00    -0.014 A 
ATOM     52  C   UNL     1       3.188  -9.289  -2.212  1.00  0.00     0.009 A 
ATOM     53  C   UNL     1       4.572 -11.207  -1.740  1.00  0.00     0.009 A 
ATOM     54  C   UNL     1       3.694  -9.243  -3.515  1.00  0.00     0.001 A 
ATOM     55  C   UNL     1       5.092 -11.149  -3.034  1.00  0.00     0.001 A 
ATOM     56  C   UNL     1       4.650 -10.171  -3.923  1.00  0.00     0.000 A 
ENDBRANCH  38  51
ENDBRANCH  12  13
ENDBRANCH   5   7
ENDBRANCH   2   3
ENDBRANCH   1   2
BRANCH   1  57
ATOM     57  C   UNL     1       4.433   0.739  -3.448  1.00  0.00     0.023 C 
BRANCH  57  58
ATOM     58  C   UNL     1       4.833   2.201  -3.616  1.00  0.00     0.116 C 
BRANCH  58  59
ATOM     59  N   UNL     1       6.273   2.364  -3.708  1.00  0.00    -0.352 N 
ATOM     60  C   UNL     1       7.009   2.999  -4.673  1.00  0.00     0.251 C 
ATOM     61  H   UNL     1       6.793   1.961  -2.975  1.00  0.00     0.163 HD
ATOM     62  O   UNL     1       8.224   2.875  -4.711  1.00  0.00    -0.269 OA
BRANCH  60  63
ATOM     63  C   UNL     1       6.338   3.832  -5.690  1.00  0.00     0.045 A 
ATOM     64  C   UNL     1       5.458   4.845  -5.320  1.00  0.00     0.034 A 
ATOM     65  C   UNL     1       6.685   3.642  -7.028  1.00  0.00     0.063 A 
ATOM     66  C   UNL     1       4.939   5.635  -6.323  1.00  0.00     0.114 A 
ATOM     67  C   UNL     1       6.127   4.497  -7.969  1.00  0.00     0.157 A 
ATOM     68  N   UNL     1       5.263   5.490  -7.625  1.00  0.00    -0.237 NA
BRANCH  67  69
ATOM     69  N   UNL     1       6.475   4.355  -9.336  1.00  0.00    -0.182 N 
ATOM     70  C   UNL     1       7.015   3.273  -9.984  1.00  0.00     0.254 A 
ATOM     71  N   UNL     1       6.306   5.343 -10.244  1.00  0.00    -0.039 NA
ATOM     72  N   UNL     1       7.248   3.589 -11.236  1.00  0.00    -0.117 NA
ATOM     73  N   UNL     1       6.819   4.883 -11.377  1.00  0.00    -0.024 NA
ENDBRANCH  67  69
ENDBRANCH  60  63
ENDBRANCH  58  59
ENDBRANCH  57  58
ENDBRANCH   1  57
TORSDOF 12
