REMARK SMILES Cc1ccc(S(=O)(=O)n2cc(C(=O)C(=O)NCC(=O)N[C@H](Cc3c[nH]c4ccccc34)C(=O)NCCCCNC(=O)c3ccc(-c4c5nc(c(-c6ccccc6)c6ccc([nH]6)c(-c6ccccc6)c6nc(c(-c7ccccc7)c7ccc4[nH]7)C=C6)C=C5)cc3)c3ccccc32)cc1
REMARK SMILES IDX 32 1 33 2 34 3 21 5 20 6 18 7 19 8 17 10 16 11 14 12 15 13
REMARK SMILES IDX 12 15 13 16 11 17 9 18 10 19 95 20 90 21 94 22 91 23 93 24
REMARK SMILES IDX 92 25 6 26 7 27 8 28 5 29 1 30 2 31 3 32 97 33 4 34 96 35
REMARK SMILES IDX 22 36 23 37 24 38 31 39 25 40 26 41 30 42 27 44 29 45 28 46
REMARK SMILES IDX 35 47 36 48 37 49 38 50 39 51 40 52 41 54 42 55 43 56 89 57
REMARK SMILES IDX 44 58 88 59 45 60 46 61 47 62 82 63 48 64 87 65 81 66 83 67
REMARK SMILES IDX 49 68 86 69 80 70 79 71 50 73 72 74 57 75 71 76 58 77 61 78
REMARK SMILES IDX 70 79 84 80 59 81 60 82 69 84 85 85 62 86 51 87 52 88 56 89
REMARK SMILES IDX 53 90 55 91 54 92 73 93 74 94 78 95 75 96 77 97 76 98 63 99
REMARK SMILES IDX 64 100 68 101 65 102 67 103 66 104
REMARK H PARENT 34 4 20 9 16 14 25 43 39 53 83 72 61 83
REMARK Flexibility Score: inf
ROOT
ATOM      1  C   UNL     1      -9.355   0.457   3.952  1.00  0.00     0.242 C 
ATOM      2  O   UNL     1      -8.705  -0.589   3.819  1.00  0.00    -0.273 OA
ATOM      3  N   UNL     1      -9.596   0.824   5.234  1.00  0.00    -0.354 N 
ATOM      4  H   UNL     1      -9.214   0.197   5.890  1.00  0.00     0.163 HD
ENDROOT
BRANCH   1   5
ATOM      5  C   UNL     1      -9.833   1.220   2.700  1.00  0.00     0.175 C 
BRANCH   5   6
ATOM      6  N   UNL     1      -9.370   2.606   2.838  1.00  0.00    -0.342 N 
ATOM      7  C   UNL     1      -8.115   3.119   2.689  1.00  0.00     0.240 C 
ATOM      8  O   UNL     1      -7.966   4.305   2.999  1.00  0.00    -0.273 OA
ATOM      9  H   UNL     1     -10.068   3.261   3.072  1.00  0.00     0.164 HD
BRANCH   7  10
ATOM     10  C   UNL     1      -6.992   2.342   1.968  1.00  0.00     0.216 C 
BRANCH  10  11
ATOM     11  N   UNL     1      -6.787   0.939   2.318  1.00  0.00    -0.340 N 
ATOM     12  C   UNL     1      -6.464  -0.119   1.482  1.00  0.00     0.292 C 
ATOM     13  O   UNL     1      -6.247  -1.247   1.907  1.00  0.00    -0.265 OA
ATOM     14  H   UNL     1      -6.892   0.715   3.271  1.00  0.00     0.164 HD
BRANCH  12  15
ATOM     15  C   UNL     1      -6.369   0.132  -0.020  1.00  0.00     0.252 C 
ATOM     16  O   UNL     1      -5.537   0.961  -0.385  1.00  0.00    -0.283 OA
BRANCH  15  17
ATOM     17  C   UNL     1      -7.357  -0.441  -0.944  1.00  0.00     0.054 A 
ATOM     18  N   UNL     1      -8.749  -1.772  -2.130  1.00  0.00    -0.240 N 
ATOM     19  C   UNL     1      -7.777  -1.764  -1.131  1.00  0.00     0.117 A 
ATOM     20  C   UNL     1      -9.099  -0.435  -2.388  1.00  0.00     0.065 A 
ATOM     21  C   UNL     1      -8.031   0.333  -1.933  1.00  0.00     0.012 A 
ATOM     22  C   UNL     1     -10.094   0.112  -3.222  1.00  0.00     0.028 A 
ATOM     23  C   UNL     1      -7.852   1.627  -2.468  1.00  0.00     0.011 A 
ATOM     24  C   UNL     1      -9.854   1.360  -3.795  1.00  0.00     0.002 A 
ATOM     25  C   UNL     1      -8.727   2.093  -3.453  1.00  0.00     0.001 A 
BRANCH  18  26
ATOM     26  S   UNL     1      -8.692  -2.707  -3.604  1.00  0.00     0.268 S 
ATOM     27  O   UNL     1      -7.525  -2.171  -4.286  1.00  0.00    -0.201 OA
ATOM     28  O   UNL     1     -10.032  -2.518  -4.146  1.00  0.00    -0.201 OA
BRANCH  26  29
ATOM     29  C   UNL     1      -8.524  -4.450  -3.714  1.00  0.00     0.088 A 
ATOM     30  C   UNL     1      -8.684  -8.601  -4.904  1.00  0.00     0.044 C 
ATOM     31  C   UNL     1      -8.571  -7.170  -4.462  1.00  0.00    -0.051 A 
ATOM     32  C   UNL     1      -8.706  -6.191  -5.436  1.00  0.00     0.005 A 
ATOM     33  C   UNL     1      -8.394  -6.775  -3.116  1.00  0.00     0.005 A 
ATOM     34  C   UNL     1      -8.669  -4.860  -5.064  1.00  0.00     0.022 A 
ATOM     35  C   UNL     1      -8.374  -5.409  -2.728  1.00  0.00     0.022 A 
ENDBRANCH  26  29
ENDBRANCH  18  26
ENDBRANCH  15  17
ENDBRANCH  12  15
ENDBRANCH  10  11
ENDBRANCH   7  10
ENDBRANCH   5   6
BRANCH   5  36
ATOM     36  C   UNL     1     -11.327   1.141   2.319  1.00  0.00     0.072 C 
BRANCH  36  37
ATOM     37  C   UNL     1     -12.168  -0.029   2.763  1.00  0.00    -0.020 A 
ATOM     38  C   UNL     1     -11.793  -1.200   3.391  1.00  0.00     0.087 A 
ATOM     39  C   UNL     1     -13.601  -0.122   2.612  1.00  0.00     0.003 A 
ATOM     40  N   UNL     1     -12.916  -1.839   3.842  1.00  0.00    -0.361 N 
ATOM     41  C   UNL     1     -14.037  -1.202   3.381  1.00  0.00     0.046 A 
ATOM     42  C   UNL     1     -14.576   0.631   1.924  1.00  0.00     0.010 A 
ATOM     43  H   UNL     1     -12.918  -2.640   4.415  1.00  0.00     0.166 HD
ATOM     44  C   UNL     1     -15.386  -1.509   3.583  1.00  0.00     0.026 A 
ATOM     45  C   UNL     1     -15.930   0.289   2.050  1.00  0.00     0.001 A 
ATOM     46  C   UNL     1     -16.328  -0.746   2.892  1.00  0.00     0.002 A 
ENDBRANCH  36  37
ENDBRANCH   5  36
ENDBRANCH   1   5
BRANCH   3  47
ATOM     47  C   UNL     1     -10.291   1.936   5.855  1.00  0.00     0.116 C 
BRANCH  47  48
ATOM     48  C   UNL     1     -11.808   1.750   5.959  1.00  0.00     0.023 C 
BRANCH  48  49
ATOM     49  C   UNL     1     -12.268   0.386   6.478  1.00  0.00     0.023 C 
BRANCH  49  50
ATOM     50  C   UNL     1     -12.086   0.173   7.972  1.00  0.00     0.116 C 
BRANCH  50  51
ATOM     51  N   UNL     1     -13.334   0.227   8.735  1.00  0.00    -0.352 N 
ATOM     52  C   UNL     1     -13.528   0.024  10.097  1.00  0.00     0.251 C 
ATOM     53  H   UNL     1     -14.143   0.435   8.215  1.00  0.00     0.163 HD
ATOM     54  O   UNL     1     -14.621   0.142  10.610  1.00  0.00    -0.269 OA
BRANCH  52  55
ATOM     55  C   UNL     1     -12.322  -0.191  10.933  1.00  0.00     0.039 A 
ATOM     56  C   UNL     1     -12.024   0.813  11.858  1.00  0.00     0.014 A 
ATOM     57  C   UNL     1     -11.351  -1.090  10.507  1.00  0.00     0.014 A 
ATOM     58  C   UNL     1     -10.691   1.121  12.095  1.00  0.00     0.010 A 
ATOM     59  C   UNL     1     -10.031  -0.712  10.648  1.00  0.00     0.010 A 
ATOM     60  C   UNL     1      -9.713   0.450  11.361  1.00  0.00    -0.014 A 
BRANCH  60  61
ATOM     61  C   UNL     1      -8.365   0.980  11.189  1.00  0.00     0.031 A 
ATOM     62  C   UNL     1      -7.240   0.324  11.891  1.00  0.00     0.074 A 
ATOM     63  C   UNL     1      -8.139   2.048  10.385  1.00  0.00     0.049 A 
ATOM     64  N   UNL     1      -6.146   0.918  12.229  1.00  0.00    -0.248 NA
ATOM     65  C   UNL     1      -7.295  -1.067  12.331  1.00  0.00     0.031 C 
ATOM     66  C   UNL     1      -6.833   2.567   9.974  1.00  0.00     0.029 A 
ATOM     67  N   UNL     1      -9.032   3.029   9.937  1.00  0.00    -0.354 N 
ATOM     68  C   UNL     1      -5.260  -0.050  12.646  1.00  0.00     0.074 A 
ATOM     69  C   UNL     1      -6.049  -1.252  12.773  1.00  0.00     0.031 C 
ATOM     70  C   UNL     1      -6.968   3.864   9.653  1.00  0.00     0.029 A 
ATOM     71  C   UNL     1      -8.329   4.246   9.984  1.00  0.00     0.049 A 
ATOM     72  H   UNL     1      -9.963   2.893   9.647  1.00  0.00     0.167 HD
ATOM     73  C   UNL     1      -3.929   0.237  12.705  1.00  0.00     0.031 A 
ATOM     74  C   UNL     1      -8.674   5.304  10.777  1.00  0.00     0.031 A 
ATOM     75  C   UNL     1      -3.670   1.645  12.420  1.00  0.00     0.049 A 
ATOM     76  C   UNL     1      -7.570   5.723  11.733  1.00  0.00     0.074 A 
ATOM     77  C   UNL     1      -3.253   2.319  11.283  1.00  0.00     0.029 A 
ATOM     78  N   UNL     1      -4.142   2.610  13.300  1.00  0.00    -0.354 N 
ATOM     79  N   UNL     1      -6.532   4.981  12.005  1.00  0.00    -0.248 NA
ATOM     80  C   UNL     1      -7.572   6.967  12.506  1.00  0.00     0.031 C 
ATOM     81  C   UNL     1      -3.564   3.694  11.453  1.00  0.00     0.029 A 
ATOM     82  C   UNL     1      -4.133   3.855  12.704  1.00  0.00     0.049 A 
ATOM     83  H   UNL     1      -4.442   2.431  14.220  1.00  0.00     0.167 HD
ATOM     84  C   UNL     1      -5.753   5.597  12.949  1.00  0.00     0.074 A 
ATOM     85  C   UNL     1      -6.442   6.844  13.226  1.00  0.00     0.031 C 
ATOM     86  C   UNL     1      -4.618   5.017  13.436  1.00  0.00     0.031 A 
BRANCH  73  87
ATOM     87  C   UNL     1      -2.850  -0.820  12.742  1.00  0.00    -0.014 A 
ATOM     88  C   UNL     1      -1.581  -0.533  12.203  1.00  0.00     0.009 A 
ATOM     89  C   UNL     1      -3.026  -2.127  13.227  1.00  0.00     0.009 A 
ATOM     90  C   UNL     1      -0.590  -1.516  12.065  1.00  0.00     0.001 A 
ATOM     91  C   UNL     1      -2.057  -3.126  13.057  1.00  0.00     0.001 A 
ATOM     92  C   UNL     1      -0.841  -2.822  12.464  1.00  0.00     0.000 A 
ENDBRANCH  73  87
BRANCH  74  93
ATOM     93  C   UNL     1     -10.127   5.411  11.068  1.00  0.00    -0.014 A 
ATOM     94  C   UNL     1     -10.992   5.763  10.014  1.00  0.00     0.009 A 
ATOM     95  C   UNL     1     -10.675   4.823  12.217  1.00  0.00     0.009 A 
ATOM     96  C   UNL     1     -12.345   5.418  10.054  1.00  0.00     0.001 A 
ATOM     97  C   UNL     1     -12.034   4.486  12.255  1.00  0.00     0.001 A 
ATOM     98  C   UNL     1     -12.857   4.745  11.160  1.00  0.00     0.000 A 
ENDBRANCH  74  93
BRANCH  86  99
ATOM     99  C   UNL     1      -3.815   5.490  14.621  1.00  0.00    -0.014 A 
ATOM    100  C   UNL     1      -4.346   6.225  15.689  1.00  0.00     0.009 A 
ATOM    101  C   UNL     1      -2.481   5.041  14.758  1.00  0.00     0.009 A 
ATOM    102  C   UNL     1      -3.572   6.522  16.821  1.00  0.00     0.001 A 
ATOM    103  C   UNL     1      -1.722   5.298  15.902  1.00  0.00     0.001 A 
ATOM    104  C   UNL     1      -2.268   6.049  16.932  1.00  0.00     0.000 A 
ENDBRANCH  86  99
ENDBRANCH  60  61
ENDBRANCH  52  55
ENDBRANCH  50  51
ENDBRANCH  49  50
ENDBRANCH  48  49
ENDBRANCH  47  48
ENDBRANCH   3  47
TORSDOF 20
