REMARK SMILES O=C(NCCCCNC(=O)[C@H]1CS[C@H](c2cc(F)ccc2F)[NH2+]1)c1ccc(-c2c3nc(c(-c4ccccc4)c4ccc([nH]4)c(-c4ccccc4)c4nc(c(-c5ccccc5)c5ccc2[nH]5)C=C4)C=C3)cc1
REMARK SMILES IDX 5 1 4 2 3 3 1 4 2 5 24 7 25 8 71 9 26 10 70 11 27 12 28 13
REMARK SMILES IDX 29 14 64 15 30 16 69 17 63 18 65 19 31 20 68 21 62 22 61 23
REMARK SMILES IDX 32 25 54 26 39 27 53 28 40 29 43 30 52 31 66 32 41 33 42 34
REMARK SMILES IDX 51 36 67 37 44 38 33 39 34 40 38 41 35 42 37 43 36 44 55 45
REMARK SMILES IDX 56 46 60 47 57 48 59 49 58 50 45 51 46 52 50 53 47 54 49 55
REMARK SMILES IDX 48 56 6 57 7 58 8 59 9 60 10 62 11 63 12 64 23 65 13 66
REMARK SMILES IDX 14 67 15 70 16 71 21 72 17 73 20 74 22 75 18 76 19 77
REMARK H PARENT 3 6 65 24 43 35 8 61 23 68 23 69
REMARK Flexibility Score: inf
ROOT
ATOM      1  C   UNL     1       4.821   1.866   2.119  1.00  0.00     0.023 C 
ENDROOT
BRANCH   1   2
ATOM      2  C   UNL     1       4.528   0.692   1.191  1.00  0.00     0.116 C 
BRANCH   2   3
ATOM      3  N   UNL     1       3.110   0.388   1.087  1.00  0.00    -0.352 N 
ATOM      4  O   UNL     1       1.157  -0.025   0.033  1.00  0.00    -0.269 OA
ATOM      5  C   UNL     1       2.377   0.087  -0.035  1.00  0.00     0.251 C 
ATOM      6  H   UNL     1       2.608   0.399   1.933  1.00  0.00     0.163 HD
BRANCH   5   7
ATOM      7  C   UNL     1       3.063  -0.074  -1.335  1.00  0.00     0.039 A 
ATOM      8  C   UNL     1       4.215  -0.857  -1.442  1.00  0.00     0.014 A 
ATOM      9  C   UNL     1       2.542   0.572  -2.460  1.00  0.00     0.014 A 
ATOM     10  C   UNL     1       4.913  -0.895  -2.643  1.00  0.00     0.010 A 
ATOM     11  C   UNL     1       3.208   0.475  -3.685  1.00  0.00     0.010 A 
ATOM     12  C   UNL     1       4.412  -0.238  -3.780  1.00  0.00    -0.014 A 
BRANCH  12  13
ATOM     13  C   UNL     1       5.133  -0.363  -5.070  1.00  0.00     0.031 A 
ATOM     14  C   UNL     1       5.798   0.822  -5.710  1.00  0.00     0.074 A 
ATOM     15  C   UNL     1       5.208  -1.576  -5.651  1.00  0.00     0.049 A 
ATOM     16  N   UNL     1       6.487   0.875  -6.823  1.00  0.00    -0.248 NA
ATOM     17  C   UNL     1       5.672   2.115  -5.019  1.00  0.00     0.031 C 
ATOM     18  C   UNL     1       4.604  -2.802  -5.124  1.00  0.00     0.029 A 
ATOM     19  N   UNL     1       5.839  -1.982  -6.798  1.00  0.00    -0.354 N 
ATOM     20  C   UNL     1       6.865   2.203  -6.973  1.00  0.00     0.074 A 
ATOM     21  C   UNL     1       6.309   2.929  -5.851  1.00  0.00     0.031 C 
ATOM     22  C   UNL     1       4.936  -3.831  -5.918  1.00  0.00     0.029 A 
ATOM     23  C   UNL     1       5.723  -3.329  -7.038  1.00  0.00     0.049 A 
ATOM     24  H   UNL     1       6.328  -1.368  -7.392  1.00  0.00     0.167 HD
ATOM     25  C   UNL     1       7.611   2.765  -7.955  1.00  0.00     0.031 A 
ATOM     26  C   UNL     1       6.186  -4.079  -8.053  1.00  0.00     0.031 A 
ATOM     27  C   UNL     1       8.161   2.043  -9.074  1.00  0.00     0.049 A 
ATOM     28  C   UNL     1       6.973  -3.424  -9.148  1.00  0.00     0.074 A 
ATOM     29  C   UNL     1       8.947   2.522 -10.108  1.00  0.00     0.029 A 
ATOM     30  N   UNL     1       7.978   0.688  -9.306  1.00  0.00    -0.354 N 
ATOM     31  N   UNL     1       7.339  -2.170  -9.262  1.00  0.00    -0.248 NA
ATOM     32  C   UNL     1       7.410  -4.286 -10.253  1.00  0.00     0.031 C 
ATOM     33  C   UNL     1       9.202   1.466 -10.990  1.00  0.00     0.029 A 
ATOM     34  C   UNL     1       8.617   0.320 -10.479  1.00  0.00     0.049 A 
ATOM     35  H   UNL     1       7.470   0.079  -8.724  1.00  0.00     0.167 HD
ATOM     36  C   UNL     1       8.059  -2.095 -10.446  1.00  0.00     0.074 A 
ATOM     37  C   UNL     1       8.096  -3.433 -11.001  1.00  0.00     0.031 C 
ATOM     38  C   UNL     1       8.636  -1.013 -11.022  1.00  0.00     0.031 A 
BRANCH  25  39
ATOM     39  C   UNL     1       7.860   4.245  -7.879  1.00  0.00    -0.014 A 
ATOM     40  C   UNL     1       8.756   4.785  -6.944  1.00  0.00     0.009 A 
ATOM     41  C   UNL     1       7.227   5.106  -8.789  1.00  0.00     0.009 A 
ATOM     42  C   UNL     1       8.992   6.162  -6.904  1.00  0.00     0.001 A 
ATOM     43  C   UNL     1       7.483   6.479  -8.763  1.00  0.00     0.001 A 
ATOM     44  C   UNL     1       8.360   7.006  -7.816  1.00  0.00     0.000 A 
ENDBRANCH  25  39
BRANCH  26  45
ATOM     45  C   UNL     1       5.906  -5.537  -8.078  1.00  0.00    -0.014 A 
ATOM     46  C   UNL     1       6.932  -6.464  -7.845  1.00  0.00     0.009 A 
ATOM     47  C   UNL     1       4.604  -6.006  -8.315  1.00  0.00     0.009 A 
ATOM     48  C   UNL     1       6.663  -7.834  -7.864  1.00  0.00     0.001 A 
ATOM     49  C   UNL     1       4.333  -7.375  -8.305  1.00  0.00     0.001 A 
ATOM     50  C   UNL     1       5.363  -8.288  -8.087  1.00  0.00     0.000 A 
ENDBRANCH  26  45
BRANCH  38  51
ATOM     51  C   UNL     1       9.373  -1.243 -12.309  1.00  0.00    -0.014 A 
ATOM     52  C   UNL     1       8.683  -1.469 -13.510  1.00  0.00     0.009 A 
ATOM     53  C   UNL     1      10.776  -1.210 -12.323  1.00  0.00     0.009 A 
ATOM     54  C   UNL     1       9.386  -1.691 -14.695  1.00  0.00     0.001 A 
ATOM     55  C   UNL     1      11.475  -1.408 -13.514  1.00  0.00     0.001 A 
ATOM     56  C   UNL     1      10.780  -1.657 -14.697  1.00  0.00     0.000 A 
ENDBRANCH  38  51
ENDBRANCH  12  13
ENDBRANCH   5   7
ENDBRANCH   2   3
ENDBRANCH   1   2
BRANCH   1  57
ATOM     57  C   UNL     1       4.373   1.679   3.572  1.00  0.00     0.023 C 
BRANCH  57  58
ATOM     58  C   UNL     1       4.904   0.412   4.241  1.00  0.00     0.116 C 
BRANCH  58  59
ATOM     59  N   UNL     1       6.352   0.429   4.333  1.00  0.00    -0.351 N 
ATOM     60  C   UNL     1       7.155   0.647   5.412  1.00  0.00     0.279 C 
ATOM     61  H   UNL     1       6.826   0.258   3.487  1.00  0.00     0.163 HD
ATOM     62  O   UNL     1       8.371   0.740   5.223  1.00  0.00    -0.268 OA
BRANCH  60  63
ATOM     63  C   UNL     1       6.561   0.705   6.825  1.00  0.00     0.283 C 
ATOM     64  C   UNL     1       6.850  -0.628   7.518  1.00  0.00     0.151 C 
ATOM     65  N   UNL     1       7.173   1.839   7.569  1.00  0.00    -0.320 N 
ATOM     66  S   UNL     1       7.567  -0.200   9.119  1.00  0.00    -0.087 SA
ATOM     67  C   UNL     1       7.059   1.547   8.996  1.00  0.00     0.277 C 
ATOM     68  H   UNL     1       6.678   2.705   7.351  1.00  0.00     0.348 HD
ATOM     69  H   UNL     1       8.151   1.954   7.304  1.00  0.00     0.348 HD
BRANCH  67  70
ATOM     70  C   UNL     1       5.700   1.784   9.643  1.00  0.00     0.059 A 
ATOM     71  C   UNL     1       5.500   1.367  10.978  1.00  0.00     0.053 A 
ATOM     72  C   UNL     1       4.622   2.426   9.015  1.00  0.00     0.133 A 
ATOM     73  C   UNL     1       4.266   1.522  11.605  1.00  0.00     0.123 A 
ATOM     74  C   UNL     1       3.384   2.578   9.647  1.00  0.00     0.043 A 
ATOM     75  F   UNL     1       4.725   2.911   7.770  1.00  0.00    -0.206 F 
ATOM     76  F   UNL     1       4.106   1.087  12.861  1.00  0.00    -0.207 F 
ATOM     77  C   UNL     1       3.200   2.114  10.945  1.00  0.00     0.042 A 
ENDBRANCH  67  70
ENDBRANCH  60  63
ENDBRANCH  58  59
ENDBRANCH  57  58
ENDBRANCH   1  57
TORSDOF 12
