REMARK SMILES C=Cc1cc(Cl)cc2c1O[C@H](C(F)(F)F)C(C(=O)NCCCCNC(=O)c1ccc(-c3c4nc(c(-c5ccccc5)c5ccc([nH]5)c(-c5ccccc5)c5nc(c(-c6ccccc6)c6ccc3[nH]6)C=C5)C=C4)cc1)=C2
REMARK SMILES IDX 22 1 21 2 20 3 19 4 17 5 18 6 16 8 3 9 4 10 9 11 5 12 8 13
REMARK SMILES IDX 10 14 6 15 7 16 75 17 11 18 2 19 1 20 12 21 13 22 14 23
REMARK SMILES IDX 15 24 23 25 24 26 25 27 26 29 27 30 28 31 74 32 29 33 73 34
REMARK SMILES IDX 30 35 31 36 32 37 67 38 33 39 72 40 66 41 68 42 34 43 71 44
REMARK SMILES IDX 65 45 64 46 35 48 57 49 42 50 56 51 43 52 46 53 55 54 69 55
REMARK SMILES IDX 44 56 45 57 54 59 70 60 47 61 36 62 37 63 41 64 38 65 40 66
REMARK SMILES IDX 39 67 58 68 59 69 63 70 60 71 62 72 61 73 48 74 49 75 53 76
REMARK SMILES IDX 50 77 52 78 51 79
REMARK H PARENT 19 7 24 28 68 47 46 58
REMARK Flexibility Score: inf
ROOT
ATOM      1  C   UNL     1      -1.820  -8.591   3.221  1.00  0.00     0.023 C 
ENDROOT
BRANCH   1   2
ATOM      2  C   UNL     1      -1.423  -7.339   2.436  1.00  0.00     0.023 C 
BRANCH   2   3
ATOM      3  C   UNL     1      -1.970  -7.290   1.012  1.00  0.00     0.116 C 
BRANCH   3   4
ATOM      4  N   UNL     1      -3.316  -6.746   0.960  1.00  0.00    -0.352 N 
ATOM      5  C   UNL     1      -3.891  -5.560   0.649  1.00  0.00     0.251 C 
ATOM      6  O   UNL     1      -5.122  -5.535   0.743  1.00  0.00    -0.270 OA
ATOM      7  H   UNL     1      -3.988  -7.418   1.218  1.00  0.00     0.163 HD
BRANCH   5   8
ATOM      8  C   UNL     1      -3.159  -4.330   0.222  1.00  0.00     0.067 C 
ATOM      9  C   UNL     1      -1.217  -0.705  -0.712  1.00  0.00     0.018 A 
ATOM     10  C   UNL     1      -1.991   0.406  -1.068  1.00  0.00     0.032 A 
ATOM     11  C   UNL     1      -1.868  -1.902  -0.365  1.00  0.00     0.135 A 
ATOM     12  C   UNL     1      -3.384   0.324  -1.049  1.00  0.00     0.042 A 
ATOM     13  C   UNL     1      -3.265  -1.980  -0.336  1.00  0.00     0.019 A 
ATOM     14  O   UNL     1      -1.089  -2.967   0.005  1.00  0.00    -0.475 OA
ATOM     15  Cl  UNL     1      -4.322   1.700  -1.482  1.00  0.00    -0.084 Cl
ATOM     16  C   UNL     1      -4.025  -0.859  -0.680  1.00  0.00     0.032 A 
ATOM     17  C   UNL     1      -3.907  -3.218   0.095  1.00  0.00     0.025 C 
ATOM     18  C   UNL     1      -1.694  -4.283  -0.099  1.00  0.00     0.314 C 
BRANCH   9  19
ATOM     19  C   UNL     1       0.252  -0.642  -0.755  1.00  0.00     0.004 C 
ATOM     20  C   UNL     1       0.971   0.336  -0.191  1.00  0.00     0.009 C 
ENDBRANCH   9  19
BRANCH  18  21
ATOM     21  C   UNL     1      -1.366  -4.888  -1.476  1.00  0.00     0.429 C 
ATOM     22  F   UNL     1      -0.033  -5.117  -1.587  1.00  0.00    -0.167 F 
ATOM     23  F   UNL     1      -1.978  -6.079  -1.678  1.00  0.00    -0.167 F 
ATOM     24  F   UNL     1      -1.725  -4.082  -2.500  1.00  0.00    -0.167 F 
ENDBRANCH  18  21
ENDBRANCH   5   8
ENDBRANCH   3   4
ENDBRANCH   2   3
ENDBRANCH   1   2
BRANCH   1  25
ATOM     25  C   UNL     1      -1.448  -9.921   2.568  1.00  0.00     0.116 C 
BRANCH  25  26
ATOM     26  N   UNL     1      -0.043 -10.043   2.200  1.00  0.00    -0.352 N 
ATOM     27  C   UNL     1       0.686 -11.203   2.046  1.00  0.00     0.251 C 
ATOM     28  H   UNL     1       0.441  -9.200   2.044  1.00  0.00     0.163 HD
ATOM     29  O   UNL     1       1.884 -11.169   1.791  1.00  0.00    -0.269 OA
BRANCH  27  30
ATOM     30  C   UNL     1      -0.000 -12.491   2.262  1.00  0.00     0.039 A 
ATOM     31  C   UNL     1      -1.183 -12.773   1.578  1.00  0.00     0.014 A 
ATOM     32  C   UNL     1       0.473 -13.350   3.257  1.00  0.00     0.014 A 
ATOM     33  C   UNL     1      -1.992 -13.810   2.023  1.00  0.00     0.010 A 
ATOM     34  C   UNL     1      -0.308 -14.439   3.649  1.00  0.00     0.010 A 
ATOM     35  C   UNL     1      -1.577 -14.634   3.083  1.00  0.00    -0.014 A 
BRANCH  35  36
ATOM     36  C   UNL     1      -2.516 -15.652   3.619  1.00  0.00     0.031 A 
ATOM     37  C   UNL     1      -3.088 -15.510   5.005  1.00  0.00     0.074 A 
ATOM     38  C   UNL     1      -2.923 -16.657   2.823  1.00  0.00     0.049 A 
ATOM     39  N   UNL     1      -3.959 -16.274   5.617  1.00  0.00    -0.248 NA
ATOM     40  C   UNL     1      -2.631 -14.365   5.810  1.00  0.00     0.031 C 
ATOM     41  C   UNL     1      -2.467 -16.881   1.450  1.00  0.00     0.029 A 
ATOM     42  N   UNL     1      -3.841 -17.653   3.038  1.00  0.00    -0.354 N 
ATOM     43  C   UNL     1      -4.134 -15.718   6.879  1.00  0.00     0.074 A 
ATOM     44  C   UNL     1      -3.267 -14.563   6.957  1.00  0.00     0.031 C 
ATOM     45  C   UNL     1      -3.154 -17.905   0.924  1.00  0.00     0.029 A 
ATOM     46  C   UNL     1      -4.053 -18.447   1.938  1.00  0.00     0.049 A 
ATOM     47  H   UNL     1      -4.303 -17.786   3.897  1.00  0.00     0.167 HD
ATOM     48  C   UNL     1      -4.950 -16.127   7.879  1.00  0.00     0.031 A 
ATOM     49  C   UNL     1      -4.876 -19.497   1.761  1.00  0.00     0.031 A 
ATOM     50  C   UNL     1      -5.826 -17.265   7.798  1.00  0.00     0.049 A 
ATOM     51  C   UNL     1      -5.749 -19.949   2.894  1.00  0.00     0.074 A 
ATOM     52  C   UNL     1      -6.686 -17.758   8.764  1.00  0.00     0.029 A 
ATOM     53  N   UNL     1      -5.962 -18.080   6.686  1.00  0.00    -0.354 N 
ATOM     54  N   UNL     1      -5.883 -19.424   4.088  1.00  0.00    -0.248 NA
ATOM     55  C   UNL     1      -6.580 -21.138   2.659  1.00  0.00     0.031 C 
ATOM     56  C   UNL     1      -7.314 -18.895   8.250  1.00  0.00     0.029 A 
ATOM     57  C   UNL     1      -6.882 -19.079   6.947  1.00  0.00     0.049 A 
ATOM     58  H   UNL     1      -5.476 -17.965   5.838  1.00  0.00     0.167 HD
ATOM     59  C   UNL     1      -6.816 -20.213   4.744  1.00  0.00     0.074 A 
ATOM     60  C   UNL     1      -7.231 -21.240   3.811  1.00  0.00     0.031 C 
ATOM     61  C   UNL     1      -7.283 -20.097   6.011  1.00  0.00     0.031 A 
BRANCH  48  62
ATOM     62  C   UNL     1      -4.929 -15.350   9.165  1.00  0.00    -0.014 A 
ATOM     63  C   UNL     1      -4.349 -15.916  10.311  1.00  0.00     0.009 A 
ATOM     64  C   UNL     1      -5.553 -14.097   9.267  1.00  0.00     0.009 A 
ATOM     65  C   UNL     1      -4.400 -15.248  11.536  1.00  0.00     0.001 A 
ATOM     66  C   UNL     1      -5.582 -13.421  10.488  1.00  0.00     0.001 A 
ATOM     67  C   UNL     1      -5.013 -13.999  11.622  1.00  0.00     0.000 A 
ENDBRANCH  48  62
BRANCH  49  68
ATOM     68  C   UNL     1      -4.908 -20.178   0.442  1.00  0.00    -0.014 A 
ATOM     69  C   UNL     1      -3.812 -20.942   0.009  1.00  0.00     0.009 A 
ATOM     70  C   UNL     1      -6.007 -20.018  -0.414  1.00  0.00     0.009 A 
ATOM     71  C   UNL     1      -3.804 -21.510  -1.266  1.00  0.00     0.001 A 
ATOM     72  C   UNL     1      -6.007 -20.610  -1.679  1.00  0.00     0.001 A 
ATOM     73  C   UNL     1      -4.903 -21.346  -2.107  1.00  0.00     0.000 A 
ENDBRANCH  49  68
BRANCH  61  74
ATOM     74  C   UNL     1      -8.305 -21.094   6.470  1.00  0.00    -0.014 A 
ATOM     75  C   UNL     1      -9.639 -20.695   6.646  1.00  0.00     0.009 A 
ATOM     76  C   UNL     1      -7.932 -22.401   6.816  1.00  0.00     0.009 A 
ATOM     77  C   UNL     1     -10.580 -21.583   7.168  1.00  0.00     0.001 A 
ATOM     78  C   UNL     1      -8.880 -23.295   7.317  1.00  0.00     0.001 A 
ATOM     79  C   UNL     1     -10.200 -22.883   7.500  1.00  0.00     0.000 A 
ENDBRANCH  61  74
ENDBRANCH  35  36
ENDBRANCH  27  30
ENDBRANCH  25  26
ENDBRANCH   1  25
TORSDOF 13
