REMARK SMILES COc1ccc(-c2ncn(CC(=O)NCCCCNC(=O)c3ccc(-c4c5nc(c(-c6ccccc6)c6ccc([nH]6)c(-c6ccccc6)c6nc(c(-c7ccccc7)c7ccc4[nH]7)C=C6)C=C5)cc3)c2-c2ccc(OC)cc2)cc1
REMARK SMILES IDX 16 1 15 2 14 3 12 4 13 5 11 7 10 8 7 9 8 10 70 11 9 12 6 13
REMARK SMILES IDX 3 14 4 15 80 16 5 17 79 18 2 19 1 20 71 21 72 22 78 23 73 24
REMARK SMILES IDX 77 25 74 26 75 27 76 28 17 29 18 30 19 31 20 32 21 34 22 35
REMARK SMILES IDX 23 36 69 37 24 38 68 39 25 40 26 41 27 42 62 43 28 44 67 45
REMARK SMILES IDX 61 46 63 47 29 48 66 49 60 50 59 51 30 53 52 54 37 55 51 56
REMARK SMILES IDX 38 57 41 58 50 59 64 60 39 61 40 62 49 64 65 65 42 66 31 67
REMARK SMILES IDX 32 68 36 69 33 70 35 71 34 72 53 73 54 74 58 75 55 76 57 77
REMARK SMILES IDX 56 78 43 79 44 80 48 81 45 82 47 83 46 84
REMARK H PARENT 14 6 19 33 63 52 41 63
REMARK Flexibility Score: inf
ROOT
ATOM      1  C   UNL     1       0.517   2.402   9.194  1.00  0.00     0.023 C 
ENDROOT
BRANCH   1   2
ATOM      2  C   UNL     1       0.910   1.532  10.390  1.00  0.00     0.116 C 
BRANCH   2   3
ATOM      3  N   UNL     1       0.130   0.315  10.509  1.00  0.00    -0.355 N 
ATOM      4  C   UNL     1       0.475  -0.978  10.237  1.00  0.00     0.239 C 
ATOM      5  O   UNL     1      -0.317  -1.856  10.592  1.00  0.00    -0.273 OA
ATOM      6  H   UNL     1      -0.790   0.440  10.835  1.00  0.00     0.163 HD
BRANCH   4   7
ATOM      7  C   UNL     1       1.804  -1.343   9.603  1.00  0.00     0.223 C 
BRANCH   7   8
ATOM      8  N   UNL     1       2.085  -0.660   8.353  1.00  0.00    -0.321 N 
ATOM      9  C   UNL     1       2.077   0.139   6.327  1.00  0.00     0.096 A 
ATOM     10  N   UNL     1       3.174   0.677   6.951  1.00  0.00    -0.236 NA
ATOM     11  C   UNL     1       1.412  -0.760   7.153  1.00  0.00     0.076 A 
ATOM     12  C   UNL     1       3.173   0.151   8.152  1.00  0.00     0.201 A 
BRANCH   9  13
ATOM     13  C   UNL     1       1.722   0.419   4.951  1.00  0.00     0.003 A 
ATOM     14  C   UNL     1       0.994   0.751   2.266  1.00  0.00     0.118 A 
ATOM     15  C   UNL     1       0.063   0.985   3.278  1.00  0.00     0.047 A 
ATOM     16  C   UNL     1       2.305   0.406   2.598  1.00  0.00     0.047 A 
ATOM     17  C   UNL     1       0.421   0.813   4.616  1.00  0.00     0.014 A 
ATOM     18  C   UNL     1       2.669   0.247   3.939  1.00  0.00     0.014 A 
BRANCH  14  19
ATOM     19  O   UNL     1       0.532   0.934   0.991  1.00  0.00    -0.497 OA
ATOM     20  C   UNL     1       1.110   0.074   0.015  1.00  0.00     0.278 C 
ENDBRANCH  14  19
ENDBRANCH   9  13
BRANCH  11  21
ATOM     21  C   UNL     1       0.339  -1.698   6.841  1.00  0.00     0.001 A 
ATOM     22  C   UNL     1      -0.938  -1.573   7.388  1.00  0.00     0.014 A 
ATOM     23  C   UNL     1       0.580  -2.718   5.913  1.00  0.00     0.014 A 
ATOM     24  C   UNL     1      -1.942  -2.482   7.045  1.00  0.00     0.047 A 
ATOM     25  C   UNL     1      -0.432  -3.611   5.550  1.00  0.00     0.047 A 
ATOM     26  C   UNL     1      -1.698  -3.499   6.120  1.00  0.00     0.118 A 
BRANCH  26  27
ATOM     27  O   UNL     1      -2.768  -4.310   5.861  1.00  0.00    -0.497 OA
ATOM     28  C   UNL     1      -2.620  -5.232   4.787  1.00  0.00     0.278 C 
ENDBRANCH  26  27
ENDBRANCH  11  21
ENDBRANCH   7   8
ENDBRANCH   4   7
ENDBRANCH   2   3
ENDBRANCH   1   2
BRANCH   1  29
ATOM     29  C   UNL     1      -0.895   3.001   9.214  1.00  0.00     0.023 C 
BRANCH  29  30
ATOM     30  C   UNL     1      -1.209   3.888  10.412  1.00  0.00     0.116 C 
BRANCH  30  31
ATOM     31  N   UNL     1      -0.344   5.060  10.507  1.00  0.00    -0.352 N 
ATOM     32  C   UNL     1      -0.284   5.992  11.528  1.00  0.00     0.251 C 
ATOM     33  H   UNL     1       0.273   5.205   9.753  1.00  0.00     0.163 HD
ATOM     34  O   UNL     1       0.173   7.107  11.344  1.00  0.00    -0.269 OA
BRANCH  32  35
ATOM     35  C   UNL     1      -0.784   5.607  12.862  1.00  0.00     0.039 A 
ATOM     36  C   UNL     1      -1.583   6.472  13.614  1.00  0.00     0.014 A 
ATOM     37  C   UNL     1      -0.460   4.340  13.338  1.00  0.00     0.014 A 
ATOM     38  C   UNL     1      -2.134   6.013  14.809  1.00  0.00     0.010 A 
ATOM     39  C   UNL     1      -1.103   3.845  14.446  1.00  0.00     0.010 A 
ATOM     40  C   UNL     1      -1.912   4.687  15.209  1.00  0.00    -0.014 A 
BRANCH  40  41
ATOM     41  C   UNL     1      -2.646   4.111  16.337  1.00  0.00     0.031 A 
ATOM     42  C   UNL     1      -4.133   4.171  16.211  1.00  0.00     0.074 A 
ATOM     43  C   UNL     1      -2.045   3.339  17.270  1.00  0.00     0.049 A 
ATOM     44  N   UNL     1      -4.982   4.706  17.026  1.00  0.00    -0.248 NA
ATOM     45  C   UNL     1      -4.747   3.653  14.973  1.00  0.00     0.031 C 
ATOM     46  C   UNL     1      -0.635   2.931  17.316  1.00  0.00     0.029 A 
ATOM     47  N   UNL     1      -2.594   2.616  18.287  1.00  0.00    -0.354 N 
ATOM     48  C   UNL     1      -6.246   4.430  16.506  1.00  0.00     0.074 A 
ATOM     49  C   UNL     1      -6.036   3.933  15.171  1.00  0.00     0.031 C 
ATOM     50  C   UNL     1      -0.504   1.847  18.111  1.00  0.00     0.029 A 
ATOM     51  C   UNL     1      -1.777   1.591  18.759  1.00  0.00     0.049 A 
ATOM     52  H   UNL     1      -3.488   2.801  18.656  1.00  0.00     0.167 HD
ATOM     53  C   UNL     1      -7.350   4.384  17.303  1.00  0.00     0.031 A 
ATOM     54  C   UNL     1      -2.125   0.571  19.581  1.00  0.00     0.031 A 
ATOM     55  C   UNL     1      -7.115   5.016  18.575  1.00  0.00     0.049 A 
ATOM     56  C   UNL     1      -3.395   0.941  20.241  1.00  0.00     0.074 A 
ATOM     57  C   UNL     1      -6.735   6.278  18.985  1.00  0.00     0.029 A 
ATOM     58  N   UNL     1      -6.898   4.189  19.650  1.00  0.00    -0.354 N 
ATOM     59  N   UNL     1      -3.499   1.894  21.120  1.00  0.00    -0.248 NA
ATOM     60  C   UNL     1      -4.638   0.536  19.606  1.00  0.00     0.031 C 
ATOM     61  C   UNL     1      -5.864   6.056  20.092  1.00  0.00     0.029 A 
ATOM     62  C   UNL     1      -5.827   4.683  20.343  1.00  0.00     0.049 A 
ATOM     63  H   UNL     1      -7.420   3.386  19.881  1.00  0.00     0.167 HD
ATOM     64  C   UNL     1      -4.698   2.518  20.813  1.00  0.00     0.074 A 
ATOM     65  C   UNL     1      -5.408   1.570  19.955  1.00  0.00     0.031 C 
ATOM     66  C   UNL     1      -4.872   3.853  21.043  1.00  0.00     0.031 A 
BRANCH  53  67
ATOM     67  C   UNL     1      -8.475   3.389  17.112  1.00  0.00    -0.014 A 
ATOM     68  C   UNL     1      -9.562   3.421  18.006  1.00  0.00     0.009 A 
ATOM     69  C   UNL     1      -8.365   2.246  16.297  1.00  0.00     0.009 A 
ATOM     70  C   UNL     1     -10.428   2.329  18.142  1.00  0.00     0.001 A 
ATOM     71  C   UNL     1      -9.255   1.173  16.399  1.00  0.00     0.001 A 
ATOM     72  C   UNL     1     -10.267   1.200  17.346  1.00  0.00     0.000 A 
ENDBRANCH  53  67
BRANCH  54  73
ATOM     73  C   UNL     1      -1.578  -0.801  19.664  1.00  0.00    -0.014 A 
ATOM     74  C   UNL     1      -1.813  -1.598  20.797  1.00  0.00     0.009 A 
ATOM     75  C   UNL     1      -1.059  -1.431  18.518  1.00  0.00     0.009 A 
ATOM     76  C   UNL     1      -1.579  -2.979  20.768  1.00  0.00     0.001 A 
ATOM     77  C   UNL     1      -0.821  -2.809  18.491  1.00  0.00     0.001 A 
ATOM     78  C   UNL     1      -1.098  -3.587  19.610  1.00  0.00     0.000 A 
ENDBRANCH  54  73
BRANCH  66  79
ATOM     79  C   UNL     1      -3.850   4.567  21.893  1.00  0.00    -0.014 A 
ATOM     80  C   UNL     1      -2.479   4.620  21.586  1.00  0.00     0.009 A 
ATOM     81  C   UNL     1      -4.316   5.324  22.979  1.00  0.00     0.009 A 
ATOM     82  C   UNL     1      -1.597   5.371  22.371  1.00  0.00     0.001 A 
ATOM     83  C   UNL     1      -3.441   6.094  23.747  1.00  0.00     0.001 A 
ATOM     84  C   UNL     1      -2.080   6.109  23.450  1.00  0.00     0.000 A 
ENDBRANCH  66  79
ENDBRANCH  40  41
ENDBRANCH  32  35
ENDBRANCH  30  31
ENDBRANCH  29  30
ENDBRANCH   1  29
TORSDOF 16
