REMARK SMILES C[C@@H](C(=O)NCCCCNC(=O)c1ccc(-c2c3nc(c(-c4ccccc4)c4ccc([nH]4)c(-c4ccccc4)c4nc(c(-c5ccccc5)c5ccc2[nH]5)C=C4)C=C3)cc1)c1ccc(Cc2ccco2)cc1F
REMARK SMILES IDX 7 1 6 2 5 3 3 4 4 5 2 7 1 8 61 9 62 10 72 11 63 12 71 13
REMARK SMILES IDX 73 14 64 15 65 16 66 17 67 18 70 19 68 20 69 21 8 22 9 23
REMARK SMILES IDX 10 24 11 25 12 27 13 28 14 29 60 30 15 31 59 32 16 33 17 34
REMARK SMILES IDX 18 35 53 36 19 37 58 38 52 39 54 40 20 41 57 42 51 43 50 44
REMARK SMILES IDX 21 46 43 47 28 48 42 49 29 50 32 51 41 52 55 53 30 54 31 55
REMARK SMILES IDX 40 57 56 58 33 59 22 60 23 61 27 62 24 63 26 64 25 65 44 66
REMARK SMILES IDX 45 67 49 68 46 69 48 70 47 71 34 72 35 73 39 74 36 75 38 76
REMARK SMILES IDX 37 77
REMARK H PARENT 5 6 10 26 54 45 32 56
REMARK Flexibility Score: inf
ROOT
ATOM      1  C   UNL     1       4.148  -0.352   1.222  1.00  0.00     0.023 C 
ENDROOT
BRANCH   1   2
ATOM      2  C   UNL     1       3.362  -1.661   1.115  1.00  0.00     0.116 C 
BRANCH   2   3
ATOM      3  N   UNL     1       2.284  -1.689   2.079  1.00  0.00    -0.356 N 
ATOM      4  C   UNL     1       0.962  -1.389   1.922  1.00  0.00     0.227 C 
ATOM      5  O   UNL     1       0.287  -1.322   2.952  1.00  0.00    -0.274 OA
ATOM      6  H   UNL     1       2.543  -1.967   2.987  1.00  0.00     0.163 HD
BRANCH   4   7
ATOM      7  C   UNL     1       0.372  -1.178   0.514  1.00  0.00     0.108 C 
ATOM      8  C   UNL     1       0.900   0.108  -0.137  1.00  0.00     0.023 C 
BRANCH   7   9
ATOM      9  C   UNL     1      -1.153  -1.215   0.555  1.00  0.00    -0.000 A 
ATOM     10  C   UNL     1      -1.936  -0.055   0.501  1.00  0.00     0.008 A 
ATOM     11  C   UNL     1      -1.813  -2.440   0.704  1.00  0.00     0.127 A 
ATOM     12  C   UNL     1      -3.327  -0.127   0.573  1.00  0.00     0.005 A 
ATOM     13  C   UNL     1      -3.202  -2.516   0.818  1.00  0.00     0.043 A 
ATOM     14  F   UNL     1      -1.101  -3.577   0.741  1.00  0.00    -0.207 F 
ATOM     15  C   UNL     1      -3.979  -1.351   0.768  1.00  0.00    -0.038 A 
BRANCH  15  16
ATOM     16  C   UNL     1      -5.485  -1.404   0.905  1.00  0.00     0.111 C 
BRANCH  16  17
ATOM     17  C   UNL     1      -6.020  -0.694   2.107  1.00  0.00     0.108 A 
ATOM     18  C   UNL     1      -5.907   0.593   2.600  1.00  0.00     0.046 A 
ATOM     19  O   UNL     1      -6.851  -1.418   2.915  1.00  0.00    -0.469 OA
ATOM     20  C   UNL     1      -6.690   0.649   3.776  1.00  0.00     0.042 A 
ATOM     21  C   UNL     1      -7.247  -0.598   3.922  1.00  0.00     0.195 A 
ENDBRANCH  16  17
ENDBRANCH  15  16
ENDBRANCH   7   9
ENDBRANCH   4   7
ENDBRANCH   2   3
ENDBRANCH   1   2
BRANCH   1  22
ATOM     22  C   UNL     1       4.937  -0.190   2.524  1.00  0.00     0.023 C 
BRANCH  22  23
ATOM     23  C   UNL     1       5.949  -1.292   2.803  1.00  0.00     0.116 C 
BRANCH  23  24
ATOM     24  N   UNL     1       6.940  -1.430   1.747  1.00  0.00    -0.352 N 
ATOM     25  C   UNL     1       8.293  -1.629   1.856  1.00  0.00     0.251 C 
ATOM     26  H   UNL     1       6.591  -1.373   0.828  1.00  0.00     0.163 HD
ATOM     27  O   UNL     1       9.007  -1.585   0.858  1.00  0.00    -0.269 OA
BRANCH  25  28
ATOM     28  C   UNL     1       8.892  -1.861   3.186  1.00  0.00     0.039 A 
ATOM     29  C   UNL     1      10.043  -1.153   3.539  1.00  0.00     0.014 A 
ATOM     30  C   UNL     1       8.309  -2.755   4.088  1.00  0.00     0.014 A 
ATOM     31  C   UNL     1      10.573  -1.294   4.822  1.00  0.00     0.010 A 
ATOM     32  C   UNL     1       8.792  -2.835   5.390  1.00  0.00     0.010 A 
ATOM     33  C   UNL     1       9.931  -2.108   5.770  1.00  0.00    -0.014 A 
BRANCH  33  34
ATOM     34  C   UNL     1      10.434  -2.207   7.162  1.00  0.00     0.031 A 
ATOM     35  C   UNL     1      10.935  -3.521   7.695  1.00  0.00     0.074 A 
ATOM     36  C   UNL     1      10.388  -1.126   7.966  1.00  0.00     0.049 A 
ATOM     37  N   UNL     1      11.374  -3.811   8.894  1.00  0.00    -0.248 NA
ATOM     38  C   UNL     1      10.920  -4.664   6.768  1.00  0.00     0.031 C 
ATOM     39  C   UNL     1       9.888   0.196   7.582  1.00  0.00     0.029 A 
ATOM     40  N   UNL     1      10.766  -0.970   9.276  1.00  0.00    -0.354 N 
ATOM     41  C   UNL     1      11.674  -5.167   8.867  1.00  0.00     0.074 A 
ATOM     42  C   UNL     1      11.315  -5.654   7.553  1.00  0.00     0.031 C 
ATOM     43  C   UNL     1      10.020   1.034   8.623  1.00  0.00     0.029 A 
ATOM     44  C   UNL     1      10.572   0.301   9.758  1.00  0.00     0.049 A 
ATOM     45  H   UNL     1      11.141  -1.701   9.819  1.00  0.00     0.167 HD
ATOM     46  C   UNL     1      12.221  -5.935   9.839  1.00  0.00     0.031 A 
ATOM     47  C   UNL     1      10.806   0.819  10.978  1.00  0.00     0.031 A 
ATOM     48  C   UNL     1      12.580  -5.452  11.146  1.00  0.00     0.049 A 
ATOM     49  C   UNL     1      11.387  -0.062  12.050  1.00  0.00     0.074 A 
ATOM     50  C   UNL     1      13.182  -6.140  12.184  1.00  0.00     0.029 A 
ATOM     51  N   UNL     1      12.364  -4.158  11.595  1.00  0.00    -0.354 N 
ATOM     52  N   UNL     1      11.731  -1.326  11.985  1.00  0.00    -0.248 NA
ATOM     53  C   UNL     1      11.623   0.560  13.360  1.00  0.00     0.031 C 
ATOM     54  C   UNL     1      13.281  -5.278  13.281  1.00  0.00     0.029 A 
ATOM     55  C   UNL     1      12.799  -4.035  12.904  1.00  0.00     0.049 A 
ATOM     56  H   UNL     1      11.962  -3.434  11.062  1.00  0.00     0.167 HD
ATOM     57  C   UNL     1      12.252  -1.640  13.234  1.00  0.00     0.074 A 
ATOM     58  C   UNL     1      12.195  -0.431  14.028  1.00  0.00     0.031 C 
ATOM     59  C   UNL     1      12.736  -2.825  13.682  1.00  0.00     0.031 A 
BRANCH  46  60
ATOM     60  C   UNL     1      12.457  -7.387   9.523  1.00  0.00    -0.014 A 
ATOM     61  C   UNL     1      13.439  -7.779   8.598  1.00  0.00     0.009 A 
ATOM     62  C   UNL     1      11.713  -8.377  10.181  1.00  0.00     0.009 A 
ATOM     63  C   UNL     1      13.642  -9.130   8.310  1.00  0.00     0.001 A 
ATOM     64  C   UNL     1      11.939  -9.729   9.915  1.00  0.00     0.001 A 
ATOM     65  C   UNL     1      12.896 -10.104   8.972  1.00  0.00     0.000 A 
ENDBRANCH  46  60
BRANCH  47  66
ATOM     66  C   UNL     1      10.505   2.248  11.255  1.00  0.00    -0.014 A 
ATOM     67  C   UNL     1      11.544   3.166  11.477  1.00  0.00     0.009 A 
ATOM     68  C   UNL     1       9.178   2.701  11.317  1.00  0.00     0.009 A 
ATOM     69  C   UNL     1      11.260   4.498  11.787  1.00  0.00     0.001 A 
ATOM     70  C   UNL     1       8.897   4.040  11.595  1.00  0.00     0.001 A 
ATOM     71  C   UNL     1       9.937   4.935  11.841  1.00  0.00     0.000 A 
ENDBRANCH  47  66
BRANCH  59  72
ATOM     72  C   UNL     1      13.280  -2.859  15.083  1.00  0.00    -0.014 A 
ATOM     73  C   UNL     1      12.434  -2.775  16.200  1.00  0.00     0.009 A 
ATOM     74  C   UNL     1      14.661  -3.013  15.286  1.00  0.00     0.009 A 
ATOM     75  C   UNL     1      12.965  -2.808  17.491  1.00  0.00     0.001 A 
ATOM     76  C   UNL     1      15.185  -3.078  16.577  1.00  0.00     0.001 A 
ATOM     77  C   UNL     1      14.338  -2.965  17.678  1.00  0.00     0.000 A 
ENDBRANCH  59  72
ENDBRANCH  33  34
ENDBRANCH  25  28
ENDBRANCH  23  24
ENDBRANCH  22  23
ENDBRANCH   1  22
TORSDOF 14
