REMARK SMILES O=C(CC1CCN(S(=O)(=O)c2cc[nH]c2)CC1)NCCCCNC(=O)c1ccc(-c2c3nc(c(-c4ccccc4)c4ccc([nH]4)c(-c4ccccc4)c4nc(c(-c5ccccc5)c5ccc2[nH]5)C=C4)C=C3)cc1
REMARK SMILES IDX 20 1 19 2 18 3 1 4 2 5 3 7 4 8 5 9 17 10 6 11 16 12 7 13
REMARK SMILES IDX 8 14 9 15 10 16 11 17 12 18 15 19 13 20 14 21 21 23 22 24
REMARK SMILES IDX 23 25 24 26 25 28 26 29 27 30 73 31 28 32 72 33 29 34 30 35
REMARK SMILES IDX 31 36 66 37 32 38 71 39 65 40 67 41 33 42 70 43 64 44 63 45
REMARK SMILES IDX 34 47 56 48 41 49 55 50 42 51 45 52 54 53 68 54 43 55 44 56
REMARK SMILES IDX 53 58 69 59 46 60 35 61 36 62 40 63 37 64 39 65 38 66 57 67
REMARK SMILES IDX 58 68 62 69 59 70 61 71 60 72 47 73 48 74 52 75 49 76 51 77
REMARK SMILES IDX 50 78
REMARK H PARENT 18 6 14 22 23 27 67 46 45 57
REMARK Flexibility Score: inf
ROOT
ATOM      1  C   UNL     1       2.455   3.424  -1.205  1.00  0.00     0.023 C 
ENDROOT
BRANCH   1   2
ATOM      2  C   UNL     1       2.108   2.003  -1.645  1.00  0.00     0.116 C 
BRANCH   2   3
ATOM      3  N   UNL     1       2.755   1.006  -0.813  1.00  0.00    -0.356 N 
ATOM      4  O   UNL     1       0.813   0.045  -0.056  1.00  0.00    -0.275 OA
ATOM      5  C   UNL     1       2.038   0.096  -0.074  1.00  0.00     0.220 C 
ATOM      6  H   UNL     1       3.738   0.981  -0.777  1.00  0.00     0.163 HD
BRANCH   5   7
ATOM      7  C   UNL     1       2.881  -0.855   0.751  1.00  0.00     0.103 C 
BRANCH   7   8
ATOM      8  C   UNL     1       3.834  -1.748  -0.065  1.00  0.00     0.001 C 
ATOM      9  C   UNL     1       3.179  -2.447  -1.264  1.00  0.00     0.021 C 
ATOM     10  C   UNL     1       4.465  -2.827   0.830  1.00  0.00     0.021 C 
ATOM     11  C   UNL     1       2.174  -3.511  -0.838  1.00  0.00     0.103 C 
ATOM     12  C   UNL     1       3.471  -3.919   1.233  1.00  0.00     0.103 C 
ATOM     13  N   UNL     1       2.838  -4.529   0.033  1.00  0.00    -0.198 NA
BRANCH  13  14
ATOM     14  S   UNL     1       1.745  -5.812   0.398  1.00  0.00     0.244 S 
ATOM     15  O   UNL     1       0.756  -5.306   1.315  1.00  0.00    -0.207 OA
ATOM     16  O   UNL     1       1.371  -6.447  -0.856  1.00  0.00    -0.207 OA
BRANCH  14  17
ATOM     17  C   UNL     1       2.566  -7.049   1.287  1.00  0.00     0.100 A 
ATOM     18  C   UNL     1       2.897  -6.987   2.668  1.00  0.00     0.041 A 
ATOM     19  C   UNL     1       2.987  -8.279   0.821  1.00  0.00     0.104 A 
ATOM     20  C   UNL     1       3.535  -8.165   2.989  1.00  0.00     0.083 A 
ATOM     21  N   UNL     1       3.568  -8.950   1.865  1.00  0.00    -0.366 N 
ATOM     22  H   UNL     1       3.950  -9.856   1.816  1.00  0.00     0.165 HD
ENDBRANCH  14  17
ENDBRANCH  13  14
ENDBRANCH   7   8
ENDBRANCH   5   7
ENDBRANCH   2   3
ENDBRANCH   1   2
BRANCH   1  23
ATOM     23  C   UNL     1       3.947   3.779  -1.287  1.00  0.00     0.023 C 
BRANCH  23  24
ATOM     24  C   UNL     1       4.537   3.711  -2.696  1.00  0.00     0.116 C 
BRANCH  24  25
ATOM     25  N   UNL     1       3.949   4.711  -3.569  1.00  0.00    -0.352 N 
ATOM     26  C   UNL     1       4.247   5.017  -4.872  1.00  0.00     0.251 C 
ATOM     27  H   UNL     1       3.230   5.249  -3.166  1.00  0.00     0.163 HD
ATOM     28  O   UNL     1       3.894   6.101  -5.331  1.00  0.00    -0.269 OA
BRANCH  26  29
ATOM     29  C   UNL     1       5.006   4.083  -5.730  1.00  0.00     0.039 A 
ATOM     30  C   UNL     1       5.968   4.620  -6.595  1.00  0.00     0.014 A 
ATOM     31  C   UNL     1       4.722   2.713  -5.761  1.00  0.00     0.014 A 
ATOM     32  C   UNL     1       6.692   3.781  -7.438  1.00  0.00     0.010 A 
ATOM     33  C   UNL     1       5.457   1.867  -6.589  1.00  0.00     0.010 A 
ATOM     34  C   UNL     1       6.457   2.400  -7.413  1.00  0.00    -0.014 A 
BRANCH  34  35
ATOM     35  C   UNL     1       7.383   1.505  -8.148  1.00  0.00     0.031 A 
ATOM     36  C   UNL     1       8.697   1.272  -7.390  1.00  0.00     0.074 A 
ATOM     37  C   UNL     1       6.979   1.041  -9.368  1.00  0.00     0.049 A 
ATOM     38  N   UNL     1       9.854   0.896  -7.839  1.00  0.00    -0.248 NA
ATOM     39  C   UNL     1       8.753   1.536  -5.925  1.00  0.00     0.031 C 
ATOM     40  C   UNL     1       5.661   1.330  -9.972  1.00  0.00     0.029 A 
ATOM     41  N   UNL     1       7.564   0.254 -10.343  1.00  0.00    -0.354 N 
ATOM     42  C   UNL     1      10.720   0.742  -6.734  1.00  0.00     0.074 A 
ATOM     43  C   UNL     1      10.008   1.223  -5.590  1.00  0.00     0.031 C 
ATOM     44  C   UNL     1       5.571   0.797 -11.209  1.00  0.00     0.029 A 
ATOM     45  C   UNL     1       6.804   0.103 -11.531  1.00  0.00     0.049 A 
ATOM     46  H   UNL     1       8.444  -0.171 -10.221  1.00  0.00     0.167 HD
ATOM     47  C   UNL     1      11.934   0.122  -6.816  1.00  0.00     0.031 A 
ATOM     48  C   UNL     1       7.140  -0.500 -12.712  1.00  0.00     0.031 A 
ATOM     49  C   UNL     1      12.223  -0.228  -8.163  1.00  0.00     0.049 A 
ATOM     50  C   UNL     1       8.438  -1.156 -12.504  1.00  0.00     0.074 A 
ATOM     51  C   UNL     1      12.555   0.509  -9.269  1.00  0.00     0.029 A 
ATOM     52  N   UNL     1      11.855  -1.490  -8.558  1.00  0.00    -0.354 N 
ATOM     53  N   UNL     1       8.614  -2.252 -11.833  1.00  0.00    -0.248 NA
ATOM     54  C   UNL     1       9.649  -0.543 -13.065  1.00  0.00     0.031 C 
ATOM     55  C   UNL     1      11.914  -0.176 -10.323  1.00  0.00     0.029 A 
ATOM     56  C   UNL     1      11.379  -1.375  -9.838  1.00  0.00     0.049 A 
ATOM     57  H   UNL     1      11.919  -2.316  -8.026  1.00  0.00     0.167 HD
ATOM     58  C   UNL     1       9.958  -2.208 -11.558  1.00  0.00     0.074 A 
ATOM     59  C   UNL     1      10.561  -1.387 -12.586  1.00  0.00     0.031 C 
ATOM     60  C   UNL     1      10.366  -2.311 -10.267  1.00  0.00     0.031 A 
BRANCH  47  61
ATOM     61  C   UNL     1      12.847  -0.437  -5.760  1.00  0.00    -0.014 A 
ATOM     62  C   UNL     1      14.157  -0.803  -6.159  1.00  0.00     0.009 A 
ATOM     63  C   UNL     1      12.398  -0.917  -4.526  1.00  0.00     0.009 A 
ATOM     64  C   UNL     1      14.931  -1.703  -5.425  1.00  0.00     0.001 A 
ATOM     65  C   UNL     1      13.193  -1.791  -3.767  1.00  0.00     0.001 A 
ATOM     66  C   UNL     1      14.438  -2.212  -4.233  1.00  0.00     0.000 A 
ENDBRANCH  47  61
BRANCH  48  67
ATOM     67  C   UNL     1       6.578  -0.613 -14.108  1.00  0.00    -0.014 A 
ATOM     68  C   UNL     1       5.322  -0.171 -14.527  1.00  0.00     0.009 A 
ATOM     69  C   UNL     1       7.400  -1.166 -15.131  1.00  0.00     0.009 A 
ATOM     70  C   UNL     1       4.955  -0.198 -15.890  1.00  0.00     0.001 A 
ATOM     71  C   UNL     1       7.061  -1.159 -16.486  1.00  0.00     0.001 A 
ATOM     72  C   UNL     1       5.833  -0.658 -16.870  1.00  0.00     0.000 A 
ENDBRANCH  48  67
BRANCH  60  73
ATOM     73  C   UNL     1       9.389  -3.029  -9.344  1.00  0.00    -0.014 A 
ATOM     74  C   UNL     1       8.965  -4.335  -9.642  1.00  0.00     0.009 A 
ATOM     75  C   UNL     1       8.769  -2.392  -8.255  1.00  0.00     0.009 A 
ATOM     76  C   UNL     1       7.947  -4.959  -8.907  1.00  0.00     0.001 A 
ATOM     77  C   UNL     1       7.756  -3.014  -7.511  1.00  0.00     0.001 A 
ATOM     78  C   UNL     1       7.339  -4.298  -7.843  1.00  0.00     0.000 A 
ENDBRANCH  60  73
ENDBRANCH  34  35
ENDBRANCH  26  29
ENDBRANCH  24  25
ENDBRANCH  23  24
ENDBRANCH   1  23
TORSDOF 14
