REMARK SMILES O=C(NCCCCNC(=O)c1ccc(-c2c3nc(c(-c4ccccc4)c4ccc([nH]4)c(-c4ccccc4)c4nc(c(-c5ccccc5)c5ccc2[nH]5)C=C4)C=C3)cc1)c1ccc(N[C@H]2OC[C@@H](O)[C@@H](O)[C@H]2O)cc1
REMARK SMILES IDX 5 1 4 2 3 3 1 4 2 5 59 7 60 8 74 9 61 10 73 11 62 12 63 13
REMARK SMILES IDX 64 15 65 16 71 17 66 18 69 19 67 20 72 21 70 23 68 25 6 27
REMARK SMILES IDX 7 28 8 29 9 30 10 32 11 33 12 34 58 35 13 36 57 37 14 38
REMARK SMILES IDX 15 39 16 40 51 41 17 42 56 43 50 44 52 45 18 46 55 47 49 48
REMARK SMILES IDX 48 49 19 51 41 52 26 53 40 54 27 55 30 56 39 57 53 58 28 59
REMARK SMILES IDX 29 60 38 62 54 63 31 64 20 65 21 66 25 67 22 68 24 69 23 70
REMARK SMILES IDX 42 71 43 72 47 73 44 74 46 75 45 76 32 77 33 78 37 79 34 80
REMARK SMILES IDX 36 81 35 82
REMARK H PARENT 3 6 63 14 72 22 70 24 68 26 8 31 52 50 30 61
REMARK Flexibility Score: inf
ROOT
ATOM      1  C   UNL     1       0.579   7.254  -7.865  1.00  0.00     0.023 C 
ENDROOT
BRANCH   1   2
ATOM      2  C   UNL     1       0.987   5.816  -8.172  1.00  0.00     0.116 C 
BRANCH   2   3
ATOM      3  N   UNL     1       1.571   5.679  -9.497  1.00  0.00    -0.352 N 
ATOM      4  O   UNL     1       3.235   5.441 -11.005  1.00  0.00    -0.269 OA
ATOM      5  C   UNL     1       2.851   5.326  -9.843  1.00  0.00     0.251 C 
ATOM      6  H   UNL     1       0.965   5.865 -10.250  1.00  0.00     0.163 HD
BRANCH   5   7
ATOM      7  C   UNL     1       3.773   4.823  -8.807  1.00  0.00     0.039 A 
ATOM      8  C   UNL     1       3.393   3.775  -7.971  1.00  0.00     0.016 A 
ATOM      9  C   UNL     1       5.036   5.396  -8.677  1.00  0.00     0.016 A 
ATOM     10  C   UNL     1       4.239   3.371  -6.939  1.00  0.00     0.026 A 
ATOM     11  C   UNL     1       5.885   4.964  -7.652  1.00  0.00     0.026 A 
ATOM     12  C   UNL     1       5.489   3.970  -6.743  1.00  0.00     0.036 A 
BRANCH  12  13
ATOM     13  N   UNL     1       6.376   3.577  -5.755  1.00  0.00    -0.358 N 
ATOM     14  H   UNL     1       7.275   3.978  -5.757  1.00  0.00     0.163 HD
BRANCH  13  15
ATOM     15  C   UNL     1       6.063   2.608  -4.714  1.00  0.00     0.244 C 
ATOM     16  O   UNL     1       5.731   1.361  -5.330  1.00  0.00    -0.353 OA
ATOM     17  C   UNL     1       7.327   2.397  -3.848  1.00  0.00     0.195 C 
ATOM     18  C   UNL     1       5.360   0.352  -4.386  1.00  0.00     0.197 C 
ATOM     19  C   UNL     1       7.044   1.313  -2.800  1.00  0.00     0.178 C 
ATOM     20  C   UNL     1       6.528   0.022  -3.455  1.00  0.00     0.171 C 
BRANCH  17  21
ATOM     21  O   UNL     1       8.424   1.969  -4.695  1.00  0.00    -0.386 OA
ATOM     22  H   UNL     1       8.186   1.138  -5.136  1.00  0.00     0.211 HD
ENDBRANCH  17  21
BRANCH  19  23
ATOM     23  O   UNL     1       8.228   1.044  -2.046  1.00  0.00    -0.387 OA
ATOM     24  H   UNL     1       8.921   0.716  -2.640  1.00  0.00     0.211 HD
ENDBRANCH  19  23
BRANCH  20  25
ATOM     25  O   UNL     1       7.576  -0.608  -4.207  1.00  0.00    -0.388 OA
ATOM     26  H   UNL     1       7.880  -0.007  -4.905  1.00  0.00     0.211 HD
ENDBRANCH  20  25
ENDBRANCH  13  15
ENDBRANCH  12  13
ENDBRANCH   5   7
ENDBRANCH   2   3
ENDBRANCH   1   2
BRANCH   1  27
ATOM     27  C   UNL     1      -0.491   7.832  -8.789  1.00  0.00     0.023 C 
BRANCH  27  28
ATOM     28  C   UNL     1      -1.758   6.997  -8.918  1.00  0.00     0.116 C 
BRANCH  28  29
ATOM     29  N   UNL     1      -2.441   6.797  -7.650  1.00  0.00    -0.352 N 
ATOM     30  C   UNL     1      -3.769   6.958  -7.341  1.00  0.00     0.251 C 
ATOM     31  H   UNL     1      -1.868   6.503  -6.905  1.00  0.00     0.163 HD
ATOM     32  O   UNL     1      -4.140   6.869  -6.173  1.00  0.00    -0.269 OA
BRANCH  30  33
ATOM     33  C   UNL     1      -4.751   7.265  -8.404  1.00  0.00     0.039 A 
ATOM     34  C   UNL     1      -5.739   8.221  -8.152  1.00  0.00     0.014 A 
ATOM     35  C   UNL     1      -4.715   6.608  -9.637  1.00  0.00     0.014 A 
ATOM     36  C   UNL     1      -6.660   8.547  -9.150  1.00  0.00     0.010 A 
ATOM     37  C   UNL     1      -5.576   6.998 -10.659  1.00  0.00     0.010 A 
ATOM     38  C   UNL     1      -6.572   7.956 -10.421  1.00  0.00    -0.014 A 
BRANCH  38  39
ATOM     39  C   UNL     1      -7.548   8.290 -11.491  1.00  0.00     0.031 A 
ATOM     40  C   UNL     1      -8.465   7.223 -12.032  1.00  0.00     0.074 A 
ATOM     41  C   UNL     1      -7.597   9.538 -11.997  1.00  0.00     0.049 A 
ATOM     42  N   UNL     1      -9.362   7.308 -12.983  1.00  0.00    -0.248 NA
ATOM     43  C   UNL     1      -8.343   5.878 -11.445  1.00  0.00     0.031 C 
ATOM     44  C   UNL     1      -6.740  10.655 -11.592  1.00  0.00     0.029 A 
ATOM     45  N   UNL     1      -8.405  10.076 -12.967  1.00  0.00    -0.354 N 
ATOM     46  C   UNL     1      -9.903   6.033 -13.106  1.00  0.00     0.074 A 
ATOM     47  C   UNL     1      -9.187   5.178 -12.186  1.00  0.00     0.031 C 
ATOM     48  C   UNL     1      -7.088  11.750 -12.287  1.00  0.00     0.029 A 
ATOM     49  C   UNL     1      -8.164  11.407 -13.211  1.00  0.00     0.049 A 
ATOM     50  H   UNL     1      -9.094   9.558 -13.444  1.00  0.00     0.167 HD
ATOM     51  C   UNL     1     -10.927   5.614 -13.887  1.00  0.00     0.031 A 
ATOM     52  C   UNL     1      -8.744  12.254 -14.082  1.00  0.00     0.031 A 
ATOM     53  C   UNL     1     -11.646   6.459 -14.801  1.00  0.00     0.049 A 
ATOM     54  C   UNL     1      -9.868  11.757 -14.952  1.00  0.00     0.074 A 
ATOM     55  C   UNL     1     -12.709   6.132 -15.626  1.00  0.00     0.029 A 
ATOM     56  N   UNL     1     -11.381   7.804 -15.004  1.00  0.00    -0.354 N 
ATOM     57  N   UNL     1     -10.399  10.560 -15.018  1.00  0.00    -0.248 NA
ATOM     58  C   UNL     1     -10.489  12.741 -15.850  1.00  0.00     0.031 C 
ATOM     59  C   UNL     1     -13.061   7.271 -16.357  1.00  0.00     0.029 A 
ATOM     60  C   UNL     1     -12.259   8.321 -15.941  1.00  0.00     0.049 A 
ATOM     61  H   UNL     1     -10.674   8.316 -14.549  1.00  0.00     0.167 HD
ATOM     62  C   UNL     1     -11.442  10.659 -15.931  1.00  0.00     0.074 A 
ATOM     63  C   UNL     1     -11.480  12.036 -16.376  1.00  0.00     0.031 C 
ATOM     64  C   UNL     1     -12.294   9.697 -16.363  1.00  0.00     0.031 A 
BRANCH  51  65
ATOM     65  C   UNL     1     -11.338   4.171 -13.772  1.00  0.00    -0.014 A 
ATOM     66  C   UNL     1     -11.968   3.692 -12.611  1.00  0.00     0.009 A 
ATOM     67  C   UNL     1     -11.133   3.291 -14.845  1.00  0.00     0.009 A 
ATOM     68  C   UNL     1     -12.354   2.354 -12.515  1.00  0.00     0.001 A 
ATOM     69  C   UNL     1     -11.548   1.960 -14.758  1.00  0.00     0.001 A 
ATOM     70  C   UNL     1     -12.150   1.491 -13.591  1.00  0.00     0.000 A 
ENDBRANCH  51  65
BRANCH  52  71
ATOM     71  C   UNL     1      -8.289  13.668 -14.179  1.00  0.00    -0.014 A 
ATOM     72  C   UNL     1      -9.130  14.722 -13.786  1.00  0.00     0.009 A 
ATOM     73  C   UNL     1      -7.028  13.974 -14.713  1.00  0.00     0.009 A 
ATOM     74  C   UNL     1      -8.739  16.050 -13.974  1.00  0.00     0.001 A 
ATOM     75  C   UNL     1      -6.624  15.302 -14.865  1.00  0.00     0.001 A 
ATOM     76  C   UNL     1      -7.486  16.338 -14.512  1.00  0.00     0.000 A 
ENDBRANCH  52  71
BRANCH  64  77
ATOM     77  C   UNL     1     -13.382  10.119 -17.312  1.00  0.00    -0.014 A 
ATOM     78  C   UNL     1     -13.102  10.508 -18.631  1.00  0.00     0.009 A 
ATOM     79  C   UNL     1     -14.716  10.115 -16.874  1.00  0.00     0.009 A 
ATOM     80  C   UNL     1     -14.130  10.936 -19.474  1.00  0.00     0.001 A 
ATOM     81  C   UNL     1     -15.745  10.508 -17.730  1.00  0.00     0.001 A 
ATOM     82  C   UNL     1     -15.450  10.933 -19.024  1.00  0.00     0.000 A 
ENDBRANCH  64  77
ENDBRANCH  38  39
ENDBRANCH  30  33
ENDBRANCH  28  29
ENDBRANCH  27  28
ENDBRANCH   1  27
TORSDOF 16
