REMARK SMILES [NH3+][C@H](Cc1cc(F)c(F)c(F)c1)C(=O)NCCCCNC(=O)c1ccc(-c2c3nc(c(-c4ccccc4)c4ccc([nH]4)c(-c4ccccc4)c4nc(c(-c5ccccc5)c5ccc2[nH]5)C=C4)C=C3)cc1
REMARK SMILES IDX 17 1 16 2 15 3 13 4 14 5 2 7 1 8 3 12 4 13 5 14 12 15 6 16
REMARK SMILES IDX 10 17 7 18 8 19 11 20 9 21 18 22 19 23 20 24 21 25 22 27
REMARK SMILES IDX 23 28 24 29 70 30 25 31 69 32 26 33 27 34 28 35 63 36 29 37
REMARK SMILES IDX 68 38 62 39 64 40 30 41 67 42 61 43 60 44 31 46 53 47 38 48
REMARK SMILES IDX 52 49 39 50 42 51 51 52 65 53 40 54 41 55 50 57 66 58 43 59
REMARK SMILES IDX 32 60 33 61 37 62 34 63 36 64 35 65 54 66 55 67 59 68 56 69
REMARK SMILES IDX 58 70 57 71 44 72 45 73 49 74 46 75 48 76 47 77
REMARK H PARENT 15 6 1 9 1 10 1 11 20 26 64 45 42 56
REMARK Flexibility Score: inf
ROOT
ATOM      1  C   UNL     1      -1.677  -0.197   2.363  1.00  0.00     0.023 C 
ENDROOT
BRANCH   1   2
ATOM      2  C   UNL     1      -1.558  -1.347   1.362  1.00  0.00     0.116 C 
BRANCH   2   3
ATOM      3  N   UNL     1      -1.680  -0.884   0.003  1.00  0.00    -0.351 N 
ATOM      4  C   UNL     1      -0.751  -0.744  -0.980  1.00  0.00     0.278 C 
ATOM      5  O   UNL     1      -1.164  -0.316  -2.063  1.00  0.00    -0.268 OA
ATOM      6  H   UNL     1      -2.593  -0.624  -0.259  1.00  0.00     0.163 HD
BRANCH   4   7
ATOM      7  C   UNL     1       0.744  -1.125  -0.803  1.00  0.00     0.275 C 
BRANCH   7   8
ATOM      8  N   UNL     1       0.925  -2.582  -0.853  1.00  0.00    -0.347 N 
ATOM      9  H   UNL     1       0.329  -2.974  -1.583  1.00  0.00     0.345 HD
ATOM     10  H   UNL     1       0.670  -2.988   0.047  1.00  0.00     0.345 HD
ATOM     11  H   UNL     1       1.900  -2.797  -1.059  1.00  0.00     0.345 HD
ENDBRANCH   7   8
BRANCH   7  12
ATOM     12  C   UNL     1       1.553  -0.305   0.238  1.00  0.00     0.111 C 
BRANCH  12  13
ATOM     13  C   UNL     1       1.776  -0.698   1.690  1.00  0.00    -0.036 A 
ATOM     14  C   UNL     1       2.108   0.330   2.596  1.00  0.00     0.046 A 
ATOM     15  C   UNL     1       1.733  -2.004   2.195  1.00  0.00     0.046 A 
ATOM     16  C   UNL     1       2.295   0.065   3.955  1.00  0.00     0.162 A 
ATOM     17  C   UNL     1       1.882  -2.251   3.564  1.00  0.00     0.162 A 
ATOM     18  F   UNL     1       2.595   1.075   4.782  1.00  0.00    -0.204 F 
ATOM     19  C   UNL     1       2.155  -1.221   4.447  1.00  0.00     0.194 A 
ATOM     20  F   UNL     1       1.729  -3.504   4.014  1.00  0.00    -0.204 F 
ATOM     21  F   UNL     1       2.281  -1.467   5.758  1.00  0.00    -0.200 F 
ENDBRANCH  12  13
ENDBRANCH   7  12
ENDBRANCH   4   7
ENDBRANCH   2   3
ENDBRANCH   1   2
BRANCH   1  22
ATOM     22  C   UNL     1      -3.091  -0.004   2.913  1.00  0.00     0.023 C 
BRANCH  22  23
ATOM     23  C   UNL     1      -3.644  -1.191   3.697  1.00  0.00     0.116 C 
BRANCH  23  24
ATOM     24  N   UNL     1      -2.845  -1.565   4.856  1.00  0.00    -0.352 N 
ATOM     25  C   UNL     1      -3.286  -2.047   6.067  1.00  0.00     0.251 C 
ATOM     26  H   UNL     1      -1.871  -1.459   4.761  1.00  0.00     0.163 HD
ATOM     27  O   UNL     1      -2.502  -2.255   6.987  1.00  0.00    -0.269 OA
BRANCH  25  28
ATOM     28  C   UNL     1      -4.734  -2.260   6.261  1.00  0.00     0.039 A 
ATOM     29  C   UNL     1      -5.368  -1.641   7.339  1.00  0.00     0.014 A 
ATOM     30  C   UNL     1      -5.471  -2.989   5.324  1.00  0.00     0.014 A 
ATOM     31  C   UNL     1      -6.761  -1.673   7.427  1.00  0.00     0.010 A 
ATOM     32  C   UNL     1      -6.860  -2.953   5.370  1.00  0.00     0.010 A 
ATOM     33  C   UNL     1      -7.519  -2.285   6.415  1.00  0.00    -0.014 A 
BRANCH  33  34
ATOM     34  C   UNL     1      -9.002  -2.222   6.415  1.00  0.00     0.031 A 
ATOM     35  C   UNL     1      -9.810  -3.485   6.512  1.00  0.00     0.074 A 
ATOM     36  C   UNL     1      -9.620  -1.037   6.242  1.00  0.00     0.049 A 
ATOM     37  N   UNL     1     -11.108  -3.640   6.446  1.00  0.00    -0.248 NA
ATOM     38  C   UNL     1      -9.061  -4.741   6.674  1.00  0.00     0.031 C 
ATOM     39  C   UNL     1      -8.953   0.258   6.082  1.00  0.00     0.029 A 
ATOM     40  N   UNL     1     -10.956  -0.731   6.163  1.00  0.00    -0.354 N 
ATOM     41  C   UNL     1     -11.327  -5.009   6.532  1.00  0.00     0.074 A 
ATOM     42  C   UNL     1     -10.028  -5.642   6.606  1.00  0.00     0.031 C 
ATOM     43  C   UNL     1      -9.881   1.220   5.956  1.00  0.00     0.029 A 
ATOM     44  C   UNL     1     -11.206   0.609   5.987  1.00  0.00     0.049 A 
ATOM     45  H   UNL     1     -11.668  -1.408   6.227  1.00  0.00     0.167 HD
ATOM     46  C   UNL     1     -12.502  -5.680   6.567  1.00  0.00     0.031 A 
ATOM     47  C   UNL     1     -12.371   1.271   5.861  1.00  0.00     0.031 A 
ATOM     48  C   UNL     1     -13.794  -5.052   6.519  1.00  0.00     0.049 A 
ATOM     49  C   UNL     1     -13.663   0.505   5.914  1.00  0.00     0.074 A 
ATOM     50  C   UNL     1     -15.043  -5.641   6.617  1.00  0.00     0.029 A 
ATOM     51  N   UNL     1     -14.003  -3.691   6.364  1.00  0.00    -0.354 N 
ATOM     52  N   UNL     1     -13.853  -0.783   6.065  1.00  0.00    -0.248 NA
ATOM     53  C   UNL     1     -14.901   1.288   5.790  1.00  0.00     0.031 C 
ATOM     54  C   UNL     1     -16.010  -4.639   6.479  1.00  0.00     0.029 A 
ATOM     55  C   UNL     1     -15.361  -3.422   6.344  1.00  0.00     0.049 A 
ATOM     56  H   UNL     1     -13.292  -3.016   6.279  1.00  0.00     0.167 HD
ATOM     57  C   UNL     1     -15.230  -0.962   6.081  1.00  0.00     0.074 A 
ATOM     58  C   UNL     1     -15.827   0.350   5.938  1.00  0.00     0.031 C 
ATOM     59  C   UNL     1     -15.938  -2.111   6.204  1.00  0.00     0.031 A 
BRANCH  46  60
ATOM     60  C   UNL     1     -12.437  -7.178   6.663  1.00  0.00    -0.014 A 
ATOM     61  C   UNL     1     -12.016  -7.812   7.844  1.00  0.00     0.009 A 
ATOM     62  C   UNL     1     -12.821  -7.966   5.568  1.00  0.00     0.009 A 
ATOM     63  C   UNL     1     -11.944  -9.204   7.911  1.00  0.00     0.001 A 
ATOM     64  C   UNL     1     -12.775  -9.359   5.648  1.00  0.00     0.001 A 
ATOM     65  C   UNL     1     -12.327  -9.976   6.815  1.00  0.00     0.000 A 
ENDBRANCH  46  60
BRANCH  47  66
ATOM     66  C   UNL     1     -12.376   2.748   5.698  1.00  0.00    -0.014 A 
ATOM     67  C   UNL     1     -12.797   3.575   6.751  1.00  0.00     0.009 A 
ATOM     68  C   UNL     1     -11.969   3.338   4.492  1.00  0.00     0.009 A 
ATOM     69  C   UNL     1     -12.837   4.962   6.589  1.00  0.00     0.001 A 
ATOM     70  C   UNL     1     -11.985   4.727   4.342  1.00  0.00     0.001 A 
ATOM     71  C   UNL     1     -12.428   5.536   5.387  1.00  0.00     0.000 A 
ENDBRANCH  47  66
BRANCH  59  72
ATOM     72  C   UNL     1     -17.434  -1.996   6.225  1.00  0.00    -0.014 A 
ATOM     73  C   UNL     1     -18.160  -1.724   5.056  1.00  0.00     0.009 A 
ATOM     74  C   UNL     1     -18.129  -2.207   7.426  1.00  0.00     0.009 A 
ATOM     75  C   UNL     1     -19.553  -1.635   5.096  1.00  0.00     0.001 A 
ATOM     76  C   UNL     1     -19.523  -2.143   7.458  1.00  0.00     0.001 A 
ATOM     77  C   UNL     1     -20.232  -1.849   6.295  1.00  0.00     0.000 A 
ENDBRANCH  59  72
ENDBRANCH  33  34
ENDBRANCH  25  28
ENDBRANCH  23  24
ENDBRANCH  22  23
ENDBRANCH   1  22
TORSDOF 14
