REMARK SMILES O=C(NCCCCNC(=O)[C@@H]1CCCN(C(=O)Nc2ccccc2)C1)c1ccc(-c2c3nc(c(-c4ccccc4)c4ccc([nH]4)c(-c4ccccc4)c4nc(c(-c5ccccc5)c5ccc2[nH]5)C=C4)C=C3)cc1
REMARK SMILES IDX 5 1 4 2 3 3 1 4 2 5 26 7 27 8 73 9 28 10 72 11 29 12 30 13
REMARK SMILES IDX 31 14 66 15 32 16 71 17 65 18 67 19 33 20 70 21 64 22 63 23
REMARK SMILES IDX 34 25 56 26 41 27 55 28 42 29 45 30 54 31 68 32 43 33 44 34
REMARK SMILES IDX 53 36 69 37 46 38 35 39 36 40 40 41 37 42 39 43 38 44 57 45
REMARK SMILES IDX 58 46 62 47 59 48 61 49 60 50 47 51 48 52 52 53 49 54 51 55
REMARK SMILES IDX 50 56 6 57 7 58 8 59 9 60 10 62 11 63 12 64 25 65 13 66
REMARK SMILES IDX 15 67 14 68 16 69 17 70 18 71 19 73 20 74 24 75 21 76 23 77
REMARK SMILES IDX 22 78
REMARK H PARENT 3 6 67 24 45 35 8 61 18 72
REMARK Flexibility Score: inf
ROOT
ATOM      1  C   UNL     1       4.950  -2.310  -0.347  1.00  0.00     0.023 C 
ENDROOT
BRANCH   1   2
ATOM      2  C   UNL     1       4.545  -0.848  -0.425  1.00  0.00     0.116 C 
BRANCH   2   3
ATOM      3  N   UNL     1       3.110  -0.636  -0.561  1.00  0.00    -0.352 N 
ATOM      4  O   UNL     1       1.095   0.280  -0.081  1.00  0.00    -0.269 OA
ATOM      5  C   UNL     1       2.310   0.277   0.090  1.00  0.00     0.251 C 
ATOM      6  H   UNL     1       2.650  -1.223  -1.204  1.00  0.00     0.163 HD
BRANCH   5   7
ATOM      7  C   UNL     1       2.932   1.221   1.040  1.00  0.00     0.039 A 
ATOM      8  C   UNL     1       4.092   1.907   0.682  1.00  0.00     0.014 A 
ATOM      9  C   UNL     1       2.405   1.343   2.328  1.00  0.00     0.014 A 
ATOM     10  C   UNL     1       4.835   2.543   1.665  1.00  0.00     0.010 A 
ATOM     11  C   UNL     1       3.102   2.078   3.291  1.00  0.00     0.010 A 
ATOM     12  C   UNL     1       4.353   2.634   2.982  1.00  0.00    -0.014 A 
BRANCH  12  13
ATOM     13  C   UNL     1       5.184   3.324   4.001  1.00  0.00     0.031 A 
ATOM     14  C   UNL     1       5.741   2.585   5.189  1.00  0.00     0.074 A 
ATOM     15  C   UNL     1       5.500   4.618   3.804  1.00  0.00     0.049 A 
ATOM     16  N   UNL     1       6.536   3.027   6.131  1.00  0.00    -0.248 NA
ATOM     17  C   UNL     1       5.354   1.174   5.349  1.00  0.00     0.031 C 
ATOM     18  C   UNL     1       5.024   5.441   2.688  1.00  0.00     0.029 A 
ATOM     19  N   UNL     1       6.331   5.454   4.502  1.00  0.00    -0.354 N 
ATOM     20  C   UNL     1       6.710   1.968   7.014  1.00  0.00     0.074 A 
ATOM     21  C   UNL     1       5.933   0.861   6.500  1.00  0.00     0.031 C 
ATOM     22  C   UNL     1       5.637   6.631   2.728  1.00  0.00     0.029 A 
ATOM     23  C   UNL     1       6.490   6.683   3.908  1.00  0.00     0.049 A 
ATOM     24  H   UNL     1       6.770   5.200   5.345  1.00  0.00     0.167 HD
ATOM     25  C   UNL     1       7.449   1.923   8.149  1.00  0.00     0.031 A 
ATOM     26  C   UNL     1       7.239   7.739   4.271  1.00  0.00     0.031 A 
ATOM     27  C   UNL     1       8.246   3.014   8.644  1.00  0.00     0.049 A 
ATOM     28  C   UNL     1       8.061   7.654   5.521  1.00  0.00     0.074 A 
ATOM     29  C   UNL     1       9.049   3.055   9.771  1.00  0.00     0.029 A 
ATOM     30  N   UNL     1       8.348   4.256   8.036  1.00  0.00    -0.354 N 
ATOM     31  N   UNL     1       8.212   6.644   6.341  1.00  0.00    -0.248 NA
ATOM     32  C   UNL     1       8.810   8.860   5.897  1.00  0.00     0.031 C 
ATOM     33  C   UNL     1       9.610   4.334   9.864  1.00  0.00     0.029 A 
ATOM     34  C   UNL     1       9.189   5.074   8.771  1.00  0.00     0.049 A 
ATOM     35  H   UNL     1       7.890   4.517   7.204  1.00  0.00     0.167 HD
ATOM     36  C   UNL     1       9.078   7.088   7.329  1.00  0.00     0.074 A 
ATOM     37  C   UNL     1       9.438   8.450   6.990  1.00  0.00     0.031 C 
ATOM     38  C   UNL     1       9.530   6.428   8.422  1.00  0.00     0.031 A 
BRANCH  25  39
ATOM     39  C   UNL     1       7.403   0.657   8.959  1.00  0.00    -0.014 A 
ATOM     40  C   UNL     1       8.084  -0.500   8.551  1.00  0.00     0.009 A 
ATOM     41  C   UNL     1       6.702   0.640  10.175  1.00  0.00     0.009 A 
ATOM     42  C   UNL     1       8.040  -1.658   9.333  1.00  0.00     0.001 A 
ATOM     43  C   UNL     1       6.679  -0.511  10.965  1.00  0.00     0.001 A 
ATOM     44  C   UNL     1       7.341  -1.661  10.540  1.00  0.00     0.000 A 
ENDBRANCH  25  39
BRANCH  26  45
ATOM     45  C   UNL     1       7.240   8.962   3.431  1.00  0.00    -0.014 A 
ATOM     46  C   UNL     1       8.366   9.300   2.667  1.00  0.00     0.009 A 
ATOM     47  C   UNL     1       6.101   9.780   3.366  1.00  0.00     0.009 A 
ATOM     48  C   UNL     1       8.356  10.441   1.863  1.00  0.00     0.001 A 
ATOM     49  C   UNL     1       6.084  10.905   2.541  1.00  0.00     0.001 A 
ATOM     50  C   UNL     1       7.213  11.238   1.795  1.00  0.00     0.000 A 
ENDBRANCH  26  45
BRANCH  38  51
ATOM     51  C   UNL     1      10.478   7.173   9.313  1.00  0.00    -0.014 A 
ATOM     52  C   UNL     1      10.021   8.187  10.170  1.00  0.00     0.009 A 
ATOM     53  C   UNL     1      11.843   6.850   9.301  1.00  0.00     0.009 A 
ATOM     54  C   UNL     1      10.922   8.889  10.972  1.00  0.00     0.001 A 
ATOM     55  C   UNL     1      12.738   7.539  10.121  1.00  0.00     0.001 A 
ATOM     56  C   UNL     1      12.278   8.563  10.948  1.00  0.00     0.000 A 
ENDBRANCH  38  51
ENDBRANCH  12  13
ENDBRANCH   5   7
ENDBRANCH   2   3
ENDBRANCH   1   2
BRANCH   1  57
ATOM     57  C   UNL     1       4.481  -3.183  -1.506  1.00  0.00     0.023 C 
BRANCH  57  58
ATOM     58  C   UNL     1       4.917  -2.721  -2.899  1.00  0.00     0.116 C 
BRANCH  58  59
ATOM     59  N   UNL     1       6.321  -2.977  -3.141  1.00  0.00    -0.356 N 
ATOM     60  C   UNL     1       7.029  -3.849  -3.893  1.00  0.00     0.224 C 
ATOM     61  H   UNL     1       6.902  -2.366  -2.634  1.00  0.00     0.163 HD
ATOM     62  O   UNL     1       8.255  -3.678  -3.826  1.00  0.00    -0.275 OA
BRANCH  60  63
ATOM     63  C   UNL     1       6.479  -4.916  -4.855  1.00  0.00     0.098 C 
ATOM     64  C   UNL     1       5.014  -5.317  -4.918  1.00  0.00     0.017 C 
ATOM     65  C   UNL     1       7.291  -6.212  -4.669  1.00  0.00     0.134 C 
ATOM     66  C   UNL     1       4.567  -6.068  -3.681  1.00  0.00     0.022 C 
ATOM     67  N   UNL     1       6.957  -6.903  -3.414  1.00  0.00    -0.324 N 
ATOM     68  C   UNL     1       5.535  -7.136  -3.180  1.00  0.00     0.121 C 
BRANCH  67  69
ATOM     69  C   UNL     1       8.022  -7.378  -2.675  1.00  0.00     0.321 C 
ATOM     70  O   UNL     1       9.188  -7.271  -3.074  1.00  0.00    -0.248 OA
ATOM     71  N   UNL     1       7.900  -7.834  -1.405  1.00  0.00    -0.308 N 
ATOM     72  H   UNL     1       8.746  -7.766  -0.906  1.00  0.00     0.171 HD
BRANCH  71  73
ATOM     73  C   UNL     1       6.877  -8.376  -0.627  1.00  0.00     0.042 A 
ATOM     74  C   UNL     1       6.814  -7.977   0.711  1.00  0.00     0.026 A 
ATOM     75  C   UNL     1       5.964  -9.313  -1.110  1.00  0.00     0.026 A 
ATOM     76  C   UNL     1       5.764  -8.406   1.522  1.00  0.00     0.002 A 
ATOM     77  C   UNL     1       4.915  -9.748  -0.296  1.00  0.00     0.002 A 
ATOM     78  C   UNL     1       4.804  -9.276   1.012  1.00  0.00     0.000 A 
ENDBRANCH  71  73
ENDBRANCH  67  69
ENDBRANCH  60  63
ENDBRANCH  58  59
ENDBRANCH  57  58
ENDBRANCH   1  57
TORSDOF 13
