REMARK SMILES CS(=O)(=O)N1C[C@@H]2CN(C(=O)c3ccco3)C[C@]2(C(=O)NCCCCNC(=O)c2ccc(-c3c4nc(c(-c5ccccc5)c5ccc([nH]5)c(-c5ccccc5)c5nc(c(-c6ccccc6)c6ccc3[nH]6)C=C5)C=C4)cc2)C1
REMARK SMILES IDX 23 1 22 2 21 3 19 4 20 5 18 7 5 8 6 9 77 10 7 11 8 12 17 13
REMARK SMILES IDX 9 14 2 15 1 16 3 17 4 18 10 19 11 20 12 21 13 22 16 23 14 24
REMARK SMILES IDX 15 25 24 26 25 27 26 28 27 29 28 31 29 32 30 33 76 34 31 35
REMARK SMILES IDX 75 36 32 37 33 38 34 39 69 40 35 41 74 42 68 43 70 44 36 45
REMARK SMILES IDX 73 46 67 47 66 48 37 50 59 51 44 52 58 53 45 54 48 55 57 56
REMARK SMILES IDX 71 57 46 58 47 59 56 61 72 62 49 63 38 64 39 65 43 66 40 67
REMARK SMILES IDX 42 68 41 69 60 70 61 71 65 72 62 73 64 74 63 75 50 76 51 77
REMARK SMILES IDX 55 78 52 79 54 80 53 81
REMARK H PARENT 21 6 26 30 70 49 48 60
REMARK Flexibility Score: inf
ROOT
ATOM      1  C   UNL     1       2.381   5.096   6.675  1.00  0.00     0.023 C 
ENDROOT
BRANCH   1   2
ATOM      2  C   UNL     1       1.299   4.581   5.737  1.00  0.00     0.116 C 
BRANCH   2   3
ATOM      3  N   UNL     1       1.351   5.336   4.505  1.00  0.00    -0.356 N 
ATOM      4  C   UNL     1       2.212   5.091   3.460  1.00  0.00     0.229 C 
ATOM      5  O   UNL     1       2.440   5.992   2.655  1.00  0.00    -0.274 OA
ATOM      6  H   UNL     1       0.719   6.085   4.405  1.00  0.00     0.163 HD
BRANCH   4   7
ATOM      7  C   UNL     1       2.784   3.650   3.378  1.00  0.00     0.086 C 
ATOM      8  N   UNL     1       1.516   2.065   1.886  1.00  0.00    -0.201 NA
ATOM      9  C   UNL     1       2.708   1.365   2.318  1.00  0.00     0.108 C 
ATOM     10  C   UNL     1       1.803   3.528   2.096  1.00  0.00     0.121 C 
ATOM     11  C   UNL     1       3.629   2.491   2.721  1.00  0.00     0.042 C 
ATOM     12  C   UNL     1       4.632   2.017   3.749  1.00  0.00     0.126 C 
ATOM     13  C   UNL     1       4.215   4.319   3.784  1.00  0.00     0.138 C 
ATOM     14  N   UNL     1       4.943   3.226   4.443  1.00  0.00    -0.334 N 
BRANCH   8  15
ATOM     15  S   UNL     1       0.787   1.718   0.400  1.00  0.00     0.211 S 
ATOM     16  C   UNL     1       0.916  -0.053   0.242  1.00  0.00     0.176 C 
ATOM     17  O   UNL     1       1.614   2.305  -0.635  1.00  0.00    -0.213 OA
ATOM     18  O   UNL     1      -0.608   2.070   0.530  1.00  0.00    -0.213 OA
ENDBRANCH   8  15
BRANCH  14  19
ATOM     19  C   UNL     1       5.579   3.117   5.680  1.00  0.00     0.289 C 
ATOM     20  O   UNL     1       5.980   2.007   6.046  1.00  0.00    -0.265 OA
BRANCH  19  21
ATOM     21  C   UNL     1       5.651   4.243   6.587  1.00  0.00     0.191 A 
ATOM     22  C   UNL     1       5.431   4.266   7.956  1.00  0.00     0.056 A 
ATOM     23  O   UNL     1       6.032   5.487   6.168  1.00  0.00    -0.459 OA
ATOM     24  C   UNL     1       5.667   5.588   8.391  1.00  0.00     0.043 A 
ATOM     25  C   UNL     1       6.067   6.284   7.274  1.00  0.00     0.196 A 
ENDBRANCH  19  21
ENDBRANCH  14  19
ENDBRANCH   4   7
ENDBRANCH   2   3
ENDBRANCH   1   2
BRANCH   1  26
ATOM     26  C   UNL     1       2.049   6.407   7.367  1.00  0.00     0.023 C 
BRANCH  26  27
ATOM     27  C   UNL     1       1.117   6.212   8.540  1.00  0.00     0.116 C 
BRANCH  27  28
ATOM     28  N   UNL     1       1.678   5.339   9.567  1.00  0.00    -0.352 N 
ATOM     29  C   UNL     1       1.642   5.475  10.932  1.00  0.00     0.251 C 
ATOM     30  H   UNL     1       2.147   4.541   9.234  1.00  0.00     0.163 HD
ATOM     31  O   UNL     1       2.284   4.717  11.651  1.00  0.00    -0.269 OA
BRANCH  29  32
ATOM     32  C   UNL     1       0.866   6.587  11.507  1.00  0.00     0.039 A 
ATOM     33  C   UNL     1       1.443   7.366  12.509  1.00  0.00     0.014 A 
ATOM     34  C   UNL     1      -0.379   6.920  10.971  1.00  0.00     0.014 A 
ATOM     35  C   UNL     1       0.804   8.537  12.908  1.00  0.00     0.010 A 
ATOM     36  C   UNL     1      -0.934   8.153  11.262  1.00  0.00     0.010 A 
ATOM     37  C   UNL     1      -0.359   8.968  12.246  1.00  0.00    -0.014 A 
BRANCH  37  38
ATOM     38  C   UNL     1      -0.997  10.264  12.570  1.00  0.00     0.031 A 
ATOM     39  C   UNL     1      -2.424  10.298  13.043  1.00  0.00     0.074 A 
ATOM     40  C   UNL     1      -0.313  11.409  12.372  1.00  0.00     0.049 A 
ATOM     41  N   UNL     1      -3.169  11.331  13.340  1.00  0.00    -0.248 NA
ATOM     42  C   UNL     1      -3.121   9.005  13.160  1.00  0.00     0.031 C 
ATOM     43  C   UNL     1       1.053  11.506  11.851  1.00  0.00     0.029 A 
ATOM     44  N   UNL     1      -0.676  12.712  12.591  1.00  0.00    -0.354 N 
ATOM     45  C   UNL     1      -4.418  10.813  13.656  1.00  0.00     0.074 A 
ATOM     46  C   UNL     1      -4.356   9.386  13.443  1.00  0.00     0.031 C 
ATOM     47  C   UNL     1       1.429  12.795  11.840  1.00  0.00     0.029 A 
ATOM     48  C   UNL     1       0.318  13.616  12.306  1.00  0.00     0.049 A 
ATOM     49  H   UNL     1      -1.565  12.976  12.922  1.00  0.00     0.167 HD
ATOM     50  C   UNL     1      -5.513  11.462  14.116  1.00  0.00     0.031 A 
ATOM     51  C   UNL     1       0.331  14.958  12.409  1.00  0.00     0.031 A 
ATOM     52  C   UNL     1      -5.563  12.880  14.342  1.00  0.00     0.049 A 
ATOM     53  C   UNL     1      -0.897  15.656  12.923  1.00  0.00     0.074 A 
ATOM     54  C   UNL     1      -6.597  13.632  14.870  1.00  0.00     0.029 A 
ATOM     55  N   UNL     1      -4.532  13.760  14.049  1.00  0.00    -0.354 N 
ATOM     56  N   UNL     1      -2.042  15.143  13.304  1.00  0.00    -0.248 NA
ATOM     57  C   UNL     1      -0.824  17.119  13.032  1.00  0.00     0.031 C 
ATOM     58  C   UNL     1      -6.215  14.976  14.836  1.00  0.00     0.029 A 
ATOM     59  C   UNL     1      -4.917  15.054  14.354  1.00  0.00     0.049 A 
ATOM     60  H   UNL     1      -3.657  13.503  13.679  1.00  0.00     0.167 HD
ATOM     61  C   UNL     1      -2.818  16.216  13.721  1.00  0.00     0.074 A 
ATOM     62  C   UNL     1      -2.001  17.404  13.570  1.00  0.00     0.031 C 
ATOM     63  C   UNL     1      -4.092  16.222  14.185  1.00  0.00     0.031 A 
BRANCH  50  64
ATOM     64  C   UNL     1      -6.739  10.638  14.397  1.00  0.00    -0.014 A 
ATOM     65  C   UNL     1      -6.767   9.701  15.444  1.00  0.00     0.009 A 
ATOM     66  C   UNL     1      -7.892  10.814  13.616  1.00  0.00     0.009 A 
ATOM     67  C   UNL     1      -7.908   8.930  15.675  1.00  0.00     0.001 A 
ATOM     68  C   UNL     1      -9.043  10.067  13.872  1.00  0.00     0.001 A 
ATOM     69  C   UNL     1      -9.047   9.118  14.893  1.00  0.00     0.000 A 
ENDBRANCH  50  64
BRANCH  51  70
ATOM     70  C   UNL     1       1.550  15.725  12.040  1.00  0.00    -0.014 A 
ATOM     71  C   UNL     1       2.307  16.382  13.023  1.00  0.00     0.009 A 
ATOM     72  C   UNL     1       1.964  15.809  10.701  1.00  0.00     0.009 A 
ATOM     73  C   UNL     1       3.431  17.133  12.670  1.00  0.00     0.001 A 
ATOM     74  C   UNL     1       3.107  16.533  10.355  1.00  0.00     0.001 A 
ATOM     75  C   UNL     1       3.833  17.203  11.338  1.00  0.00     0.000 A 
ENDBRANCH  51  70
BRANCH  63  76
ATOM     76  C   UNL     1      -4.665  17.552  14.586  1.00  0.00    -0.014 A 
ATOM     77  C   UNL     1      -4.973  18.533  13.631  1.00  0.00     0.009 A 
ATOM     78  C   UNL     1      -4.927  17.815  15.940  1.00  0.00     0.009 A 
ATOM     79  C   UNL     1      -5.490  19.767  14.029  1.00  0.00     0.001 A 
ATOM     80  C   UNL     1      -5.478  19.035  16.331  1.00  0.00     0.001 A 
ATOM     81  C   UNL     1      -5.746  20.015  15.377  1.00  0.00     0.000 A 
ENDBRANCH  63  76
ENDBRANCH  37  38
ENDBRANCH  29  32
ENDBRANCH  27  28
ENDBRANCH  26  27
ENDBRANCH   1  26
TORSDOF 14
