REMARK SMILES C/C(=N\[NH+]=C1\NC(=O)[C@H](CC(=O)NCCCCNC(=O)c2ccc(-c3c4nc(c(-c5ccccc5)c5ccc([nH]5)c(-c5ccccc5)c5nc(c(-c6ccccc6)c6ccc3[nH]6)C=C5)C=C4)cc2)S1)c1ccc([N+](=O)[O-])cc1
REMARK SMILES IDX 14 1 13 2 11 3 12 4 10 6 9 7 4 8 5 9 6 11 69 12 7 13 8 15
REMARK SMILES IDX 3 16 1 17 2 18 70 19 71 20 78 21 72 22 77 23 73 24 74 25
REMARK SMILES IDX 75 26 76 27 15 28 16 29 17 30 18 31 19 32 20 34 21 35 22 36
REMARK SMILES IDX 68 37 23 38 67 39 24 40 25 41 26 42 61 43 27 44 66 45 60 46
REMARK SMILES IDX 62 47 28 48 65 49 59 50 58 51 29 53 51 54 36 55 50 56 37 57
REMARK SMILES IDX 40 58 49 59 63 60 38 61 39 62 48 64 64 65 41 66 30 67 31 68
REMARK SMILES IDX 35 69 32 70 34 71 33 72 52 73 53 74 57 75 54 76 56 77 55 78
REMARK SMILES IDX 42 79 43 80 47 81 44 82 46 83 45 84
REMARK H PARENT 13 5 4 10 6 14 18 33 62 52 40 63
REMARK Flexibility Score: inf
ROOT
ATOM      1  C   UNL     1      -3.930   3.646   2.674  1.00  0.00     0.116 C 
ENDROOT
BRANCH   1   2
ATOM      2  N   UNL     1      -3.726   4.636   1.630  1.00  0.00    -0.356 N 
ATOM      3  C   UNL     1      -3.357   4.465   0.328  1.00  0.00     0.221 C 
ATOM      4  O   UNL     1      -3.158   5.450  -0.379  1.00  0.00    -0.275 OA
ATOM      5  H   UNL     1      -3.876   5.569   1.903  1.00  0.00     0.163 HD
BRANCH   3   6
ATOM      6  C   UNL     1      -3.207   3.068  -0.221  1.00  0.00     0.127 C 
BRANCH   6   7
ATOM      7  C   UNL     1      -1.780   2.556  -0.118  1.00  0.00     0.183 C 
ATOM      8  N   UNL     1      -0.559  -0.558   1.794  1.00  0.00    -0.142 N 
ATOM      9  C   UNL     1      -1.094   0.499   1.283  1.00  0.00     0.337 C 
ATOM     10  H   UNL     1      -0.276  -0.602   2.736  1.00  0.00     0.343 HD
ATOM     11  N   UNL     1      -1.014   1.662   1.961  1.00  0.00    -0.202 N 
ATOM     12  S   UNL     1      -1.772   0.738  -0.302  1.00  0.00    -0.020 SA
ATOM     13  C   UNL     1      -1.112   2.797   1.219  1.00  0.00     0.322 C 
ATOM     14  H   UNL     1      -0.892   1.687   2.937  1.00  0.00     0.316 HD
ATOM     15  O   UNL     1      -0.633   3.865   1.577  1.00  0.00    -0.246 OA
BRANCH   8  16
ATOM     16  N   UNL     1      -0.410  -1.631   0.921  1.00  0.00    -0.090 NA
ATOM     17  C   UNL     1       1.666  -0.431   0.203  1.00  0.00     0.071 C 
ATOM     18  C   UNL     1       0.671  -1.588   0.187  1.00  0.00     0.088 C 
BRANCH  18  19
ATOM     19  C   UNL     1       0.904  -2.682  -0.807  1.00  0.00    -0.000 A 
ATOM     20  C   UNL     1      -0.176  -3.486  -1.204  1.00  0.00     0.017 A 
ATOM     21  C   UNL     1       2.170  -2.907  -1.364  1.00  0.00     0.017 A 
ATOM     22  C   UNL     1       0.003  -4.500  -2.150  1.00  0.00     0.086 A 
ATOM     23  C   UNL     1       2.359  -3.921  -2.306  1.00  0.00     0.086 A 
ATOM     24  C   UNL     1       1.274  -4.713  -2.698  1.00  0.00     0.269 A 
BRANCH  24  25
ATOM     25  N   UNL     1       1.476  -5.774  -3.691  1.00  0.00     0.062 N 
ATOM     26  O   UNL     1       0.494  -6.458  -4.013  1.00  0.00    -0.258 OA
ATOM     27  O   UNL     1       2.618  -5.921  -4.151  1.00  0.00    -0.258 OA
ENDBRANCH  24  25
ENDBRANCH  18  19
ENDBRANCH   8  16
ENDBRANCH   6   7
ENDBRANCH   3   6
ENDBRANCH   1   2
BRANCH   1  28
ATOM     28  C   UNL     1      -3.002   3.879   3.865  1.00  0.00     0.023 C 
BRANCH  28  29
ATOM     29  C   UNL     1      -3.330   5.117   4.691  1.00  0.00     0.023 C 
BRANCH  29  30
ATOM     30  C   UNL     1      -4.705   5.085   5.336  1.00  0.00     0.116 C 
BRANCH  30  31
ATOM     31  N   UNL     1      -4.884   3.934   6.210  1.00  0.00    -0.352 N 
ATOM     32  C   UNL     1      -5.340   3.890   7.506  1.00  0.00     0.251 C 
ATOM     33  H   UNL     1      -4.645   3.064   5.816  1.00  0.00     0.163 HD
ATOM     34  O   UNL     1      -5.263   2.861   8.155  1.00  0.00    -0.269 OA
BRANCH  32  35
ATOM     35  C   UNL     1      -5.897   5.118   8.111  1.00  0.00     0.039 A 
ATOM     36  C   UNL     1      -5.509   5.468   9.404  1.00  0.00     0.014 A 
ATOM     37  C   UNL     1      -6.770   5.935   7.386  1.00  0.00     0.014 A 
ATOM     38  C   UNL     1      -5.945   6.676   9.945  1.00  0.00     0.010 A 
ATOM     39  C   UNL     1      -7.122   7.181   7.887  1.00  0.00     0.010 A 
ATOM     40  C   UNL     1      -6.721   7.560   9.175  1.00  0.00    -0.014 A 
BRANCH  40  41
ATOM     41  C   UNL     1      -7.112   8.887   9.707  1.00  0.00     0.031 A 
ATOM     42  C   UNL     1      -8.563   9.227   9.908  1.00  0.00     0.074 A 
ATOM     43  C   UNL     1      -6.158   9.802   9.964  1.00  0.00     0.049 A 
ATOM     44  N   UNL     1      -9.093  10.328  10.377  1.00  0.00    -0.248 NA
ATOM     45  C   UNL     1      -9.550   8.212   9.504  1.00  0.00     0.031 C 
ATOM     46  C   UNL     1      -4.721   9.615   9.745  1.00  0.00     0.029 A 
ATOM     47  N   UNL     1      -6.253  11.071  10.475  1.00  0.00    -0.354 N 
ATOM     48  C   UNL     1     -10.468  10.141  10.312  1.00  0.00     0.074 A 
ATOM     49  C   UNL     1     -10.693   8.850   9.701  1.00  0.00     0.031 C 
ATOM     50  C   UNL     1      -4.066  10.709  10.166  1.00  0.00     0.029 A 
ATOM     51  C   UNL     1      -5.036  11.684  10.649  1.00  0.00     0.049 A 
ATOM     52  H   UNL     1      -7.110  11.501  10.696  1.00  0.00     0.167 HD
ATOM     53  C   UNL     1     -11.456  10.958  10.747  1.00  0.00     0.031 A 
ATOM     54  C   UNL     1      -4.736  12.895  11.154  1.00  0.00     0.031 A 
ATOM     55  C   UNL     1     -11.230  12.238  11.363  1.00  0.00     0.049 A 
ATOM     56  C   UNL     1      -5.849  13.776  11.644  1.00  0.00     0.074 A 
ATOM     57  C   UNL     1     -12.158  13.118  11.891  1.00  0.00     0.029 A 
ATOM     58  N   UNL     1      -9.983  12.821  11.531  1.00  0.00    -0.354 N 
ATOM     59  N   UNL     1      -7.141  13.550  11.653  1.00  0.00    -0.248 NA
ATOM     60  C   UNL     1      -5.459  15.073  12.213  1.00  0.00     0.031 C 
ATOM     61  C   UNL     1     -11.476  14.257  12.334  1.00  0.00     0.029 A 
ATOM     62  C   UNL     1     -10.118  14.059  12.136  1.00  0.00     0.049 A 
ATOM     63  H   UNL     1      -9.128  12.414  11.260  1.00  0.00     0.167 HD
ATOM     64  C   UNL     1      -7.716  14.665  12.248  1.00  0.00     0.074 A 
ATOM     65  C   UNL     1      -6.629  15.552  12.610  1.00  0.00     0.031 C 
ATOM     66  C   UNL     1      -9.025  14.933  12.475  1.00  0.00     0.031 A 
BRANCH  53  67
ATOM     67  C   UNL     1     -12.873  10.484  10.566  1.00  0.00    -0.014 A 
ATOM     68  C   UNL     1     -13.377   9.401  11.305  1.00  0.00     0.009 A 
ATOM     69  C   UNL     1     -13.722  11.143   9.664  1.00  0.00     0.009 A 
ATOM     70  C   UNL     1     -14.690   8.963  11.114  1.00  0.00     0.001 A 
ATOM     71  C   UNL     1     -15.043  10.722   9.498  1.00  0.00     0.001 A 
ATOM     72  C   UNL     1     -15.522   9.627  10.215  1.00  0.00     0.000 A 
ENDBRANCH  53  67
BRANCH  54  73
ATOM     73  C   UNL     1      -3.318  13.330  11.257  1.00  0.00    -0.014 A 
ATOM     74  C   UNL     1      -2.696  13.436  12.511  1.00  0.00     0.009 A 
ATOM     75  C   UNL     1      -2.581  13.644  10.105  1.00  0.00     0.009 A 
ATOM     76  C   UNL     1      -1.374  13.877  12.610  1.00  0.00     0.001 A 
ATOM     77  C   UNL     1      -1.250  14.055  10.206  1.00  0.00     0.001 A 
ATOM     78  C   UNL     1      -0.651  14.182  11.458  1.00  0.00     0.000 A 
ENDBRANCH  54  73
BRANCH  66  79
ATOM     79  C   UNL     1      -9.342  16.228  13.169  1.00  0.00    -0.014 A 
ATOM     80  C   UNL     1      -9.173  17.462  12.523  1.00  0.00     0.009 A 
ATOM     81  C   UNL     1      -9.824  16.209  14.487  1.00  0.00     0.009 A 
ATOM     82  C   UNL     1      -9.434  18.655  13.201  1.00  0.00     0.001 A 
ATOM     83  C   UNL     1     -10.116  17.401  15.150  1.00  0.00     0.001 A 
ATOM     84  C   UNL     1      -9.908  18.623  14.512  1.00  0.00     0.000 A 
ENDBRANCH  66  79
ENDBRANCH  40  41
ENDBRANCH  32  35
ENDBRANCH  30  31
ENDBRANCH  29  30
ENDBRANCH  28  29
ENDBRANCH   1  28
TORSDOF 15
