REMARK SMILES C[NH+]1CCC(C(=O)N2C[C@@H](C(=O)NCCCCNC(=O)c3ccc(-c4c5nc(c(-c6ccccc6)c6ccc([nH]6)c(-c6ccccc6)c6nc(c(-c7ccccc7)c7ccc4[nH]7)C=C6)C=C5)cc3)[C@H](c3ccc4c(c3)OCO4)C2)CC1
REMARK SMILES IDX 15 1 14 2 13 3 11 4 12 5 10 7 8 8 9 9 79 10 69 11 6 12 7 13
REMARK SMILES IDX 5 14 1 15 2 16 3 17 81 18 4 20 80 21 70 22 71 23 75 24 72 25
REMARK SMILES IDX 74 26 73 27 76 28 78 29 77 30 16 31 17 32 18 33 19 34 20 36
REMARK SMILES IDX 21 37 22 38 68 39 23 40 67 41 24 42 25 43 26 44 61 45 27 46
REMARK SMILES IDX 66 47 60 48 62 49 28 50 65 51 59 52 58 53 29 55 51 56 36 57
REMARK SMILES IDX 50 58 37 59 40 60 49 61 63 62 38 63 39 64 48 66 64 67 41 68
REMARK SMILES IDX 30 69 31 70 35 71 32 72 34 73 33 74 52 75 53 76 57 77 54 78
REMARK SMILES IDX 56 79 55 80 42 81 43 82 47 83 44 84 46 85 45 86
REMARK H PARENT 13 6 2 19 18 35 62 54 40 65
REMARK Flexibility Score: inf
ROOT
ATOM      1  C   UNL     1       0.127   0.759   6.813  1.00  0.00     0.023 C 
ENDROOT
BRANCH   1   2
ATOM      2  C   UNL     1       1.564   0.831   6.311  1.00  0.00     0.116 C 
BRANCH   2   3
ATOM      3  N   UNL     1       2.175  -0.474   6.122  1.00  0.00    -0.356 N 
ATOM      4  C   UNL     1       2.935  -0.935   5.085  1.00  0.00     0.225 C 
ATOM      5  O   UNL     1       3.477  -2.034   5.203  1.00  0.00    -0.275 OA
ATOM      6  H   UNL     1       2.017  -1.121   6.847  1.00  0.00     0.163 HD
BRANCH   4   7
ATOM      7  C   UNL     1       3.092  -0.097   3.836  1.00  0.00     0.107 C 
ATOM      8  N   UNL     1       3.613  -0.060   1.591  1.00  0.00    -0.341 N 
ATOM      9  C   UNL     1       3.120  -0.971   2.600  1.00  0.00     0.133 C 
ATOM     10  C   UNL     1       4.631   0.803   2.189  1.00  0.00     0.128 C 
ATOM     11  C   UNL     1       4.444   0.646   3.722  1.00  0.00     0.053 C 
BRANCH   8  12
ATOM     12  C   UNL     1       3.282   0.070   0.266  1.00  0.00     0.226 C 
ATOM     13  O   UNL     1       4.107   0.545  -0.526  1.00  0.00    -0.275 OA
BRANCH  12  14
ATOM     14  C   UNL     1       1.828  -0.073  -0.207  1.00  0.00     0.090 C 
ATOM     15  C   UNL     1      -2.471   0.009  -0.296  1.00  0.00     0.332 C 
ATOM     16  N   UNL     1      -1.067  -0.051   0.108  1.00  0.00    -0.337 N 
ATOM     17  C   UNL     1      -0.369   1.185  -0.265  1.00  0.00     0.262 C 
ATOM     18  C   UNL     1      -0.401  -1.223  -0.482  1.00  0.00     0.262 C 
ATOM     19  H   UNL     1      -1.032  -0.146   1.123  1.00  0.00     0.347 HD
ATOM     20  C   UNL     1       1.060   1.169   0.269  1.00  0.00     0.075 C 
ATOM     21  C   UNL     1       1.024  -1.341   0.073  1.00  0.00     0.075 C 
ENDBRANCH  12  14
ENDBRANCH   8  12
BRANCH  11  22
ATOM     22  C   UNL     1       4.424   1.893   4.585  1.00  0.00    -0.038 A 
ATOM     23  C   UNL     1       3.829   3.104   4.161  1.00  0.00     0.008 A 
ATOM     24  C   UNL     1       4.845   1.772   5.926  1.00  0.00     0.054 A 
ATOM     25  C   UNL     1       3.610   4.156   5.061  1.00  0.00     0.051 A 
ATOM     26  C   UNL     1       4.576   2.807   6.796  1.00  0.00     0.166 A 
ATOM     27  C   UNL     1       3.966   3.962   6.377  1.00  0.00     0.165 A 
ATOM     28  O   UNL     1       4.769   2.780   8.143  1.00  0.00    -0.454 OA
ATOM     29  O   UNL     1       3.712   4.815   7.405  1.00  0.00    -0.454 OA
ATOM     30  C   UNL     1       4.109   4.005   8.531  1.00  0.00     0.468 C 
ENDBRANCH  11  22
ENDBRANCH   4   7
ENDBRANCH   2   3
ENDBRANCH   1   2
BRANCH   1  31
ATOM     31  C   UNL     1      -0.051   0.169   8.213  1.00  0.00     0.023 C 
BRANCH  31  32
ATOM     32  C   UNL     1       0.820   0.765   9.317  1.00  0.00     0.116 C 
BRANCH  32  33
ATOM     33  N   UNL     1       0.680   2.204   9.472  1.00  0.00    -0.352 N 
ATOM     34  C   UNL     1       0.704   2.962  10.621  1.00  0.00     0.251 C 
ATOM     35  H   UNL     1       0.549   2.708   8.636  1.00  0.00     0.163 HD
ATOM     36  O   UNL     1       0.555   4.176  10.558  1.00  0.00    -0.269 OA
BRANCH  34  37
ATOM     37  C   UNL     1       0.869   2.311  11.940  1.00  0.00     0.039 A 
ATOM     38  C   UNL     1      -0.023   2.648  12.963  1.00  0.00     0.014 A 
ATOM     39  C   UNL     1       1.873   1.367  12.170  1.00  0.00     0.014 A 
ATOM     40  C   UNL     1       0.031   1.973  14.184  1.00  0.00     0.010 A 
ATOM     41  C   UNL     1       1.893   0.656  13.370  1.00  0.00     0.010 A 
ATOM     42  C   UNL     1       0.960   0.938  14.379  1.00  0.00    -0.014 A 
BRANCH  42  43
ATOM     43  C   UNL     1       0.921   0.101  15.604  1.00  0.00     0.031 A 
ATOM     44  C   UNL     1       2.046   0.133  16.597  1.00  0.00     0.074 A 
ATOM     45  C   UNL     1      -0.103  -0.758  15.780  1.00  0.00     0.049 A 
ATOM     46  N   UNL     1       2.196  -0.566  17.695  1.00  0.00    -0.248 NA
ATOM     47  C   UNL     1       3.157   1.051  16.309  1.00  0.00     0.031 C 
ATOM     48  C   UNL     1      -1.232  -0.928  14.862  1.00  0.00     0.029 A 
ATOM     49  N   UNL     1      -0.352  -1.660  16.784  1.00  0.00    -0.354 N 
ATOM     50  C   UNL     1       3.424  -0.186  18.219  1.00  0.00     0.074 A 
ATOM     51  C   UNL     1       3.993   0.779  17.302  1.00  0.00     0.031 C 
ATOM     52  C   UNL     1      -2.057  -1.868  15.351  1.00  0.00     0.029 A 
ATOM     53  C   UNL     1      -1.503  -2.386  16.598  1.00  0.00     0.049 A 
ATOM     54  H   UNL     1       0.238  -1.775  17.563  1.00  0.00     0.167 HD
ATOM     55  C   UNL     1       4.019  -0.595  19.365  1.00  0.00     0.031 A 
ATOM     56  C   UNL     1      -2.051  -3.365  17.341  1.00  0.00     0.031 A 
ATOM     57  C   UNL     1       3.454  -1.548  20.282  1.00  0.00     0.049 A 
ATOM     58  C   UNL     1      -1.379  -3.792  18.613  1.00  0.00     0.074 A 
ATOM     59  C   UNL     1       3.949  -1.966  21.506  1.00  0.00     0.029 A 
ATOM     60  N   UNL     1       2.272  -2.241  20.072  1.00  0.00    -0.354 N 
ATOM     61  N   UNL     1      -0.262  -3.357  19.141  1.00  0.00    -0.248 NA
ATOM     62  C   UNL     1      -2.052  -4.837  19.399  1.00  0.00     0.031 C 
ATOM     63  C   UNL     1       3.089  -2.946  22.015  1.00  0.00     0.029 A 
ATOM     64  C   UNL     1       2.035  -3.103  21.130  1.00  0.00     0.049 A 
ATOM     65  H   UNL     1       1.687  -2.135  19.288  1.00  0.00     0.167 HD
ATOM     66  C   UNL     1      -0.106  -4.058  20.329  1.00  0.00     0.074 A 
ATOM     67  C   UNL     1      -1.252  -4.937  20.452  1.00  0.00     0.031 C 
ATOM     68  C   UNL     1       0.897  -3.979  21.237  1.00  0.00     0.031 A 
BRANCH  55  69
ATOM     69  C   UNL     1       5.369  -0.015  19.683  1.00  0.00    -0.014 A 
ATOM     70  C   UNL     1       5.510   1.322  20.088  1.00  0.00     0.009 A 
ATOM     71  C   UNL     1       6.511  -0.826  19.603  1.00  0.00     0.009 A 
ATOM     72  C   UNL     1       6.773   1.846  20.367  1.00  0.00     0.001 A 
ATOM     73  C   UNL     1       7.771  -0.306  19.908  1.00  0.00     0.001 A 
ATOM     74  C   UNL     1       7.902   1.032  20.279  1.00  0.00     0.000 A 
ENDBRANCH  55  69
BRANCH  56  75
ATOM     75  C   UNL     1      -3.318  -4.002  16.900  1.00  0.00    -0.014 A 
ATOM     76  C   UNL     1      -4.525  -3.711  17.553  1.00  0.00     0.009 A 
ATOM     77  C   UNL     1      -3.328  -4.890  15.814  1.00  0.00     0.009 A 
ATOM     78  C   UNL     1      -5.715  -4.314  17.139  1.00  0.00     0.001 A 
ATOM     79  C   UNL     1      -4.523  -5.472  15.387  1.00  0.00     0.001 A 
ATOM     80  C   UNL     1      -5.713  -5.189  16.054  1.00  0.00     0.000 A 
ENDBRANCH  56  75
BRANCH  68  81
ATOM     81  C   UNL     1       0.789  -4.852  22.454  1.00  0.00    -0.014 A 
ATOM     82  C   UNL     1       1.026  -6.233  22.380  1.00  0.00     0.009 A 
ATOM     83  C   UNL     1       0.483  -4.278  23.698  1.00  0.00     0.009 A 
ATOM     84  C   UNL     1       0.930  -7.027  23.524  1.00  0.00     0.001 A 
ATOM     85  C   UNL     1       0.412  -5.071  24.844  1.00  0.00     0.001 A 
ATOM     86  C   UNL     1       0.628  -6.445  24.755  1.00  0.00     0.000 A 
ENDBRANCH  68  81
ENDBRANCH  42  43
ENDBRANCH  34  37
ENDBRANCH  32  33
ENDBRANCH  31  32
ENDBRANCH   1  31
TORSDOF 14
