REMARK SMILES CCOCCNc1cccc(F)c1C(=O)NCCCCNC(=O)c1ccc(-c2c3nc(c(-c4ccccc4)c4ccc([nH]4)c(-c4ccccc4)c4nc(c(-c5ccccc5)c5ccc2[nH]5)C=C4)C=C3)cc1
REMARK SMILES IDX 17 1 16 2 14 3 15 4 13 6 7 7 8 8 9 9 11 10 10 11 12 12 6 13
REMARK SMILES IDX 5 15 4 16 3 17 2 18 1 19 18 20 19 21 20 22 21 23 22 24 23 26
REMARK SMILES IDX 24 27 25 28 71 29 26 30 70 31 27 32 28 33 29 34 64 35 30 36
REMARK SMILES IDX 69 37 63 38 65 39 31 40 68 41 62 42 61 43 32 45 54 46 39 47
REMARK SMILES IDX 53 48 40 49 43 50 52 51 66 52 41 53 42 54 51 56 67 57 44 58
REMARK SMILES IDX 33 59 34 60 38 61 35 62 37 63 36 64 55 65 56 66 60 67 57 68
REMARK SMILES IDX 59 69 58 70 45 71 46 72 50 73 47 74 49 75 48 76
REMARK H PARENT 16 5 6 14 21 25 65 44 43 55
REMARK Flexibility Score: inf
ROOT
ATOM      1  C   UNL     1       2.838   2.335   3.920  1.00  0.00     0.116 C 
ENDROOT
BRANCH   1   2
ATOM      2  N   UNL     1       2.001   2.212   2.747  1.00  0.00    -0.352 N 
ATOM      3  C   UNL     1       2.129   2.707   1.476  1.00  0.00     0.256 C 
ATOM      4  O   UNL     1       1.119   2.647   0.767  1.00  0.00    -0.269 OA
ATOM      5  H   UNL     1       1.188   1.675   2.888  1.00  0.00     0.163 HD
BRANCH   3   6
ATOM      6  C   UNL     1       3.411   3.185   0.875  1.00  0.00     0.098 A 
ATOM      7  C   UNL     1       3.693   2.807  -0.473  1.00  0.00     0.050 A 
ATOM      8  C   UNL     1       4.902   3.233  -1.044  1.00  0.00     0.027 A 
ATOM      9  C   UNL     1       5.801   4.033  -0.336  1.00  0.00     0.005 A 
ATOM     10  C   UNL     1       4.301   4.027   1.545  1.00  0.00     0.138 A 
ATOM     11  C   UNL     1       5.497   4.432   0.958  1.00  0.00     0.040 A 
ATOM     12  F   UNL     1       4.032   4.519   2.760  1.00  0.00    -0.206 F 
BRANCH   7  13
ATOM     13  N   UNL     1       2.814   1.980  -1.152  1.00  0.00    -0.382 N 
ATOM     14  H   UNL     1       1.981   1.775  -0.669  1.00  0.00     0.160 HD
BRANCH  13  15
ATOM     15  C   UNL     1       2.926   1.368  -2.463  1.00  0.00     0.141 C 
BRANCH  15  16
ATOM     16  C   UNL     1       2.470  -0.103  -2.411  1.00  0.00     0.181 C 
BRANCH  16  17
ATOM     17  O   UNL     1       1.061  -0.322  -2.515  1.00  0.00    -0.380 OA
BRANCH  17  18
ATOM     18  C   UNL     1       0.249   0.060  -1.408  1.00  0.00     0.157 C 
ATOM     19  C   UNL     1       0.646  -0.582  -0.088  1.00  0.00     0.035 C 
ENDBRANCH  17  18
ENDBRANCH  16  17
ENDBRANCH  15  16
ENDBRANCH  13  15
ENDBRANCH   7  13
ENDBRANCH   3   6
ENDBRANCH   1   2
BRANCH   1  20
ATOM     20  C   UNL     1       2.353   3.523   4.755  1.00  0.00     0.023 C 
BRANCH  20  21
ATOM     21  C   UNL     1       1.085   3.239   5.568  1.00  0.00     0.023 C 
BRANCH  21  22
ATOM     22  C   UNL     1       1.266   2.229   6.696  1.00  0.00     0.116 C 
BRANCH  22  23
ATOM     23  N   UNL     1       2.292   2.621   7.648  1.00  0.00    -0.352 N 
ATOM     24  C   UNL     1       2.336   2.417   9.005  1.00  0.00     0.251 C 
ATOM     25  H   UNL     1       3.063   3.099   7.267  1.00  0.00     0.163 HD
ATOM     26  O   UNL     1       3.231   2.911   9.678  1.00  0.00    -0.269 OA
BRANCH  24  27
ATOM     27  C   UNL     1       1.272   1.626   9.654  1.00  0.00     0.039 A 
ATOM     28  C   UNL     1       0.667   2.136  10.805  1.00  0.00     0.014 A 
ATOM     29  C   UNL     1       0.867   0.397   9.126  1.00  0.00     0.014 A 
ATOM     30  C   UNL     1      -0.386   1.438  11.398  1.00  0.00     0.010 A 
ATOM     31  C   UNL     1      -0.225  -0.263   9.678  1.00  0.00     0.010 A 
ATOM     32  C   UNL     1      -0.858   0.249  10.821  1.00  0.00    -0.014 A 
BRANCH  32  33
ATOM     33  C   UNL     1      -2.006  -0.484  11.406  1.00  0.00     0.031 A 
ATOM     34  C   UNL     1      -1.804  -1.855  11.987  1.00  0.00     0.074 A 
ATOM     35  C   UNL     1      -3.238   0.058  11.359  1.00  0.00     0.049 A 
ATOM     36  N   UNL     1      -2.689  -2.678  12.489  1.00  0.00    -0.248 NA
ATOM     37  C   UNL     1      -0.429  -2.381  11.980  1.00  0.00     0.031 C 
ATOM     38  C   UNL     1      -3.571   1.364  10.788  1.00  0.00     0.029 A 
ATOM     39  N   UNL     1      -4.442  -0.431  11.798  1.00  0.00    -0.354 N 
ATOM     40  C   UNL     1      -1.984  -3.823  12.835  1.00  0.00     0.074 A 
ATOM     41  C   UNL     1      -0.608  -3.609  12.444  1.00  0.00     0.031 C 
ATOM     42  C   UNL     1      -4.887   1.585  10.937  1.00  0.00     0.029 A 
ATOM     43  C   UNL     1      -5.494   0.425  11.580  1.00  0.00     0.049 A 
ATOM     44  H   UNL     1      -4.543  -1.310  12.228  1.00  0.00     0.167 HD
ATOM     45  C   UNL     1      -2.435  -4.946  13.444  1.00  0.00     0.031 A 
ATOM     46  C   UNL     1      -6.802   0.288  11.867  1.00  0.00     0.031 A 
ATOM     47  C   UNL     1      -3.799  -5.153  13.848  1.00  0.00     0.049 A 
ATOM     48  C   UNL     1      -7.278  -0.966  12.545  1.00  0.00     0.074 A 
ATOM     49  C   UNL     1      -4.347  -6.235  14.514  1.00  0.00     0.029 A 
ATOM     50  N   UNL     1      -4.831  -4.254  13.625  1.00  0.00    -0.354 N 
ATOM     51  N   UNL     1      -6.588  -2.016  12.918  1.00  0.00    -0.248 NA
ATOM     52  C   UNL     1      -8.713  -1.045  12.853  1.00  0.00     0.031 C 
ATOM     53  C   UNL     1      -5.720  -6.006  14.662  1.00  0.00     0.029 A 
ATOM     54  C   UNL     1      -6.015  -4.761  14.130  1.00  0.00     0.049 A 
ATOM     55  H   UNL     1      -4.735  -3.384  13.174  1.00  0.00     0.167 HD
ATOM     56  C   UNL     1      -7.498  -2.866  13.533  1.00  0.00     0.074 A 
ATOM     57  C   UNL     1      -8.786  -2.204  13.492  1.00  0.00     0.031 C 
ATOM     58  C   UNL     1      -7.285  -4.085  14.086  1.00  0.00     0.031 A 
BRANCH  45  59
ATOM     59  C   UNL     1      -1.434  -6.036  13.703  1.00  0.00    -0.014 A 
ATOM     60  C   UNL     1      -0.428  -5.883  14.671  1.00  0.00     0.009 A 
ATOM     61  C   UNL     1      -1.505  -7.237  12.982  1.00  0.00     0.009 A 
ATOM     62  C   UNL     1       0.510  -6.894  14.883  1.00  0.00     0.001 A 
ATOM     63  C   UNL     1      -0.582  -8.259  13.216  1.00  0.00     0.001 A 
ATOM     64  C   UNL     1       0.431  -8.082  14.157  1.00  0.00     0.000 A 
ENDBRANCH  45  59
BRANCH  46  65
ATOM     65  C   UNL     1      -7.753   1.383  11.546  1.00  0.00    -0.014 A 
ATOM     66  C   UNL     1      -8.303   2.167  12.573  1.00  0.00     0.009 A 
ATOM     67  C   UNL     1      -8.120   1.648  10.218  1.00  0.00     0.009 A 
ATOM     68  C   UNL     1      -9.223   3.175  12.278  1.00  0.00     0.001 A 
ATOM     69  C   UNL     1      -9.021   2.675   9.925  1.00  0.00     0.001 A 
ATOM     70  C   UNL     1      -9.578   3.431  10.955  1.00  0.00     0.000 A 
ENDBRANCH  46  65
BRANCH  58  71
ATOM     71  C   UNL     1      -8.462  -4.759  14.732  1.00  0.00    -0.014 A 
ATOM     72  C   UNL     1      -9.490  -5.326  13.964  1.00  0.00     0.009 A 
ATOM     73  C   UNL     1      -8.519  -4.859  16.131  1.00  0.00     0.009 A 
ATOM     74  C   UNL     1     -10.571  -5.953  14.588  1.00  0.00     0.001 A 
ATOM     75  C   UNL     1      -9.587  -5.509  16.750  1.00  0.00     0.001 A 
ATOM     76  C   UNL     1     -10.616  -6.047  15.979  1.00  0.00     0.000 A 
ENDBRANCH  58  71
ENDBRANCH  32  33
ENDBRANCH  24  27
ENDBRANCH  22  23
ENDBRANCH  21  22
ENDBRANCH  20  21
ENDBRANCH   1  20
TORSDOF 16
