REMARK SMILES COc1ccc(NC(=O)[C@@H]2[C@@H](C(=O)NCCCCNC(=O)c3ccc(-c4c5nc(c(-c6ccccc6)c6ccc([nH]6)c(-c6ccccc6)c6nc(c(-c7ccccc7)c7ccc4[nH]7)C=C6)C=C5)cc3)[C@@H]3CC[C@H]2C3=C(C)C)cc1
REMARK SMILES IDX 16 1 15 2 14 3 12 4 13 5 11 7 10 8 73 9 70 10 72 11 74 12
REMARK SMILES IDX 71 13 75 14 76 15 77 16 8 17 7 18 9 20 6 21 3 22 4 23 79 24
REMARK SMILES IDX 5 25 78 26 2 27 1 28 17 29 18 30 19 31 20 32 21 34 22 35
REMARK SMILES IDX 23 36 69 37 24 38 68 39 25 40 26 41 27 42 62 43 28 44 67 45
REMARK SMILES IDX 61 46 63 47 29 48 66 49 60 50 59 51 30 53 52 54 37 55 51 56
REMARK SMILES IDX 38 57 41 58 50 59 64 60 39 61 40 62 49 64 65 65 42 66 31 67
REMARK SMILES IDX 32 68 36 69 33 70 35 71 34 72 53 73 54 74 58 75 55 76 57 77
REMARK SMILES IDX 56 78 43 79 44 80 48 81 45 82 47 83 46 84
REMARK H PARENT 14 6 7 19 19 33 63 52 41 63
REMARK Flexibility Score: inf
ROOT
ATOM      1  C   UNL     1      -4.072   1.328   6.860  1.00  0.00     0.023 C 
ENDROOT
BRANCH   1   2
ATOM      2  C   UNL     1      -2.616   1.188   7.274  1.00  0.00     0.116 C 
BRANCH   2   3
ATOM      3  N   UNL     1      -2.465   0.655   8.615  1.00  0.00    -0.356 N 
ATOM      4  C   UNL     1      -1.854  -0.444   9.125  1.00  0.00     0.224 C 
ATOM      5  O   UNL     1      -1.954  -0.581  10.352  1.00  0.00    -0.275 OA
ATOM      6  H   UNL     1      -2.900   1.210   9.302  1.00  0.00     0.163 HD
BRANCH   4   7
ATOM      7  C   UNL     1      -1.138  -1.529   8.318  1.00  0.00     0.098 C 
ATOM      8  C   UNL     1      -0.307  -1.085   7.090  1.00  0.00     0.099 C 
ATOM      9  C   UNL     1      -0.929  -1.937   5.954  1.00  0.00     0.028 C 
ATOM     10  C   UNL     1      -2.139  -2.566   7.754  1.00  0.00     0.028 C 
ATOM     11  C   UNL     1      -0.576  -3.426   6.125  1.00  0.00     0.009 C 
ATOM     12  C   UNL     1      -2.375  -2.031   6.370  1.00  0.00    -0.064 C 
ATOM     13  C   UNL     1      -1.374  -3.844   7.375  1.00  0.00     0.009 C 
ATOM     14  C   UNL     1      -3.504  -1.813   5.673  1.00  0.00    -0.077 C 
ATOM     15  C   UNL     1      -4.876  -2.154   6.196  1.00  0.00     0.039 C 
ATOM     16  C   UNL     1      -3.498  -1.230   4.284  1.00  0.00     0.039 C 
BRANCH   8  17
ATOM     17  C   UNL     1       1.200  -1.264   7.205  1.00  0.00     0.228 C 
ATOM     18  N   UNL     1       2.021  -0.973   6.145  1.00  0.00    -0.326 N 
ATOM     19  H   UNL     1       2.966  -1.202   6.296  1.00  0.00     0.169 HD
ATOM     20  O   UNL     1       1.725  -1.712   8.227  1.00  0.00    -0.274 OA
BRANCH  18  21
ATOM     21  C   UNL     1       1.764  -0.409   4.883  1.00  0.00     0.041 A 
ATOM     22  C   UNL     1       1.198   0.386   2.243  1.00  0.00     0.119 A 
ATOM     23  C   UNL     1       0.482   0.921   3.312  1.00  0.00     0.048 A 
ATOM     24  C   UNL     1       2.267  -0.468   2.504  1.00  0.00     0.048 A 
ATOM     25  C   UNL     1       0.773   0.538   4.625  1.00  0.00     0.030 A 
ATOM     26  C   UNL     1       2.557  -0.851   3.820  1.00  0.00     0.030 A 
BRANCH  22  27
ATOM     27  O   UNL     1       0.776   0.786   1.007  1.00  0.00    -0.497 OA
ATOM     28  C   UNL     1       1.188  -0.025  -0.087  1.00  0.00     0.278 C 
ENDBRANCH  22  27
ENDBRANCH  18  21
ENDBRANCH   8  17
ENDBRANCH   4   7
ENDBRANCH   2   3
ENDBRANCH   1   2
BRANCH   1  29
ATOM     29  C   UNL     1      -4.792   2.557   7.383  1.00  0.00     0.023 C 
BRANCH  29  30
ATOM     30  C   UNL     1      -4.110   3.884   7.088  1.00  0.00     0.116 C 
BRANCH  30  31
ATOM     31  N   UNL     1      -3.757   4.080   5.686  1.00  0.00    -0.352 N 
ATOM     32  C   UNL     1      -3.992   5.161   4.868  1.00  0.00     0.251 C 
ATOM     33  H   UNL     1      -3.282   3.329   5.264  1.00  0.00     0.163 HD
ATOM     34  O   UNL     1      -3.679   5.122   3.683  1.00  0.00    -0.269 OA
BRANCH  32  35
ATOM     35  C   UNL     1      -4.677   6.348   5.418  1.00  0.00     0.039 A 
ATOM     36  C   UNL     1      -5.750   6.896   4.712  1.00  0.00     0.014 A 
ATOM     37  C   UNL     1      -4.315   6.863   6.663  1.00  0.00     0.014 A 
ATOM     38  C   UNL     1      -6.525   7.892   5.308  1.00  0.00     0.010 A 
ATOM     39  C   UNL     1      -5.153   7.768   7.299  1.00  0.00     0.010 A 
ATOM     40  C   UNL     1      -6.267   8.294   6.629  1.00  0.00    -0.014 A 
BRANCH  40  41
ATOM     41  C   UNL     1      -7.155   9.256   7.328  1.00  0.00     0.031 A 
ATOM     42  C   UNL     1      -6.607  10.564   7.831  1.00  0.00     0.074 A 
ATOM     43  C   UNL     1      -8.439   8.924   7.569  1.00  0.00     0.049 A 
ATOM     44  N   UNL     1      -7.220  11.518   8.484  1.00  0.00    -0.248 NA
ATOM     45  C   UNL     1      -5.174  10.818   7.606  1.00  0.00     0.031 C 
ATOM     46  C   UNL     1      -9.075   7.656   7.202  1.00  0.00     0.029 A 
ATOM     47  N   UNL     1      -9.444   9.632   8.180  1.00  0.00    -0.354 N 
ATOM     48  C   UNL     1      -6.246  12.468   8.764  1.00  0.00     0.074 A 
ATOM     49  C   UNL     1      -4.991  11.948   8.269  1.00  0.00     0.031 C 
ATOM     50  C   UNL     1     -10.372   7.696   7.549  1.00  0.00     0.029 A 
ATOM     51  C   UNL     1     -10.651   8.975   8.193  1.00  0.00     0.049 A 
ATOM     52  H   UNL     1      -9.313  10.525   8.572  1.00  0.00     0.167 HD
ATOM     53  C   UNL     1      -6.384  13.679   9.352  1.00  0.00     0.031 A 
ATOM     54  C   UNL     1     -11.851   9.364   8.661  1.00  0.00     0.031 A 
ATOM     55  C   UNL     1      -7.636  14.210   9.818  1.00  0.00     0.049 A 
ATOM     56  C   UNL     1     -11.988  10.727   9.279  1.00  0.00     0.074 A 
ATOM     57  C   UNL     1      -7.896  15.455  10.361  1.00  0.00     0.029 A 
ATOM     58  N   UNL     1      -8.839  13.523   9.789  1.00  0.00    -0.354 N 
ATOM     59  N   UNL     1     -11.072  11.648   9.459  1.00  0.00    -0.248 NA
ATOM     60  C   UNL     1     -13.328  11.109   9.743  1.00  0.00     0.031 C 
ATOM     61  C   UNL     1      -9.253  15.507  10.700  1.00  0.00     0.029 A 
ATOM     62  C   UNL     1      -9.844  14.312  10.322  1.00  0.00     0.049 A 
ATOM     63  H   UNL     1      -8.961  12.610   9.442  1.00  0.00     0.167 HD
ATOM     64  C   UNL     1     -11.729  12.725  10.038  1.00  0.00     0.074 A 
ATOM     65  C   UNL     1     -13.123  12.351  10.157  1.00  0.00     0.031 C 
ATOM     66  C   UNL     1     -11.223  13.918  10.438  1.00  0.00     0.031 A 
BRANCH  53  67
ATOM     67  C   UNL     1      -5.142  14.511   9.511  1.00  0.00    -0.014 A 
ATOM     68  C   UNL     1      -4.501  15.079   8.398  1.00  0.00     0.009 A 
ATOM     69  C   UNL     1      -4.614  14.743  10.790  1.00  0.00     0.009 A 
ATOM     70  C   UNL     1      -3.332  15.825   8.558  1.00  0.00     0.001 A 
ATOM     71  C   UNL     1      -3.462  15.515  10.950  1.00  0.00     0.001 A 
ATOM     72  C   UNL     1      -2.816  16.046   9.834  1.00  0.00     0.000 A 
ENDBRANCH  53  67
BRANCH  54  73
ATOM     73  C   UNL     1     -13.032   8.472   8.524  1.00  0.00    -0.014 A 
ATOM     74  C   UNL     1     -14.048   8.777   7.605  1.00  0.00     0.009 A 
ATOM     75  C   UNL     1     -13.153   7.317   9.311  1.00  0.00     0.009 A 
ATOM     76  C   UNL     1     -15.175   7.959   7.497  1.00  0.00     0.001 A 
ATOM     77  C   UNL     1     -14.269   6.486   9.181  1.00  0.00     0.001 A 
ATOM     78  C   UNL     1     -15.282   6.812   8.281  1.00  0.00     0.000 A 
ENDBRANCH  54  73
BRANCH  66  79
ATOM     79  C   UNL     1     -12.192  14.906  11.020  1.00  0.00    -0.014 A 
ATOM     80  C   UNL     1     -12.738  14.721  12.299  1.00  0.00     0.009 A 
ATOM     81  C   UNL     1     -12.542  16.051  10.287  1.00  0.00     0.009 A 
ATOM     82  C   UNL     1     -13.647  15.645  12.818  1.00  0.00     0.001 A 
ATOM     83  C   UNL     1     -13.429  16.987  10.820  1.00  0.00     0.001 A 
ATOM     84  C   UNL     1     -13.988  16.778  12.080  1.00  0.00     0.000 A 
ENDBRANCH  66  79
ENDBRANCH  40  41
ENDBRANCH  32  35
ENDBRANCH  30  31
ENDBRANCH  29  30
ENDBRANCH   1  29
TORSDOF 14
