REMARK SMILES C=CC[N@@H+](CC(=O)NCCCCNC(=O)c1ccc(-c2c3nc(c(-c4ccccc4)c4ccc([nH]4)c(-c4ccccc4)c4nc(c(-c5ccccc5)c5ccc2[nH]5)C=C4)C=C3)cc1)[C@@H]1CC[N@@H+](C(C)C)C1
REMARK SMILES IDX 10 1 9 2 8 3 6 4 7 5 5 7 4 8 3 10 2 11 1 12 64 13 65 14
REMARK SMILES IDX 71 15 66 16 67 17 68 19 69 20 70 21 11 22 12 23 13 24 14 25
REMARK SMILES IDX 15 27 16 28 17 29 63 30 18 31 62 32 19 33 20 34 21 35 56 36
REMARK SMILES IDX 22 37 61 38 55 39 57 40 23 41 60 42 54 43 53 44 24 46 46 47
REMARK SMILES IDX 31 48 45 49 32 50 35 51 44 52 58 53 33 54 34 55 43 57 59 58
REMARK SMILES IDX 36 59 25 60 26 61 30 62 27 63 29 64 28 65 47 66 48 67 52 68
REMARK SMILES IDX 49 69 51 70 50 71 37 72 38 73 42 74 39 75 41 76 40 77
REMARK H PARENT 8 6 4 9 67 18 13 26 57 45 35 56
REMARK Flexibility Score: inf
ROOT
ATOM      1  C   UNL     1      -1.641  -1.409  -0.169  1.00  0.00     0.023 C 
ENDROOT
BRANCH   1   2
ATOM      2  C   UNL     1      -2.919  -0.794  -0.752  1.00  0.00     0.116 C 
BRANCH   2   3
ATOM      3  N   UNL     1      -3.595   0.029   0.226  1.00  0.00    -0.351 N 
ATOM      4  C   UNL     1      -3.610   1.383   0.385  1.00  0.00     0.275 C 
ATOM      5  O   UNL     1      -4.261   1.819   1.341  1.00  0.00    -0.269 OA
ATOM      6  H   UNL     1      -4.131  -0.469   0.885  1.00  0.00     0.163 HD
BRANCH   4   7
ATOM      7  C   UNL     1      -2.877   2.349  -0.573  1.00  0.00     0.364 C 
BRANCH   7   8
ATOM      8  N   UNL     1      -1.410   2.542  -0.339  1.00  0.00    -0.317 N 
ATOM      9  H   UNL     1      -1.090   3.439  -0.706  1.00  0.00     0.349 HD
BRANCH   8  10
ATOM     10  C   UNL     1      -0.625   1.622  -1.141  1.00  0.00     0.291 C 
BRANCH  10  11
ATOM     11  C   UNL     1       0.832   1.885  -1.357  1.00  0.00     0.025 C 
ATOM     12  C   UNL     1       1.758   0.918  -1.242  1.00  0.00     0.010 C 
ENDBRANCH  10  11
ENDBRANCH   8  10
BRANCH   8  13
ATOM     13  C   UNL     1      -1.100   2.725   1.096  1.00  0.00     0.246 C 
ATOM     14  C   UNL     1      -1.148   4.215   1.432  1.00  0.00     0.132 C 
ATOM     15  C   UNL     1       0.252   2.301   1.712  1.00  0.00     0.328 C 
ATOM     16  C   UNL     1       0.305   4.644   1.384  1.00  0.00     0.269 C 
ATOM     17  N   UNL     1       1.082   3.504   1.879  1.00  0.00    -0.328 N 
ATOM     18  H   UNL     1       1.931   3.396   1.323  1.00  0.00     0.348 HD
BRANCH  17  19
ATOM     19  C   UNL     1       1.664   3.692   3.217  1.00  0.00     0.177 C 
ATOM     20  C   UNL     1       0.655   3.864   4.362  1.00  0.00     0.075 C 
ATOM     21  C   UNL     1       2.644   2.556   3.537  1.00  0.00     0.075 C 
ENDBRANCH  17  19
ENDBRANCH   8  13
ENDBRANCH   7   8
ENDBRANCH   4   7
ENDBRANCH   2   3
ENDBRANCH   1   2
BRANCH   1  22
ATOM     22  C   UNL     1      -1.781  -2.760   0.505  1.00  0.00     0.023 C 
BRANCH  22  23
ATOM     23  C   UNL     1      -2.276  -3.868  -0.401  1.00  0.00     0.116 C 
BRANCH  23  24
ATOM     24  N   UNL     1      -1.488  -4.063  -1.611  1.00  0.00    -0.352 N 
ATOM     25  C   UNL     1      -1.203  -5.247  -2.256  1.00  0.00     0.251 C 
ATOM     26  H   UNL     1      -1.113  -3.249  -2.017  1.00  0.00     0.163 HD
ATOM     27  O   UNL     1      -0.472  -5.269  -3.235  1.00  0.00    -0.269 OA
BRANCH  25  28
ATOM     28  C   UNL     1      -1.763  -6.500  -1.708  1.00  0.00     0.039 A 
ATOM     29  C   UNL     1      -0.924  -7.601  -1.526  1.00  0.00     0.014 A 
ATOM     30  C   UNL     1      -3.097  -6.551  -1.300  1.00  0.00     0.014 A 
ATOM     31  C   UNL     1      -1.415  -8.734  -0.876  1.00  0.00     0.010 A 
ATOM     32  C   UNL     1      -3.541  -7.620  -0.541  1.00  0.00     0.010 A 
ATOM     33  C   UNL     1      -2.718  -8.739  -0.353  1.00  0.00    -0.014 A 
BRANCH  33  34
ATOM     34  C   UNL     1      -3.283  -9.931   0.321  1.00  0.00     0.031 A 
ATOM     35  C   UNL     1      -4.495 -10.601  -0.273  1.00  0.00     0.074 A 
ATOM     36  C   UNL     1      -2.760 -10.369   1.481  1.00  0.00     0.049 A 
ATOM     37  N   UNL     1      -5.193 -11.607   0.186  1.00  0.00    -0.248 NA
ATOM     38  C   UNL     1      -5.019 -10.034  -1.529  1.00  0.00     0.031 C 
ATOM     39  C   UNL     1      -1.626  -9.770   2.188  1.00  0.00     0.029 A 
ATOM     40  N   UNL     1      -3.121 -11.430   2.272  1.00  0.00    -0.354 N 
ATOM     41  C   UNL     1      -6.251 -11.762  -0.701  1.00  0.00     0.074 A 
ATOM     42  C   UNL     1      -6.147 -10.708  -1.681  1.00  0.00     0.031 C 
ATOM     43  C   UNL     1      -1.357 -10.499   3.284  1.00  0.00     0.029 A 
ATOM     44  C   UNL     1      -2.318 -11.593   3.374  1.00  0.00     0.049 A 
ATOM     45  H   UNL     1      -3.884 -12.019   2.069  1.00  0.00     0.167 HD
ATOM     46  C   UNL     1      -7.205 -12.721  -0.724  1.00  0.00     0.031 A 
ATOM     47  C   UNL     1      -2.349 -12.531   4.339  1.00  0.00     0.031 A 
ATOM     48  C   UNL     1      -7.276 -13.799   0.221  1.00  0.00     0.049 A 
ATOM     49  C   UNL     1      -3.389 -13.616   4.267  1.00  0.00     0.074 A 
ATOM     50  C   UNL     1      -8.159 -14.863   0.254  1.00  0.00     0.029 A 
ATOM     51  N   UNL     1      -6.414 -13.954   1.295  1.00  0.00    -0.354 N 
ATOM     52  N   UNL     1      -4.343 -13.790   3.384  1.00  0.00    -0.248 NA
ATOM     53  C   UNL     1      -3.339 -14.647   5.312  1.00  0.00     0.031 C 
ATOM     54  C   UNL     1      -7.849 -15.648   1.369  1.00  0.00     0.029 A 
ATOM     55  C   UNL     1      -6.744 -15.097   2.000  1.00  0.00     0.049 A 
ATOM     56  H   UNL     1      -5.676 -13.343   1.521  1.00  0.00     0.167 HD
ATOM     57  C   UNL     1      -4.984 -14.967   3.745  1.00  0.00     0.074 A 
ATOM     58  C   UNL     1      -4.301 -15.471   4.920  1.00  0.00     0.031 C 
ATOM     59  C   UNL     1      -6.040 -15.581   3.158  1.00  0.00     0.031 A 
BRANCH  46  60
ATOM     60  C   UNL     1      -8.233 -12.641  -1.819  1.00  0.00    -0.014 A 
ATOM     61  C   UNL     1      -7.886 -12.870  -3.161  1.00  0.00     0.009 A 
ATOM     62  C   UNL     1      -9.565 -12.331  -1.506  1.00  0.00     0.009 A 
ATOM     63  C   UNL     1      -8.841 -12.743  -4.172  1.00  0.00     0.001 A 
ATOM     64  C   UNL     1     -10.525 -12.236  -2.516  1.00  0.00     0.001 A 
ATOM     65  C   UNL     1     -10.160 -12.430  -3.848  1.00  0.00     0.000 A 
ENDBRANCH  46  60
BRANCH  47  66
ATOM     66  C   UNL     1      -1.335 -12.522   5.425  1.00  0.00    -0.014 A 
ATOM     67  C   UNL     1      -0.322 -13.493   5.457  1.00  0.00     0.009 A 
ATOM     68  C   UNL     1      -1.375 -11.551   6.437  1.00  0.00     0.009 A 
ATOM     69  C   UNL     1       0.611 -13.512   6.497  1.00  0.00     0.001 A 
ATOM     70  C   UNL     1      -0.425 -11.556   7.461  1.00  0.00     0.001 A 
ATOM     71  C   UNL     1       0.560 -12.542   7.496  1.00  0.00     0.000 A 
ENDBRANCH  47  66
BRANCH  59  72
ATOM     72  C   UNL     1      -6.486 -16.889   3.745  1.00  0.00    -0.014 A 
ATOM     73  C   UNL     1      -7.167 -16.947   4.970  1.00  0.00     0.009 A 
ATOM     74  C   UNL     1      -6.255 -18.077   3.034  1.00  0.00     0.009 A 
ATOM     75  C   UNL     1      -7.577 -18.176   5.489  1.00  0.00     0.001 A 
ATOM     76  C   UNL     1      -6.692 -19.301   3.541  1.00  0.00     0.001 A 
ATOM     77  C   UNL     1      -7.343 -19.350   4.773  1.00  0.00     0.000 A 
ENDBRANCH  59  72
ENDBRANCH  33  34
ENDBRANCH  25  28
ENDBRANCH  23  24
ENDBRANCH  22  23
ENDBRANCH   1  22
TORSDOF 16
