REMARK SMILES CN(C)c1nccnc1N1CCC(Oc2ccc3ccccc3c2)(C(=O)NCCCCNC(=O)c2ccc(-c3c4nc(c(-c5ccccc5)c5ccc([nH]5)c(-c5ccccc5)c5nc(c(-c6ccccc6)c6ccc3[nH]6)C=C5)C=C4)cc2)CC1
REMARK SMILES IDX 29 1 28 2 27 3 25 4 26 5 13 7 10 8 11 9 84 10 12 11 83 12
REMARK SMILES IDX 9 13 4 14 5 15 6 16 8 17 7 18 2 19 1 20 3 21 14 22 15 23
REMARK SMILES IDX 16 24 24 25 17 26 23 27 18 28 22 29 19 30 21 31 20 32 30 33
REMARK SMILES IDX 31 34 32 35 33 36 34 38 35 39 36 40 82 41 37 42 81 43 38 44
REMARK SMILES IDX 39 45 40 46 75 47 41 48 80 49 74 50 76 51 42 52 79 53 73 54
REMARK SMILES IDX 72 55 43 57 65 58 50 59 64 60 51 61 54 62 63 63 77 64 52 65
REMARK SMILES IDX 53 66 62 68 78 69 55 70 44 71 45 72 49 73 46 74 48 75 47 76
REMARK SMILES IDX 66 77 67 78 71 79 68 80 70 81 69 82 56 83 57 84 61 85 58 86
REMARK SMILES IDX 60 87 59 88
REMARK H PARENT 27 6 32 37 76 56 54 67
REMARK Flexibility Score: inf
ROOT
ATOM      1  C   UNL     1      -5.692   6.125  -1.142  1.00  0.00     0.023 C 
ENDROOT
BRANCH   1   2
ATOM      2  C   UNL     1      -6.298   5.020  -0.279  1.00  0.00     0.116 C 
BRANCH   2   3
ATOM      3  N   UNL     1      -5.831   3.712  -0.692  1.00  0.00    -0.353 N 
ATOM      4  C   UNL     1      -5.010   2.825  -0.055  1.00  0.00     0.264 C 
ATOM      5  O   UNL     1      -4.862   1.737  -0.621  1.00  0.00    -0.270 OA
ATOM      6  H   UNL     1      -6.157   3.416  -1.572  1.00  0.00     0.163 HD
BRANCH   4   7
ATOM      7  C   UNL     1      -4.310   3.175   1.293  1.00  0.00     0.190 C 
ATOM      8  N   UNL     1      -1.540   2.926   0.596  1.00  0.00    -0.353 N 
ATOM      9  C   UNL     1      -2.258   4.103   0.163  1.00  0.00     0.123 C 
ATOM     10  C   UNL     1      -2.265   1.689   0.861  1.00  0.00     0.123 C 
ATOM     11  C   UNL     1      -3.376   4.391   1.145  1.00  0.00     0.080 C 
ATOM     12  C   UNL     1      -3.480   1.957   1.759  1.00  0.00     0.080 C 
BRANCH   8  13
ATOM     13  C   UNL     1      -0.247   3.059   1.082  1.00  0.00     0.171 A 
ATOM     14  C   UNL     1       0.780   2.102   0.779  1.00  0.00     0.171 A 
ATOM     15  N   UNL     1       2.002   2.188   1.370  1.00  0.00    -0.234 NA
ATOM     16  C   UNL     1       2.198   3.232   2.201  1.00  0.00     0.134 A 
ATOM     17  N   UNL     1      -0.003   4.120   1.895  1.00  0.00    -0.234 NA
ATOM     18  C   UNL     1       1.225   4.178   2.450  1.00  0.00     0.134 A 
BRANCH  14  19
ATOM     19  N   UNL     1       0.581   1.083  -0.171  1.00  0.00    -0.360 N 
ATOM     20  C   UNL     1       1.437  -0.081  -0.034  1.00  0.00     0.145 C 
ATOM     21  C   UNL     1       0.314   1.558  -1.523  1.00  0.00     0.145 C 
ENDBRANCH  14  19
ENDBRANCH   8  13
BRANCH   7  22
ATOM     22  O   UNL     1      -5.462   3.403   2.153  1.00  0.00    -0.477 OA
BRANCH  22  23
ATOM     23  C   UNL     1      -5.226   3.687   3.464  1.00  0.00     0.121 A 
ATOM     24  C   UNL     1      -4.790   4.943   3.870  1.00  0.00     0.047 A 
ATOM     25  C   UNL     1      -5.554   2.720   4.412  1.00  0.00     0.055 A 
ATOM     26  C   UNL     1      -4.546   5.194   5.219  1.00  0.00     0.012 A 
ATOM     27  C   UNL     1      -5.346   2.966   5.777  1.00  0.00    -0.015 A 
ATOM     28  C   UNL     1      -4.806   4.210   6.182  1.00  0.00    -0.018 A 
ATOM     29  C   UNL     1      -5.657   2.006   6.752  1.00  0.00     0.009 A 
ATOM     30  C   UNL     1      -4.552   4.442   7.542  1.00  0.00     0.009 A 
ATOM     31  C   UNL     1      -5.413   2.258   8.103  1.00  0.00     0.001 A 
ATOM     32  C   UNL     1      -4.851   3.470   8.496  1.00  0.00     0.001 A 
ENDBRANCH  22  23
ENDBRANCH   7  22
ENDBRANCH   4   7
ENDBRANCH   2   3
ENDBRANCH   1   2
BRANCH   1  33
ATOM     33  C   UNL     1      -6.159   6.121  -2.597  1.00  0.00     0.023 C 
BRANCH  33  34
ATOM     34  C   UNL     1      -7.668   6.196  -2.790  1.00  0.00     0.116 C 
BRANCH  34  35
ATOM     35  N   UNL     1      -8.267   7.363  -2.159  1.00  0.00    -0.352 N 
ATOM     36  C   UNL     1      -9.222   8.214  -2.659  1.00  0.00     0.251 C 
ATOM     37  H   UNL     1      -7.944   7.570  -1.252  1.00  0.00     0.163 HD
ATOM     38  O   UNL     1      -9.536   9.230  -2.049  1.00  0.00    -0.269 OA
BRANCH  36  39
ATOM     39  C   UNL     1      -9.842   7.909  -3.963  1.00  0.00     0.039 A 
ATOM     40  C   UNL     1      -9.882   8.904  -4.942  1.00  0.00     0.014 A 
ATOM     41  C   UNL     1     -10.334   6.629  -4.230  1.00  0.00     0.014 A 
ATOM     42  C   UNL     1     -10.348   8.592  -6.221  1.00  0.00     0.010 A 
ATOM     43  C   UNL     1     -10.731   6.302  -5.521  1.00  0.00     0.010 A 
ATOM     44  C   UNL     1     -10.737   7.279  -6.529  1.00  0.00    -0.014 A 
BRANCH  44  45
ATOM     45  C   UNL     1     -11.150   6.891  -7.900  1.00  0.00     0.031 A 
ATOM     46  C   UNL     1     -12.550   6.410  -8.151  1.00  0.00     0.074 A 
ATOM     47  C   UNL     1     -10.242   6.885  -8.896  1.00  0.00     0.049 A 
ATOM     48  N   UNL     1     -13.069   5.911  -9.245  1.00  0.00    -0.248 NA
ATOM     49  C   UNL     1     -13.484   6.470  -7.014  1.00  0.00     0.031 C 
ATOM     50  C   UNL     1      -8.843   7.300  -8.775  1.00  0.00     0.029 A 
ATOM     51  N   UNL     1     -10.361   6.497 -10.207  1.00  0.00    -0.354 N 
ATOM     52  C   UNL     1     -14.377   5.577  -8.920  1.00  0.00     0.074 A 
ATOM     53  C   UNL     1     -14.561   5.888  -7.520  1.00  0.00     0.031 C 
ATOM     54  C   UNL     1      -8.239   7.160  -9.966  1.00  0.00     0.029 A 
ATOM     55  C   UNL     1      -9.192   6.604 -10.921  1.00  0.00     0.049 A 
ATOM     56  H   UNL     1     -11.204   6.173 -10.599  1.00  0.00     0.167 HD
ATOM     57  C   UNL     1     -15.343   5.069  -9.721  1.00  0.00     0.031 A 
ATOM     58  C   UNL     1      -8.914   6.276 -12.197  1.00  0.00     0.031 A 
ATOM     59  C   UNL     1     -15.164   4.774 -11.116  1.00  0.00     0.049 A 
ATOM     60  C   UNL     1      -9.999   5.694 -13.060  1.00  0.00     0.074 A 
ATOM     61  C   UNL     1     -16.100   4.312 -12.026  1.00  0.00     0.029 A 
ATOM     62  N   UNL     1     -13.968   4.910 -11.803  1.00  0.00    -0.354 N 
ATOM     63  N   UNL     1     -11.248   5.439 -12.755  1.00  0.00    -0.248 NA
ATOM     64  C   UNL     1      -9.636   5.361 -14.446  1.00  0.00     0.031 C 
ATOM     65  C   UNL     1     -15.457   4.125 -13.254  1.00  0.00     0.029 A 
ATOM     66  C   UNL     1     -14.136   4.520 -13.121  1.00  0.00     0.049 A 
ATOM     67  H   UNL     1     -13.126   5.237 -11.413  1.00  0.00     0.167 HD
ATOM     68  C   UNL     1     -11.828   4.946 -13.917  1.00  0.00     0.074 A 
ATOM     69  C   UNL     1     -10.797   4.944 -14.934  1.00  0.00     0.031 C 
ATOM     70  C   UNL     1     -13.102   4.534 -14.122  1.00  0.00     0.031 A 
BRANCH  57  71
ATOM     71  C   UNL     1     -16.682   4.792  -9.098  1.00  0.00    -0.014 A 
ATOM     72  C   UNL     1     -17.532   5.837  -8.703  1.00  0.00     0.009 A 
ATOM     73  C   UNL     1     -17.113   3.466  -8.932  1.00  0.00     0.009 A 
ATOM     74  C   UNL     1     -18.770   5.561  -8.121  1.00  0.00     0.001 A 
ATOM     75  C   UNL     1     -18.364   3.193  -8.376  1.00  0.00     0.001 A 
ATOM     76  C   UNL     1     -19.187   4.240  -7.962  1.00  0.00     0.000 A 
ENDBRANCH  57  71
BRANCH  58  77
ATOM     77  C   UNL     1      -7.549   6.495 -12.741  1.00  0.00    -0.014 A 
ATOM     78  C   UNL     1      -7.314   7.509 -13.682  1.00  0.00     0.009 A 
ATOM     79  C   UNL     1      -6.474   5.692 -12.326  1.00  0.00     0.009 A 
ATOM     80  C   UNL     1      -6.037   7.699 -14.214  1.00  0.00     0.001 A 
ATOM     81  C   UNL     1      -5.193   5.903 -12.839  1.00  0.00     0.001 A 
ATOM     82  C   UNL     1      -4.977   6.899 -13.789  1.00  0.00     0.000 A 
ENDBRANCH  58  77
BRANCH  70  83
ATOM     83  C   UNL     1     -13.470   4.087 -15.508  1.00  0.00    -0.014 A 
ATOM     84  C   UNL     1     -13.052   2.846 -16.009  1.00  0.00     0.009 A 
ATOM     85  C   UNL     1     -14.307   4.895 -16.295  1.00  0.00     0.009 A 
ATOM     86  C   UNL     1     -13.448   2.432 -17.282  1.00  0.00     0.001 A 
ATOM     87  C   UNL     1     -14.722   4.467 -17.556  1.00  0.00     0.001 A 
ATOM     88  C   UNL     1     -14.287   3.238 -18.051  1.00  0.00     0.000 A 
ENDBRANCH  70  83
ENDBRANCH  44  45
ENDBRANCH  36  39
ENDBRANCH  34  35
ENDBRANCH  33  34
ENDBRANCH   1  33
TORSDOF 15
