REMARK SMILES O=C(/C=C/[C@@]12C=C(O)C(=O)C=C1C(=O)C1=Cc3cc(O)c(O)cc3O[C@@H](c3ccc(O)c(O)c3)[C@@H]12)NCCCCNC(=O)c1ccc(-c2c3nc(c(-c4ccccc4)c4ccc([nH]4)c(-c4ccccc4)c4nc(c(-c5ccccc5)c5ccc2[nH]5)C=C4)C=C3)cc1
REMARK SMILES IDX 1 1 2 2 36 3 3 5 4 6 5 7 6 8 12 9 35 10 7 11 11 12 13 13
REMARK SMILES IDX 15 14 9 16 14 17 16 18 10 19 8 20 17 22 18 23 24 24 19 25
REMARK SMILES IDX 23 26 21 27 25 28 26 29 27 31 28 32 34 33 29 34 32 35 30 36
REMARK SMILES IDX 33 37 31 39 20 41 22 43 37 45 38 46 39 47 40 48 41 49 42 50
REMARK SMILES IDX 43 52 44 53 45 54 91 55 46 56 90 57 47 58 48 59 49 60 84 61
REMARK SMILES IDX 50 62 89 63 83 64 85 65 51 66 88 67 82 68 81 69 52 71 74 72
REMARK SMILES IDX 59 73 73 74 60 75 63 76 72 77 86 78 61 79 62 80 71 82 87 83
REMARK SMILES IDX 64 84 53 85 54 86 58 87 55 88 57 89 56 90 75 91 76 92 80 93
REMARK SMILES IDX 77 94 79 95 78 96 65 97 66 98 70 99 67 100 69 101 68 102
REMARK H PARENT 36 4 8 21 33 38 31 40 20 42 22 44 41 51 85 70 63 81
REMARK Flexibility Score: 80.00
ROOT
ATOM      1  O   UNL     1       0.817   0.720  -0.471  1.00  0.00    -0.270 OA
ATOM      2  C   UNL     1       2.002   0.566  -0.207  1.00  0.00     0.243 C 
ATOM      3  N   UNL     1       2.640   1.087   0.887  1.00  0.00    -0.353 N 
ATOM      4  H   UNL     1       3.613   0.967   0.975  1.00  0.00     0.163 HD
ENDROOT
BRANCH   2   5
ATOM      5  C   UNL     1       2.817  -0.389  -1.002  1.00  0.00     0.068 C 
ATOM      6  C   UNL     1       4.131  -0.293  -1.291  1.00  0.00    -0.005 C 
BRANCH   6   7
ATOM      7  C   UNL     1       5.033  -1.388  -1.938  1.00  0.00     0.051 C 
ATOM      8  C   UNL     1       6.388  -1.223  -1.292  1.00  0.00     0.040 C 
ATOM      9  C   UNL     1       4.470  -2.763  -1.643  1.00  0.00     0.018 C 
ATOM     10  C   UNL     1       4.981  -1.376  -3.508  1.00  0.00     0.087 CG0
ATOM     11  C   UNL     1       6.882  -2.069  -0.379  1.00  0.00     0.160 C 
ATOM     12  C   UNL     1       4.920  -3.652  -0.753  1.00  0.00     0.065 C 
ATOM     13  C   UNL     1       3.417  -3.047  -2.643  1.00  0.00     0.186 C 
ATOM     14  C   UNL     1       3.669  -2.102  -3.759  1.00  0.00     0.009 C 
ATOM     15  G   UNL     1       6.023  -2.203  -4.336  1.00  0.00     0.000 G0
ATOM     16  C   UNL     1       6.144  -3.314   0.005  1.00  0.00     0.220 C 
ATOM     17  O   UNL     1       2.561  -3.902  -2.574  1.00  0.00    -0.289 OA
ATOM     18  C   UNL     1       2.950  -2.029  -4.881  1.00  0.00     0.020 C 
ATOM     19  O   UNL     1       6.605  -4.050   0.869  1.00  0.00    -0.286 OA
BRANCH  11  20
ATOM     20  O   UNL     1       8.106  -1.831   0.215  1.00  0.00    -0.504 OA
ATOM     21  H   UNL     1       8.591  -1.061  -0.005  1.00  0.00     0.293 HD
ENDBRANCH  11  20
BRANCH  18  22
ATOM     22  C   UNL     1       3.534  -1.304  -6.013  1.00  0.00     0.021 A 
ATOM     23  C   UNL     1       2.737  -0.422  -6.755  1.00  0.00     0.062 A 
ATOM     24  C   UNL     1       4.876  -1.528  -6.398  1.00  0.00     0.131 A 
ATOM     25  C   UNL     1       3.275   0.202  -7.877  1.00  0.00     0.158 A 
ATOM     26  C   UNL     1       5.376  -0.950  -7.566  1.00  0.00     0.097 A 
ATOM     27  C   UNL     1       4.577  -0.077  -8.285  1.00  0.00     0.161 A 
BRANCH  24  28
ATOM     28  O   UNL     1       5.732  -2.384  -5.753  1.00  0.00    -0.484 OA
BRANCH  28  29
ATOM     29  C   UNL     1       6.023  -2.203  -4.336  1.00  0.00     0.213 CG0
ATOM     30  G   UNL     1       4.981  -1.376  -3.508  1.00  0.00     0.000 G0
BRANCH  29  31
ATOM     31  C   UNL     1       7.463  -1.727  -4.232  1.00  0.00    -0.003 A 
ATOM     32  C   UNL     1       8.367  -2.409  -3.397  1.00  0.00     0.011 A 
ATOM     33  C   UNL     1       7.930  -0.618  -4.953  1.00  0.00     0.057 A 
ATOM     34  C   UNL     1       9.663  -1.929  -3.193  1.00  0.00     0.050 A 
ATOM     35  C   UNL     1       9.247  -0.186  -4.801  1.00  0.00     0.157 A 
ATOM     36  C   UNL     1      10.093  -0.805  -3.886  1.00  0.00     0.157 A 
BRANCH  35  37
ATOM     37  O   UNL     1       9.705   0.863  -5.546  1.00  0.00    -0.504 OA
ATOM     38  H   UNL     1      10.589   1.157  -5.447  1.00  0.00     0.293 HD
ENDBRANCH  35  37
BRANCH  36  39
ATOM     39  O   UNL     1      11.348  -0.309  -3.683  1.00  0.00    -0.504 OA
ATOM     40  H   UNL     1      11.922  -0.722  -3.068  1.00  0.00     0.293 HD
ENDBRANCH  36  39
ENDBRANCH  29  31
ENDBRANCH  28  29
ENDBRANCH  24  28
BRANCH  25  41
ATOM     41  O   UNL     1       2.559   1.095  -8.626  1.00  0.00    -0.504 OA
ATOM     42  H   UNL     1       1.679   1.309  -8.385  1.00  0.00     0.293 HD
ENDBRANCH  25  41
BRANCH  27  43
ATOM     43  O   UNL     1       5.086   0.515  -9.405  1.00  0.00    -0.504 OA
ATOM     44  H   UNL     1       4.559   1.108  -9.903  1.00  0.00     0.293 HD
ENDBRANCH  27  43
ENDBRANCH  18  22
ENDBRANCH   6   7
ENDBRANCH   2   5
BRANCH   3  45
ATOM     45  C   UNL     1       1.923   1.809   1.922  1.00  0.00     0.116 C 
BRANCH  45  46
ATOM     46  C   UNL     1       2.202   1.243   3.317  1.00  0.00     0.023 C 
BRANCH  46  47
ATOM     47  C   UNL     1       3.670   1.253   3.747  1.00  0.00     0.023 C 
BRANCH  47  48
ATOM     48  C   UNL     1       4.384   2.593   3.623  1.00  0.00     0.116 C 
BRANCH  48  49
ATOM     49  N   UNL     1       3.836   3.628   4.484  1.00  0.00    -0.352 N 
ATOM     50  C   UNL     1       4.500   4.535   5.281  1.00  0.00     0.251 C 
ATOM     51  H   UNL     1       2.854   3.690   4.500  1.00  0.00     0.163 HD
ATOM     52  O   UNL     1       3.870   5.286   6.018  1.00  0.00    -0.269 OA
BRANCH  50  53
ATOM     53  C   UNL     1       5.980   4.564   5.287  1.00  0.00     0.039 A 
ATOM     54  C   UNL     1       6.706   4.522   4.096  1.00  0.00     0.014 A 
ATOM     55  C   UNL     1       6.650   4.589   6.514  1.00  0.00     0.014 A 
ATOM     56  C   UNL     1       8.082   4.316   4.135  1.00  0.00     0.010 A 
ATOM     57  C   UNL     1       8.043   4.468   6.549  1.00  0.00     0.010 A 
ATOM     58  C   UNL     1       8.764   4.268   5.362  1.00  0.00    -0.014 A 
BRANCH  58  59
ATOM     59  C   UNL     1      10.224   3.988   5.378  1.00  0.00     0.031 A 
ATOM     60  C   UNL     1      10.761   2.718   5.985  1.00  0.00     0.074 A 
ATOM     61  C   UNL     1      11.070   4.852   4.785  1.00  0.00     0.049 A 
ATOM     62  N   UNL     1      11.996   2.283   6.022  1.00  0.00    -0.248 NA
ATOM     63  C   UNL     1       9.793   1.820   6.636  1.00  0.00     0.031 C 
ATOM     64  C   UNL     1      10.676   6.109   4.146  1.00  0.00     0.029 A 
ATOM     65  N   UNL     1      12.427   4.789   4.591  1.00  0.00    -0.354 N 
ATOM     66  C   UNL     1      11.957   1.081   6.718  1.00  0.00     0.074 A 
ATOM     67  C   UNL     1      10.581   0.863   7.105  1.00  0.00     0.031 C 
ATOM     68  C   UNL     1      11.754   6.664   3.573  1.00  0.00     0.029 A 
ATOM     69  C   UNL     1      12.923   5.837   3.855  1.00  0.00     0.049 A 
ATOM     70  H   UNL     1      12.990   4.064   4.945  1.00  0.00     0.167 HD
ATOM     71  C   UNL     1      12.973   0.233   7.003  1.00  0.00     0.031 A 
ATOM     72  C   UNL     1      14.178   6.110   3.448  1.00  0.00     0.031 A 
ATOM     73  C   UNL     1      14.339   0.436   6.599  1.00  0.00     0.049 A 
ATOM     74  C   UNL     1      15.293   5.173   3.808  1.00  0.00     0.074 A 
ATOM     75  C   UNL     1      15.424  -0.402   6.796  1.00  0.00     0.029 A 
ATOM     76  N   UNL     1      14.811   1.551   5.927  1.00  0.00    -0.354 N 
ATOM     77  N   UNL     1      15.232   4.028   4.442  1.00  0.00    -0.248 NA
ATOM     78  C   UNL     1      16.649   5.568   3.404  1.00  0.00     0.031 C 
ATOM     79  C   UNL     1      16.563   0.234   6.296  1.00  0.00     0.029 A 
ATOM     80  C   UNL     1      16.177   1.440   5.733  1.00  0.00     0.049 A 
ATOM     81  H   UNL     1      14.257   2.310   5.631  1.00  0.00     0.167 HD
ATOM     82  C   UNL     1      16.537   3.561   4.507  1.00  0.00     0.074 A 
ATOM     83  C   UNL     1      17.368   4.538   3.833  1.00  0.00     0.031 C 
ATOM     84  C   UNL     1      17.000   2.423   5.077  1.00  0.00     0.031 A 
BRANCH  71  85
ATOM     85  C   UNL     1      12.661  -0.997   7.809  1.00  0.00    -0.014 A 
ATOM     86  C   UNL     1      13.140  -1.101   9.126  1.00  0.00     0.009 A 
ATOM     87  C   UNL     1      11.976  -2.085   7.248  1.00  0.00     0.009 A 
ATOM     88  C   UNL     1      12.945  -2.270   9.862  1.00  0.00     0.001 A 
ATOM     89  C   UNL     1      11.760  -3.245   7.997  1.00  0.00     0.001 A 
ATOM     90  C   UNL     1      12.251  -3.339   9.299  1.00  0.00     0.000 A 
ENDBRANCH  71  85
BRANCH  72  91
ATOM     91  C   UNL     1      14.423   7.326   2.632  1.00  0.00    -0.014 A 
ATOM     92  C   UNL     1      14.313   8.604   3.205  1.00  0.00     0.009 A 
ATOM     93  C   UNL     1      14.692   7.216   1.261  1.00  0.00     0.009 A 
ATOM     94  C   UNL     1      14.435   9.747   2.414  1.00  0.00     0.001 A 
ATOM     95  C   UNL     1      14.839   8.363   0.477  1.00  0.00     0.001 A 
ATOM     96  C   UNL     1      14.698   9.626   1.051  1.00  0.00     0.000 A 
ENDBRANCH  72  91
BRANCH  84  97
ATOM     97  C   UNL     1      18.477   2.154   5.007  1.00  0.00    -0.014 A 
ATOM     98  C   UNL     1      18.960   1.120   4.190  1.00  0.00     0.009 A 
ATOM     99  C   UNL     1      19.376   2.853   5.826  1.00  0.00     0.009 A 
ATOM    100  C   UNL     1      20.314   0.780   4.205  1.00  0.00     0.001 A 
ATOM    101  C   UNL     1      20.734   2.527   5.820  1.00  0.00     0.001 A 
ATOM    102  C   UNL     1      21.200   1.486   5.017  1.00  0.00     0.000 A 
ENDBRANCH  84  97
ENDBRANCH  58  59
ENDBRANCH  50  53
ENDBRANCH  48  49
ENDBRANCH  47  48
ENDBRANCH  46  47
ENDBRANCH  45  46
ENDBRANCH   3  45
TORSDOF 18
