REMARK SMILES O=C(NCCCCNC(=O)[C@@H]1C[C@@H](O)CN1C(=O)c1ccccc1)c1ccc(-c2c3nc(c(-c4ccccc4)c4ccc([nH]4)c(-c4ccccc4)c4nc(c(-c5ccccc5)c5ccc2[nH]5)C=C4)C=C3)cc1
REMARK SMILES IDX 5 1 4 2 3 3 1 4 2 5 25 7 26 8 72 9 27 10 71 11 28 12 29 13
REMARK SMILES IDX 30 14 65 15 31 16 70 17 64 18 66 19 32 20 69 21 63 22 62 23
REMARK SMILES IDX 33 25 55 26 40 27 54 28 41 29 44 30 53 31 67 32 42 33 43 34
REMARK SMILES IDX 52 36 68 37 45 38 34 39 35 40 39 41 36 42 38 43 37 44 56 45
REMARK SMILES IDX 57 46 61 47 58 48 60 49 59 50 46 51 47 52 51 53 48 54 50 55
REMARK SMILES IDX 49 56 6 57 7 58 8 59 9 60 10 62 11 63 12 64 16 65 13 66
REMARK SMILES IDX 15 67 17 68 18 69 19 70 20 71 24 72 21 73 23 74 22 75 14 76
REMARK H PARENT 3 6 66 24 44 35 8 61 14 77
REMARK Flexibility Score: inf
ROOT
ATOM      1  C   UNL     1       2.179   7.505   0.818  1.00  0.00     0.023 C 
ENDROOT
BRANCH   1   2
ATOM      2  C   UNL     1       0.967   8.046   1.551  1.00  0.00     0.116 C 
BRANCH   2   3
ATOM      3  N   UNL     1       0.953   9.497   1.670  1.00  0.00    -0.352 N 
ATOM      4  O   UNL     1      -0.017  11.545   1.676  1.00  0.00    -0.269 OA
ATOM      5  C   UNL     1      -0.144  10.325   1.657  1.00  0.00     0.251 C 
ATOM      6  H   UNL     1       1.829   9.934   1.770  1.00  0.00     0.163 HD
BRANCH   5   7
ATOM      7  C   UNL     1      -1.482   9.710   1.580  1.00  0.00     0.039 A 
ATOM      8  C   UNL     1      -1.816   8.663   2.442  1.00  0.00     0.014 A 
ATOM      9  C   UNL     1      -2.375  10.135   0.593  1.00  0.00     0.014 A 
ATOM     10  C   UNL     1      -2.983   7.947   2.227  1.00  0.00     0.010 A 
ATOM     11  C   UNL     1      -3.594   9.472   0.441  1.00  0.00     0.010 A 
ATOM     12  C   UNL     1      -3.895   8.361   1.243  1.00  0.00    -0.014 A 
BRANCH  12  13
ATOM     13  C   UNL     1      -5.205   7.676   1.157  1.00  0.00     0.031 A 
ATOM     14  C   UNL     1      -5.599   6.874  -0.048  1.00  0.00     0.074 A 
ATOM     15  C   UNL     1      -6.030   7.774   2.218  1.00  0.00     0.049 A 
ATOM     16  N   UNL     1      -6.708   6.211  -0.259  1.00  0.00    -0.248 NA
ATOM     17  C   UNL     1      -4.638   6.807  -1.159  1.00  0.00     0.031 C 
ATOM     18  C   UNL     1      -5.746   8.537   3.438  1.00  0.00     0.029 A 
ATOM     19  N   UNL     1      -7.257   7.214   2.456  1.00  0.00    -0.354 N 
ATOM     20  C   UNL     1      -6.592   5.672  -1.534  1.00  0.00     0.074 A 
ATOM     21  C   UNL     1      -5.307   6.089  -2.053  1.00  0.00     0.031 C 
ATOM     22  C   UNL     1      -6.742   8.352   4.315  1.00  0.00     0.029 A 
ATOM     23  C   UNL     1      -7.765   7.522   3.693  1.00  0.00     0.049 A 
ATOM     24  H   UNL     1      -7.728   6.646   1.804  1.00  0.00     0.167 HD
ATOM     25  C   UNL     1      -7.484   4.904  -2.205  1.00  0.00     0.031 A 
ATOM     26  C   UNL     1      -8.938   7.195   4.261  1.00  0.00     0.031 A 
ATOM     27  C   UNL     1      -8.754   4.484  -1.673  1.00  0.00     0.049 A 
ATOM     28  C   UNL     1      -9.906   6.358   3.484  1.00  0.00     0.074 A 
ATOM     29  C   UNL     1      -9.707   3.669  -2.260  1.00  0.00     0.029 A 
ATOM     30  N   UNL     1      -9.251   4.849  -0.432  1.00  0.00    -0.354 N 
ATOM     31  N   UNL     1      -9.767   5.834   2.291  1.00  0.00    -0.248 NA
ATOM     32  C   UNL     1     -11.196   6.078   4.126  1.00  0.00     0.031 C 
ATOM     33  C   UNL     1     -10.800   3.578  -1.393  1.00  0.00     0.029 A 
ATOM     34  C   UNL     1     -10.509   4.301  -0.247  1.00  0.00     0.049 A 
ATOM     35  H   UNL     1      -8.779   5.415   0.222  1.00  0.00     0.167 HD
ATOM     36  C   UNL     1     -10.952   5.161   2.037  1.00  0.00     0.074 A 
ATOM     37  C   UNL     1     -11.784   5.317   3.214  1.00  0.00     0.031 C 
ATOM     38  C   UNL     1     -11.323   4.484   0.925  1.00  0.00     0.031 A 
BRANCH  25  39
ATOM     39  C   UNL     1      -7.138   4.485  -3.606  1.00  0.00    -0.014 A 
ATOM     40  C   UNL     1      -6.216   3.458  -3.855  1.00  0.00     0.009 A 
ATOM     41  C   UNL     1      -7.812   5.072  -4.689  1.00  0.00     0.009 A 
ATOM     42  C   UNL     1      -5.966   3.036  -5.163  1.00  0.00     0.001 A 
ATOM     43  C   UNL     1      -7.574   4.635  -5.994  1.00  0.00     0.001 A 
ATOM     44  C   UNL     1      -6.649   3.620  -6.230  1.00  0.00     0.000 A 
ENDBRANCH  25  39
BRANCH  26  45
ATOM     45  C   UNL     1      -9.267   7.700   5.617  1.00  0.00    -0.014 A 
ATOM     46  C   UNL     1      -9.323   6.827   6.713  1.00  0.00     0.009 A 
ATOM     47  C   UNL     1      -9.507   9.068   5.823  1.00  0.00     0.009 A 
ATOM     48  C   UNL     1      -9.632   7.313   7.985  1.00  0.00     0.001 A 
ATOM     49  C   UNL     1      -9.786   9.555   7.100  1.00  0.00     0.001 A 
ATOM     50  C   UNL     1      -9.856   8.675   8.179  1.00  0.00     0.000 A 
ENDBRANCH  26  45
BRANCH  38  51
ATOM     51  C   UNL     1     -12.688   3.863   0.944  1.00  0.00    -0.014 A 
ATOM     52  C   UNL     1     -13.838   4.654   0.799  1.00  0.00     0.009 A 
ATOM     53  C   UNL     1     -12.824   2.476   1.098  1.00  0.00     0.009 A 
ATOM     54  C   UNL     1     -15.104   4.068   0.843  1.00  0.00     0.001 A 
ATOM     55  C   UNL     1     -14.090   1.891   1.117  1.00  0.00     0.001 A 
ATOM     56  C   UNL     1     -15.228   2.688   0.999  1.00  0.00     0.000 A 
ENDBRANCH  38  51
ENDBRANCH  12  13
ENDBRANCH   5   7
ENDBRANCH   2   3
ENDBRANCH   1   2
BRANCH   1  57
ATOM     57  C   UNL     1       3.514   7.865   1.456  1.00  0.00     0.023 C 
BRANCH  57  58
ATOM     58  C   UNL     1       3.737   7.317   2.857  1.00  0.00     0.116 C 
BRANCH  58  59
ATOM     59  N   UNL     1       4.125   5.928   2.816  1.00  0.00    -0.354 N 
ATOM     60  C   UNL     1       5.366   5.367   2.728  1.00  0.00     0.242 C 
ATOM     61  H   UNL     1       3.380   5.286   2.858  1.00  0.00     0.163 HD
ATOM     62  O   UNL     1       5.406   4.131   2.769  1.00  0.00    -0.273 OA
BRANCH  60  63
ATOM     63  C   UNL     1       6.672   6.189   2.860  1.00  0.00     0.177 C 
ATOM     64  C   UNL     1       6.889   6.482   4.356  1.00  0.00     0.069 C 
ATOM     65  N   UNL     1       6.819   7.499   2.201  1.00  0.00    -0.324 N 
ATOM     66  C   UNL     1       7.701   7.766   4.370  1.00  0.00     0.136 C 
ATOM     67  C   UNL     1       7.179   8.541   3.162  1.00  0.00     0.152 C 
BRANCH  65  68
ATOM     68  C   UNL     1       6.833   7.579   0.814  1.00  0.00     0.254 C 
ATOM     69  O   UNL     1       6.665   6.593   0.100  1.00  0.00    -0.269 OA
BRANCH  68  70
ATOM     70  C   UNL     1       6.928   8.907   0.154  1.00  0.00     0.040 A 
ATOM     71  C   UNL     1       5.867   9.324  -0.661  1.00  0.00     0.014 A 
ATOM     72  C   UNL     1       8.058   9.717   0.277  1.00  0.00     0.014 A 
ATOM     73  C   UNL     1       5.887  10.583  -1.261  1.00  0.00     0.001 A 
ATOM     74  C   UNL     1       8.080  10.976  -0.330  1.00  0.00     0.001 A 
ATOM     75  C   UNL     1       6.989  11.415  -1.082  1.00  0.00     0.000 A 
ENDBRANCH  68  70
ENDBRANCH  65  68
BRANCH  66  76
ATOM     76  O   UNL     1       9.088   7.466   4.215  1.00  0.00    -0.391 OA
ATOM     77  H   UNL     1       9.220   6.966   3.395  1.00  0.00     0.211 HD
ENDBRANCH  66  76
ENDBRANCH  60  63
ENDBRANCH  58  59
ENDBRANCH  57  58
ENDBRANCH   1  57
TORSDOF 14
