REMARK SMILES CCOC(=O)C1=NN(c2ccc(F)cc2F)[C@@H](C(=O)NCCCCNC(=O)c2ccc(-c3c4nc(c(-c5ccccc5)c5ccc([nH]5)c(-c5ccccc5)c5nc(c(-c6ccccc6)c6ccc3[nH]6)C=C5)C=C4)cc2)C1
REMARK SMILES IDX 22 1 21 2 20 3 18 4 19 5 17 7 6 8 7 9 76 10 8 11 4 12 5 13
REMARK SMILES IDX 3 14 2 15 1 16 9 17 10 18 15 19 11 20 14 21 16 22 12 23
REMARK SMILES IDX 13 24 23 25 24 26 25 27 26 28 27 30 28 31 29 32 75 33 30 34
REMARK SMILES IDX 74 35 31 36 32 37 33 38 68 39 34 40 73 41 67 42 69 43 35 44
REMARK SMILES IDX 72 45 66 46 65 47 36 49 58 50 43 51 57 52 44 53 47 54 56 55
REMARK SMILES IDX 70 56 45 57 46 58 55 60 71 61 48 62 37 63 38 64 42 65 39 66
REMARK SMILES IDX 41 67 40 68 59 69 60 70 64 71 61 72 63 73 62 74 49 75 50 76
REMARK SMILES IDX 54 77 51 78 53 79 52 80
REMARK H PARENT 20 6 25 29 69 48 47 59
REMARK Flexibility Score: inf
ROOT
ATOM      1  C   UNL     1       0.527   8.934  -1.443  1.00  0.00     0.023 C 
ENDROOT
BRANCH   1   2
ATOM      2  C   UNL     1       0.931   7.494  -1.747  1.00  0.00     0.116 C 
BRANCH   2   3
ATOM      3  N   UNL     1       1.677   7.349  -2.980  1.00  0.00    -0.354 N 
ATOM      4  C   UNL     1       2.710   6.513  -3.310  1.00  0.00     0.245 C 
ATOM      5  O   UNL     1       3.078   6.574  -4.487  1.00  0.00    -0.273 OA
ATOM      6  H   UNL     1       1.394   7.954  -3.703  1.00  0.00     0.163 HD
BRANCH   4   7
ATOM      7  C   UNL     1       3.414   5.652  -2.236  1.00  0.00     0.203 C 
ATOM      8  C   UNL     1       3.149   3.506  -1.411  1.00  0.00     0.148 C 
ATOM      9  N   UNL     1       4.137   3.386  -2.237  1.00  0.00    -0.169 NA
ATOM     10  C   UNL     1       2.454   4.820  -1.390  1.00  0.00     0.103 C 
ATOM     11  N   UNL     1       4.268   4.611  -2.832  1.00  0.00    -0.249 N 
BRANCH   8  12
ATOM     12  C   UNL     1       2.691   2.424  -0.476  1.00  0.00     0.354 C 
ATOM     13  O   UNL     1       3.416   1.934   0.372  1.00  0.00    -0.245 OA
BRANCH  12  14
ATOM     14  O   UNL     1       1.372   2.220  -0.667  1.00  0.00    -0.461 OA
BRANCH  14  15
ATOM     15  C   UNL     1       0.747   1.330   0.268  1.00  0.00     0.230 C 
ATOM     16  C   UNL     1       0.923  -0.112  -0.168  1.00  0.00     0.049 C 
ENDBRANCH  14  15
ENDBRANCH  12  14
ENDBRANCH   8  12
BRANCH  11  17
ATOM     17  C   UNL     1       5.372   4.839  -3.646  1.00  0.00     0.096 A 
ATOM     18  C   UNL     1       6.298   5.856  -3.368  1.00  0.00     0.034 A 
ATOM     19  C   UNL     1       5.602   4.045  -4.787  1.00  0.00     0.151 A 
ATOM     20  C   UNL     1       7.407   6.064  -4.195  1.00  0.00     0.041 A 
ATOM     21  C   UNL     1       6.691   4.259  -5.628  1.00  0.00     0.080 A 
ATOM     22  F   UNL     1       4.733   3.077  -5.124  1.00  0.00    -0.205 F 
ATOM     23  C   UNL     1       7.587   5.268  -5.320  1.00  0.00     0.126 A 
ATOM     24  F   UNL     1       8.644   5.480  -6.114  1.00  0.00    -0.207 F 
ENDBRANCH  11  17
ENDBRANCH   4   7
ENDBRANCH   2   3
ENDBRANCH   1   2
BRANCH   1  25
ATOM     25  C   UNL     1      -0.251   9.671  -2.533  1.00  0.00     0.023 C 
BRANCH  25  26
ATOM     26  C   UNL     1      -1.482   8.960  -3.086  1.00  0.00     0.116 C 
BRANCH  26  27
ATOM     27  N   UNL     1      -2.486   8.680  -2.075  1.00  0.00    -0.352 N 
ATOM     28  C   UNL     1      -3.832   8.953  -2.062  1.00  0.00     0.251 C 
ATOM     29  H   UNL     1      -2.148   8.222  -1.272  1.00  0.00     0.163 HD
ATOM     30  O   UNL     1      -4.482   8.715  -1.046  1.00  0.00    -0.269 OA
BRANCH  28  31
ATOM     31  C   UNL     1      -4.508   9.553  -3.237  1.00  0.00     0.039 A 
ATOM     32  C   UNL     1      -5.470  10.545  -3.015  1.00  0.00     0.014 A 
ATOM     33  C   UNL     1      -4.243   9.127  -4.541  1.00  0.00     0.014 A 
ATOM     34  C   UNL     1      -6.125  11.142  -4.097  1.00  0.00     0.010 A 
ATOM     35  C   UNL     1      -4.846   9.769  -5.623  1.00  0.00     0.010 A 
ATOM     36  C   UNL     1      -5.801  10.775  -5.412  1.00  0.00    -0.014 A 
BRANCH  36  37
ATOM     37  C   UNL     1      -6.479  11.408  -6.572  1.00  0.00     0.031 A 
ATOM     38  C   UNL     1      -7.383  10.593  -7.457  1.00  0.00     0.074 A 
ATOM     39  C   UNL     1      -6.248  12.703  -6.865  1.00  0.00     0.049 A 
ATOM     40  N   UNL     1      -8.027  10.954  -8.539  1.00  0.00    -0.248 NA
ATOM     41  C   UNL     1      -7.568   9.179  -7.092  1.00  0.00     0.031 C 
ATOM     42  C   UNL     1      -5.362  13.598  -6.118  1.00  0.00     0.029 A 
ATOM     43  N   UNL     1      -6.742  13.489  -7.876  1.00  0.00    -0.354 N 
ATOM     44  C   UNL     1      -8.666   9.810  -8.998  1.00  0.00     0.074 A 
ATOM     45  C   UNL     1      -8.305   8.735  -8.099  1.00  0.00     0.031 C 
ATOM     46  C   UNL     1      -5.395  14.817  -6.682  1.00  0.00     0.029 A 
ATOM     47  C   UNL     1      -6.284  14.783  -7.840  1.00  0.00     0.049 A 
ATOM     48  H   UNL     1      -7.365  13.156  -8.561  1.00  0.00     0.167 HD
ATOM     49  C   UNL     1      -9.492   9.664 -10.061  1.00  0.00     0.031 A 
ATOM     50  C   UNL     1      -6.555  15.828  -8.644  1.00  0.00     0.031 A 
ATOM     51  C   UNL     1      -9.882  10.731 -10.942  1.00  0.00     0.049 A 
ATOM     52  C   UNL     1      -7.516  15.655  -9.786  1.00  0.00     0.074 A 
ATOM     53  C   UNL     1     -10.750  10.690 -12.019  1.00  0.00     0.029 A 
ATOM     54  N   UNL     1      -9.434  12.038 -10.838  1.00  0.00    -0.354 N 
ATOM     55  N   UNL     1      -8.150  14.576 -10.176  1.00  0.00    -0.248 NA
ATOM     56  C   UNL     1      -7.814  16.853 -10.585  1.00  0.00     0.031 C 
ATOM     57  C   UNL     1     -10.813  11.971 -12.580  1.00  0.00     0.029 A 
ATOM     58  C   UNL     1     -10.010  12.814 -11.829  1.00  0.00     0.049 A 
ATOM     59  H   UNL     1      -8.801  12.367 -10.159  1.00  0.00     0.167 HD
ATOM     60  C   UNL     1      -8.943  14.971 -11.245  1.00  0.00     0.074 A 
ATOM     61  C   UNL     1      -8.718  16.389 -11.436  1.00  0.00     0.031 C 
ATOM     62  C   UNL     1      -9.786  14.225 -11.998  1.00  0.00     0.031 A 
BRANCH  49  63
ATOM     63  C   UNL     1     -10.030   8.287 -10.325  1.00  0.00    -0.014 A 
ATOM     64  C   UNL     1     -11.018   7.725  -9.502  1.00  0.00     0.009 A 
ATOM     65  C   UNL     1      -9.550   7.547 -11.417  1.00  0.00     0.009 A 
ATOM     66  C   UNL     1     -11.488   6.433  -9.744  1.00  0.00     0.001 A 
ATOM     67  C   UNL     1     -10.040   6.264 -11.671  1.00  0.00     0.001 A 
ATOM     68  C   UNL     1     -11.001   5.705 -10.829  1.00  0.00     0.000 A 
ENDBRANCH  49  63
BRANCH  50  69
ATOM     69  C   UNL     1      -5.943  17.152  -8.372  1.00  0.00    -0.014 A 
ATOM     70  C   UNL     1      -6.710  18.181  -7.805  1.00  0.00     0.009 A 
ATOM     71  C   UNL     1      -4.598  17.397  -8.684  1.00  0.00     0.009 A 
ATOM     72  C   UNL     1      -6.149  19.439  -7.578  1.00  0.00     0.001 A 
ATOM     73  C   UNL     1      -4.033  18.650  -8.436  1.00  0.00     0.001 A 
ATOM     74  C   UNL     1      -4.810  19.672  -7.892  1.00  0.00     0.000 A 
ENDBRANCH  50  69
BRANCH  62  75
ATOM     75  C   UNL     1     -10.561  14.939 -13.066  1.00  0.00    -0.014 A 
ATOM     76  C   UNL     1      -9.952  15.340 -14.264  1.00  0.00     0.009 A 
ATOM     77  C   UNL     1     -11.929  15.190 -12.877  1.00  0.00     0.009 A 
ATOM     78  C   UNL     1     -10.692  16.010 -15.240  1.00  0.00     0.001 A 
ATOM     79  C   UNL     1     -12.671  15.841 -13.863  1.00  0.00     0.001 A 
ATOM     80  C   UNL     1     -12.050  16.258 -15.040  1.00  0.00     0.000 A 
ENDBRANCH  62  75
ENDBRANCH  36  37
ENDBRANCH  28  31
ENDBRANCH  26  27
ENDBRANCH  25  26
ENDBRANCH   1  25
TORSDOF 15
