REMARK SMILES O=C(NCCCCNC(=O)[C@H]1[C@H]2CC[C@H](C2)[C@@H]1C(=O)Nc1sc2c(c1C(=O)NC1CCCCC1)CCCC2)c1ccc(-c2c3nc(c(-c4ccccc4)c4ccc([nH]4)c(-c4ccccc4)c4nc(c(-c5ccccc5)c5ccc2[nH]5)C=C4)C=C3)cc1
REMARK SMILES IDX 6 1 5 2 4 3 3 4 1 5 2 6 39 8 40 9 86 10 41 11 85 12 42 13
REMARK SMILES IDX 43 14 44 15 79 16 45 17 84 18 78 19 80 20 46 21 83 22 77 23
REMARK SMILES IDX 76 24 47 26 69 27 54 28 68 29 55 30 58 31 67 32 81 33 56 34
REMARK SMILES IDX 57 35 66 37 82 38 59 39 48 40 49 41 53 42 50 43 52 44 51 45
REMARK SMILES IDX 70 46 71 47 75 48 72 49 74 50 73 51 60 52 61 53 65 54 62 55
REMARK SMILES IDX 64 56 63 57 7 58 8 59 9 60 10 62 11 63 12 64 17 65 13 66
REMARK SMILES IDX 16 67 15 68 14 69 18 70 19 71 20 72 21 74 22 75 25 76 23 77
REMARK SMILES IDX 24 78 38 79 35 80 37 81 36 82 26 83 27 84 28 85 29 87 30 88
REMARK SMILES IDX 34 89 31 90 33 91 32 92
REMARK H PARENT 3 7 80 25 58 36 8 61 20 73 28 86
REMARK Flexibility Score: inf
ROOT
ATOM      1  C   UNL     1       2.675   8.871   0.251  1.00  0.00     0.023 C 
ENDROOT
BRANCH   1   2
ATOM      2  C   UNL     1       1.290   8.796   0.843  1.00  0.00     0.023 C 
BRANCH   2   3
ATOM      3  C   UNL     1       1.131   9.544   2.140  1.00  0.00     0.116 C 
BRANCH   3   4
ATOM      4  N   UNL     1       1.483  10.958   2.059  1.00  0.00    -0.352 N 
ATOM      5  O   UNL     1       1.089  13.185   2.330  1.00  0.00    -0.269 OA
ATOM      6  C   UNL     1       0.744  12.025   2.521  1.00  0.00     0.251 C 
ATOM      7  H   UNL     1       2.341  11.173   1.627  1.00  0.00     0.163 HD
BRANCH   6   8
ATOM      8  C   UNL     1      -0.514  11.708   3.218  1.00  0.00     0.039 A 
ATOM      9  C   UNL     1      -0.482  10.749   4.231  1.00  0.00     0.014 A 
ATOM     10  C   UNL     1      -1.722  12.187   2.711  1.00  0.00     0.014 A 
ATOM     11  C   UNL     1      -1.654  10.099   4.566  1.00  0.00     0.010 A 
ATOM     12  C   UNL     1      -2.917  11.639   3.179  1.00  0.00     0.010 A 
ATOM     13  C   UNL     1      -2.889  10.563   4.080  1.00  0.00    -0.014 A 
BRANCH  13  14
ATOM     14  C   UNL     1      -4.128   9.959   4.623  1.00  0.00     0.031 A 
ATOM     15  C   UNL     1      -5.138   9.277   3.745  1.00  0.00     0.074 A 
ATOM     16  C   UNL     1      -4.301  10.008   5.959  1.00  0.00     0.049 A 
ATOM     17  N   UNL     1      -6.276   8.727   4.087  1.00  0.00    -0.248 NA
ATOM     18  C   UNL     1      -4.849   9.207   2.304  1.00  0.00     0.031 C 
ATOM     19  C   UNL     1      -3.376  10.645   6.905  1.00  0.00     0.029 A 
ATOM     20  N   UNL     1      -5.281   9.489   6.759  1.00  0.00    -0.354 N 
ATOM     21  C   UNL     1      -6.859   8.286   2.905  1.00  0.00     0.074 A 
ATOM     22  C   UNL     1      -5.950   8.633   1.834  1.00  0.00     0.031 C 
ATOM     23  C   UNL     1      -3.784  10.402   8.155  1.00  0.00     0.029 A 
ATOM     24  C   UNL     1      -5.056   9.699   8.097  1.00  0.00     0.049 A 
ATOM     25  H   UNL     1      -6.069   9.013   6.411  1.00  0.00     0.167 HD
ATOM     26  C   UNL     1      -8.048   7.658   2.739  1.00  0.00     0.031 A 
ATOM     27  C   UNL     1      -5.806   9.398   9.169  1.00  0.00     0.031 A 
ATOM     28  C   UNL     1      -8.935   7.311   3.820  1.00  0.00     0.049 A 
ATOM     29  C   UNL     1      -7.123   8.728   8.948  1.00  0.00     0.074 A 
ATOM     30  C   UNL     1     -10.155   6.657   3.761  1.00  0.00     0.029 A 
ATOM     31  N   UNL     1      -8.695   7.586   5.159  1.00  0.00    -0.354 N 
ATOM     32  N   UNL     1      -7.663   8.329   7.823  1.00  0.00    -0.248 NA
ATOM     33  C   UNL     1      -7.940   8.481  10.140  1.00  0.00     0.031 C 
ATOM     34  C   UNL     1     -10.673   6.580   5.058  1.00  0.00     0.029 A 
ATOM     35  C   UNL     1      -9.753   7.136   5.932  1.00  0.00     0.049 A 
ATOM     36  H   UNL     1      -7.891   8.035   5.508  1.00  0.00     0.167 HD
ATOM     37  C   UNL     1      -8.885   7.777   8.169  1.00  0.00     0.074 A 
ATOM     38  C   UNL     1      -8.991   7.868   9.613  1.00  0.00     0.031 C 
ATOM     39  C   UNL     1      -9.838   7.247   7.365  1.00  0.00     0.031 A 
BRANCH  26  40
ATOM     40  C   UNL     1      -8.486   7.341   1.334  1.00  0.00    -0.014 A 
ATOM     41  C   UNL     1      -7.889   6.310   0.593  1.00  0.00     0.009 A 
ATOM     42  C   UNL     1      -9.557   8.050   0.766  1.00  0.00     0.009 A 
ATOM     43  C   UNL     1      -8.340   6.013  -0.697  1.00  0.00     0.001 A 
ATOM     44  C   UNL     1     -10.022   7.736  -0.513  1.00  0.00     0.001 A 
ATOM     45  C   UNL     1      -9.408   6.722  -1.246  1.00  0.00     0.000 A 
ENDBRANCH  26  40
BRANCH  27  46
ATOM     46  C   UNL     1      -5.335   9.778  10.524  1.00  0.00    -0.014 A 
ATOM     47  C   UNL     1      -4.934   8.797  11.441  1.00  0.00     0.009 A 
ATOM     48  C   UNL     1      -5.236  11.132  10.887  1.00  0.00     0.009 A 
ATOM     49  C   UNL     1      -4.456   9.166  12.701  1.00  0.00     0.001 A 
ATOM     50  C   UNL     1      -4.726  11.497  12.132  1.00  0.00     0.001 A 
ATOM     51  C   UNL     1      -4.345  10.514  13.042  1.00  0.00     0.000 A 
ENDBRANCH  27  46
BRANCH  39  52
ATOM     52  C   UNL     1     -11.060   6.706   8.046  1.00  0.00    -0.014 A 
ATOM     53  C   UNL     1     -12.026   7.565   8.592  1.00  0.00     0.009 A 
ATOM     54  C   UNL     1     -11.247   5.319   8.134  1.00  0.00     0.009 A 
ATOM     55  C   UNL     1     -13.141   7.041   9.247  1.00  0.00     0.001 A 
ATOM     56  C   UNL     1     -12.376   4.799   8.766  1.00  0.00     0.001 A 
ATOM     57  C   UNL     1     -13.316   5.660   9.331  1.00  0.00     0.000 A 
ENDBRANCH  39  52
ENDBRANCH  13  14
ENDBRANCH   6   8
ENDBRANCH   3   4
ENDBRANCH   2   3
ENDBRANCH   1   2
BRANCH   1  58
ATOM     58  C   UNL     1       3.822   8.429   1.160  1.00  0.00     0.116 C 
BRANCH  58  59
ATOM     59  N   UNL     1       4.101   7.018   1.053  1.00  0.00    -0.356 N 
ATOM     60  C   UNL     1       5.134   6.314   0.540  1.00  0.00     0.224 C 
ATOM     61  H   UNL     1       3.391   6.450   1.433  1.00  0.00     0.163 HD
ATOM     62  O   UNL     1       5.042   5.084   0.666  1.00  0.00    -0.275 OA
BRANCH  60  63
ATOM     63  C   UNL     1       6.309   6.874  -0.257  1.00  0.00     0.094 C 
ATOM     64  C   UNL     1       5.968   7.149  -1.749  1.00  0.00     0.002 C 
ATOM     65  C   UNL     1       7.128   8.116   0.182  1.00  0.00     0.094 C 
ATOM     66  C   UNL     1       5.076   8.350  -2.032  1.00  0.00     0.005 C 
ATOM     67  C   UNL     1       7.268   7.777  -2.190  1.00  0.00     0.009 C 
ATOM     68  C   UNL     1       7.223   8.894  -1.139  1.00  0.00     0.002 C 
ATOM     69  C   UNL     1       5.876   9.541  -1.505  1.00  0.00     0.005 C 
BRANCH  65  70
ATOM     70  C   UNL     1       8.424   7.724   0.943  1.00  0.00     0.229 C 
ATOM     71  O   UNL     1       8.290   7.482   2.156  1.00  0.00    -0.274 OA
ATOM     72  N   UNL     1       9.672   7.499   0.434  1.00  0.00    -0.317 N 
ATOM     73  H   UNL     1      10.361   7.260   1.096  1.00  0.00     0.170 HD
BRANCH  72  74
ATOM     74  C   UNL     1      10.105   7.559  -0.871  1.00  0.00     0.108 A 
ATOM     75  S   UNL     1      10.451   9.102  -1.494  1.00  0.00    -0.122 S 
ATOM     76  C   UNL     1      10.586   6.538  -1.713  1.00  0.00     0.078 A 
ATOM     77  C   UNL     1      10.262   8.466  -3.053  1.00  0.00     0.011 A 
ATOM     78  C   UNL     1      10.496   7.091  -3.081  1.00  0.00    -0.019 A 
ATOM     79  C   UNL     1       9.814   9.329  -4.194  1.00  0.00     0.047 C 
ATOM     80  C   UNL     1      10.441   6.400  -4.409  1.00  0.00     0.037 C 
ATOM     81  C   UNL     1       9.187   8.459  -5.289  1.00  0.00     0.006 C 
ATOM     82  C   UNL     1      10.106   7.294  -5.621  1.00  0.00     0.005 C 
BRANCH  76  83
ATOM     83  C   UNL     1      10.860   5.237  -1.056  1.00  0.00     0.254 C 
ATOM     84  O   UNL     1      10.864   5.191   0.186  1.00  0.00    -0.269 OA
ATOM     85  N   UNL     1      11.162   4.013  -1.565  1.00  0.00    -0.349 N 
ATOM     86  H   UNL     1      11.384   3.415  -0.815  1.00  0.00     0.164 HD
BRANCH  85  87
ATOM     87  C   UNL     1      11.280   3.252  -2.802  1.00  0.00     0.082 C 
ATOM     88  C   UNL     1       9.916   2.816  -3.332  1.00  0.00     0.025 C 
ATOM     89  C   UNL     1      12.321   3.785  -3.779  1.00  0.00     0.025 C 
ATOM     90  C   UNL     1      10.033   2.135  -4.685  1.00  0.00     0.002 C 
ATOM     91  C   UNL     1      12.108   3.438  -5.258  1.00  0.00     0.002 C 
ATOM     92  C   UNL     1      10.684   3.080  -5.677  1.00  0.00     0.000 C 
ENDBRANCH  85  87
ENDBRANCH  76  83
ENDBRANCH  72  74
ENDBRANCH  65  70
ENDBRANCH  60  63
ENDBRANCH  58  59
ENDBRANCH   1  58
TORSDOF 15
