REMARK SMILES CC(C)(C)OC(=O)N[C@@H](CC(=O)NCCCCNC(=O)c1ccc(-c2c3nc(c(-c4ccccc4)c4ccc([nH]4)c(-c4ccccc4)c4nc(c(-c5ccccc5)c5ccc2[nH]5)C=C4)C=C3)cc1)c1cccnc1
REMARK SMILES IDX 14 1 13 2 11 3 12 4 10 6 9 7 8 8 6 9 7 10 5 12 2 13 1 14
REMARK SMILES IDX 3 15 4 16 69 17 70 18 74 19 71 20 73 21 72 22 15 23 16 24
REMARK SMILES IDX 17 25 18 26 19 27 20 29 21 30 22 31 68 32 23 33 67 34 24 35
REMARK SMILES IDX 25 36 26 37 61 38 27 39 66 40 60 41 62 42 28 43 65 44 59 45
REMARK SMILES IDX 58 46 29 48 51 49 36 50 50 51 37 52 40 53 49 54 63 55 38 56
REMARK SMILES IDX 39 57 48 59 64 60 41 61 30 62 31 63 35 64 32 65 34 66 33 67
REMARK SMILES IDX 52 68 53 69 57 70 54 71 56 72 55 73 42 74 43 75 47 76 44 77
REMARK SMILES IDX 46 78 45 79
REMARK H PARENT 13 5 8 11 18 28 62 47 40 58
REMARK Flexibility Score: inf
ROOT
ATOM      1  C   UNL     1       1.709  -6.135  -2.441  1.00  0.00     0.116 C 
ENDROOT
BRANCH   1   2
ATOM      2  N   UNL     1       2.457  -6.096  -3.680  1.00  0.00    -0.356 N 
ATOM      3  C   UNL     1       3.030  -5.037  -4.317  1.00  0.00     0.222 C 
ATOM      4  O   UNL     1       3.615  -5.263  -5.378  1.00  0.00    -0.275 OA
ATOM      5  H   UNL     1       2.567  -6.965  -4.130  1.00  0.00     0.163 HD
BRANCH   3   6
ATOM      6  C   UNL     1       2.974  -3.633  -3.739  1.00  0.00     0.130 C 
BRANCH   6   7
ATOM      7  C   UNL     1       1.694  -2.799  -3.961  1.00  0.00     0.126 C 
BRANCH   7   8
ATOM      8  N   UNL     1       0.587  -3.202  -3.111  1.00  0.00    -0.314 N 
ATOM      9  C   UNL     1       0.263  -2.865  -1.840  1.00  0.00     0.408 C 
ATOM     10  O   UNL     1      -0.600  -3.507  -1.255  1.00  0.00    -0.225 OA
ATOM     11  H   UNL     1      -0.039  -3.833  -3.534  1.00  0.00     0.167 HD
BRANCH   9  12
ATOM     12  O   UNL     1       0.919  -1.790  -1.353  1.00  0.00    -0.444 OA
BRANCH  12  13
ATOM     13  C   UNL     1       0.493  -1.246  -0.071  1.00  0.00     0.106 C 
ATOM     14  C   UNL     1       1.156   0.135   0.025  1.00  0.00     0.056 C 
ATOM     15  C   UNL     1       1.003  -2.130   1.072  1.00  0.00     0.056 C 
ATOM     16  C   UNL     1      -1.031  -1.036   0.017  1.00  0.00     0.056 C 
ENDBRANCH  12  13
ENDBRANCH   9  12
ENDBRANCH   7   8
BRANCH   7  17
ATOM     17  C   UNL     1       1.179  -2.741  -5.386  1.00  0.00    -0.007 A 
ATOM     18  C   UNL     1       0.710  -3.868  -6.078  1.00  0.00     0.009 A 
ATOM     19  C   UNL     1       1.022  -1.513  -6.024  1.00  0.00     0.116 A 
ATOM     20  C   UNL     1       0.123  -3.732  -7.332  1.00  0.00     0.020 A 
ATOM     21  N   UNL     1       0.454  -1.349  -7.241  1.00  0.00    -0.264 NA
ATOM     22  C   UNL     1       0.014  -2.462  -7.865  1.00  0.00     0.111 A 
ENDBRANCH   7  17
ENDBRANCH   6   7
ENDBRANCH   3   6
ENDBRANCH   1   2
BRANCH   1  23
ATOM     23  C   UNL     1       0.212  -6.295  -2.702  1.00  0.00     0.023 C 
BRANCH  23  24
ATOM     24  C   UNL     1      -0.260  -7.697  -3.045  1.00  0.00     0.023 C 
BRANCH  24  25
ATOM     25  C   UNL     1       0.009  -8.731  -1.972  1.00  0.00     0.116 C 
BRANCH  25  26
ATOM     26  N   UNL     1      -0.537  -8.389  -0.664  1.00  0.00    -0.352 N 
ATOM     27  C   UNL     1      -1.174  -9.219   0.231  1.00  0.00     0.251 C 
ATOM     28  H   UNL     1      -0.438  -7.450  -0.387  1.00  0.00     0.163 HD
ATOM     29  O   UNL     1      -1.647  -8.790   1.276  1.00  0.00    -0.269 OA
BRANCH  27  30
ATOM     30  C   UNL     1      -1.320 -10.641  -0.130  1.00  0.00     0.039 A 
ATOM     31  C   UNL     1      -2.595 -11.209  -0.147  1.00  0.00     0.014 A 
ATOM     32  C   UNL     1      -0.211 -11.354  -0.587  1.00  0.00     0.014 A 
ATOM     33  C   UNL     1      -2.771 -12.470  -0.717  1.00  0.00     0.010 A 
ATOM     34  C   UNL     1      -0.406 -12.555  -1.250  1.00  0.00     0.010 A 
ATOM     35  C   UNL     1      -1.687 -13.126  -1.320  1.00  0.00    -0.014 A 
BRANCH  35  36
ATOM     36  C   UNL     1      -1.843 -14.424  -2.021  1.00  0.00     0.031 A 
ATOM     37  C   UNL     1      -1.069 -15.617  -1.534  1.00  0.00     0.074 A 
ATOM     38  C   UNL     1      -2.587 -14.506  -3.140  1.00  0.00     0.049 A 
ATOM     39  N   UNL     1      -0.938 -16.798  -2.081  1.00  0.00    -0.248 NA
ATOM     40  C   UNL     1      -0.304 -15.442  -0.288  1.00  0.00     0.031 C 
ATOM     41  C   UNL     1      -3.356 -13.412  -3.739  1.00  0.00     0.029 A 
ATOM     42  N   UNL     1      -2.806 -15.565  -3.985  1.00  0.00    -0.354 N 
ATOM     43  C   UNL     1      -0.050 -17.488  -1.266  1.00  0.00     0.074 A 
ATOM     44  C   UNL     1       0.371 -16.578  -0.226  1.00  0.00     0.031 C 
ATOM     45  C   UNL     1      -3.988 -13.867  -4.833  1.00  0.00     0.029 A 
ATOM     46  C   UNL     1      -3.631 -15.266  -5.042  1.00  0.00     0.049 A 
ATOM     47  H   UNL     1      -2.410 -16.456  -3.846  1.00  0.00     0.167 HD
ATOM     48  C   UNL     1       0.361 -18.774  -1.360  1.00  0.00     0.031 A 
ATOM     49  C   UNL     1      -4.046 -16.033  -6.067  1.00  0.00     0.031 A 
ATOM     50  C   UNL     1      -0.080 -19.686  -2.378  1.00  0.00     0.049 A 
ATOM     51  C   UNL     1      -3.577 -17.459  -6.152  1.00  0.00     0.074 A 
ATOM     52  C   UNL     1       0.228 -21.026  -2.530  1.00  0.00     0.029 A 
ATOM     53  N   UNL     1      -0.934 -19.348  -3.418  1.00  0.00    -0.354 N 
ATOM     54  N   UNL     1      -2.776 -18.114  -5.348  1.00  0.00    -0.248 NA
ATOM     55  C   UNL     1      -4.075 -18.251  -7.285  1.00  0.00     0.031 C 
ATOM     56  C   UNL     1      -0.407 -21.489  -3.687  1.00  0.00     0.029 A 
ATOM     57  C   UNL     1      -1.152 -20.451  -4.224  1.00  0.00     0.049 A 
ATOM     58  H   UNL     1      -1.326 -18.457  -3.560  1.00  0.00     0.167 HD
ATOM     59  C   UNL     1      -2.700 -19.404  -5.857  1.00  0.00     0.074 A 
ATOM     60  C   UNL     1      -3.543 -19.439  -7.035  1.00  0.00     0.031 C 
ATOM     61  C   UNL     1      -1.999 -20.465  -5.389  1.00  0.00     0.031 A 
BRANCH  48  62
ATOM     62  C   UNL     1       1.343 -19.255  -0.328  1.00  0.00    -0.014 A 
ATOM     63  C   UNL     1       0.970 -19.407   1.018  1.00  0.00     0.009 A 
ATOM     64  C   UNL     1       2.661 -19.553  -0.704  1.00  0.00     0.009 A 
ATOM     65  C   UNL     1       1.910 -19.798   1.973  1.00  0.00     0.001 A 
ATOM     66  C   UNL     1       3.590 -19.977   0.248  1.00  0.00     0.001 A 
ATOM     67  C   UNL     1       3.218 -20.086   1.587  1.00  0.00     0.000 A 
ENDBRANCH  48  62
BRANCH  49  68
ATOM     68  C   UNL     1      -4.982 -15.480  -7.081  1.00  0.00    -0.014 A 
ATOM     69  C   UNL     1      -6.321 -15.899  -7.108  1.00  0.00     0.009 A 
ATOM     70  C   UNL     1      -4.548 -14.533  -8.021  1.00  0.00     0.009 A 
ATOM     71  C   UNL     1      -7.201 -15.399  -8.070  1.00  0.00     0.001 A 
ATOM     72  C   UNL     1      -5.438 -14.015  -8.966  1.00  0.00     0.001 A 
ATOM     73  C   UNL     1      -6.761 -14.454  -8.995  1.00  0.00     0.000 A 
ENDBRANCH  49  68
BRANCH  61  74
ATOM     74  C   UNL     1      -2.149 -21.766  -6.125  1.00  0.00    -0.014 A 
ATOM     75  C   UNL     1      -1.551 -21.971  -7.377  1.00  0.00     0.009 A 
ATOM     76  C   UNL     1      -2.861 -22.819  -5.527  1.00  0.00     0.009 A 
ATOM     77  C   UNL     1      -1.687 -23.198  -8.029  1.00  0.00     0.001 A 
ATOM     78  C   UNL     1      -2.972 -24.052  -6.169  1.00  0.00     0.001 A 
ATOM     79  C   UNL     1      -2.392 -24.238  -7.423  1.00  0.00     0.000 A 
ENDBRANCH  61  74
ENDBRANCH  35  36
ENDBRANCH  27  30
ENDBRANCH  25  26
ENDBRANCH  24  25
ENDBRANCH  23  24
ENDBRANCH   1  23
TORSDOF 16
