REMARK SMILES CC(C)[N@@H+](Cc1cccs1)[C@@H](C)c1ccc(C(=O)NCCCCNC(=O)c2ccc(-c3c4nc(c(-c5ccccc5)c5ccc([nH]5)c(-c5ccccc5)c5nc(c(-c6ccccc6)c6ccc3[nH]6)C=C5)C=C4)cc2)o1
REMARK SMILES IDX 20 1 19 2 17 3 18 4 16 6 13 7 14 8 75 9 15 10 11 11 12 12
REMARK SMILES IDX 4 13 2 15 1 16 3 17 5 18 6 19 7 20 10 21 8 22 9 23 21 24
REMARK SMILES IDX 22 25 23 26 24 27 25 28 26 30 27 31 28 32 74 33 29 34 73 35
REMARK SMILES IDX 30 36 31 37 32 38 67 39 33 40 72 41 66 42 68 43 34 44 71 45
REMARK SMILES IDX 65 46 64 47 35 49 57 50 42 51 56 52 43 53 46 54 55 55 69 56
REMARK SMILES IDX 44 57 45 58 54 60 70 61 47 62 36 63 37 64 41 65 38 66 40 67
REMARK SMILES IDX 39 68 58 69 59 70 63 71 60 72 62 73 61 74 48 75 49 76 53 77
REMARK SMILES IDX 50 78 52 79 51 80
REMARK H PARENT 19 5 4 14 24 29 68 48 46 59
REMARK Flexibility Score: inf
ROOT
ATOM      1  C   UNL     1       0.432   1.122   5.429  1.00  0.00     0.116 C 
ENDROOT
BRANCH   1   2
ATOM      2  N   UNL     1       0.517  -0.314   5.325  1.00  0.00    -0.349 N 
ATOM      3  C   UNL     1       0.026  -1.163   4.365  1.00  0.00     0.287 C 
ATOM      4  O   UNL     1       0.271  -2.360   4.544  1.00  0.00    -0.266 OA
ATOM      5  H   UNL     1       1.005  -0.754   6.058  1.00  0.00     0.163 HD
BRANCH   3   6
ATOM      6  C   UNL     1      -0.690  -0.667   3.205  1.00  0.00     0.191 A 
ATOM      7  C   UNL     1      -1.337  -0.908   1.095  1.00  0.00     0.162 A 
ATOM      8  C   UNL     1      -1.791   0.329   1.498  1.00  0.00     0.053 A 
ATOM      9  O   UNL     1      -0.709  -1.516   2.135  1.00  0.00    -0.450 OA
ATOM     10  C   UNL     1      -1.382   0.480   2.852  1.00  0.00     0.057 A 
BRANCH   7  11
ATOM     11  C   UNL     1      -1.369  -1.672  -0.203  1.00  0.00     0.248 C 
ATOM     12  C   UNL     1      -0.921  -3.127   0.020  1.00  0.00     0.084 C 
BRANCH  11  13
ATOM     13  N   UNL     1      -0.714  -0.921  -1.290  1.00  0.00    -0.320 N 
ATOM     14  H   UNL     1      -0.932   0.006  -0.924  1.00  0.00     0.349 HD
BRANCH  13  15
ATOM     15  C   UNL     1       0.738  -0.681  -1.316  1.00  0.00     0.178 C 
ATOM     16  C   UNL     1       1.192   0.319  -0.241  1.00  0.00     0.075 C 
ATOM     17  C   UNL     1       1.669  -1.895  -1.254  1.00  0.00     0.075 C 
ENDBRANCH  13  15
BRANCH  13  18
ATOM     18  C   UNL     1      -1.362  -1.060  -2.609  1.00  0.00     0.310 C 
BRANCH  18  19
ATOM     19  C   UNL     1      -1.104  -2.359  -3.322  1.00  0.00     0.059 A 
ATOM     20  C   UNL     1      -0.021  -2.706  -4.109  1.00  0.00     0.021 A 
ATOM     21  S   UNL     1      -2.253  -3.637  -3.273  1.00  0.00    -0.143 S 
ATOM     22  C   UNL     1      -0.012  -4.094  -4.431  1.00  0.00     0.012 A 
ATOM     23  C   UNL     1      -1.147  -4.731  -3.985  1.00  0.00     0.065 A 
ENDBRANCH  18  19
ENDBRANCH  13  18
ENDBRANCH  11  13
ENDBRANCH   7  11
ENDBRANCH   3   6
ENDBRANCH   1   2
BRANCH   1  24
ATOM     24  C   UNL     1      -0.769   1.523   6.281  1.00  0.00     0.023 C 
BRANCH  24  25
ATOM     25  C   UNL     1      -0.552   1.325   7.785  1.00  0.00     0.023 C 
BRANCH  25  26
ATOM     26  C   UNL     1       0.633   2.089   8.369  1.00  0.00     0.116 C 
BRANCH  26  27
ATOM     27  N   UNL     1       0.597   3.512   8.072  1.00  0.00    -0.352 N 
ATOM     28  C   UNL     1       1.002   4.565   8.853  1.00  0.00     0.251 C 
ATOM     29  H   UNL     1       0.231   3.753   7.190  1.00  0.00     0.163 HD
ATOM     30  O   UNL     1       0.787   5.719   8.496  1.00  0.00    -0.269 OA
BRANCH  28  31
ATOM     31  C   UNL     1       1.665   4.298  10.144  1.00  0.00     0.039 A 
ATOM     32  C   UNL     1       1.230   4.991  11.275  1.00  0.00     0.014 A 
ATOM     33  C   UNL     1       2.693   3.357  10.241  1.00  0.00     0.014 A 
ATOM     34  C   UNL     1       1.790   4.696  12.518  1.00  0.00     0.010 A 
ATOM     35  C   UNL     1       3.194   3.009  11.490  1.00  0.00     0.010 A 
ATOM     36  C   UNL     1       2.752   3.679  12.640  1.00  0.00    -0.014 A 
BRANCH  36  37
ATOM     37  C   UNL     1       3.299   3.308  13.968  1.00  0.00     0.031 A 
ATOM     38  C   UNL     1       4.758   3.508  14.272  1.00  0.00     0.074 A 
ATOM     39  C   UNL     1       2.487   2.750  14.887  1.00  0.00     0.049 A 
ATOM     40  N   UNL     1       5.414   3.242  15.373  1.00  0.00    -0.248 NA
ATOM     41  C   UNL     1       5.595   4.055  13.192  1.00  0.00     0.031 C 
ATOM     42  C   UNL     1       1.064   2.458  14.696  1.00  0.00     0.029 A 
ATOM     43  N   UNL     1       2.743   2.331  16.168  1.00  0.00    -0.354 N 
ATOM     44  C   UNL     1       6.737   3.577  15.114  1.00  0.00     0.074 A 
ATOM     45  C   UNL     1       6.802   4.011  13.736  1.00  0.00     0.031 C 
ATOM     46  C   UNL     1       0.565   1.944  15.832  1.00  0.00     0.029 A 
ATOM     47  C   UNL     1       1.637   1.833  16.815  1.00  0.00     0.049 A 
ATOM     48  H   UNL     1       3.633   2.382  16.585  1.00  0.00     0.167 HD
ATOM     49  C   UNL     1       7.800   3.549  15.953  1.00  0.00     0.031 A 
ATOM     50  C   UNL     1       1.502   1.343  18.061  1.00  0.00     0.031 A 
ATOM     51  C   UNL     1       7.733   3.122  17.325  1.00  0.00     0.049 A 
ATOM     52  C   UNL     1       2.699   1.314  18.970  1.00  0.00     0.074 A 
ATOM     53  C   UNL     1       8.741   3.110  18.274  1.00  0.00     0.029 A 
ATOM     54  N   UNL     1       6.596   2.626  17.943  1.00  0.00    -0.354 N 
ATOM     55  N   UNL     1       3.926   1.712  18.735  1.00  0.00    -0.248 NA
ATOM     56  C   UNL     1       2.486   0.782  20.324  1.00  0.00     0.031 C 
ATOM     57  C   UNL     1       8.227   2.553  19.449  1.00  0.00     0.029 A 
ATOM     58  C   UNL     1       6.883   2.279  19.253  1.00  0.00     0.049 A 
ATOM     59  H   UNL     1       5.714   2.534  17.514  1.00  0.00     0.167 HD
ATOM     60  C   UNL     1       4.624   1.505  19.918  1.00  0.00     0.074 A 
ATOM     61  C   UNL     1       3.678   0.967  20.874  1.00  0.00     0.031 C 
ATOM     62  C   UNL     1       5.931   1.740  20.190  1.00  0.00     0.031 A 
BRANCH  49  63
ATOM     63  C   UNL     1       9.129   3.987  15.403  1.00  0.00    -0.014 A 
ATOM     64  C   UNL     1       9.373   5.330  15.069  1.00  0.00     0.009 A 
ATOM     65  C   UNL     1      10.164   3.052  15.248  1.00  0.00     0.009 A 
ATOM     66  C   UNL     1      10.613   5.718  14.556  1.00  0.00     0.001 A 
ATOM     67  C   UNL     1      11.413   3.449  14.765  1.00  0.00     0.001 A 
ATOM     68  C   UNL     1      11.633   4.779  14.410  1.00  0.00     0.000 A 
ENDBRANCH  49  63
BRANCH  50  69
ATOM     69  C   UNL     1       0.178   0.859  18.534  1.00  0.00    -0.014 A 
ATOM     70  C   UNL     1      -0.530   1.563  19.520  1.00  0.00     0.009 A 
ATOM     71  C   UNL     1      -0.380  -0.317  18.009  1.00  0.00     0.009 A 
ATOM     72  C   UNL     1      -1.753   1.082  19.993  1.00  0.00     0.001 A 
ATOM     73  C   UNL     1      -1.618  -0.778  18.460  1.00  0.00     0.001 A 
ATOM     74  C   UNL     1      -2.298  -0.084  19.460  1.00  0.00     0.000 A 
ENDBRANCH  50  69
BRANCH  62  75
ATOM     75  C   UNL     1       6.404   1.450  21.587  1.00  0.00    -0.014 A 
ATOM     76  C   UNL     1       6.526   0.134  22.060  1.00  0.00     0.009 A 
ATOM     77  C   UNL     1       6.761   2.512  22.433  1.00  0.00     0.009 A 
ATOM     78  C   UNL     1       6.957  -0.110  23.366  1.00  0.00     0.001 A 
ATOM     79  C   UNL     1       7.223   2.264  23.726  1.00  0.00     0.001 A 
ATOM     80  C   UNL     1       7.309   0.954  24.195  1.00  0.00     0.000 A 
ENDBRANCH  62  75
ENDBRANCH  36  37
ENDBRANCH  28  31
ENDBRANCH  26  27
ENDBRANCH  25  26
ENDBRANCH  24  25
ENDBRANCH   1  24
TORSDOF 16
