REMARK SMILES Cc1ccc(S(=O)(=O)n2cc(C(=O)C(=O)NCC(=O)NCC(=O)NCCCCNC(=O)c3ccc(-c4c5nc(c(-c6ccccc6)c6ccc([nH]6)c(-c6ccccc6)c6nc(c(-c7ccccc7)c7ccc4[nH]7)C=C6)C=C5)cc3)c3ccccc32)cc1
REMARK SMILES IDX 22 1 23 2 24 3 21 5 20 6 18 7 19 8 17 10 16 11 14 12 15 13
REMARK SMILES IDX 12 15 13 16 11 17 9 18 10 19 85 20 80 21 84 22 81 23 83 24
REMARK SMILES IDX 82 25 6 26 7 27 8 28 5 29 1 30 2 31 3 32 87 33 4 34 86 35
REMARK SMILES IDX 25 36 26 37 27 38 28 39 29 40 30 41 31 43 32 44 33 45 79 46
REMARK SMILES IDX 34 47 78 48 35 49 36 50 37 51 72 52 38 53 77 54 71 55 73 56
REMARK SMILES IDX 39 57 76 58 70 59 69 60 40 62 62 63 47 64 61 65 48 66 51 67
REMARK SMILES IDX 60 68 74 69 49 70 50 71 59 73 75 74 52 75 41 76 42 77 46 78
REMARK SMILES IDX 43 79 45 80 44 81 63 82 64 83 68 84 65 85 67 86 66 87 53 88
REMARK SMILES IDX 54 89 58 90 55 91 57 92 56 93
REMARK H PARENT 24 4 20 9 16 14 29 42 73 61 51 72
REMARK Flexibility Score: inf
ROOT
ATOM      1  C   UNL     1     -10.134   3.441   1.200  1.00  0.00     0.239 C 
ATOM      2  O   UNL     1     -10.439   2.729   0.239  1.00  0.00    -0.273 OA
ATOM      3  N   UNL     1     -10.295   2.913   2.450  1.00  0.00    -0.355 N 
ATOM      4  H   UNL     1     -10.827   2.086   2.494  1.00  0.00     0.163 HD
ENDROOT
BRANCH   1   5
ATOM      5  C   UNL     1      -9.437   4.796   0.980  1.00  0.00     0.216 C 
BRANCH   5   6
ATOM      6  N   UNL     1      -9.881   5.852   1.874  1.00  0.00    -0.346 N 
ATOM      7  C   UNL     1      -9.195   6.649   2.738  1.00  0.00     0.239 C 
ATOM      8  O   UNL     1      -9.854   7.429   3.431  1.00  0.00    -0.273 OA
ATOM      9  H   UNL     1     -10.851   6.021   1.851  1.00  0.00     0.164 HD
BRANCH   7  10
ATOM     10  C   UNL     1      -7.660   6.626   2.837  1.00  0.00     0.216 C 
BRANCH  10  11
ATOM     11  N   UNL     1      -7.092   5.382   3.357  1.00  0.00    -0.340 N 
ATOM     12  C   UNL     1      -6.330   4.400   2.755  1.00  0.00     0.292 C 
ATOM     13  O   UNL     1      -6.146   3.352   3.364  1.00  0.00    -0.265 OA
ATOM     14  H   UNL     1      -7.288   5.215   4.307  1.00  0.00     0.164 HD
BRANCH  12  15
ATOM     15  C   UNL     1      -5.734   4.617   1.347  1.00  0.00     0.252 C 
ATOM     16  O   UNL     1      -5.838   5.742   0.866  1.00  0.00    -0.283 OA
BRANCH  15  17
ATOM     17  C   UNL     1      -5.063   3.562   0.578  1.00  0.00     0.054 A 
ATOM     18  N   UNL     1      -4.157   1.640  -0.114  1.00  0.00    -0.240 N 
ATOM     19  C   UNL     1      -4.854   2.235   0.912  1.00  0.00     0.117 A 
ATOM     20  C   UNL     1      -3.903   2.534  -1.133  1.00  0.00     0.065 A 
ATOM     21  C   UNL     1      -4.458   3.751  -0.719  1.00  0.00     0.012 A 
ATOM     22  C   UNL     1      -3.215   2.416  -2.356  1.00  0.00     0.028 A 
ATOM     23  C   UNL     1      -4.325   4.874  -1.567  1.00  0.00     0.011 A 
ATOM     24  C   UNL     1      -3.078   3.554  -3.155  1.00  0.00     0.002 A 
ATOM     25  C   UNL     1      -3.628   4.768  -2.770  1.00  0.00     0.001 A 
BRANCH  18  26
ATOM     26  S   UNL     1      -3.591   0.031  -0.076  1.00  0.00     0.268 S 
ATOM     27  O   UNL     1      -3.934  -0.522  -1.367  1.00  0.00    -0.201 OA
ATOM     28  O   UNL     1      -4.096  -0.534   1.165  1.00  0.00    -0.201 OA
BRANCH  26  29
ATOM     29  C   UNL     1      -1.821   0.075   0.043  1.00  0.00     0.088 A 
ATOM     30  C   UNL     1       2.482  -0.051   0.025  1.00  0.00     0.044 C 
ATOM     31  C   UNL     1       0.982  -0.002   0.051  1.00  0.00    -0.051 A 
ATOM     32  C   UNL     1       0.243  -1.190  -0.014  1.00  0.00     0.005 A 
ATOM     33  C   UNL     1       0.304   1.220   0.142  1.00  0.00     0.005 A 
ATOM     34  C   UNL     1      -1.153  -1.153  -0.024  1.00  0.00     0.022 A 
ATOM     35  C   UNL     1      -1.093   1.262   0.152  1.00  0.00     0.022 A 
ENDBRANCH  26  29
ENDBRANCH  18  26
ENDBRANCH  15  17
ENDBRANCH  12  15
ENDBRANCH  10  11
ENDBRANCH   7  10
ENDBRANCH   5   6
ENDBRANCH   1   5
BRANCH   3  36
ATOM     36  C   UNL     1      -9.796   3.397   3.719  1.00  0.00     0.116 C 
BRANCH  36  37
ATOM     37  C   UNL     1     -10.863   4.026   4.616  1.00  0.00     0.023 C 
BRANCH  37  38
ATOM     38  C   UNL     1     -11.863   3.029   5.191  1.00  0.00     0.023 C 
BRANCH  38  39
ATOM     39  C   UNL     1     -11.254   2.020   6.153  1.00  0.00     0.116 C 
BRANCH  39  40
ATOM     40  N   UNL     1     -11.243   2.402   7.558  1.00  0.00    -0.352 N 
ATOM     41  C   UNL     1     -10.805   1.680   8.660  1.00  0.00     0.251 C 
ATOM     42  H   UNL     1     -11.598   3.299   7.755  1.00  0.00     0.163 HD
ATOM     43  O   UNL     1     -10.953   2.147   9.787  1.00  0.00    -0.269 OA
BRANCH  41  44
ATOM     44  C   UNL     1      -9.995   0.443   8.478  1.00  0.00     0.039 A 
ATOM     45  C   UNL     1      -8.877   0.288   9.308  1.00  0.00     0.014 A 
ATOM     46  C   UNL     1     -10.102  -0.314   7.320  1.00  0.00     0.014 A 
ATOM     47  C   UNL     1      -7.736  -0.313   8.794  1.00  0.00     0.010 A 
ATOM     48  C   UNL     1      -8.946  -0.757   6.738  1.00  0.00     0.010 A 
ATOM     49  C   UNL     1      -7.756  -0.685   7.455  1.00  0.00    -0.014 A 
BRANCH  49  50
ATOM     50  C   UNL     1      -6.591  -1.083   6.700  1.00  0.00     0.031 A 
ATOM     51  C   UNL     1      -6.282  -2.515   6.693  1.00  0.00     0.074 A 
ATOM     52  C   UNL     1      -5.958  -0.150   5.958  1.00  0.00     0.049 A 
ATOM     53  N   UNL     1      -5.101  -3.006   6.608  1.00  0.00    -0.248 NA
ATOM     54  C   UNL     1      -7.318  -3.534   6.872  1.00  0.00     0.031 C 
ATOM     55  C   UNL     1      -4.919  -0.324   4.952  1.00  0.00     0.029 A 
ATOM     56  N   UNL     1      -6.029   1.238   6.136  1.00  0.00    -0.354 N 
ATOM     57  C   UNL     1      -5.253  -4.353   6.363  1.00  0.00     0.074 A 
ATOM     58  C   UNL     1      -6.620  -4.658   6.696  1.00  0.00     0.031 C 
ATOM     59  C   UNL     1      -4.232   0.831   4.842  1.00  0.00     0.029 A 
ATOM     60  C   UNL     1      -4.740   1.738   5.862  1.00  0.00     0.049 A 
ATOM     61  H   UNL     1      -6.822   1.759   6.401  1.00  0.00     0.167 HD
ATOM     62  C   UNL     1      -4.259  -5.009   5.705  1.00  0.00     0.031 A 
ATOM     63  C   UNL     1      -3.999   2.293   6.867  1.00  0.00     0.031 A 
ATOM     64  C   UNL     1      -3.157  -4.090   5.426  1.00  0.00     0.049 A 
ATOM     65  C   UNL     1      -2.788   1.448   7.181  1.00  0.00     0.074 A 
ATOM     66  C   UNL     1      -2.866  -3.326   4.307  1.00  0.00     0.029 A 
ATOM     67  N   UNL     1      -2.457  -3.528   6.487  1.00  0.00    -0.354 N 
ATOM     68  N   UNL     1      -2.716   0.165   6.946  1.00  0.00    -0.248 NA
ATOM     69  C   UNL     1      -1.552   1.985   7.742  1.00  0.00     0.031 C 
ATOM     70  C   UNL     1      -2.062  -2.234   4.730  1.00  0.00     0.029 A 
ATOM     71  C   UNL     1      -1.839  -2.356   6.092  1.00  0.00     0.049 A 
ATOM     72  H   UNL     1      -2.408  -3.911   7.393  1.00  0.00     0.167 HD
ATOM     73  C   UNL     1      -1.461  -0.284   7.252  1.00  0.00     0.074 A 
ATOM     74  C   UNL     1      -0.773   0.889   7.762  1.00  0.00     0.031 C 
ATOM     75  C   UNL     1      -1.066  -1.575   7.047  1.00  0.00     0.031 A 
BRANCH  62  76
ATOM     76  C   UNL     1      -4.414  -6.349   5.032  1.00  0.00    -0.014 A 
ATOM     77  C   UNL     1      -3.527  -6.686   3.991  1.00  0.00     0.009 A 
ATOM     78  C   UNL     1      -5.404  -7.301   5.327  1.00  0.00     0.009 A 
ATOM     79  C   UNL     1      -3.655  -7.871   3.256  1.00  0.00     0.001 A 
ATOM     80  C   UNL     1      -5.553  -8.479   4.580  1.00  0.00     0.001 A 
ATOM     81  C   UNL     1      -4.679  -8.763   3.541  1.00  0.00     0.000 A 
ENDBRANCH  62  76
BRANCH  63  82
ATOM     82  C   UNL     1      -4.846   3.024   7.861  1.00  0.00    -0.014 A 
ATOM     83  C   UNL     1      -5.566   4.150   7.398  1.00  0.00     0.009 A 
ATOM     84  C   UNL     1      -5.280   2.398   9.036  1.00  0.00     0.009 A 
ATOM     85  C   UNL     1      -6.786   4.512   7.979  1.00  0.00     0.001 A 
ATOM     86  C   UNL     1      -6.487   2.790   9.634  1.00  0.00     0.001 A 
ATOM     87  C   UNL     1      -7.267   3.801   9.072  1.00  0.00     0.000 A 
ENDBRANCH  63  82
BRANCH  75  88
ATOM     88  C   UNL     1       0.154  -2.208   7.666  1.00  0.00    -0.014 A 
ATOM     89  C   UNL     1       0.797  -1.706   8.804  1.00  0.00     0.009 A 
ATOM     90  C   UNL     1       0.604  -3.456   7.182  1.00  0.00     0.009 A 
ATOM     91  C   UNL     1       1.884  -2.374   9.379  1.00  0.00     0.001 A 
ATOM     92  C   UNL     1       1.642  -4.160   7.793  1.00  0.00     0.001 A 
ATOM     93  C   UNL     1       2.299  -3.604   8.880  1.00  0.00     0.000 A 
ENDBRANCH  75  88
ENDBRANCH  49  50
ENDBRANCH  41  44
ENDBRANCH  39  40
ENDBRANCH  38  39
ENDBRANCH  37  38
ENDBRANCH  36  37
ENDBRANCH   3  36
TORSDOF 18
