REMARK SMILES CC(C)(C)c1ccc(CSc2ccnc(C(=O)NCCCCNC(=O)c3ccc(-c4c5nc(c(-c6ccccc6)c6ccc([nH]6)c(-c6ccccc6)c6nc(c(-c7ccccc7)c7ccc4[nH]7)C=C6)C=C5)cc3)c2)cc1
REMARK SMILES IDX 19 1 18 2 16 3 17 4 15 6 11 7 12 8 74 9 13 10 14 11 10 12
REMARK SMILES IDX 9 13 8 14 5 15 6 16 76 17 7 18 75 19 2 20 1 21 3 22 4 23
REMARK SMILES IDX 20 24 21 25 22 26 23 27 24 28 25 30 26 31 27 32 73 33 28 34
REMARK SMILES IDX 72 35 29 36 30 37 31 38 66 39 32 40 71 41 65 42 67 43 33 44
REMARK SMILES IDX 70 45 64 46 63 47 34 49 56 50 41 51 55 52 42 53 45 54 54 55
REMARK SMILES IDX 68 56 43 57 44 58 53 60 69 61 46 62 35 63 36 64 40 65 37 66
REMARK SMILES IDX 39 67 38 68 57 69 58 70 62 71 59 72 61 73 60 74 47 75 48 76
REMARK SMILES IDX 52 77 49 78 51 79 50 80
REMARK H PARENT 18 5 23 29 67 48 45 59
REMARK Flexibility Score: inf
ROOT
ATOM      1  C   UNL     1       2.588   2.076   1.840  1.00  0.00     0.116 C 
ENDROOT
BRANCH   1   2
ATOM      2  N   UNL     1       2.126   2.616   3.100  1.00  0.00    -0.351 N 
ATOM      3  C   UNL     1       1.835   3.892   3.531  1.00  0.00     0.269 C 
ATOM      4  O   UNL     1       1.371   3.967   4.672  1.00  0.00    -0.268 OA
ATOM      5  H   UNL     1       1.990   1.930   3.792  1.00  0.00     0.163 HD
BRANCH   3   6
ATOM      6  C   UNL     1       2.031   5.149   2.716  1.00  0.00     0.129 A 
ATOM      7  C   UNL     1       2.815   6.437   0.851  1.00  0.00     0.011 A 
ATOM      8  C   UNL     1       2.233   7.571   1.401  1.00  0.00     0.035 A 
ATOM      9  C   UNL     1       2.759   5.226   1.542  1.00  0.00     0.049 A 
ATOM     10  C   UNL     1       1.572   7.430   2.604  1.00  0.00     0.113 A 
ATOM     11  N   UNL     1       1.441   6.254   3.251  1.00  0.00    -0.251 NA
BRANCH   7  12
ATOM     12  S   UNL     1       3.683   6.505  -0.706  1.00  0.00    -0.121 SA
BRANCH  12  13
ATOM     13  C   UNL     1       2.333   6.069  -1.856  1.00  0.00     0.110 C 
BRANCH  13  14
ATOM     14  C   UNL     1       1.807   4.657  -1.736  1.00  0.00    -0.038 A 
ATOM     15  C   UNL     1       0.724   2.008  -1.672  1.00  0.00    -0.043 A 
ATOM     16  C   UNL     1       2.082   2.244  -1.961  1.00  0.00     0.004 A 
ATOM     17  C   UNL     1      -0.064   3.134  -1.380  1.00  0.00     0.004 A 
ATOM     18  C   UNL     1       2.612   3.543  -2.002  1.00  0.00     0.005 A 
ATOM     19  C   UNL     1       0.464   4.432  -1.416  1.00  0.00     0.005 A 
BRANCH  15  20
ATOM     20  C   UNL     1       0.143   0.580  -1.640  1.00  0.00    -0.013 C 
ATOM     21  C   UNL     1       0.485  -0.056  -0.284  1.00  0.00     0.016 C 
ATOM     22  C   UNL     1       0.726  -0.309  -2.762  1.00  0.00     0.016 C 
ATOM     23  C   UNL     1      -1.395   0.536  -1.797  1.00  0.00     0.016 C 
ENDBRANCH  15  20
ENDBRANCH  13  14
ENDBRANCH  12  13
ENDBRANCH   7  12
ENDBRANCH   3   6
ENDBRANCH   1   2
BRANCH   1  24
ATOM     24  C   UNL     1       4.109   1.917   1.815  1.00  0.00     0.023 C 
BRANCH  24  25
ATOM     25  C   UNL     1       4.611   0.553   2.314  1.00  0.00     0.023 C 
BRANCH  25  26
ATOM     26  C   UNL     1       4.114  -0.660   1.525  1.00  0.00     0.116 C 
BRANCH  26  27
ATOM     27  N   UNL     1       4.338  -0.553   0.093  1.00  0.00    -0.352 N 
ATOM     28  C   UNL     1       4.286  -1.536  -0.862  1.00  0.00     0.251 C 
ATOM     29  H   UNL     1       4.557   0.348  -0.236  1.00  0.00     0.163 HD
ATOM     30  O   UNL     1       4.570  -1.273  -2.028  1.00  0.00    -0.269 OA
BRANCH  28  31
ATOM     31  C   UNL     1       3.935  -2.921  -0.486  1.00  0.00     0.039 A 
ATOM     32  C   UNL     1       4.764  -3.957  -0.924  1.00  0.00     0.014 A 
ATOM     33  C   UNL     1       2.799  -3.207   0.277  1.00  0.00     0.014 A 
ATOM     34  C   UNL     1       4.486  -5.273  -0.551  1.00  0.00     0.010 A 
ATOM     35  C   UNL     1       2.548  -4.514   0.688  1.00  0.00     0.010 A 
ATOM     36  C   UNL     1       3.391  -5.558   0.280  1.00  0.00    -0.014 A 
BRANCH  36  37
ATOM     37  C   UNL     1       3.134  -6.940   0.748  1.00  0.00     0.031 A 
ATOM     38  C   UNL     1       1.931  -7.700   0.267  1.00  0.00     0.074 A 
ATOM     39  C   UNL     1       3.966  -7.492   1.652  1.00  0.00     0.049 A 
ATOM     40  N   UNL     1       1.556  -8.920   0.560  1.00  0.00    -0.248 NA
ATOM     41  C   UNL     1       1.021  -6.993  -0.647  1.00  0.00     0.031 C 
ATOM     42  C   UNL     1       5.138  -6.835   2.235  1.00  0.00     0.029 A 
ATOM     43  N   UNL     1       3.951  -8.731   2.239  1.00  0.00    -0.354 N 
ATOM     44  C   UNL     1       0.366  -9.124  -0.126  1.00  0.00     0.074 A 
ATOM     45  C   UNL     1       0.057  -7.888  -0.812  1.00  0.00     0.031 C 
ATOM     46  C   UNL     1       5.744  -7.688   3.077  1.00  0.00     0.029 A 
ATOM     47  C   UNL     1       4.992  -8.938   3.111  1.00  0.00     0.049 A 
ATOM     48  H   UNL     1       3.260  -9.408   2.054  1.00  0.00     0.167 HD
ATOM     49  C   UNL     1      -0.391 -10.245  -0.195  1.00  0.00     0.031 A 
ATOM     50  C   UNL     1       5.309 -10.017   3.850  1.00  0.00     0.031 A 
ATOM     51  C   UNL     1      -0.083 -11.474   0.489  1.00  0.00     0.049 A 
ATOM     52  C   UNL     1       4.456 -11.250   3.753  1.00  0.00     0.074 A 
ATOM     53  C   UNL     1      -0.758 -12.681   0.441  1.00  0.00     0.029 A 
ATOM     54  N   UNL     1       0.988 -11.648   1.352  1.00  0.00    -0.354 N 
ATOM     55  N   UNL     1       3.380 -11.455   3.032  1.00  0.00    -0.248 NA
ATOM     56  C   UNL     1       4.874 -12.406   4.557  1.00  0.00     0.031 C 
ATOM     57  C   UNL     1      -0.120 -13.574   1.309  1.00  0.00     0.029 A 
ATOM     58  C   UNL     1       0.982 -12.938   1.858  1.00  0.00     0.049 A 
ATOM     59  H   UNL     1       1.654 -10.958   1.572  1.00  0.00     0.167 HD
ATOM     60  C   UNL     1       3.010 -12.772   3.273  1.00  0.00     0.074 A 
ATOM     61  C   UNL     1       3.985 -13.319   4.194  1.00  0.00     0.031 C 
ATOM     62  C   UNL     1       1.958 -13.466   2.775  1.00  0.00     0.031 A 
BRANCH  49  63
ATOM     63  C   UNL     1      -1.632 -10.189  -1.041  1.00  0.00    -0.014 A 
ATOM     64  C   UNL     1      -1.552 -10.129  -2.442  1.00  0.00     0.009 A 
ATOM     65  C   UNL     1      -2.897 -10.226  -0.435  1.00  0.00     0.009 A 
ATOM     66  C   UNL     1      -2.713 -10.068  -3.216  1.00  0.00     0.001 A 
ATOM     67  C   UNL     1      -4.056 -10.193  -1.212  1.00  0.00     0.001 A 
ATOM     68  C   UNL     1      -3.964 -10.104  -2.601  1.00  0.00     0.000 A 
ENDBRANCH  49  63
BRANCH  50  69
ATOM     69  C   UNL     1       6.513  -9.994   4.720  1.00  0.00    -0.014 A 
ATOM     70  C   UNL     1       7.651 -10.738   4.376  1.00  0.00     0.009 A 
ATOM     71  C   UNL     1       6.529  -9.231   5.897  1.00  0.00     0.009 A 
ATOM     72  C   UNL     1       8.772 -10.742   5.208  1.00  0.00     0.001 A 
ATOM     73  C   UNL     1       7.662  -9.215   6.714  1.00  0.00     0.001 A 
ATOM     74  C   UNL     1       8.778  -9.978   6.374  1.00  0.00     0.000 A 
ENDBRANCH  50  69
BRANCH  62  75
ATOM     75  C   UNL     1       1.830 -14.904   3.192  1.00  0.00    -0.014 A 
ATOM     76  C   UNL     1       1.433 -15.254   4.492  1.00  0.00     0.009 A 
ATOM     77  C   UNL     1       2.087 -15.921   2.261  1.00  0.00     0.009 A 
ATOM     78  C   UNL     1       1.334 -16.597   4.861  1.00  0.00     0.001 A 
ATOM     79  C   UNL     1       1.960 -17.263   2.625  1.00  0.00     0.001 A 
ATOM     80  C   UNL     1       1.593 -17.599   3.927  1.00  0.00     0.000 A 
ENDBRANCH  62  75
ENDBRANCH  36  37
ENDBRANCH  28  31
ENDBRANCH  26  27
ENDBRANCH  25  26
ENDBRANCH  24  25
ENDBRANCH   1  24
TORSDOF 15
