REMARK SMILES NS(=O)(=O)c1ccc(NS(=O)(=O)c2cccc(C(=O)NCCCCNC(=O)c3ccc(-c4c5nc(c(-c6ccccc6)c6ccc([nH]6)c(-c6ccccc6)c6nc(c(-c7ccccc7)c7ccc4[nH]7)C=C6)C=C5)cc3)c2)cc1
REMARK SMILES IDX 21 1 20 2 18 3 19 4 17 6 13 7 14 8 76 9 15 10 16 11 10 12
REMARK SMILES IDX 11 13 12 14 9 15 8 17 5 18 6 19 78 20 7 21 77 22 2 23 3 24
REMARK SMILES IDX 4 25 1 26 22 29 23 30 24 31 25 32 26 33 27 35 28 36 29 37
REMARK SMILES IDX 75 38 30 39 74 40 31 41 32 42 33 43 68 44 34 45 73 46 67 47
REMARK SMILES IDX 69 48 35 49 72 50 66 51 65 52 36 54 58 55 43 56 57 57 44 58
REMARK SMILES IDX 47 59 56 60 70 61 45 62 46 63 55 65 71 66 48 67 37 68 38 69
REMARK SMILES IDX 42 70 39 71 41 72 40 73 59 74 60 75 64 76 61 77 63 78 62 79
REMARK SMILES IDX 49 80 50 81 54 82 51 83 53 84 52 85
REMARK H PARENT 20 5 9 16 1 27 1 28 25 34 69 53 47 64
REMARK Flexibility Score: inf
ROOT
ATOM      1  C   UNL     1       2.369  -6.829  -8.940  1.00  0.00     0.116 C 
ENDROOT
BRANCH   1   2
ATOM      2  N   UNL     1       2.055  -7.754  -7.857  1.00  0.00    -0.352 N 
ATOM      3  C   UNL     1       2.098  -7.611  -6.486  1.00  0.00     0.251 C 
ATOM      4  O   UNL     1       1.821  -8.572  -5.772  1.00  0.00    -0.269 OA
ATOM      5  H   UNL     1       1.759  -8.642  -8.160  1.00  0.00     0.163 HD
BRANCH   3   6
ATOM      6  C   UNL     1       2.532  -6.340  -5.856  1.00  0.00     0.041 A 
ATOM      7  C   UNL     1       2.865  -3.958  -5.995  1.00  0.00     0.088 A 
ATOM      8  C   UNL     1       3.716  -3.987  -4.891  1.00  0.00     0.022 A 
ATOM      9  C   UNL     1       2.190  -5.109  -6.400  1.00  0.00     0.036 A 
ATOM     10  C   UNL     1       3.905  -5.197  -4.214  1.00  0.00     0.002 A 
ATOM     11  C   UNL     1       3.338  -6.377  -4.713  1.00  0.00     0.014 A 
BRANCH   7  12
ATOM     12  S   UNL     1       2.619  -2.498  -6.979  1.00  0.00     0.261 S 
ATOM     13  O   UNL     1       1.336  -2.624  -7.635  1.00  0.00    -0.201 OA
ATOM     14  O   UNL     1       3.836  -2.316  -7.742  1.00  0.00    -0.201 OA
BRANCH  12  15
ATOM     15  N   UNL     1       2.538  -1.224  -5.919  1.00  0.00    -0.280 N 
ATOM     16  H   UNL     1       3.133  -0.458  -6.092  1.00  0.00     0.180 HD
BRANCH  15  17
ATOM     17  C   UNL     1       1.690  -1.138  -4.787  1.00  0.00     0.049 A 
ATOM     18  C   UNL     1       0.516  -1.043  -2.267  1.00  0.00     0.082 A 
ATOM     19  C   UNL     1       0.247  -2.118  -3.114  1.00  0.00     0.024 A 
ATOM     20  C   UNL     1       1.269   0.042  -2.715  1.00  0.00     0.024 A 
ATOM     21  C   UNL     1       0.804  -2.143  -4.392  1.00  0.00     0.028 A 
ATOM     22  C   UNL     1       1.858  -0.012  -3.977  1.00  0.00     0.028 A 
BRANCH  18  23
ATOM     23  S   UNL     1       0.010  -1.163  -0.579  1.00  0.00     0.238 S 
ATOM     24  O   UNL     1       0.498  -2.422  -0.057  1.00  0.00    -0.207 OA
ATOM     25  O   UNL     1      -1.363  -0.746  -0.479  1.00  0.00    -0.207 OA
BRANCH  23  26
ATOM     26  N   UNL     1       0.922   0.013   0.205  1.00  0.00    -0.225 NA
ATOM     27  H   UNL     1       0.692   0.015   1.198  1.00  0.00     0.137 HD
ATOM     28  H   UNL     1       0.713   0.928  -0.195  1.00  0.00     0.137 HD
ENDBRANCH  23  26
ENDBRANCH  18  23
ENDBRANCH  15  17
ENDBRANCH  12  15
ENDBRANCH   7  12
ENDBRANCH   3   6
ENDBRANCH   1   2
BRANCH   1  29
ATOM     29  C   UNL     1       3.571  -7.231  -9.782  1.00  0.00     0.023 C 
BRANCH  29  30
ATOM     30  C   UNL     1       3.375  -8.451 -10.671  1.00  0.00     0.023 C 
BRANCH  30  31
ATOM     31  C   UNL     1       2.103  -8.463 -11.510  1.00  0.00     0.116 C 
BRANCH  31  32
ATOM     32  N   UNL     1       1.921  -7.285 -12.348  1.00  0.00    -0.352 N 
ATOM     33  C   UNL     1       1.476  -7.218 -13.649  1.00  0.00     0.251 C 
ATOM     34  H   UNL     1       2.146  -6.424 -11.928  1.00  0.00     0.163 HD
ATOM     35  O   UNL     1       1.414  -6.146 -14.239  1.00  0.00    -0.269 OA
BRANCH  33  36
ATOM     36  C   UNL     1       1.125  -8.470 -14.350  1.00  0.00     0.039 A 
ATOM     37  C   UNL     1       1.737  -8.749 -15.574  1.00  0.00     0.014 A 
ATOM     38  C   UNL     1       0.267  -9.397 -13.755  1.00  0.00     0.014 A 
ATOM     39  C   UNL     1       1.567 -10.007 -16.156  1.00  0.00     0.010 A 
ATOM     40  C   UNL     1       0.161 -10.672 -14.296  1.00  0.00     0.010 A 
ATOM     41  C   UNL     1       0.821 -10.994 -15.494  1.00  0.00    -0.014 A 
BRANCH  41  42
ATOM     42  C   UNL     1       0.722 -12.380 -16.015  1.00  0.00     0.031 A 
ATOM     43  C   UNL     1      -0.617 -12.933 -16.412  1.00  0.00     0.074 A 
ATOM     44  C   UNL     1       1.812 -13.171 -16.032  1.00  0.00     0.049 A 
ATOM     45  N   UNL     1      -0.940 -14.156 -16.745  1.00  0.00    -0.248 NA
ATOM     46  C   UNL     1      -1.748 -11.991 -16.400  1.00  0.00     0.031 C 
ATOM     47  C   UNL     1       3.164 -12.769 -15.638  1.00  0.00     0.029 A 
ATOM     48  N   UNL     1       1.948 -14.493 -16.379  1.00  0.00    -0.354 N 
ATOM     49  C   UNL     1      -2.314 -14.138 -16.948  1.00  0.00     0.074 A 
ATOM     50  C   UNL     1      -2.768 -12.793 -16.666  1.00  0.00     0.031 C 
ATOM     51  C   UNL     1       3.994 -13.815 -15.783  1.00  0.00     0.029 A 
ATOM     52  C   UNL     1       3.228 -14.971 -16.236  1.00  0.00     0.049 A 
ATOM     53  H   UNL     1       1.199 -15.045 -16.701  1.00  0.00     0.167 HD
ATOM     54  C   UNL     1      -3.124 -15.146 -17.346  1.00  0.00     0.031 A 
ATOM     55  C   UNL     1       3.726 -16.206 -16.433  1.00  0.00     0.031 A 
ATOM     56  C   UNL     1      -2.671 -16.476 -17.652  1.00  0.00     0.049 A 
ATOM     57  C   UNL     1       2.808 -17.307 -16.886  1.00  0.00     0.074 A 
ATOM     58  C   UNL     1      -3.406 -17.551 -18.118  1.00  0.00     0.029 A 
ATOM     59  N   UNL     1      -1.360 -16.907 -17.530  1.00  0.00    -0.354 N 
ATOM     60  N   UNL     1       1.519 -17.263 -17.118  1.00  0.00    -0.248 NA
ATOM     61  C   UNL     1       3.417 -18.627 -17.110  1.00  0.00     0.031 C 
ATOM     62  C   UNL     1      -2.545 -18.646 -18.246  1.00  0.00     0.029 A 
ATOM     63  C   UNL     1      -1.266 -18.237 -17.902  1.00  0.00     0.049 A 
ATOM     64  H   UNL     1      -0.607 -16.351 -17.224  1.00  0.00     0.167 HD
ATOM     65  C   UNL     1       1.168 -18.536 -17.546  1.00  0.00     0.074 A 
ATOM     66  C   UNL     1       2.380 -19.329 -17.547  1.00  0.00     0.031 C 
ATOM     67  C   UNL     1      -0.050 -19.006 -17.910  1.00  0.00     0.031 A 
BRANCH  54  68
ATOM     68  C   UNL     1      -4.590 -14.844 -17.467  1.00  0.00    -0.014 A 
ATOM     69  C   UNL     1      -5.081 -14.032 -18.502  1.00  0.00     0.009 A 
ATOM     70  C   UNL     1      -5.494 -15.394 -16.546  1.00  0.00     0.009 A 
ATOM     71  C   UNL     1      -6.445 -13.746 -18.589  1.00  0.00     0.001 A 
ATOM     72  C   UNL     1      -6.860 -15.129 -16.652  1.00  0.00     0.001 A 
ATOM     73  C   UNL     1      -7.333 -14.298 -17.666  1.00  0.00     0.000 A 
ENDBRANCH  54  68
BRANCH  55  74
ATOM     74  C   UNL     1       5.172 -16.469 -16.221  1.00  0.00    -0.014 A 
ATOM     75  C   UNL     1       6.023 -16.672 -17.319  1.00  0.00     0.009 A 
ATOM     76  C   UNL     1       5.710 -16.523 -14.926  1.00  0.00     0.009 A 
ATOM     77  C   UNL     1       7.378 -16.948 -17.124  1.00  0.00     0.001 A 
ATOM     78  C   UNL     1       7.070 -16.775 -14.735  1.00  0.00     0.001 A 
ATOM     79  C   UNL     1       7.901 -16.996 -15.833  1.00  0.00     0.000 A 
ENDBRANCH  55  74
BRANCH  67  80
ATOM     80  C   UNL     1      -0.126 -20.426 -18.388  1.00  0.00    -0.014 A 
ATOM     81  C   UNL     1      -0.061 -21.502 -17.490  1.00  0.00     0.009 A 
ATOM     82  C   UNL     1      -0.320 -20.685 -19.754  1.00  0.00     0.009 A 
ATOM     83  C   UNL     1      -0.166 -22.814 -17.957  1.00  0.00     0.001 A 
ATOM     84  C   UNL     1      -0.448 -21.996 -20.214  1.00  0.00     0.001 A 
ATOM     85  C   UNL     1      -0.365 -23.059 -19.316  1.00  0.00     0.000 A 
ENDBRANCH  67  80
ENDBRANCH  41  42
ENDBRANCH  33  36
ENDBRANCH  31  32
ENDBRANCH  30  31
ENDBRANCH  29  30
ENDBRANCH   1  29
TORSDOF 16
