REMARK SMILES COc1cc(/C=C2/SC(=S)N(C3CCCCC3)C2=O)ccc1O[C@@H](C)C(=O)NCCCCNC(=O)c1ccc(-c2c3nc(c(-c4ccccc4)c4ccc([nH]4)c(-c4ccccc4)c4nc(c(-c5ccccc5)c5ccc2[nH]5)C=C4)C=C3)cc1
REMARK SMILES IDX 29 1 28 2 26 3 27 4 24 6 25 7 23 8 22 9 3 10 4 11 5 12 21 13
REMARK SMILES IDX 20 14 2 15 1 16 6 17 7 18 8 19 18 20 9 21 11 22 19 23 10 24
REMARK SMILES IDX 12 25 13 26 17 27 14 28 16 29 15 30 30 31 31 32 32 33 33 34
REMARK SMILES IDX 34 35 35 37 36 38 37 39 83 40 38 41 82 42 39 43 40 44 41 45
REMARK SMILES IDX 76 46 42 47 81 48 75 49 77 50 43 51 80 52 74 53 73 54 44 56
REMARK SMILES IDX 66 57 51 58 65 59 52 60 55 61 64 62 78 63 53 64 54 65 63 67
REMARK SMILES IDX 79 68 56 69 45 70 46 71 50 72 47 73 49 74 48 75 67 76 68 77
REMARK SMILES IDX 72 78 69 79 71 80 70 81 57 82 58 83 62 84 59 85 61 86 60 87
REMARK H PARENT 28 5 33 36 77 55 55 66
REMARK Flexibility Score: inf
ROOT
ATOM      1  C   UNL     1       0.782  -2.502   1.264  1.00  0.00     0.116 C 
ENDROOT
BRANCH   1   2
ATOM      2  N   UNL     1       2.062  -1.957   1.644  1.00  0.00    -0.353 N 
ATOM      3  C   UNL     1       2.947  -1.099   1.098  1.00  0.00     0.260 C 
ATOM      4  O   UNL     1       3.776  -0.677   1.927  1.00  0.00    -0.271 OA
ATOM      5  H   UNL     1       2.364  -2.295   2.517  1.00  0.00     0.163 HD
BRANCH   3   6
ATOM      6  C   UNL     1       3.055  -0.558  -0.389  1.00  0.00     0.259 C 
ATOM      7  C   UNL     1       2.856   0.971  -0.348  1.00  0.00     0.064 C 
BRANCH   6   8
ATOM      8  O   UNL     1       2.750  -0.913  -1.717  1.00  0.00    -0.477 OA
BRANCH   8   9
ATOM      9  C   UNL     1       1.859  -1.898  -1.961  1.00  0.00     0.162 A 
ATOM     10  C   UNL     1       0.489  -1.654  -2.077  1.00  0.00     0.161 A 
ATOM     11  C   UNL     1      -0.384  -2.713  -2.368  1.00  0.00     0.058 A 
ATOM     12  C   UNL     1       0.124  -4.003  -2.608  1.00  0.00    -0.020 A 
ATOM     13  C   UNL     1       2.372  -3.128  -2.354  1.00  0.00     0.051 A 
ATOM     14  C   UNL     1       1.509  -4.157  -2.724  1.00  0.00     0.012 A 
BRANCH  10  15
ATOM     15  O   UNL     1       0.026  -0.364  -2.073  1.00  0.00    -0.493 OA
ATOM     16  C   UNL     1      -0.597   0.024  -0.855  1.00  0.00     0.278 C 
ENDBRANCH  10  15
BRANCH  12  17
ATOM     17  C   UNL     1      -0.786  -5.158  -2.735  1.00  0.00     0.029 C 
ATOM     18  C   UNL     1      -0.626  -6.389  -2.207  1.00  0.00     0.081 C 
ATOM     19  S   UNL     1      -1.808  -7.630  -2.409  1.00  0.00    -0.054 SA
ATOM     20  C   UNL     1       0.493  -6.935  -1.375  1.00  0.00     0.266 C 
ATOM     21  C   UNL     1      -0.870  -8.832  -1.524  1.00  0.00     0.148 C 
ATOM     22  N   UNL     1       0.317  -8.281  -1.087  1.00  0.00    -0.290 N 
ATOM     23  O   UNL     1       1.445  -6.277  -0.979  1.00  0.00    -0.268 OA
ATOM     24  S   UNL     1      -1.458 -10.381  -1.326  1.00  0.00    -0.052 S 
BRANCH  22  25
ATOM     25  C   UNL     1       1.424  -8.964  -0.370  1.00  0.00     0.092 C 
ATOM     26  C   UNL     1       1.053  -9.473   1.032  1.00  0.00     0.025 C 
ATOM     27  C   UNL     1       2.128 -10.025  -1.232  1.00  0.00     0.025 C 
ATOM     28  C   UNL     1       2.256 -10.111   1.730  1.00  0.00     0.002 C 
ATOM     29  C   UNL     1       3.312 -10.649  -0.496  1.00  0.00     0.002 C 
ATOM     30  C   UNL     1       2.899 -11.194   0.868  1.00  0.00     0.000 C 
ENDBRANCH  22  25
ENDBRANCH  12  17
ENDBRANCH   8   9
ENDBRANCH   6   8
ENDBRANCH   3   6
ENDBRANCH   1   2
BRANCH   1  31
ATOM     31  C   UNL     1       0.814  -4.011   1.060  1.00  0.00     0.023 C 
BRANCH  31  32
ATOM     32  C   UNL     1      -0.195  -4.816   1.879  1.00  0.00     0.023 C 
BRANCH  32  33
ATOM     33  C   UNL     1      -1.649  -4.361   1.821  1.00  0.00     0.116 C 
BRANCH  33  34
ATOM     34  N   UNL     1      -2.264  -4.431   0.506  1.00  0.00    -0.352 N 
ATOM     35  C   UNL     1      -3.555  -4.794   0.181  1.00  0.00     0.251 C 
ATOM     36  H   UNL     1      -1.684  -4.188  -0.252  1.00  0.00     0.163 HD
ATOM     37  O   UNL     1      -3.916  -4.817  -0.992  1.00  0.00    -0.269 OA
BRANCH  35  38
ATOM     38  C   UNL     1      -4.488  -5.209   1.256  1.00  0.00     0.039 A 
ATOM     39  C   UNL     1      -5.182  -6.415   1.130  1.00  0.00     0.014 A 
ATOM     40  C   UNL     1      -4.616  -4.449   2.421  1.00  0.00     0.014 A 
ATOM     41  C   UNL     1      -5.919  -6.908   2.213  1.00  0.00     0.010 A 
ATOM     42  C   UNL     1      -5.272  -4.984   3.526  1.00  0.00     0.010 A 
ATOM     43  C   UNL     1      -5.924  -6.224   3.441  1.00  0.00    -0.014 A 
BRANCH  43  44
ATOM     44  C   UNL     1      -6.584  -6.789   4.650  1.00  0.00     0.031 A 
ATOM     45  C   UNL     1      -7.703  -6.041   5.327  1.00  0.00     0.074 A 
ATOM     46  C   UNL     1      -6.122  -7.931   5.199  1.00  0.00     0.049 A 
ATOM     47  N   UNL     1      -8.343  -6.332   6.432  1.00  0.00    -0.248 NA
ATOM     48  C   UNL     1      -8.133  -4.781   4.700  1.00  0.00     0.031 C 
ATOM     49  C   UNL     1      -5.002  -8.729   4.692  1.00  0.00     0.029 A 
ATOM     50  N   UNL     1      -6.535  -8.617   6.316  1.00  0.00    -0.354 N 
ATOM     51  C   UNL     1      -9.225  -5.280   6.646  1.00  0.00     0.074 A 
ATOM     52  C   UNL     1      -9.001  -4.320   5.587  1.00  0.00     0.031 C 
ATOM     53  C   UNL     1      -4.842  -9.810   5.473  1.00  0.00     0.029 A 
ATOM     54  C   UNL     1      -5.821  -9.767   6.554  1.00  0.00     0.049 A 
ATOM     55  H   UNL     1      -7.273  -8.313   6.891  1.00  0.00     0.167 HD
ATOM     56  C   UNL     1     -10.155  -5.131   7.620  1.00  0.00     0.031 A 
ATOM     57  C   UNL     1      -5.942 -10.688   7.529  1.00  0.00     0.031 A 
ATOM     58  C   UNL     1     -10.409  -6.096   8.655  1.00  0.00     0.049 A 
ATOM     59  C   UNL     1      -7.011 -10.525   8.572  1.00  0.00     0.074 A 
ATOM     60  C   UNL     1     -11.377  -6.066   9.644  1.00  0.00     0.029 A 
ATOM     61  N   UNL     1      -9.695  -7.270   8.829  1.00  0.00    -0.354 N 
ATOM     62  N   UNL     1      -7.883  -9.557   8.717  1.00  0.00    -0.248 NA
ATOM     63  C   UNL     1      -7.123 -11.593   9.576  1.00  0.00     0.031 C 
ATOM     64  C   UNL     1     -11.228  -7.209  10.437  1.00  0.00     0.029 A 
ATOM     65  C   UNL     1     -10.195  -7.970   9.914  1.00  0.00     0.049 A 
ATOM     66  H   UNL     1      -8.943  -7.564   8.265  1.00  0.00     0.167 HD
ATOM     67  C   UNL     1      -8.666  -9.915   9.807  1.00  0.00     0.074 A 
ATOM     68  C   UNL     1      -8.175 -11.193  10.278  1.00  0.00     0.031 C 
ATOM     69  C   UNL     1      -9.702  -9.243  10.367  1.00  0.00     0.031 A 
BRANCH  56  70
ATOM     70  C   UNL     1     -10.974  -3.870   7.601  1.00  0.00    -0.014 A 
ATOM     71  C   UNL     1     -11.940  -3.647   6.606  1.00  0.00     0.009 A 
ATOM     72  C   UNL     1     -10.792  -2.902   8.600  1.00  0.00     0.009 A 
ATOM     73  C   UNL     1     -12.675  -2.460   6.586  1.00  0.00     0.001 A 
ATOM     74  C   UNL     1     -11.550  -1.730   8.595  1.00  0.00     0.001 A 
ATOM     75  C   UNL     1     -12.482  -1.504   7.583  1.00  0.00     0.000 A 
ENDBRANCH  56  70
BRANCH  57  76
ATOM     76  C   UNL     1      -5.052 -11.878   7.545  1.00  0.00    -0.014 A 
ATOM     77  C   UNL     1      -5.555 -13.142   7.197  1.00  0.00     0.009 A 
ATOM     78  C   UNL     1      -3.705 -11.763   7.917  1.00  0.00     0.009 A 
ATOM     79  C   UNL     1      -4.734 -14.270   7.249  1.00  0.00     0.001 A 
ATOM     80  C   UNL     1      -2.879 -12.890   7.944  1.00  0.00     0.001 A 
ATOM     81  C   UNL     1      -3.397 -14.143   7.619  1.00  0.00     0.000 A 
ENDBRANCH  57  76
BRANCH  69  82
ATOM     82  C   UNL     1     -10.402  -9.900  11.522  1.00  0.00    -0.014 A 
ATOM     83  C   UNL     1      -9.806  -9.972  12.791  1.00  0.00     0.009 A 
ATOM     84  C   UNL     1     -11.691 -10.426  11.342  1.00  0.00     0.009 A 
ATOM     85  C   UNL     1     -10.477 -10.589  13.849  1.00  0.00     0.001 A 
ATOM     86  C   UNL     1     -12.368 -11.018  12.409  1.00  0.00     0.001 A 
ATOM     87  C   UNL     1     -11.757 -11.107  13.658  1.00  0.00     0.000 A 
ENDBRANCH  69  82
ENDBRANCH  43  44
ENDBRANCH  35  38
ENDBRANCH  33  34
ENDBRANCH  32  33
ENDBRANCH  31  32
ENDBRANCH   1  31
TORSDOF 16
