REMARK SMILES C/C=C(\C)[C@@H]1C=C[C@@H]2C[C@H](C)C[C@H](C)[C@@H]2[C@@H]1C(=O)C1=C(NCCCCNC(=O)c2ccc(-c3c4nc(c(-c5ccccc5)c5ccc([nH]5)c(-c5ccccc5)c5nc(c(-c6ccccc6)c6ccc3[nH]6)C=C5)C=C4)cc2)[C@H](C[C@](C)(O)C(=O)[O-])NC1=O
REMARK SMILES IDX 23 1 22 2 21 3 20 5 19 6 86 7 77 8 85 9 87 10 17 12 18 13
REMARK SMILES IDX 16 14 5 15 6 16 7 17 15 18 8 19 13 20 9 21 12 22 14 23 10 24
REMARK SMILES IDX 11 25 3 26 1 27 2 28 4 29 78 30 79 31 80 32 81 33 82 35
REMARK SMILES IDX 83 36 84 37 24 38 25 39 26 40 27 41 28 43 29 44 30 45 76 46
REMARK SMILES IDX 31 47 75 48 32 49 33 50 34 51 69 52 35 53 74 54 68 55 70 56
REMARK SMILES IDX 36 57 73 58 67 59 66 60 37 62 59 63 44 64 58 65 45 66 48 67
REMARK SMILES IDX 57 68 71 69 46 70 47 71 56 73 72 74 49 75 38 76 39 77 43 78
REMARK SMILES IDX 40 79 42 80 41 81 60 82 61 83 65 84 62 85 64 86 63 87 50 88
REMARK SMILES IDX 51 89 55 90 52 91 54 92 53 93
REMARK H PARENT 21 4 85 11 81 34 26 42 70 61 48 72
REMARK Flexibility Score: inf
ROOT
ATOM      1  C   UNL     1      -5.637  -7.208 -10.888  1.00  0.00     0.023 C 
ENDROOT
BRANCH   1   2
ATOM      2  C   UNL     1      -4.511  -7.971 -10.204  1.00  0.00     0.113 C 
BRANCH   2   3
ATOM      3  N   UNL     1      -4.410  -7.549  -8.829  1.00  0.00    -0.386 N 
ATOM      4  H   UNL     1      -3.624  -7.000  -8.605  1.00  0.00     0.160 HD
BRANCH   3   5
ATOM      5  C   UNL     1      -5.279  -7.817  -7.783  1.00  0.00     0.050 C 
ATOM      6  C   UNL     1      -6.224  -8.781  -7.582  1.00  0.00     0.104 C 
ATOM      7  C   UNL     1      -6.791  -8.422  -6.241  1.00  0.00     0.257 C 
ATOM      8  C   UNL     1      -5.088  -6.919  -6.559  1.00  0.00     0.133 C 
ATOM      9  N   UNL     1      -6.181  -7.301  -5.772  1.00  0.00    -0.343 N 
ATOM     10  O   UNL     1      -7.606  -8.973  -5.526  1.00  0.00    -0.269 OA
ATOM     11  H   UNL     1      -6.475  -6.814  -4.968  1.00  0.00     0.164 HD
BRANCH   6  12
ATOM     12  C   UNL     1      -6.225 -10.102  -8.339  1.00  0.00     0.174 C 
ATOM     13  O   UNL     1      -5.099 -10.589  -8.553  1.00  0.00    -0.294 OA
BRANCH  12  14
ATOM     14  C   UNL     1      -7.446 -10.941  -8.907  1.00  0.00     0.076 C 
ATOM     15  C   UNL     1      -8.713 -10.130  -9.252  1.00  0.00     0.048 C 
ATOM     16  C   UNL     1      -9.374  -9.771  -7.934  1.00  0.00    -0.022 C 
ATOM     17  C   UNL     1      -9.183 -10.514  -6.809  1.00  0.00    -0.027 C 
ATOM     18  C   UNL     1      -7.990 -12.190  -8.115  1.00  0.00     0.010 C 
ATOM     19  C   UNL     1      -8.299 -11.773  -6.691  1.00  0.00     0.016 C 
ATOM     20  C   UNL     1      -7.269 -13.541  -8.140  1.00  0.00    -0.010 C 
ATOM     21  C   UNL     1      -6.981 -11.755  -5.851  1.00  0.00     0.011 C 
ATOM     22  C   UNL     1      -5.894 -13.452  -7.525  1.00  0.00     0.007 C 
ATOM     23  C   UNL     1      -7.267 -14.178  -9.526  1.00  0.00     0.008 C 
ATOM     24  C   UNL     1      -5.964 -12.911  -6.089  1.00  0.00    -0.013 C 
ATOM     25  C   UNL     1      -4.541 -12.494  -5.682  1.00  0.00     0.007 C 
BRANCH  15  26
ATOM     26  C   UNL     1      -8.547  -9.119 -10.396  1.00  0.00    -0.070 C 
ATOM     27  C   UNL     1      -9.076  -6.927 -11.601  1.00  0.00     0.035 C 
ATOM     28  C   UNL     1      -9.147  -7.911 -10.466  1.00  0.00    -0.031 C 
ATOM     29  C   UNL     1      -7.772  -9.688 -11.579  1.00  0.00     0.040 C 
ENDBRANCH  15  26
ENDBRANCH  12  14
ENDBRANCH   6  12
BRANCH   8  30
ATOM     30  C   UNL     1      -3.710  -7.156  -5.901  1.00  0.00     0.072 C 
BRANCH  30  31
ATOM     31  C   UNL     1      -3.654  -7.529  -4.404  1.00  0.00     0.103 C 
ATOM     32  C   UNL     1      -4.066  -8.980  -4.130  1.00  0.00     0.049 C 
BRANCH  31  33
ATOM     33  O   UNL     1      -4.518  -6.660  -3.653  1.00  0.00    -0.384 OA
ATOM     34  H   UNL     1      -4.479  -6.898  -2.714  1.00  0.00     0.211 HD
ENDBRANCH  31  33
BRANCH  31  35
ATOM     35  C   UNL     1      -2.203  -7.301  -3.939  1.00  0.00     0.073 C 
ATOM     36  O   UNL     1      -1.308  -8.119  -3.820  1.00  0.00    -0.547 OA
ATOM     37  O   UNL     1      -1.958  -5.986  -3.712  1.00  0.00    -0.547 OA
ENDBRANCH  31  35
ENDBRANCH  30  31
ENDBRANCH   8  30
ENDBRANCH   3   5
ENDBRANCH   2   3
ENDBRANCH   1   2
BRANCH   1  38
ATOM     38  C   UNL     1      -5.356  -5.745 -11.196  1.00  0.00     0.023 C 
BRANCH  38  39
ATOM     39  C   UNL     1      -4.137  -5.531 -12.069  1.00  0.00     0.116 C 
BRANCH  39  40
ATOM     40  N   UNL     1      -4.163  -6.291 -13.315  1.00  0.00    -0.352 N 
ATOM     41  C   UNL     1      -3.651  -5.923 -14.536  1.00  0.00     0.251 C 
ATOM     42  H   UNL     1      -4.599  -7.173 -13.275  1.00  0.00     0.163 HD
ATOM     43  O   UNL     1      -3.825  -6.609 -15.535  1.00  0.00    -0.269 OA
BRANCH  41  44
ATOM     44  C   UNL     1      -2.922  -4.644 -14.615  1.00  0.00     0.039 A 
ATOM     45  C   UNL     1      -3.307  -3.699 -15.564  1.00  0.00     0.014 A 
ATOM     46  C   UNL     1      -1.953  -4.348 -13.655  1.00  0.00     0.014 A 
ATOM     47  C   UNL     1      -2.760  -2.418 -15.503  1.00  0.00     0.010 A 
ATOM     48  C   UNL     1      -1.512  -3.043 -13.519  1.00  0.00     0.010 A 
ATOM     49  C   UNL     1      -1.892  -2.070 -14.455  1.00  0.00    -0.014 A 
BRANCH  49  50
ATOM     50  C   UNL     1      -1.330  -0.705 -14.335  1.00  0.00     0.031 A 
ATOM     51  C   UNL     1       0.161  -0.513 -14.377  1.00  0.00     0.074 A 
ATOM     52  C   UNL     1      -2.146   0.344 -14.120  1.00  0.00     0.049 A 
ATOM     53  N   UNL     1       0.858   0.585 -14.231  1.00  0.00    -0.248 NA
ATOM     54  C   UNL     1       0.981  -1.722 -14.565  1.00  0.00     0.031 C 
ATOM     55  C   UNL     1      -3.604   0.278 -13.996  1.00  0.00     0.029 A 
ATOM     56  N   UNL     1      -1.859   1.676 -13.963  1.00  0.00    -0.354 N 
ATOM     57  C   UNL     1       2.188   0.191 -14.289  1.00  0.00     0.074 A 
ATOM     58  C   UNL     1       2.203  -1.249 -14.393  1.00  0.00     0.031 C 
ATOM     59  C   UNL     1      -4.086   1.519 -13.823  1.00  0.00     0.029 A 
ATOM     60  C   UNL     1      -2.972   2.460 -13.779  1.00  0.00     0.049 A 
ATOM     61  H   UNL     1      -0.943   2.036 -13.980  1.00  0.00     0.167 HD
ATOM     62  C   UNL     1       3.302   0.960 -14.292  1.00  0.00     0.031 A 
ATOM     63  C   UNL     1      -3.080   3.789 -13.596  1.00  0.00     0.031 A 
ATOM     64  C   UNL     1       3.282   2.393 -14.197  1.00  0.00     0.049 A 
ATOM     65  C   UNL     1      -1.833   4.629 -13.601  1.00  0.00     0.074 A 
ATOM     66  C   UNL     1       4.345   3.277 -14.243  1.00  0.00     0.029 A 
ATOM     67  N   UNL     1       2.133   3.153 -14.033  1.00  0.00    -0.354 N 
ATOM     68  N   UNL     1      -0.584   4.252 -13.731  1.00  0.00    -0.248 NA
ATOM     69  C   UNL     1      -2.014   6.079 -13.452  1.00  0.00     0.031 C 
ATOM     70  C   UNL     1       3.843   4.568 -14.047  1.00  0.00     0.029 A 
ATOM     71  C   UNL     1       2.462   4.495 -13.951  1.00  0.00     0.049 A 
ATOM     72  H   UNL     1       1.218   2.791 -13.983  1.00  0.00     0.167 HD
ATOM     73  C   UNL     1       0.170   5.419 -13.709  1.00  0.00     0.074 A 
ATOM     74  C   UNL     1      -0.767   6.516 -13.569  1.00  0.00     0.031 C 
ATOM     75  C   UNL     1       1.514   5.571 -13.802  1.00  0.00     0.031 A 
BRANCH  62  76
ATOM     76  C   UNL     1       4.624   0.246 -14.393  1.00  0.00    -0.014 A 
ATOM     77  C   UNL     1       4.981  -0.472 -15.548  1.00  0.00     0.009 A 
ATOM     78  C   UNL     1       5.517   0.273 -13.313  1.00  0.00     0.009 A 
ATOM     79  C   UNL     1       6.173  -1.197 -15.594  1.00  0.00     0.001 A 
ATOM     80  C   UNL     1       6.728  -0.420 -13.376  1.00  0.00     0.001 A 
ATOM     81  C   UNL     1       7.047  -1.168 -14.508  1.00  0.00     0.000 A 
ENDBRANCH  62  76
BRANCH  63  82
ATOM     82  C   UNL     1      -4.423   4.403 -13.421  1.00  0.00    -0.014 A 
ATOM     83  C   UNL     1      -4.984   5.197 -14.433  1.00  0.00     0.009 A 
ATOM     84  C   UNL     1      -5.163   4.176 -12.250  1.00  0.00     0.009 A 
ATOM     85  C   UNL     1      -6.249   5.767 -14.267  1.00  0.00     0.001 A 
ATOM     86  C   UNL     1      -6.439   4.722 -12.100  1.00  0.00     0.001 A 
ATOM     87  C   UNL     1      -6.978   5.524 -13.104  1.00  0.00     0.000 A 
ENDBRANCH  63  82
BRANCH  75  88
ATOM     88  C   UNL     1       2.050   6.975 -13.792  1.00  0.00    -0.014 A 
ATOM     89  C   UNL     1       2.028   7.762 -12.630  1.00  0.00     0.009 A 
ATOM     90  C   UNL     1       2.629   7.502 -14.958  1.00  0.00     0.009 A 
ATOM     91  C   UNL     1       2.540   9.061 -12.648  1.00  0.00     0.001 A 
ATOM     92  C   UNL     1       3.171   8.787 -14.964  1.00  0.00     0.001 A 
ATOM     93  C   UNL     1       3.116   9.569 -13.812  1.00  0.00     0.000 A 
ENDBRANCH  75  88
ENDBRANCH  49  50
ENDBRANCH  41  44
ENDBRANCH  39  40
ENDBRANCH  38  39
ENDBRANCH   1  38
TORSDOF 18
