REMARK SMILES CCCN1C(=O)C[C@H](C(=O)NCCCCNC(=O)c2ccc(-c3c4nc(c(-c5ccccc5)c5ccc([nH]5)c(-c5ccccc5)c5nc(c(-c6ccccc6)c6ccc3[nH]6)C=C5)C=C4)cc2)[C@@H]1c1cncn1C1CC1
REMARK SMILES IDX 13 1 12 2 11 3 9 4 10 5 8 7 4 8 5 9 67 10 6 11 7 12 3 13
REMARK SMILES IDX 2 14 1 15 68 16 69 17 72 18 70 19 71 20 73 21 74 22 75 23
REMARK SMILES IDX 14 24 15 25 16 26 17 27 18 29 19 30 20 31 66 32 21 33 65 34
REMARK SMILES IDX 22 35 23 36 24 37 59 38 25 39 64 40 58 41 60 42 26 43 63 44
REMARK SMILES IDX 57 45 56 46 27 48 49 49 34 50 48 51 35 52 38 53 47 54 61 55
REMARK SMILES IDX 36 56 37 57 46 59 62 60 39 61 28 62 29 63 33 64 30 65 32 66
REMARK SMILES IDX 31 67 50 68 51 69 55 70 52 71 54 72 53 73 40 74 41 75 45 76
REMARK SMILES IDX 42 77 44 78 43 79
REMARK H PARENT 11 6 16 28 60 47 38 58
REMARK Flexibility Score: inf
ROOT
ATOM      1  C   UNL     1      -2.450  -4.649   0.122  1.00  0.00     0.023 C 
ENDROOT
BRANCH   1   2
ATOM      2  C   UNL     1      -1.116  -4.114  -0.365  1.00  0.00     0.116 C 
BRANCH   2   3
ATOM      3  N   UNL     1      -0.443  -4.924  -1.343  1.00  0.00    -0.356 N 
ATOM      4  C   UNL     1       0.384  -4.517  -2.343  1.00  0.00     0.226 C 
ATOM      5  O   UNL     1       1.105  -5.384  -2.849  1.00  0.00    -0.275 OA
ATOM      6  H   UNL     1      -0.601  -5.894  -1.282  1.00  0.00     0.163 HD
BRANCH   4   7
ATOM      7  C   UNL     1       0.454  -3.090  -2.873  1.00  0.00     0.116 C 
ATOM      8  N   UNL     1       0.755  -0.770  -2.690  1.00  0.00    -0.333 N 
ATOM      9  C   UNL     1      -0.426  -0.967  -3.411  1.00  0.00     0.224 C 
ATOM     10  C   UNL     1       1.220  -2.006  -2.113  1.00  0.00     0.146 C 
ATOM     11  O   UNL     1      -1.035  -0.116  -4.041  1.00  0.00    -0.275 OA
ATOM     12  C   UNL     1      -0.831  -2.422  -3.333  1.00  0.00     0.116 C 
BRANCH   8  13
ATOM     13  C   UNL     1       1.666   0.332  -3.019  1.00  0.00     0.120 C 
BRANCH  13  14
ATOM     14  C   UNL     1       1.735   1.511  -2.048  1.00  0.00     0.018 C 
ATOM     15  C   UNL     1       2.442   1.220  -0.733  1.00  0.00     0.006 C 
ENDBRANCH  13  14
ENDBRANCH   8  13
BRANCH  10  16
ATOM     16  C   UNL     1       1.272  -2.058  -0.622  1.00  0.00     0.061 A 
ATOM     17  C   UNL     1       2.221  -2.847   0.033  1.00  0.00     0.136 A 
ATOM     18  N   UNL     1       0.607  -1.430   0.427  1.00  0.00    -0.330 N 
ATOM     19  N   UNL     1       2.166  -2.733   1.383  1.00  0.00    -0.245 NA
ATOM     20  C   UNL     1       1.220  -1.856   1.591  1.00  0.00     0.199 A 
BRANCH  18  21
ATOM     21  C   UNL     1      -0.540  -0.543   0.595  1.00  0.00     0.088 C 
ATOM     22  C   UNL     1      -1.101   0.491  -0.341  1.00  0.00     0.027 C 
ATOM     23  C   UNL     1      -1.900  -0.724  -0.049  1.00  0.00     0.027 C 
ENDBRANCH  18  21
ENDBRANCH  10  16
ENDBRANCH   4   7
ENDBRANCH   2   3
ENDBRANCH   1   2
BRANCH   1  24
ATOM     24  C   UNL     1      -2.341  -5.752   1.172  1.00  0.00     0.023 C 
BRANCH  24  25
ATOM     25  C   UNL     1      -1.448  -5.448   2.376  1.00  0.00     0.116 C 
BRANCH  25  26
ATOM     26  N   UNL     1      -1.798  -4.223   3.083  1.00  0.00    -0.352 N 
ATOM     27  C   UNL     1      -1.895  -4.008   4.438  1.00  0.00     0.251 C 
ATOM     28  H   UNL     1      -1.991  -3.444   2.513  1.00  0.00     0.163 HD
ATOM     29  O   UNL     1      -2.252  -2.914   4.868  1.00  0.00    -0.269 OA
BRANCH  27  30
ATOM     30  C   UNL     1      -1.617  -5.120   5.372  1.00  0.00     0.039 A 
ATOM     31  C   UNL     1      -2.568  -5.438   6.344  1.00  0.00     0.014 A 
ATOM     32  C   UNL     1      -0.456  -5.886   5.244  1.00  0.00     0.014 A 
ATOM     33  C   UNL     1      -2.397  -6.580   7.128  1.00  0.00     0.010 A 
ATOM     34  C   UNL     1      -0.327  -7.067   5.971  1.00  0.00     0.010 A 
ATOM     35  C   UNL     1      -1.299  -7.432   6.915  1.00  0.00    -0.014 A 
BRANCH  35  36
ATOM     36  C   UNL     1      -1.174  -8.715   7.654  1.00  0.00     0.031 A 
ATOM     37  C   UNL     1      -0.020  -8.951   8.589  1.00  0.00     0.074 A 
ATOM     38  C   UNL     1      -2.072  -9.698   7.440  1.00  0.00     0.049 A 
ATOM     39  N   UNL     1       0.247 -10.005   9.319  1.00  0.00    -0.248 NA
ATOM     40  C   UNL     1       0.978  -7.875   8.700  1.00  0.00     0.031 C 
ATOM     41  C   UNL     1      -3.202  -9.629   6.510  1.00  0.00     0.029 A 
ATOM     42  N   UNL     1      -2.175 -10.951   7.992  1.00  0.00    -0.354 N 
ATOM     43  C   UNL     1       1.448  -9.726   9.959  1.00  0.00     0.074 A 
ATOM     44  C   UNL     1       1.884  -8.428   9.493  1.00  0.00     0.031 C 
ATOM     45  C   UNL     1      -3.904 -10.771   6.585  1.00  0.00     0.029 A 
ATOM     46  C   UNL     1      -3.260 -11.664   7.543  1.00  0.00     0.049 A 
ATOM     47  H   UNL     1      -1.532 -11.305   8.648  1.00  0.00     0.167 HD
ATOM     48  C   UNL     1       2.118 -10.470  10.871  1.00  0.00     0.031 A 
ATOM     49  C   UNL     1      -3.696 -12.895   7.870  1.00  0.00     0.031 A 
ATOM     50  C   UNL     1       1.682 -11.755  11.349  1.00  0.00     0.049 A 
ATOM     51  C   UNL     1      -2.950 -13.692   8.903  1.00  0.00     0.074 A 
ATOM     52  C   UNL     1       2.259 -12.554  12.321  1.00  0.00     0.029 A 
ATOM     53  N   UNL     1       0.563 -12.430  10.887  1.00  0.00    -0.354 N 
ATOM     54  N   UNL     1      -1.865 -13.374   9.566  1.00  0.00    -0.248 NA
ATOM     55  C   UNL     1      -3.501 -15.011   9.245  1.00  0.00     0.031 C 
ATOM     56  C   UNL     1       1.512 -13.733  12.418  1.00  0.00     0.029 A 
ATOM     57  C   UNL     1       0.442 -13.644  11.542  1.00  0.00     0.049 A 
ATOM     58  H   UNL     1      -0.053 -12.096  10.197  1.00  0.00     0.167 HD
ATOM     59  C   UNL     1      -1.623 -14.437  10.427  1.00  0.00     0.074 A 
ATOM     60  C   UNL     1      -2.679 -15.403  10.209  1.00  0.00     0.031 C 
ATOM     61  C   UNL     1      -0.616 -14.595  11.319  1.00  0.00     0.031 A 
BRANCH  48  62
ATOM     62  C   UNL     1       3.401  -9.904  11.413  1.00  0.00    -0.014 A 
ATOM     63  C   UNL     1       3.399  -8.796  12.275  1.00  0.00     0.009 A 
ATOM     64  C   UNL     1       4.626 -10.503  11.080  1.00  0.00     0.009 A 
ATOM     65  C   UNL     1       4.600  -8.273  12.759  1.00  0.00     0.001 A 
ATOM     66  C   UNL     1       5.823  -9.996  11.589  1.00  0.00     0.001 A 
ATOM     67  C   UNL     1       5.810  -8.877  12.420  1.00  0.00     0.000 A 
ENDBRANCH  48  62
BRANCH  49  68
ATOM     68  C   UNL     1      -4.931 -13.436   7.245  1.00  0.00    -0.014 A 
ATOM     69  C   UNL     1      -6.114 -13.549   7.992  1.00  0.00     0.009 A 
ATOM     70  C   UNL     1      -4.935 -13.843   5.902  1.00  0.00     0.009 A 
ATOM     71  C   UNL     1      -7.269 -14.081   7.414  1.00  0.00     0.001 A 
ATOM     72  C   UNL     1      -6.098 -14.351   5.320  1.00  0.00     0.001 A 
ATOM     73  C   UNL     1      -7.261 -14.478   6.078  1.00  0.00     0.000 A 
ENDBRANCH  49  68
BRANCH  61  74
ATOM     74  C   UNL     1      -0.630 -15.841  12.159  1.00  0.00    -0.014 A 
ATOM     75  C   UNL     1      -0.312 -17.094  11.613  1.00  0.00     0.009 A 
ATOM     76  C   UNL     1      -0.931 -15.750  13.527  1.00  0.00     0.009 A 
ATOM     77  C   UNL     1      -0.329 -18.237  12.416  1.00  0.00     0.001 A 
ATOM     78  C   UNL     1      -0.920 -16.890  14.332  1.00  0.00     0.001 A 
ATOM     79  C   UNL     1      -0.628 -18.133  13.774  1.00  0.00     0.000 A 
ENDBRANCH  61  74
ENDBRANCH  35  36
ENDBRANCH  27  30
ENDBRANCH  25  26
ENDBRANCH  24  25
ENDBRANCH   1  24
TORSDOF 15
