REMARK SMILES O=C(CCn1ccnc1)N[C@H]1C=C[C@H](C(=O)NCCCCNC(=O)c2ccc(-c3c4nc(c(-c5ccccc5)c5ccc([nH]5)c(-c5ccccc5)c5nc(c(-c6ccccc6)c6ccc3[nH]6)C=C5)C=C4)cc2)C1
REMARK SMILES IDX 18 1 17 2 15 3 16 4 14 6 11 7 12 8 73 9 13 10 10 11 1 12
REMARK SMILES IDX 2 13 3 15 4 16 5 17 6 18 9 19 7 20 8 21 19 22 20 23 21 24
REMARK SMILES IDX 22 25 23 26 24 28 25 29 26 30 72 31 27 32 71 33 28 34 29 35
REMARK SMILES IDX 30 36 65 37 31 38 70 39 64 40 66 41 32 42 69 43 63 44 62 45
REMARK SMILES IDX 33 47 55 48 40 49 54 50 41 51 44 52 53 53 67 54 42 55 43 56
REMARK SMILES IDX 52 58 68 59 45 60 34 61 35 62 39 63 36 64 38 65 37 66 56 67
REMARK SMILES IDX 57 68 61 69 58 70 60 71 59 72 46 73 47 74 51 75 48 76 50 77
REMARK SMILES IDX 49 78
REMARK H PARENT 17 5 10 14 22 27 66 46 44 57
REMARK Flexibility Score: inf
ROOT
ATOM      1  C   UNL     1       1.770   5.173   3.448  1.00  0.00     0.116 C 
ENDROOT
BRANCH   1   2
ATOM      2  N   UNL     1       1.298   4.301   4.511  1.00  0.00    -0.356 N 
ATOM      3  C   UNL     1       1.718   3.048   4.871  1.00  0.00     0.227 C 
ATOM      4  O   UNL     1       1.188   2.533   5.857  1.00  0.00    -0.274 OA
ATOM      5  H   UNL     1       0.564   4.668   5.055  1.00  0.00     0.163 HD
BRANCH   3   6
ATOM      6  C   UNL     1       2.851   2.378   4.083  1.00  0.00     0.103 C 
ATOM      7  C   UNL     1       2.232   0.579   2.515  1.00  0.00     0.106 C 
ATOM      8  C   UNL     1       2.882   0.040   3.739  1.00  0.00    -0.006 C 
ATOM      9  C   UNL     1       2.473   2.086   2.626  1.00  0.00     0.047 C 
ATOM     10  C   UNL     1       3.206   1.012   4.599  1.00  0.00    -0.016 C 
BRANCH   7  11
ATOM     11  N   UNL     1       2.872   0.024   1.350  1.00  0.00    -0.350 N 
ATOM     12  O   UNL     1       1.129   0.478  -0.072  1.00  0.00    -0.275 OA
ATOM     13  C   UNL     1       2.256   0.034   0.122  1.00  0.00     0.222 C 
ATOM     14  H   UNL     1       3.770  -0.371   1.436  1.00  0.00     0.164 HD
BRANCH  13  15
ATOM     15  C   UNL     1       3.095  -0.517  -1.009  1.00  0.00     0.122 C 
BRANCH  15  16
ATOM     16  C   UNL     1       3.981   0.567  -1.613  1.00  0.00     0.133 C 
BRANCH  16  17
ATOM     17  N   UNL     1       5.021   1.031  -0.716  1.00  0.00    -0.337 N 
ATOM     18  C   UNL     1       5.177   2.306  -0.250  1.00  0.00     0.107 A 
ATOM     19  C   UNL     1       5.982   0.257  -0.130  1.00  0.00     0.199 A 
ATOM     20  C   UNL     1       6.194   2.223   0.672  1.00  0.00     0.130 A 
ATOM     21  N   UNL     1       6.674   0.942   0.751  1.00  0.00    -0.245 NA
ENDBRANCH  16  17
ENDBRANCH  15  16
ENDBRANCH  13  15
ENDBRANCH   7  11
ENDBRANCH   3   6
ENDBRANCH   1   2
BRANCH   1  22
ATOM     22  C   UNL     1       0.747   5.344   2.318  1.00  0.00     0.023 C 
BRANCH  22  23
ATOM     23  C   UNL     1      -0.592   5.988   2.704  1.00  0.00     0.023 C 
BRANCH  23  24
ATOM     24  C   UNL     1      -0.485   7.419   3.207  1.00  0.00     0.116 C 
BRANCH  24  25
ATOM     25  N   UNL     1       0.019   8.345   2.194  1.00  0.00    -0.352 N 
ATOM     26  C   UNL     1       0.297   9.694   2.338  1.00  0.00     0.251 C 
ATOM     27  H   UNL     1       0.180   7.964   1.301  1.00  0.00     0.163 HD
ATOM     28  O   UNL     1       0.337  10.440   1.375  1.00  0.00    -0.269 OA
BRANCH  26  29
ATOM     29  C   UNL     1       0.561  10.211   3.693  1.00  0.00     0.039 A 
ATOM     30  C   UNL     1       0.040  11.433   4.129  1.00  0.00     0.014 A 
ATOM     31  C   UNL     1       1.326   9.417   4.543  1.00  0.00     0.014 A 
ATOM     32  C   UNL     1       0.226  11.805   5.459  1.00  0.00     0.010 A 
ATOM     33  C   UNL     1       1.368   9.703   5.881  1.00  0.00     0.010 A 
ATOM     34  C   UNL     1       0.875  10.921   6.336  1.00  0.00    -0.014 A 
BRANCH  34  35
ATOM     35  C   UNL     1       0.920  11.175   7.773  1.00  0.00     0.031 A 
ATOM     36  C   UNL     1      -0.420  11.337   8.399  1.00  0.00     0.074 A 
ATOM     37  C   UNL     1       2.044  11.000   8.504  1.00  0.00     0.049 A 
ATOM     38  N   UNL     1      -0.912  12.397   8.948  1.00  0.00    -0.248 NA
ATOM     39  C   UNL     1      -1.385  10.229   8.271  1.00  0.00     0.031 C 
ATOM     40  C   UNL     1       3.351  10.512   8.040  1.00  0.00     0.029 A 
ATOM     41  N   UNL     1       2.226  11.081   9.851  1.00  0.00    -0.354 N 
ATOM     42  C   UNL     1      -2.157  12.020   9.444  1.00  0.00     0.074 A 
ATOM     43  C   UNL     1      -2.479  10.766   8.814  1.00  0.00     0.031 C 
ATOM     44  C   UNL     1       4.085  10.100   9.096  1.00  0.00     0.029 A 
ATOM     45  C   UNL     1       3.381  10.454  10.314  1.00  0.00     0.049 A 
ATOM     46  H   UNL     1       1.595  11.544  10.448  1.00  0.00     0.167 HD
ATOM     47  C   UNL     1      -2.667  12.599  10.567  1.00  0.00     0.031 A 
ATOM     48  C   UNL     1       3.724  10.211  11.604  1.00  0.00     0.031 A 
ATOM     49  C   UNL     1      -1.978  13.826  10.886  1.00  0.00     0.049 A 
ATOM     50  C   UNL     1       2.899  11.099  12.451  1.00  0.00     0.074 A 
ATOM     51  C   UNL     1      -1.728  15.012  10.225  1.00  0.00     0.029 A 
ATOM     52  N   UNL     1      -1.070  13.771  11.917  1.00  0.00    -0.354 N 
ATOM     53  N   UNL     1       3.027  12.393  12.471  1.00  0.00    -0.248 NA
ATOM     54  C   UNL     1       1.633  10.585  12.944  1.00  0.00     0.031 C 
ATOM     55  C   UNL     1      -0.396  15.365  10.594  1.00  0.00     0.029 A 
ATOM     56  C   UNL     1       0.063  14.428  11.521  1.00  0.00     0.049 A 
ATOM     57  H   UNL     1      -1.210  13.335  12.788  1.00  0.00     0.167 HD
ATOM     58  C   UNL     1       1.725  12.868  12.525  1.00  0.00     0.074 A 
ATOM     59  C   UNL     1       0.920  11.716  12.931  1.00  0.00     0.031 C 
ATOM     60  C   UNL     1       1.394  14.062  11.952  1.00  0.00     0.031 A 
BRANCH  47  61
ATOM     61  C   UNL     1      -3.417  11.819  11.628  1.00  0.00    -0.014 A 
ATOM     62  C   UNL     1      -3.868  12.507  12.771  1.00  0.00     0.009 A 
ATOM     63  C   UNL     1      -3.424  10.413  11.701  1.00  0.00     0.009 A 
ATOM     64  C   UNL     1      -4.201  11.827  13.949  1.00  0.00     0.001 A 
ATOM     65  C   UNL     1      -3.799   9.729  12.860  1.00  0.00     0.001 A 
ATOM     66  C   UNL     1      -4.155  10.438  13.996  1.00  0.00     0.000 A 
ENDBRANCH  47  61
BRANCH  48  67
ATOM     67  C   UNL     1       4.522   9.109  12.185  1.00  0.00    -0.014 A 
ATOM     68  C   UNL     1       5.045   9.212  13.486  1.00  0.00     0.009 A 
ATOM     69  C   UNL     1       4.530   7.840  11.578  1.00  0.00     0.009 A 
ATOM     70  C   UNL     1       5.513   8.080  14.169  1.00  0.00     0.001 A 
ATOM     71  C   UNL     1       5.000   6.711  12.259  1.00  0.00     0.001 A 
ATOM     72  C   UNL     1       5.475   6.828  13.561  1.00  0.00     0.000 A 
ENDBRANCH  48  67
BRANCH  60  73
ATOM     73  C   UNL     1       2.514  14.976  11.519  1.00  0.00    -0.014 A 
ATOM     74  C   UNL     1       3.471  14.632  10.547  1.00  0.00     0.009 A 
ATOM     75  C   UNL     1       2.514  16.288  12.015  1.00  0.00     0.009 A 
ATOM     76  C   UNL     1       4.416  15.568  10.111  1.00  0.00     0.001 A 
ATOM     77  C   UNL     1       3.441  17.228  11.563  1.00  0.00     0.001 A 
ATOM     78  C   UNL     1       4.396  16.867  10.616  1.00  0.00     0.000 A 
ENDBRANCH  60  73
ENDBRANCH  34  35
ENDBRANCH  26  29
ENDBRANCH  24  25
ENDBRANCH  23  24
ENDBRANCH  22  23
ENDBRANCH   1  22
TORSDOF 15
