REMARK SMILES NS(=O)(=O)c1ccc(-c2coc(=O)n2-c2ccc(C(=O)NCCCCNC(=O)c3ccc(-c4c5nc(c(-c6ccccc6)c6ccc([nH]6)c(-c6ccccc6)c6nc(c(-c7ccccc7)c7ccc4[nH]7)C=C6)C=C5)cc3)cc2)cc1
REMARK SMILES IDX 22 1 21 2 19 3 20 4 18 6 15 7 16 8 78 9 17 10 77 11 14 12
REMARK SMILES IDX 9 13 10 14 11 15 12 16 13 17 8 18 5 19 6 20 80 21 7 22 79 23
REMARK SMILES IDX 2 24 3 25 4 26 1 27 23 30 24 31 25 32 26 33 27 34 28 36
REMARK SMILES IDX 29 37 30 38 76 39 31 40 75 41 32 42 33 43 34 44 69 45 35 46
REMARK SMILES IDX 74 47 68 48 70 49 36 50 73 51 67 52 66 53 37 55 59 56 44 57
REMARK SMILES IDX 58 58 45 59 48 60 57 61 71 62 46 63 47 64 56 66 72 67 49 68
REMARK SMILES IDX 38 69 39 70 43 71 40 72 42 73 41 74 60 75 61 76 65 77 62 78
REMARK SMILES IDX 64 79 63 80 50 81 51 82 55 83 52 84 54 85 53 86
REMARK H PARENT 21 5 1 28 1 29 26 35 70 54 48 65
REMARK Flexibility Score: inf
ROOT
ATOM      1  C   UNL     1       7.884   2.626   2.171  1.00  0.00     0.116 C 
ENDROOT
BRANCH   1   2
ATOM      2  N   UNL     1       8.036   2.017   3.479  1.00  0.00    -0.352 N 
ATOM      3  C   UNL     1       7.334   2.110   4.656  1.00  0.00     0.251 C 
ATOM      4  O   UNL     1       7.727   1.406   5.588  1.00  0.00    -0.269 OA
ATOM      5  H   UNL     1       8.806   1.406   3.535  1.00  0.00     0.163 HD
BRANCH   3   6
ATOM      6  C   UNL     1       6.114   2.952   4.851  1.00  0.00     0.039 A 
ATOM      7  C   UNL     1       3.692   4.330   5.287  1.00  0.00     0.053 A 
ATOM      8  C   UNL     1       4.113   3.367   6.201  1.00  0.00     0.028 A 
ATOM      9  C   UNL     1       4.510   4.654   4.204  1.00  0.00     0.028 A 
ATOM     10  C   UNL     1       5.300   2.661   5.963  1.00  0.00     0.016 A 
ATOM     11  C   UNL     1       5.735   4.009   4.024  1.00  0.00     0.016 A 
BRANCH   7  12
ATOM     12  N   UNL     1       2.461   4.991   5.434  1.00  0.00    -0.242 N 
ATOM     13  C   UNL     1       1.451   5.107   4.523  1.00  0.00     0.095 A 
ATOM     14  C   UNL     1       0.604   5.996   5.030  1.00  0.00     0.228 A 
ATOM     15  O   UNL     1       0.979   6.505   6.273  1.00  0.00    -0.415 OA
ATOM     16  C   UNL     1       2.173   5.824   6.513  1.00  0.00     0.424 A 
ATOM     17  O   UNL     1       2.845   6.005   7.519  1.00  0.00    -0.223 OA
BRANCH  13  18
ATOM     18  C   UNL     1       1.263   4.280   3.330  1.00  0.00     0.002 A 
ATOM     19  C   UNL     1       0.782   2.648   1.096  1.00  0.00     0.082 A 
ATOM     20  C   UNL     1       1.086   2.061   2.324  1.00  0.00     0.022 A 
ATOM     21  C   UNL     1       0.731   4.040   0.970  1.00  0.00     0.022 A 
ATOM     22  C   UNL     1       1.323   2.878   3.433  1.00  0.00     0.012 A 
ATOM     23  C   UNL     1       0.963   4.851   2.087  1.00  0.00     0.012 A 
BRANCH  19  24
ATOM     24  S   UNL     1       0.461   1.657  -0.333  1.00  0.00     0.238 S 
ATOM     25  O   UNL     1       1.224   2.202  -1.441  1.00  0.00    -0.207 OA
ATOM     26  O   UNL     1      -0.950   1.404  -0.404  1.00  0.00    -0.207 OA
BRANCH  24  27
ATOM     27  N   UNL     1       1.187   0.176   0.001  1.00  0.00    -0.225 NA
ATOM     28  H   UNL     1       1.044  -0.458  -0.785  1.00  0.00     0.137 HD
ATOM     29  H   UNL     1       0.770  -0.225   0.841  1.00  0.00     0.137 HD
ENDBRANCH  24  27
ENDBRANCH  19  24
ENDBRANCH  13  18
ENDBRANCH   7  12
ENDBRANCH   3   6
ENDBRANCH   1   2
BRANCH   1  30
ATOM     30  C   UNL     1       8.760   3.876   2.027  1.00  0.00     0.023 C 
BRANCH  30  31
ATOM     31  C   UNL     1      10.255   3.596   1.810  1.00  0.00     0.023 C 
BRANCH  31  32
ATOM     32  C   UNL     1      10.602   2.957   0.468  1.00  0.00     0.116 C 
BRANCH  32  33
ATOM     33  N   UNL     1      10.236   3.796  -0.674  1.00  0.00    -0.352 N 
ATOM     34  C   UNL     1      10.119   3.430  -2.001  1.00  0.00     0.251 C 
ATOM     35  H   UNL     1      10.050   4.741  -0.471  1.00  0.00     0.163 HD
ATOM     36  O   UNL     1      10.193   4.260  -2.898  1.00  0.00    -0.269 OA
BRANCH  34  37
ATOM     37  C   UNL     1       9.880   2.014  -2.322  1.00  0.00     0.039 A 
ATOM     38  C   UNL     1      10.572   1.369  -3.350  1.00  0.00     0.014 A 
ATOM     39  C   UNL     1       8.963   1.325  -1.534  1.00  0.00     0.014 A 
ATOM     40  C   UNL     1      10.400  -0.003  -3.519  1.00  0.00     0.010 A 
ATOM     41  C   UNL     1       8.897  -0.043  -1.610  1.00  0.00     0.010 A 
ATOM     42  C   UNL     1       9.575  -0.708  -2.629  1.00  0.00    -0.014 A 
BRANCH  42  43
ATOM     43  C   UNL     1       9.502  -2.166  -2.664  1.00  0.00     0.031 A 
ATOM     44  C   UNL     1      10.806  -2.865  -2.491  1.00  0.00     0.074 A 
ATOM     45  C   UNL     1       8.329  -2.832  -2.587  1.00  0.00     0.049 A 
ATOM     46  N   UNL     1      11.420  -3.618  -3.342  1.00  0.00    -0.248 NA
ATOM     47  C   UNL     1      11.575  -2.607  -1.262  1.00  0.00     0.031 C 
ATOM     48  C   UNL     1       6.983  -2.266  -2.420  1.00  0.00     0.029 A 
ATOM     49  N   UNL     1       8.101  -4.171  -2.500  1.00  0.00    -0.354 N 
ATOM     50  C   UNL     1      12.552  -4.098  -2.686  1.00  0.00     0.074 A 
ATOM     51  C   UNL     1      12.689  -3.303  -1.492  1.00  0.00     0.031 C 
ATOM     52  C   UNL     1       6.135  -3.230  -2.002  1.00  0.00     0.029 A 
ATOM     53  C   UNL     1       6.827  -4.503  -2.052  1.00  0.00     0.049 A 
ATOM     54  H   UNL     1       8.779  -4.846  -2.733  1.00  0.00     0.167 HD
ATOM     55  C   UNL     1      13.120  -5.287  -3.036  1.00  0.00     0.031 A 
ATOM     56  C   UNL     1       6.370  -5.735  -1.725  1.00  0.00     0.031 A 
ATOM     57  C   UNL     1      12.632  -5.744  -4.314  1.00  0.00     0.049 A 
ATOM     58  C   UNL     1       7.273  -6.722  -2.351  1.00  0.00     0.074 A 
ATOM     59  C   UNL     1      12.650  -5.266  -5.608  1.00  0.00     0.029 A 
ATOM     60  N   UNL     1      11.658  -6.712  -4.278  1.00  0.00    -0.354 N 
ATOM     61  N   UNL     1       7.365  -6.892  -3.638  1.00  0.00    -0.248 NA
ATOM     62  C   UNL     1       8.387  -7.235  -1.572  1.00  0.00     0.031 C 
ATOM     63  C   UNL     1      11.391  -5.649  -6.160  1.00  0.00     0.029 A 
ATOM     64  C   UNL     1      10.702  -6.396  -5.202  1.00  0.00     0.049 A 
ATOM     65  H   UNL     1      11.650  -7.499  -3.687  1.00  0.00     0.167 HD
ATOM     66  C   UNL     1       8.716  -7.102  -3.866  1.00  0.00     0.074 A 
ATOM     67  C   UNL     1       9.268  -7.442  -2.555  1.00  0.00     0.031 C 
ATOM     68  C   UNL     1       9.297  -6.696  -5.034  1.00  0.00     0.031 A 
BRANCH  55  69
ATOM     69  C   UNL     1      13.715  -6.264  -2.037  1.00  0.00    -0.014 A 
ATOM     70  C   UNL     1      14.164  -7.512  -2.515  1.00  0.00     0.009 A 
ATOM     71  C   UNL     1      13.566  -6.148  -0.643  1.00  0.00     0.009 A 
ATOM     72  C   UNL     1      14.325  -8.610  -1.660  1.00  0.00     0.001 A 
ATOM     73  C   UNL     1      13.770  -7.231   0.219  1.00  0.00     0.001 A 
ATOM     74  C   UNL     1      14.111  -8.472  -0.294  1.00  0.00     0.000 A 
ENDBRANCH  55  69
BRANCH  56  75
ATOM     75  C   UNL     1       5.342  -6.125  -0.740  1.00  0.00    -0.014 A 
ATOM     76  C   UNL     1       4.700  -7.370  -0.823  1.00  0.00     0.009 A 
ATOM     77  C   UNL     1       5.189  -5.383   0.446  1.00  0.00     0.009 A 
ATOM     78  C   UNL     1       3.968  -7.875   0.260  1.00  0.00     0.001 A 
ATOM     79  C   UNL     1       4.458  -5.887   1.527  1.00  0.00     0.001 A 
ATOM     80  C   UNL     1       3.861  -7.140   1.440  1.00  0.00     0.000 A 
ENDBRANCH  56  75
BRANCH  68  81
ATOM     81  C   UNL     1       8.385  -6.292  -6.167  1.00  0.00    -0.014 A 
ATOM     82  C   UNL     1       7.496  -5.206  -6.094  1.00  0.00     0.009 A 
ATOM     83  C   UNL     1       8.533  -6.950  -7.396  1.00  0.00     0.009 A 
ATOM     84  C   UNL     1       6.754  -4.812  -7.213  1.00  0.00     0.001 A 
ATOM     85  C   UNL     1       7.810  -6.543  -8.518  1.00  0.00     0.001 A 
ATOM     86  C   UNL     1       6.916  -5.479  -8.425  1.00  0.00     0.000 A 
ENDBRANCH  68  81
ENDBRANCH  42  43
ENDBRANCH  34  37
ENDBRANCH  32  33
ENDBRANCH  31  32
ENDBRANCH  30  31
ENDBRANCH   1  30
TORSDOF 15
