REMARK SMILES Cc1cc(F)ccc1-n1ccc(C)c(C(=O)NCCCCNC(=O)c2ccc(-c3c4nc(c(-c5ccccc5)c5ccc([nH]5)c(-c5ccccc5)c5nc(c(-c6ccccc6)c6ccc3[nH]6)C=C5)C=C4)cc2)c1=O
REMARK SMILES IDX 20 1 19 2 18 3 17 4 15 5 16 6 14 8 9 9 10 10 73 11 11 12
REMARK SMILES IDX 74 13 12 14 13 15 8 16 1 17 2 18 3 19 4 20 7 21 5 22 6 23
REMARK SMILES IDX 21 24 22 25 23 26 24 28 25 29 26 30 72 31 27 32 71 33 28 34
REMARK SMILES IDX 29 35 30 36 65 37 31 38 70 39 64 40 66 41 32 42 69 43 63 44
REMARK SMILES IDX 62 45 33 47 55 48 40 49 54 50 41 51 44 52 53 53 67 54 42 55
REMARK SMILES IDX 43 56 52 58 68 59 45 60 34 61 35 62 39 63 36 64 38 65 37 66
REMARK SMILES IDX 56 67 57 68 61 69 58 70 60 71 59 72 46 73 47 74 51 75 48 76
REMARK SMILES IDX 50 77 49 78
REMARK H PARENT 17 7 22 27 66 46 44 57
REMARK Flexibility Score: inf
ROOT
ATOM      1  C   UNL     1       3.985  -1.730   5.890  1.00  0.00     0.023 C 
ENDROOT
BRANCH   1   2
ATOM      2  C   UNL     1       3.214  -2.188   4.656  1.00  0.00     0.023 C 
BRANCH   2   3
ATOM      3  C   UNL     1       3.712  -1.652   3.318  1.00  0.00     0.116 C 
BRANCH   3   4
ATOM      4  N   UNL     1       5.117  -1.904   3.025  1.00  0.00    -0.352 N 
ATOM      5  C   UNL     1       5.758  -1.891   1.808  1.00  0.00     0.257 C 
ATOM      6  O   UNL     1       6.988  -1.933   1.793  1.00  0.00    -0.269 OA
ATOM      7  H   UNL     1       5.683  -2.111   3.802  1.00  0.00     0.163 HD
BRANCH   5   8
ATOM      8  C   UNL     1       4.957  -1.920   0.547  1.00  0.00     0.108 A 
ATOM      9  N   UNL     1       2.844  -1.321  -0.579  1.00  0.00    -0.283 N 
ATOM     10  C   UNL     1       3.115  -2.303  -1.519  1.00  0.00     0.095 A 
ATOM     11  C   UNL     1       3.828  -0.947   0.354  1.00  0.00     0.268 A 
ATOM     12  C   UNL     1       4.272  -2.970  -1.524  1.00  0.00     0.023 A 
ATOM     13  O   UNL     1       3.781   0.054   1.068  1.00  0.00    -0.268 OA
ATOM     14  C   UNL     1       5.213  -2.825  -0.426  1.00  0.00    -0.031 A 
ATOM     15  C   UNL     1       6.354  -3.809  -0.475  1.00  0.00     0.045 C 
BRANCH   9  16
ATOM     16  C   UNL     1       1.529  -0.754  -0.479  1.00  0.00     0.052 A 
ATOM     17  C   UNL     1       2.303   1.698  -0.626  1.00  0.00     0.047 C 
ATOM     18  C   UNL     1       1.264   0.630  -0.414  1.00  0.00    -0.024 A 
ATOM     19  C   UNL     1      -0.054   1.061  -0.171  1.00  0.00     0.044 A 
ATOM     20  C   UNL     1      -1.091   0.144  -0.042  1.00  0.00     0.123 A 
ATOM     21  C   UNL     1       0.450  -1.662  -0.375  1.00  0.00     0.030 A 
ATOM     22  F   UNL     1      -2.336   0.580   0.187  1.00  0.00    -0.207 F 
ATOM     23  C   UNL     1      -0.853  -1.215  -0.153  1.00  0.00     0.041 A 
ENDBRANCH   9  16
ENDBRANCH   5   8
ENDBRANCH   3   4
ENDBRANCH   2   3
ENDBRANCH   1   2
BRANCH   1  24
ATOM     24  C   UNL     1       4.284  -0.237   5.980  1.00  0.00     0.116 C 
BRANCH  24  25
ATOM     25  N   UNL     1       3.106   0.593   6.196  1.00  0.00    -0.352 N 
ATOM     26  C   UNL     1       2.723   1.335   7.292  1.00  0.00     0.251 C 
ATOM     27  H   UNL     1       2.482   0.630   5.435  1.00  0.00     0.163 HD
ATOM     28  O   UNL     1       1.634   1.903   7.305  1.00  0.00    -0.269 OA
BRANCH  26  29
ATOM     29  C   UNL     1       3.596   1.405   8.485  1.00  0.00     0.039 A 
ATOM     30  C   UNL     1       4.965   1.626   8.359  1.00  0.00     0.014 A 
ATOM     31  C   UNL     1       3.038   1.200   9.752  1.00  0.00     0.014 A 
ATOM     32  C   UNL     1       5.800   1.397   9.447  1.00  0.00     0.010 A 
ATOM     33  C   UNL     1       3.873   1.081  10.869  1.00  0.00     0.010 A 
ATOM     34  C   UNL     1       5.267   1.101  10.713  1.00  0.00    -0.014 A 
BRANCH  34  35
ATOM     35  C   UNL     1       6.191   0.784  11.836  1.00  0.00     0.031 A 
ATOM     36  C   UNL     1       6.185  -0.578  12.483  1.00  0.00     0.074 A 
ATOM     37  C   UNL     1       7.104   1.699  12.218  1.00  0.00     0.049 A 
ATOM     38  N   UNL     1       6.968  -1.044  13.426  1.00  0.00    -0.248 NA
ATOM     39  C   UNL     1       5.176  -1.545  12.019  1.00  0.00     0.031 C 
ATOM     40  C   UNL     1       7.230   3.046  11.658  1.00  0.00     0.029 A 
ATOM     41  N   UNL     1       8.126   1.621  13.130  1.00  0.00    -0.354 N 
ATOM     42  C   UNL     1       6.533  -2.340  13.680  1.00  0.00     0.074 A 
ATOM     43  C   UNL     1       5.401  -2.582  12.813  1.00  0.00     0.031 C 
ATOM     44  C   UNL     1       8.314   3.637  12.179  1.00  0.00     0.029 A 
ATOM     45  C   UNL     1       8.918   2.743  13.162  1.00  0.00     0.049 A 
ATOM     46  H   UNL     1       8.277   0.837  13.707  1.00  0.00     0.167 HD
ATOM     47  C   UNL     1       7.038  -3.250  14.546  1.00  0.00     0.031 A 
ATOM     48  C   UNL     1      10.008   3.032  13.898  1.00  0.00     0.031 A 
ATOM     49  C   UNL     1       8.177  -3.021  15.394  1.00  0.00     0.049 A 
ATOM     50  C   UNL     1      10.526   2.019  14.876  1.00  0.00     0.074 A 
ATOM     51  C   UNL     1       8.769  -3.896  16.291  1.00  0.00     0.029 A 
ATOM     52  N   UNL     1       8.901  -1.841  15.448  1.00  0.00    -0.354 N 
ATOM     53  N   UNL     1      10.097   0.802  15.104  1.00  0.00    -0.248 NA
ATOM     54  C   UNL     1      11.671   2.421  15.705  1.00  0.00     0.031 C 
ATOM     55  C   UNL     1       9.818  -3.227  16.926  1.00  0.00     0.029 A 
ATOM     56  C   UNL     1       9.918  -1.957  16.381  1.00  0.00     0.049 A 
ATOM     57  H   UNL     1       8.720  -1.041  14.905  1.00  0.00     0.167 HD
ATOM     58  C   UNL     1      10.921   0.290  16.096  1.00  0.00     0.074 A 
ATOM     59  C   UNL     1      11.891   1.319  16.410  1.00  0.00     0.031 C 
ATOM     60  C   UNL     1      10.871  -0.924  16.695  1.00  0.00     0.031 A 
BRANCH  47  61
ATOM     61  C   UNL     1       6.359  -4.589  14.641  1.00  0.00    -0.014 A 
ATOM     62  C   UNL     1       5.647  -4.927  15.804  1.00  0.00     0.009 A 
ATOM     63  C   UNL     1       6.501  -5.551  13.630  1.00  0.00     0.009 A 
ATOM     64  C   UNL     1       5.102  -6.203  15.958  1.00  0.00     0.001 A 
ATOM     65  C   UNL     1       5.932  -6.819  13.775  1.00  0.00     0.001 A 
ATOM     66  C   UNL     1       5.242  -7.147  14.942  1.00  0.00     0.000 A 
ENDBRANCH  47  61
BRANCH  48  67
ATOM     67  C   UNL     1      10.678   4.346  13.720  1.00  0.00    -0.014 A 
ATOM     68  C   UNL     1      10.037   5.531  14.118  1.00  0.00     0.009 A 
ATOM     69  C   UNL     1      11.932   4.429  13.098  1.00  0.00     0.009 A 
ATOM     70  C   UNL     1      10.623   6.773  13.868  1.00  0.00     0.001 A 
ATOM     71  C   UNL     1      12.529   5.673  12.876  1.00  0.00     0.001 A 
ATOM     72  C   UNL     1      11.870   6.843  13.251  1.00  0.00     0.000 A 
ENDBRANCH  48  67
BRANCH  60  73
ATOM     73  C   UNL     1      11.891  -1.222  17.756  1.00  0.00    -0.014 A 
ATOM     74  C   UNL     1      12.903  -2.163  17.509  1.00  0.00     0.009 A 
ATOM     75  C   UNL     1      11.796  -0.643  19.031  1.00  0.00     0.009 A 
ATOM     76  C   UNL     1      13.793  -2.527  18.520  1.00  0.00     0.001 A 
ATOM     77  C   UNL     1      12.705  -0.989  20.032  1.00  0.00     0.001 A 
ATOM     78  C   UNL     1      13.696  -1.937  19.779  1.00  0.00     0.000 A 
ENDBRANCH  60  73
ENDBRANCH  34  35
ENDBRANCH  26  29
ENDBRANCH  24  25
ENDBRANCH   1  24
TORSDOF 12
