REMARK SMILES Cc1cc(O[C@@H](C)C(=O)NCCCCNC(=O)c2ccc(-c3c4nc(c(-c5ccccc5)c5ccc([nH]5)c(-c5ccccc5)c5nc(c(-c6ccccc6)c6ccc3[nH]6)C=C5)C=C4)cc2)n(C)n1
REMARK SMILES IDX 12 1 11 2 10 3 8 4 9 5 6 7 7 8 5 9 4 10 1 11 2 12 3 13 68 14
REMARK SMILES IDX 66 15 67 16 13 17 14 18 15 19 16 20 17 22 18 23 19 24 65 25
REMARK SMILES IDX 20 26 64 27 21 28 22 29 23 30 58 31 24 32 63 33 57 34 59 35
REMARK SMILES IDX 25 36 62 37 56 38 55 39 26 41 48 42 33 43 47 44 34 45 37 46
REMARK SMILES IDX 46 47 60 48 35 49 36 50 45 52 61 53 38 54 27 55 28 56 32 57
REMARK SMILES IDX 29 58 31 59 30 60 49 61 50 62 54 63 51 64 53 65 52 66 39 67
REMARK SMILES IDX 40 68 44 69 41 70 43 71 42 72
REMARK H PARENT 10 6 15 21 59 40 37 51
REMARK Flexibility Score: inf
ROOT
ATOM      1  C   UNL     1      -1.353  -1.042  -1.845  1.00  0.00     0.023 C 
ENDROOT
BRANCH   1   2
ATOM      2  C   UNL     1      -1.527  -2.434  -1.239  1.00  0.00     0.116 C 
BRANCH   2   3
ATOM      3  N   UNL     1      -0.530  -3.354  -1.736  1.00  0.00    -0.353 N 
ATOM      4  C   UNL     1       0.653  -3.764  -1.206  1.00  0.00     0.260 C 
ATOM      5  O   UNL     1       1.343  -4.494  -1.929  1.00  0.00    -0.271 OA
ATOM      6  H   UNL     1      -0.745  -3.752  -2.610  1.00  0.00     0.163 HD
BRANCH   4   7
ATOM      7  C   UNL     1       1.135  -3.408   0.228  1.00  0.00     0.260 C 
ATOM      8  C   UNL     1       0.275  -4.003   1.340  1.00  0.00     0.064 C 
BRANCH   7   9
ATOM      9  O   UNL     1       1.697  -2.122   0.457  1.00  0.00    -0.465 OA
BRANCH   9  10
ATOM     10  C   UNL     1       0.955  -1.059   0.763  1.00  0.00     0.212 A 
ATOM     11  C   UNL     1      -1.710   1.292   1.703  1.00  0.00     0.069 C 
ATOM     12  C   UNL     1      -0.490   0.550   1.304  1.00  0.00     0.063 A 
ATOM     13  C   UNL     1      -0.206  -0.827   1.471  1.00  0.00     0.093 A 
ATOM     14  N   UNL     1       0.491   1.173   0.644  1.00  0.00    -0.175 NA
ATOM     15  N   UNL     1       1.389   0.197   0.402  1.00  0.00    -0.237 N 
ATOM     16  C   UNL     1       2.643   0.547  -0.220  1.00  0.00     0.178 C 
ENDBRANCH   9  10
ENDBRANCH   7   9
ENDBRANCH   4   7
ENDBRANCH   2   3
ENDBRANCH   1   2
BRANCH   1  17
ATOM     17  C   UNL     1      -2.336  -0.709  -2.965  1.00  0.00     0.023 C 
BRANCH  17  18
ATOM     18  C   UNL     1      -3.806  -0.714  -2.556  1.00  0.00     0.116 C 
BRANCH  18  19
ATOM     19  N   UNL     1      -4.125   0.152  -1.428  1.00  0.00    -0.352 N 
ATOM     20  C   UNL     1      -5.287   0.853  -1.195  1.00  0.00     0.251 C 
ATOM     21  H   UNL     1      -3.422   0.247  -0.746  1.00  0.00     0.163 HD
ATOM     22  O   UNL     1      -5.401   1.578  -0.212  1.00  0.00    -0.269 OA
BRANCH  20  23
ATOM     23  C   UNL     1      -6.377   0.760  -2.187  1.00  0.00     0.039 A 
ATOM     24  C   UNL     1      -6.864   1.932  -2.768  1.00  0.00     0.014 A 
ATOM     25  C   UNL     1      -6.823  -0.490  -2.621  1.00  0.00     0.014 A 
ATOM     26  C   UNL     1      -7.726   1.847  -3.864  1.00  0.00     0.010 A 
ATOM     27  C   UNL     1      -7.613  -0.573  -3.760  1.00  0.00     0.010 A 
ATOM     28  C   UNL     1      -8.059   0.594  -4.403  1.00  0.00    -0.014 A 
BRANCH  28  29
ATOM     29  C   UNL     1      -8.843   0.466  -5.657  1.00  0.00     0.031 A 
ATOM     30  C   UNL     1     -10.165  -0.248  -5.644  1.00  0.00     0.074 A 
ATOM     31  C   UNL     1      -8.312   0.883  -6.823  1.00  0.00     0.049 A 
ATOM     32  N   UNL     1     -10.930  -0.588  -6.650  1.00  0.00    -0.248 NA
ATOM     33  C   UNL     1     -10.671  -0.675  -4.330  1.00  0.00     0.031 C 
ATOM     34  C   UNL     1      -7.009   1.532  -6.983  1.00  0.00     0.029 A 
ATOM     35  N   UNL     1      -8.801   0.804  -8.103  1.00  0.00    -0.354 N 
ATOM     36  C   UNL     1     -11.982  -1.304  -6.095  1.00  0.00     0.074 A 
ATOM     37  C   UNL     1     -11.737  -1.383  -4.671  1.00  0.00     0.031 C 
ATOM     38  C   UNL     1      -6.812   1.811  -8.282  1.00  0.00     0.029 A 
ATOM     39  C   UNL     1      -7.955   1.329  -9.050  1.00  0.00     0.049 A 
ATOM     40  H   UNL     1      -9.675   0.408  -8.323  1.00  0.00     0.167 HD
ATOM     41  C   UNL     1     -13.062  -1.838  -6.712  1.00  0.00     0.031 A 
ATOM     42  C   UNL     1      -8.081   1.409 -10.387  1.00  0.00     0.031 A 
ATOM     43  C   UNL     1     -13.328  -1.724  -8.120  1.00  0.00     0.049 A 
ATOM     44  C   UNL     1      -9.316   0.861 -11.043  1.00  0.00     0.074 A 
ATOM     45  C   UNL     1     -14.437  -2.153  -8.826  1.00  0.00     0.029 A 
ATOM     46  N   UNL     1     -12.473  -1.129  -9.035  1.00  0.00    -0.354 N 
ATOM     47  N   UNL     1     -10.336   0.247 -10.496  1.00  0.00    -0.248 NA
ATOM     48  C   UNL     1      -9.421   1.027 -12.500  1.00  0.00     0.031 C 
ATOM     49  C   UNL     1     -14.240  -1.844 -10.177  1.00  0.00     0.029 A 
ATOM     50  C   UNL     1     -13.025  -1.190 -10.303  1.00  0.00     0.049 A 
ATOM     51  H   UNL     1     -11.604  -0.723  -8.816  1.00  0.00     0.167 HD
ATOM     52  C   UNL     1     -11.214  -0.028 -11.535  1.00  0.00     0.074 A 
ATOM     53  C   UNL     1     -10.613   0.498 -12.744  1.00  0.00     0.031 C 
ATOM     54  C   UNL     1     -12.412  -0.660 -11.492  1.00  0.00     0.031 A 
BRANCH  41  55
ATOM     55  C   UNL     1     -14.035  -2.598  -5.855  1.00  0.00    -0.014 A 
ATOM     56  C   UNL     1     -14.863  -1.938  -4.933  1.00  0.00     0.009 A 
ATOM     57  C   UNL     1     -14.128  -3.993  -5.976  1.00  0.00     0.009 A 
ATOM     58  C   UNL     1     -15.731  -2.666  -4.116  1.00  0.00     0.001 A 
ATOM     59  C   UNL     1     -15.018  -4.715  -5.179  1.00  0.00     0.001 A 
ATOM     60  C   UNL     1     -15.809  -4.052  -4.242  1.00  0.00     0.000 A 
ENDBRANCH  41  55
BRANCH  42  61
ATOM     61  C   UNL     1      -7.018   2.059 -11.194  1.00  0.00    -0.014 A 
ATOM     62  C   UNL     1      -7.218   3.343 -11.723  1.00  0.00     0.009 A 
ATOM     63  C   UNL     1      -5.796   1.410 -11.428  1.00  0.00     0.009 A 
ATOM     64  C   UNL     1      -6.223   3.957 -12.488  1.00  0.00     0.001 A 
ATOM     65  C   UNL     1      -4.794   2.035 -12.174  1.00  0.00     0.001 A 
ATOM     66  C   UNL     1      -5.011   3.304 -12.709  1.00  0.00     0.000 A 
ENDBRANCH  42  61
BRANCH  54  67
ATOM     67  C   UNL     1     -13.163  -0.792 -12.784  1.00  0.00    -0.014 A 
ATOM     68  C   UNL     1     -12.781  -1.735 -13.750  1.00  0.00     0.009 A 
ATOM     69  C   UNL     1     -14.294   0.005 -13.015  1.00  0.00     0.009 A 
ATOM     70  C   UNL     1     -13.507  -1.860 -14.936  1.00  0.00     0.001 A 
ATOM     71  C   UNL     1     -15.031  -0.138 -14.191  1.00  0.00     0.001 A 
ATOM     72  C   UNL     1     -14.633  -1.065 -15.153  1.00  0.00     0.000 A 
ENDBRANCH  54  67
ENDBRANCH  28  29
ENDBRANCH  20  23
ENDBRANCH  18  19
ENDBRANCH  17  18
ENDBRANCH   1  17
TORSDOF 13
