REMARK SMILES CCCCc1cc(S(F)(F)(F)(F)F)cc2c1O[C@@H](C(F)(F)F)C(C(=O)NCCCCNC(=O)c1ccc(-c3c4nc(c(-c5ccccc5)c5ccc([nH]5)c(-c5ccccc5)c5nc(c(-c6ccccc6)c6ccc3[nH]6)C=C5)C=C4)cc1)=C2
REMARK SMILES IDX 28 1 27 2 26 3 24 4 25 5 23 7 5 8 6 9 16 10 7 11 15 12 17 13
REMARK SMILES IDX 14 14 82 15 18 16 4 17 3 18 2 19 1 20 8 21 9 22 10 23 11 24
REMARK SMILES IDX 12 25 13 26 19 27 20 28 21 29 22 30 29 31 30 32 31 33 32 34
REMARK SMILES IDX 33 36 34 37 35 38 81 39 36 40 80 41 37 42 38 43 39 44 74 45
REMARK SMILES IDX 40 46 79 47 73 48 75 49 41 50 78 51 72 52 71 53 42 55 64 56
REMARK SMILES IDX 49 57 63 58 50 59 53 60 62 61 76 62 51 63 52 64 61 66 77 67
REMARK SMILES IDX 54 68 43 69 44 70 48 71 45 72 47 73 46 74 65 75 66 76 70 77
REMARK SMILES IDX 67 78 69 79 68 80 55 81 56 82 60 83 57 84 59 85 58 86
REMARK H PARENT 26 6 31 35 75 54 53 65
REMARK Flexibility Score: inf
ROOT
ATOM      1  C   UNL     1      -7.156  -2.428   1.919  1.00  0.00     0.023 C 
ENDROOT
BRANCH   1   2
ATOM      2  C   UNL     1      -6.026  -2.534   2.931  1.00  0.00     0.116 C 
BRANCH   2   3
ATOM      3  N   UNL     1      -5.255  -3.760   2.678  1.00  0.00    -0.352 N 
ATOM      4  C   UNL     1      -3.823  -3.675   2.357  1.00  0.00     0.251 C 
ATOM      5  O   UNL     1      -3.157  -4.735   2.139  1.00  0.00    -0.270 OA
ATOM      6  H   UNL     1      -5.699  -4.638   2.723  1.00  0.00     0.163 HD
BRANCH   4   7
ATOM      7  C   UNL     1      -3.139  -2.319   2.288  1.00  0.00     0.067 C 
ATOM      8  C   UNL     1      -1.091   1.310   2.569  1.00  0.00    -0.004 A 
ATOM      9  C   UNL     1      -1.796   2.499   2.608  1.00  0.00     0.032 A 
ATOM     10  C   UNL     1      -1.791   0.129   2.530  1.00  0.00     0.131 A 
ATOM     11  C   UNL     1      -3.166   2.506   2.613  1.00  0.00     0.108 A 
ATOM     12  C   UNL     1      -3.174   0.098   2.515  1.00  0.00     0.019 A 
ATOM     13  O   UNL     1      -1.080  -1.044   2.606  1.00  0.00    -0.475 OA
ATOM     14  C   UNL     1      -3.851   1.310   2.560  1.00  0.00     0.036 A 
ATOM     15  C   UNL     1      -3.821  -1.203   2.513  1.00  0.00     0.025 C 
ATOM     16  C   UNL     1      -1.657  -2.212   1.957  1.00  0.00     0.314 C 
BRANCH   8  17
ATOM     17  C   UNL     1       0.429   1.310   2.569  1.00  0.00     0.039 C 
BRANCH  17  18
ATOM     18  C   UNL     1       0.936  -0.119   2.457  1.00  0.00     0.005 C 
BRANCH  18  19
ATOM     19  C   UNL     1       0.429  -0.736   1.164  1.00  0.00    -0.003 C 
ATOM     20  C   UNL     1       0.936   0.075  -0.017  1.00  0.00     0.004 C 
ENDBRANCH  18  19
ENDBRANCH  17  18
ENDBRANCH   8  17
BRANCH  11  21
ATOM     21  S   UNL     1      -4.069   4.073   2.689  1.00  0.00     0.310 S 
ATOM     22  F   UNL     1      -4.040   4.085   4.274  1.00  0.00    -0.094 F 
ATOM     23  F   UNL     1      -5.415   3.260   2.788  1.00  0.00    -0.094 F 
ATOM     24  F   UNL     1      -4.844   5.419   2.754  1.00  0.00    -0.094 F 
ATOM     25  F   UNL     1      -2.704   4.866   2.730  1.00  0.00    -0.094 F 
ATOM     26  F   UNL     1      -3.264   2.713   2.736  1.00  0.00    -0.094 F 
ENDBRANCH  11  21
BRANCH  16  27
ATOM     27  C   UNL     1      -0.946  -3.459   2.457  1.00  0.00     0.429 C 
ATOM     28  F   UNL     1      -1.463  -4.532   1.866  1.00  0.00    -0.167 F 
ATOM     29  F   UNL     1       0.350  -3.376   2.169  1.00  0.00    -0.167 F 
ATOM     30  F   UNL     1      -1.101  -3.560   3.774  1.00  0.00    -0.167 F 
ENDBRANCH  16  27
ENDBRANCH   4   7
ENDBRANCH   2   3
ENDBRANCH   1   2
BRANCH   1  31
ATOM     31  C   UNL     1      -8.069  -3.636   2.051  1.00  0.00     0.023 C 
BRANCH  31  32
ATOM     32  C   UNL     1      -8.649  -3.683   3.455  1.00  0.00     0.116 C 
BRANCH  32  33
ATOM     33  N   UNL     1      -9.419  -2.457   3.708  1.00  0.00    -0.352 N 
ATOM     34  C   UNL     1     -10.851  -2.542   4.028  1.00  0.00     0.251 C 
ATOM     35  H   UNL     1      -8.976  -1.579   3.662  1.00  0.00     0.163 HD
ATOM     36  O   UNL     1     -11.517  -1.482   4.247  1.00  0.00    -0.269 OA
BRANCH  34  37
ATOM     37  C   UNL     1     -11.535  -3.897   4.098  1.00  0.00     0.039 A 
ATOM     38  C   UNL     1     -12.767  -4.057   3.485  1.00  0.00     0.014 A 
ATOM     39  C   UNL     1     -10.949  -4.902   4.737  1.00  0.00     0.014 A 
ATOM     40  C   UNL     1     -13.440  -5.247   3.850  1.00  0.00     0.010 A 
ATOM     41  C   UNL     1     -11.616  -6.086   4.941  1.00  0.00     0.010 A 
ATOM     42  C   UNL     1     -12.861  -6.291   4.413  1.00  0.00    -0.014 A 
BRANCH  42  43
ATOM     43  C   UNL     1     -13.541  -7.649   4.472  1.00  0.00     0.031 A 
ATOM     44  C   UNL     1     -13.785  -8.204   5.730  1.00  0.00     0.074 A 
ATOM     45  C   UNL     1     -13.882  -8.259   3.277  1.00  0.00     0.049 A 
ATOM     46  N   UNL     1     -14.396  -9.358   6.005  1.00  0.00    -0.248 NA
ATOM     47  C   UNL     1     -13.393  -7.574   6.999  1.00  0.00     0.031 C 
ATOM     48  C   UNL     1     -13.648  -7.702   2.005  1.00  0.00     0.029 A 
ATOM     49  N   UNL     1     -14.492  -9.481   3.096  1.00  0.00    -0.354 N 
ATOM     50  C   UNL     1     -14.459  -9.542   7.326  1.00  0.00     0.074 A 
ATOM     51  C   UNL     1     -13.810  -8.400   7.984  1.00  0.00     0.031 C 
ATOM     52  C   UNL     1     -14.098  -8.580   1.071  1.00  0.00     0.029 A 
ATOM     53  C   UNL     1     -14.623  -9.700   1.743  1.00  0.00     0.049 A 
ATOM     54  H   UNL     1     -14.784 -10.092   3.811  1.00  0.00     0.167 HD
ATOM     55  C   UNL     1     -15.035 -10.616   8.007  1.00  0.00     0.031 A 
ATOM     56  C   UNL     1     -15.165 -10.808   1.111  1.00  0.00     0.031 A 
ATOM     57  C   UNL     1     -15.616 -11.704   7.375  1.00  0.00     0.049 A 
ATOM     58  C   UNL     1     -15.689 -11.910   1.791  1.00  0.00     0.074 A 
ATOM     59  C   UNL     1     -16.207 -12.791   8.046  1.00  0.00     0.029 A 
ATOM     60  N   UNL     1     -15.725 -11.934   6.021  1.00  0.00    -0.354 N 
ATOM     61  N   UNL     1     -15.788 -12.075   3.111  1.00  0.00    -0.248 NA
ATOM     62  C   UNL     1     -16.236 -13.103   1.132  1.00  0.00     0.031 C 
ATOM     63  C   UNL     1     -16.659 -13.669   7.111  1.00  0.00     0.029 A 
ATOM     64  C   UNL     1     -16.355 -13.145   5.840  1.00  0.00     0.049 A 
ATOM     65  H   UNL     1     -15.407 -11.336   5.306  1.00  0.00     0.167 HD
ATOM     66  C   UNL     1     -16.361 -13.248   3.386  1.00  0.00     0.074 A 
ATOM     67  C   UNL     1     -16.651 -13.930   2.117  1.00  0.00     0.031 C 
ATOM     68  C   UNL     1     -16.658 -13.776   4.644  1.00  0.00     0.031 A 
BRANCH  55  69
ATOM     69  C   UNL     1     -15.024 -10.590   9.526  1.00  0.00    -0.014 A 
ATOM     70  C   UNL     1     -15.651  -9.550  10.192  1.00  0.00     0.009 A 
ATOM     71  C   UNL     1     -14.408 -11.562  10.190  1.00  0.00     0.009 A 
ATOM     72  C   UNL     1     -15.325  -9.470  11.567  1.00  0.00     0.001 A 
ATOM     73  C   UNL     1     -14.244 -11.483  11.552  1.00  0.00     0.001 A 
ATOM     74  C   UNL     1     -14.787 -10.452  12.267  1.00  0.00     0.000 A 
ENDBRANCH  55  69
BRANCH  56  75
ATOM     75  C   UNL     1     -15.192 -10.825  -0.409  1.00  0.00    -0.014 A 
ATOM     76  C   UNL     1     -16.407 -10.918  -1.067  1.00  0.00     0.009 A 
ATOM     77  C   UNL     1     -14.049 -10.747  -1.081  1.00  0.00     0.009 A 
ATOM     78  C   UNL     1     -16.291 -11.214  -2.446  1.00  0.00     0.001 A 
ATOM     79  C   UNL     1     -14.027 -10.911  -2.445  1.00  0.00     0.001 A 
ATOM     80  C   UNL     1     -15.186 -11.067  -3.153  1.00  0.00     0.000 A 
ENDBRANCH  56  75
BRANCH  68  81
ATOM     81  C   UNL     1     -17.354 -15.126   4.705  1.00  0.00    -0.014 A 
ATOM     82  C   UNL     1     -16.727 -16.227   4.146  1.00  0.00     0.009 A 
ATOM     83  C   UNL     1     -18.542 -15.233   5.289  1.00  0.00     0.009 A 
ATOM     84  C   UNL     1     -17.570 -17.354   3.999  1.00  0.00     0.001 A 
ATOM     85  C   UNL     1     -19.252 -16.407   5.221  1.00  0.00     0.001 A 
ATOM     86  C   UNL     1     -18.717 -17.519   4.632  1.00  0.00     0.000 A 
ENDBRANCH  68  81
ENDBRANCH  42  43
ENDBRANCH  34  37
ENDBRANCH  32  33
ENDBRANCH  31  32
ENDBRANCH   1  31
TORSDOF 16
