REMARK SMILES COc1ccccc1-n1nnc(C(=O)NCCCCNC(=O)c2ccc(-c3c4nc(c(-c5ccccc5)c5ccc([nH]5)c(-c5ccccc5)c5nc(c(-c6ccccc6)c6ccc3[nH]6)C=C5)C=C4)cc2)c1-c1ccc(Cl)cc1
REMARK SMILES IDX 17 1 16 2 15 3 13 4 14 5 12 7 9 8 10 9 71 10 11 11 8 12 3 13
REMARK SMILES IDX 4 14 5 15 7 16 6 17 2 18 1 19 72 20 73 21 78 22 74 23 77 24
REMARK SMILES IDX 75 25 76 26 18 27 19 28 20 29 21 30 22 32 23 33 24 34 70 35
REMARK SMILES IDX 25 36 69 37 26 38 27 39 28 40 63 41 29 42 68 43 62 44 64 45
REMARK SMILES IDX 30 46 67 47 61 48 60 49 31 51 53 52 38 53 52 54 39 55 42 56
REMARK SMILES IDX 51 57 65 58 40 59 41 60 50 62 66 63 43 64 32 65 33 66 37 67
REMARK SMILES IDX 34 68 36 69 35 70 54 71 55 72 59 73 56 74 58 75 57 76 44 77
REMARK SMILES IDX 45 78 49 79 46 80 48 81 47 82
REMARK H PARENT 15 6 20 31 64 50 42 61
REMARK Flexibility Score: inf
ROOT
ATOM      1  C   UNL     1       5.463   4.093   1.857  1.00  0.00     0.023 C 
ENDROOT
BRANCH   1   2
ATOM      2  C   UNL     1       4.686   3.127   0.973  1.00  0.00     0.116 C 
BRANCH   2   3
ATOM      3  N   UNL     1       5.286   2.580  -0.212  1.00  0.00    -0.351 N 
ATOM      4  C   UNL     1       5.113   1.306  -0.740  1.00  0.00     0.274 C 
ATOM      5  O   UNL     1       5.679   1.095  -1.817  1.00  0.00    -0.267 OA
ATOM      6  H   UNL     1       5.892   3.178  -0.708  1.00  0.00     0.163 HD
BRANCH   4   7
ATOM      7  C   UNL     1       4.351   0.228  -0.071  1.00  0.00     0.178 A 
ATOM      8  N   UNL     1       3.064  -1.175   1.041  1.00  0.00    -0.208 N 
ATOM      9  N   UNL     1       4.045  -1.895   0.467  1.00  0.00    -0.061 NA
ATOM     10  C   UNL     1       3.262   0.188   0.805  1.00  0.00     0.108 A 
ATOM     11  N   UNL     1       4.758  -1.079  -0.290  1.00  0.00    -0.124 NA
BRANCH   8  12
ATOM     12  C   UNL     1       2.112  -1.768   1.907  1.00  0.00     0.109 A 
ATOM     13  C   UNL     1       0.771  -1.355   1.928  1.00  0.00     0.144 A 
ATOM     14  C   UNL     1      -0.013  -1.654   3.047  1.00  0.00     0.049 A 
ATOM     15  C   UNL     1       0.509  -2.402   4.103  1.00  0.00     0.004 A 
ATOM     16  C   UNL     1       2.614  -2.592   2.930  1.00  0.00     0.032 A 
ATOM     17  C   UNL     1       1.812  -2.890   4.034  1.00  0.00     0.003 A 
BRANCH  13  18
ATOM     18  O   UNL     1       0.140  -0.580   0.993  1.00  0.00    -0.494 OA
ATOM     19  C   UNL     1       0.247  -1.021  -0.358  1.00  0.00     0.278 C 
ENDBRANCH  13  18
ENDBRANCH   8  12
BRANCH  10  20
ATOM     20  C   UNL     1       2.491   1.192   1.536  1.00  0.00     0.003 A 
ATOM     21  C   UNL     1       1.571   2.022   0.892  1.00  0.00     0.012 A 
ATOM     22  C   UNL     1       2.675   1.309   2.930  1.00  0.00     0.012 A 
ATOM     23  C   UNL     1       0.834   2.944   1.639  1.00  0.00     0.021 A 
ATOM     24  C   UNL     1       1.971   2.260   3.662  1.00  0.00     0.021 A 
ATOM     25  C   UNL     1       1.049   3.071   3.012  1.00  0.00     0.041 A 
ATOM     26  Cl  UNL     1       0.168   4.241   3.909  1.00  0.00    -0.084 Cl
ENDBRANCH  10  20
ENDBRANCH   4   7
ENDBRANCH   2   3
ENDBRANCH   1   2
BRANCH   1  27
ATOM     27  C   UNL     1       5.447   5.581   1.513  1.00  0.00     0.023 C 
BRANCH  27  28
ATOM     28  C   UNL     1       4.076   6.221   1.327  1.00  0.00     0.116 C 
BRANCH  28  29
ATOM     29  N   UNL     1       3.274   6.363   2.542  1.00  0.00    -0.352 N 
ATOM     30  C   UNL     1       2.102   7.110   2.670  1.00  0.00     0.251 C 
ATOM     31  H   UNL     1       3.590   5.887   3.344  1.00  0.00     0.163 HD
ATOM     32  O   UNL     1       1.694   7.493   3.746  1.00  0.00    -0.269 OA
BRANCH  30  33
ATOM     33  C   UNL     1       1.359   7.419   1.429  1.00  0.00     0.039 A 
ATOM     34  C   UNL     1       0.904   8.705   1.132  1.00  0.00     0.014 A 
ATOM     35  C   UNL     1       1.221   6.384   0.511  1.00  0.00     0.014 A 
ATOM     36  C   UNL     1       0.421   8.963  -0.151  1.00  0.00     0.010 A 
ATOM     37  C   UNL     1       0.863   6.660  -0.781  1.00  0.00     0.010 A 
ATOM     38  C   UNL     1       0.440   7.942  -1.114  1.00  0.00    -0.014 A 
BRANCH  38  39
ATOM     39  C   UNL     1       0.197   8.228  -2.523  1.00  0.00     0.031 A 
ATOM     40  C   UNL     1       1.113   9.238  -3.129  1.00  0.00     0.074 A 
ATOM     41  C   UNL     1      -0.569   7.436  -3.303  1.00  0.00     0.049 A 
ATOM     42  N   UNL     1       0.803  10.393  -3.616  1.00  0.00    -0.248 NA
ATOM     43  C   UNL     1       2.563   8.978  -3.097  1.00  0.00     0.031 C 
ATOM     44  C   UNL     1      -1.243   6.182  -2.947  1.00  0.00     0.029 A 
ATOM     45  N   UNL     1      -0.770   7.511  -4.644  1.00  0.00    -0.354 N 
ATOM     46  C   UNL     1       1.984  10.937  -4.118  1.00  0.00     0.074 A 
ATOM     47  C   UNL     1       3.050  10.106  -3.619  1.00  0.00     0.031 C 
ATOM     48  C   UNL     1      -1.536   5.496  -4.074  1.00  0.00     0.029 A 
ATOM     49  C   UNL     1      -1.228   6.334  -5.219  1.00  0.00     0.049 A 
ATOM     50  H   UNL     1      -0.606   8.331  -5.163  1.00  0.00     0.167 HD
ATOM     51  C   UNL     1       1.975  11.888  -5.095  1.00  0.00     0.031 A 
ATOM     52  C   UNL     1      -1.294   6.054  -6.544  1.00  0.00     0.031 A 
ATOM     53  C   UNL     1       0.656  12.435  -5.292  1.00  0.00     0.049 A 
ATOM     54  C   UNL     1      -1.246   7.348  -7.269  1.00  0.00     0.074 A 
ATOM     55  C   UNL     1      -0.262  13.070  -4.479  1.00  0.00     0.029 A 
ATOM     56  N   UNL     1      -0.059  11.977  -6.375  1.00  0.00    -0.354 N 
ATOM     57  N   UNL     1      -2.194   8.240  -7.197  1.00  0.00    -0.248 NA
ATOM     58  C   UNL     1       0.055   7.856  -7.679  1.00  0.00     0.031 C 
ATOM     59  C   UNL     1      -1.517  12.498  -4.843  1.00  0.00     0.029 A 
ATOM     60  C   UNL     1      -1.299  11.625  -5.911  1.00  0.00     0.049 A 
ATOM     61  H   UNL     1       0.260  11.915  -7.305  1.00  0.00     0.167 HD
ATOM     62  C   UNL     1      -1.530   9.455  -7.104  1.00  0.00     0.074 A 
ATOM     63  C   UNL     1      -0.153   9.165  -7.509  1.00  0.00     0.031 C 
ATOM     64  C   UNL     1      -2.068  10.514  -6.427  1.00  0.00     0.031 A 
BRANCH  51  65
ATOM     65  C   UNL     1       3.047  12.038  -6.148  1.00  0.00    -0.014 A 
ATOM     66  C   UNL     1       2.933  13.085  -7.082  1.00  0.00     0.009 A 
ATOM     67  C   UNL     1       3.994  11.037  -6.436  1.00  0.00     0.009 A 
ATOM     68  C   UNL     1       3.660  13.081  -8.279  1.00  0.00     0.001 A 
ATOM     69  C   UNL     1       4.753  11.052  -7.610  1.00  0.00     0.001 A 
ATOM     70  C   UNL     1       4.563  12.057  -8.546  1.00  0.00     0.000 A 
ENDBRANCH  51  65
BRANCH  52  71
ATOM     71  C   UNL     1      -1.120   4.745  -7.213  1.00  0.00    -0.014 A 
ATOM     72  C   UNL     1      -1.513   4.554  -8.546  1.00  0.00     0.009 A 
ATOM     73  C   UNL     1      -0.334   3.740  -6.616  1.00  0.00     0.009 A 
ATOM     74  C   UNL     1      -1.108   3.418  -9.262  1.00  0.00     0.001 A 
ATOM     75  C   UNL     1       0.066   2.604  -7.328  1.00  0.00     0.001 A 
ATOM     76  C   UNL     1      -0.309   2.450  -8.657  1.00  0.00     0.000 A 
ENDBRANCH  52  71
BRANCH  64  77
ATOM     77  C   UNL     1      -3.493  10.409  -5.934  1.00  0.00    -0.014 A 
ATOM     78  C   UNL     1      -3.928   9.409  -5.045  1.00  0.00     0.009 A 
ATOM     79  C   UNL     1      -4.374  11.460  -6.225  1.00  0.00     0.009 A 
ATOM     80  C   UNL     1      -5.210   9.449  -4.487  1.00  0.00     0.001 A 
ATOM     81  C   UNL     1      -5.647  11.513  -5.651  1.00  0.00     0.001 A 
ATOM     82  C   UNL     1      -6.066  10.506  -4.786  1.00  0.00     0.000 A 
ENDBRANCH  64  77
ENDBRANCH  38  39
ENDBRANCH  30  33
ENDBRANCH  28  29
ENDBRANCH  27  28
ENDBRANCH   1  27
TORSDOF 14
