REMARK SMILES C[C@H](NC(=O)OCc1ccccc1)C(=O)NCC(=O)N1CCC[C@H]1C(=O)NCCCCNC(=O)c1ccc(-c2c3nc(c(-c4ccccc4)c4ccc([nH]4)c(-c4ccccc4)c4nc(c(-c5ccccc5)c5ccc2[nH]5)C=C4)C=C3)cc1
REMARK SMILES IDX 20 1 21 2 22 3 23 4 24 5 18 6 19 7 17 8 16 9 14 10 15 11
REMARK SMILES IDX 2 13 1 14 3 15 4 16 5 18 6 19 7 20 8 21 9 22 13 23 10 24
REMARK SMILES IDX 12 25 11 26 25 27 26 28 27 29 28 31 29 32 30 33 31 34 32 35
REMARK SMILES IDX 33 36 34 38 35 39 36 40 82 41 37 42 81 43 38 44 39 45 40 46
REMARK SMILES IDX 75 47 41 48 80 49 74 50 76 51 42 52 79 53 73 54 72 55 43 57
REMARK SMILES IDX 65 58 50 59 64 60 51 61 54 62 63 63 77 64 52 65 53 66 62 68
REMARK SMILES IDX 78 69 55 70 44 71 45 72 49 73 46 74 48 75 47 76 66 77 67 78
REMARK SMILES IDX 71 79 68 80 70 81 69 82 56 83 57 84 61 85 58 86 60 87 59 88
REMARK H PARENT 16 12 3 17 27 30 32 37 76 56 54 67
REMARK Flexibility Score: inf
ROOT
ATOM      1  N   UNL     1      -1.325  -0.948   1.998  1.00  0.00    -0.329 N 
ATOM      2  C   UNL     1      -1.700   0.432   1.778  1.00  0.00     0.120 C 
ATOM      3  C   UNL     1      -0.569   1.206   2.427  1.00  0.00     0.024 C 
ATOM      4  C   UNL     1      -0.208   0.377   3.652  1.00  0.00     0.037 C 
ATOM      5  C   UNL     1      -0.727  -1.056   3.366  1.00  0.00     0.174 C 
ENDROOT
BRANCH   1   6
ATOM      6  C   UNL     1      -1.143  -1.918   1.033  1.00  0.00     0.242 C 
ATOM      7  O   UNL     1      -0.683  -3.031   1.316  1.00  0.00    -0.273 OA
BRANCH   6   8
ATOM      8  C   UNL     1      -1.613  -1.801  -0.424  1.00  0.00     0.216 C 
BRANCH   8   9
ATOM      9  N   UNL     1      -1.740  -0.556  -1.134  1.00  0.00    -0.345 N 
ATOM     10  C   UNL     1      -0.811   0.169  -1.809  1.00  0.00     0.242 C 
ATOM     11  O   UNL     1      -1.245   1.092  -2.508  1.00  0.00    -0.273 OA
ATOM     12  H   UNL     1      -2.645  -0.168  -1.129  1.00  0.00     0.164 HD
BRANCH  10  13
ATOM     13  C   UNL     1       0.703  -0.145  -1.796  1.00  0.00     0.171 C 
ATOM     14  C   UNL     1       1.084  -1.242  -2.777  1.00  0.00     0.042 C 
BRANCH  13  15
ATOM     15  N   UNL     1       1.274  -0.220  -0.456  1.00  0.00    -0.310 N 
ATOM     16  C   UNL     1       1.712  -1.254   0.312  1.00  0.00     0.408 C 
ATOM     17  H   UNL     1       1.359   0.657  -0.017  1.00  0.00     0.167 HD
ATOM     18  O   UNL     1       2.028  -1.052   1.474  1.00  0.00    -0.225 OA
BRANCH  16  19
ATOM     19  O   UNL     1       1.730  -2.446  -0.325  1.00  0.00    -0.445 OA
BRANCH  19  20
ATOM     20  C   UNL     1       2.136  -3.573   0.475  1.00  0.00     0.270 C 
BRANCH  20  21
ATOM     21  C   UNL     1       3.591  -3.535   0.866  1.00  0.00    -0.011 A 
ATOM     22  C   UNL     1       3.979  -4.024   2.122  1.00  0.00     0.007 A 
ATOM     23  C   UNL     1       4.557  -2.987   0.015  1.00  0.00     0.007 A 
ATOM     24  C   UNL     1       5.302  -3.911   2.542  1.00  0.00     0.000 A 
ATOM     25  C   UNL     1       5.877  -2.866   0.441  1.00  0.00     0.000 A 
ATOM     26  C   UNL     1       6.247  -3.319   1.707  1.00  0.00     0.000 A 
ENDBRANCH  20  21
ENDBRANCH  19  20
ENDBRANCH  16  19
ENDBRANCH  13  15
ENDBRANCH  10  13
ENDBRANCH   8   9
ENDBRANCH   6   8
ENDBRANCH   1   6
BRANCH   5  27
ATOM     27  C   UNL     1      -1.657  -1.516   4.556  1.00  0.00     0.242 C 
ATOM     28  O   UNL     1      -1.866  -0.814   5.550  1.00  0.00    -0.273 OA
ATOM     29  N   UNL     1      -2.194  -2.778   4.591  1.00  0.00    -0.354 N 
ATOM     30  H   UNL     1      -2.743  -3.019   5.372  1.00  0.00     0.163 HD
BRANCH  29  31
ATOM     31  C   UNL     1      -2.014  -3.768   3.573  1.00  0.00     0.116 C 
BRANCH  31  32
ATOM     32  C   UNL     1      -2.029  -5.228   3.976  1.00  0.00     0.023 C 
BRANCH  32  33
ATOM     33  C   UNL     1      -3.275  -5.737   4.668  1.00  0.00     0.023 C 
BRANCH  33  34
ATOM     34  C   UNL     1      -4.585  -5.394   3.980  1.00  0.00     0.116 C 
BRANCH  34  35
ATOM     35  N   UNL     1      -4.734  -6.006   2.665  1.00  0.00    -0.352 N 
ATOM     36  C   UNL     1      -5.640  -6.948   2.232  1.00  0.00     0.251 C 
ATOM     37  H   UNL     1      -4.090  -5.700   1.985  1.00  0.00     0.163 HD
ATOM     38  O   UNL     1      -5.548  -7.432   1.109  1.00  0.00    -0.269 OA
BRANCH  36  39
ATOM     39  C   UNL     1      -6.702  -7.410   3.151  1.00  0.00     0.039 A 
ATOM     40  C   UNL     1      -6.907  -8.780   3.320  1.00  0.00     0.014 A 
ATOM     41  C   UNL     1      -7.443  -6.491   3.896  1.00  0.00     0.014 A 
ATOM     42  C   UNL     1      -7.783  -9.228   4.313  1.00  0.00     0.010 A 
ATOM     43  C   UNL     1      -8.223  -6.938   4.956  1.00  0.00     0.010 A 
ATOM     44  C   UNL     1      -8.403  -8.311   5.178  1.00  0.00    -0.014 A 
BRANCH  44  45
ATOM     45  C   UNL     1      -9.240  -8.764   6.320  1.00  0.00     0.031 A 
ATOM     46  C   UNL     1     -10.687  -8.352   6.402  1.00  0.00     0.074 A 
ATOM     47  C   UNL     1      -8.686  -9.483   7.318  1.00  0.00     0.049 A 
ATOM     48  N   UNL     1     -11.559  -8.590   7.349  1.00  0.00    -0.248 NA
ATOM     49  C   UNL     1     -11.218  -7.543   5.292  1.00  0.00     0.031 C 
ATOM     50  C   UNL     1      -7.284  -9.905   7.388  1.00  0.00     0.029 A 
ATOM     51  N   UNL     1      -9.236  -9.983   8.474  1.00  0.00    -0.354 N 
ATOM     52  C   UNL     1     -12.725  -7.943   6.960  1.00  0.00     0.074 A 
ATOM     53  C   UNL     1     -12.440  -7.261   5.718  1.00  0.00     0.031 C 
ATOM     54  C   UNL     1      -7.093 -10.622   8.508  1.00  0.00     0.029 A 
ATOM     55  C   UNL     1      -8.342 -10.671   9.260  1.00  0.00     0.049 A 
ATOM     56  H   UNL     1     -10.182  -9.859   8.716  1.00  0.00     0.167 HD
ATOM     57  C   UNL     1     -13.933  -7.935   7.569  1.00  0.00     0.031 A 
ATOM     58  C   UNL     1      -8.505 -11.264  10.460  1.00  0.00     0.031 A 
ATOM     59  C   UNL     1     -14.227  -8.635   8.790  1.00  0.00     0.049 A 
ATOM     60  C   UNL     1      -9.860 -11.229  11.115  1.00  0.00     0.074 A 
ATOM     61  C   UNL     1     -15.442  -8.748   9.442  1.00  0.00     0.029 A 
ATOM     62  N   UNL     1     -13.299  -9.335   9.542  1.00  0.00    -0.354 N 
ATOM     63  N   UNL     1     -10.975 -10.692  10.683  1.00  0.00    -0.248 NA
ATOM     64  C   UNL     1      -9.981 -11.894  12.421  1.00  0.00     0.031 C 
ATOM     65  C   UNL     1     -15.236  -9.461  10.625  1.00  0.00     0.029 A 
ATOM     66  C   UNL     1     -13.908  -9.854  10.671  1.00  0.00     0.049 A 
ATOM     67  H   UNL     1     -12.349  -9.447   9.309  1.00  0.00     0.167 HD
ATOM     68  C   UNL     1     -11.934 -10.986  11.644  1.00  0.00     0.074 A 
ATOM     69  C   UNL     1     -11.276 -11.767  12.670  1.00  0.00     0.031 C 
ATOM     70  C   UNL     1     -13.244 -10.640  11.676  1.00  0.00     0.031 A 
BRANCH  57  71
ATOM     71  C   UNL     1     -15.040  -7.142   6.931  1.00  0.00    -0.014 A 
ATOM     72  C   UNL     1     -15.645  -7.562   5.737  1.00  0.00     0.009 A 
ATOM     73  C   UNL     1     -15.541  -6.004   7.583  1.00  0.00     0.009 A 
ATOM     74  C   UNL     1     -16.716  -6.848   5.198  1.00  0.00     0.001 A 
ATOM     75  C   UNL     1     -16.631  -5.309   7.058  1.00  0.00     0.001 A 
ATOM     76  C   UNL     1     -17.215  -5.728   5.864  1.00  0.00     0.000 A 
ENDBRANCH  57  71
BRANCH  58  77
ATOM     77  C   UNL     1      -7.361 -11.933  11.139  1.00  0.00    -0.014 A 
ATOM     78  C   UNL     1      -7.367 -13.321  11.357  1.00  0.00     0.009 A 
ATOM     79  C   UNL     1      -6.282 -11.179  11.627  1.00  0.00     0.009 A 
ATOM     80  C   UNL     1      -6.346 -13.928  12.093  1.00  0.00     0.001 A 
ATOM     81  C   UNL     1      -5.243 -11.795  12.329  1.00  0.00     0.001 A 
ATOM     82  C   UNL     1      -5.285 -13.166  12.576  1.00  0.00     0.000 A 
ENDBRANCH  58  77
BRANCH  70  83
ATOM     83  C   UNL     1     -14.066 -11.147  12.828  1.00  0.00    -0.014 A 
ATOM     84  C   UNL     1     -13.890 -10.654  14.130  1.00  0.00     0.009 A 
ATOM     85  C   UNL     1     -15.068 -12.102  12.593  1.00  0.00     0.009 A 
ATOM     86  C   UNL     1     -14.675 -11.137  15.179  1.00  0.00     0.001 A 
ATOM     87  C   UNL     1     -15.874 -12.557  13.636  1.00  0.00     0.001 A 
ATOM     88  C   UNL     1     -15.670 -12.082  14.930  1.00  0.00     0.000 A 
ENDBRANCH  70  83
ENDBRANCH  44  45
ENDBRANCH  36  39
ENDBRANCH  34  35
ENDBRANCH  33  34
ENDBRANCH  32  33
ENDBRANCH  31  32
ENDBRANCH  29  31
ENDBRANCH   5  27
TORSDOF 19
