REMARK SMILES Cc1c(NC(=O)[C@@H]2CC=CC[C@@H]2C(=O)NCCCCNC(=O)c2ccc(-c3c4nc(c(-c5ccccc5)c5ccc([nH]5)c(-c5ccccc5)c5nc(c(-c6ccccc6)c6ccc3[nH]6)C=C5)C=C4)cc2)cccc1C(=O)N1CCOCC1
REMARK SMILES IDX 17 1 16 2 15 3 13 4 14 5 12 7 7 8 8 9 9 10 11 11 10 12 5 13
REMARK SMILES IDX 4 14 6 16 3 17 1 18 2 19 74 20 71 21 73 22 72 23 75 24 76 25
REMARK SMILES IDX 77 26 78 27 82 28 79 29 81 30 80 31 18 32 19 33 20 34 21 35
REMARK SMILES IDX 22 37 23 38 24 39 70 40 25 41 69 42 26 43 27 44 28 45 63 46
REMARK SMILES IDX 29 47 68 48 62 49 64 50 30 51 67 52 61 53 60 54 31 56 53 57
REMARK SMILES IDX 38 58 52 59 39 60 42 61 51 62 65 63 40 64 41 65 50 67 66 68
REMARK SMILES IDX 43 69 32 70 33 71 37 72 34 73 36 74 35 75 54 76 55 77 59 78
REMARK SMILES IDX 56 79 58 80 57 81 44 82 45 83 49 84 46 85 48 86 47 87
REMARK H PARENT 15 6 4 15 20 36 64 55 42 66
REMARK Flexibility Score: inf
ROOT
ATOM      1  C   UNL     1      -4.117  -4.428   2.390  1.00  0.00     0.023 C 
ENDROOT
BRANCH   1   2
ATOM      2  C   UNL     1      -3.910  -4.616   0.874  1.00  0.00     0.116 C 
BRANCH   2   3
ATOM      3  N   UNL     1      -4.172  -3.413   0.101  1.00  0.00    -0.356 N 
ATOM      4  C   UNL     1      -3.492  -2.555  -0.688  1.00  0.00     0.224 C 
ATOM      5  O   UNL     1      -4.248  -1.754  -1.269  1.00  0.00    -0.275 OA
ATOM      6  H   UNL     1      -5.118  -3.148   0.174  1.00  0.00     0.163 HD
BRANCH   4   7
ATOM      7  C   UNL     1      -1.977  -2.462  -0.993  1.00  0.00     0.095 C 
ATOM      8  C   UNL     1      -0.885  -3.240  -0.222  1.00  0.00     0.095 C 
ATOM      9  C   UNL     1      -0.936  -2.890   1.264  1.00  0.00     0.041 C 
ATOM     10  C   UNL     1      -1.006  -1.403   1.486  1.00  0.00    -0.030 C 
ATOM     11  C   UNL     1      -1.583  -0.959  -0.909  1.00  0.00     0.041 C 
ATOM     12  C   UNL     1      -1.261  -0.531   0.499  1.00  0.00    -0.030 C 
BRANCH   8  13
ATOM     13  C   UNL     1      -0.873  -4.698  -0.625  1.00  0.00     0.228 C 
ATOM     14  N   UNL     1      -0.032  -5.631  -0.126  1.00  0.00    -0.326 N 
ATOM     15  H   UNL     1      -0.261  -6.528  -0.461  1.00  0.00     0.169 HD
ATOM     16  O   UNL     1      -1.680  -5.128  -1.460  1.00  0.00    -0.274 OA
BRANCH  14  17
ATOM     17  C   UNL     1       1.079  -5.686   0.737  1.00  0.00     0.044 A 
ATOM     18  C   UNL     1       0.240  -7.966   1.320  1.00  0.00     0.047 C 
ATOM     19  C   UNL     1       1.327  -6.936   1.374  1.00  0.00    -0.015 A 
ATOM     20  C   UNL     1       2.489  -7.141   2.143  1.00  0.00     0.045 A 
ATOM     21  C   UNL     1       1.940  -4.621   0.976  1.00  0.00     0.026 A 
ATOM     22  C   UNL     1       3.318  -6.038   2.387  1.00  0.00     0.014 A 
ATOM     23  C   UNL     1       3.036  -4.789   1.826  1.00  0.00     0.003 A 
BRANCH  20  24
ATOM     24  C   UNL     1       2.772  -8.393   2.920  1.00  0.00     0.254 C 
ATOM     25  O   UNL     1       3.206  -8.250   4.064  1.00  0.00    -0.269 OA
ATOM     26  N   UNL     1       2.466  -9.656   2.414  1.00  0.00    -0.334 N 
ATOM     27  C   UNL     1       2.575 -10.100   1.017  1.00  0.00     0.148 C 
ATOM     28  C   UNL     1       2.272 -10.752   3.368  1.00  0.00     0.148 C 
ATOM     29  C   UNL     1       1.478 -11.120   0.646  1.00  0.00     0.181 C 
ATOM     30  C   UNL     1       1.108 -11.640   2.921  1.00  0.00     0.181 C 
ATOM     31  O   UNL     1       1.364 -12.175   1.612  1.00  0.00    -0.378 OA
ENDBRANCH  20  24
ENDBRANCH  14  17
ENDBRANCH   8  13
ENDBRANCH   4   7
ENDBRANCH   2   3
ENDBRANCH   1   2
BRANCH   1  32
ATOM     32  C   UNL     1      -5.543  -4.118   2.844  1.00  0.00     0.023 C 
BRANCH  32  33
ATOM     33  C   UNL     1      -6.490  -5.306   2.780  1.00  0.00     0.116 C 
BRANCH  33  34
ATOM     34  N   UNL     1      -6.572  -6.107   3.998  1.00  0.00    -0.352 N 
ATOM     35  C   UNL     1      -7.234  -7.311   4.188  1.00  0.00     0.251 C 
ATOM     36  H   UNL     1      -6.099  -5.748   4.783  1.00  0.00     0.163 HD
ATOM     37  O   UNL     1      -7.227  -7.862   5.288  1.00  0.00    -0.269 OA
BRANCH  35  38
ATOM     38  C   UNL     1      -7.822  -8.000   3.013  1.00  0.00     0.039 A 
ATOM     39  C   UNL     1      -7.431  -9.320   2.780  1.00  0.00     0.014 A 
ATOM     40  C   UNL     1      -8.469  -7.272   2.019  1.00  0.00     0.014 A 
ATOM     41  C   UNL     1      -7.401  -9.792   1.471  1.00  0.00     0.010 A 
ATOM     42  C   UNL     1      -8.345  -7.694   0.710  1.00  0.00     0.010 A 
ATOM     43  C   UNL     1      -7.737  -8.921   0.433  1.00  0.00    -0.014 A 
BRANCH  43  44
ATOM     44  C   UNL     1      -7.404  -9.203  -0.957  1.00  0.00     0.031 A 
ATOM     45  C   UNL     1      -8.427  -9.754  -1.854  1.00  0.00     0.074 A 
ATOM     46  C   UNL     1      -6.152  -9.016  -1.427  1.00  0.00     0.049 A 
ATOM     47  N   UNL     1      -8.192 -10.623  -2.779  1.00  0.00    -0.248 NA
ATOM     48  C   UNL     1      -9.828  -9.378  -1.736  1.00  0.00     0.031 C 
ATOM     49  C   UNL     1      -5.682  -9.161  -2.803  1.00  0.00     0.029 A 
ATOM     50  N   UNL     1      -4.984  -8.920  -0.672  1.00  0.00    -0.354 N 
ATOM     51  C   UNL     1      -9.318 -10.677  -3.564  1.00  0.00     0.074 A 
ATOM     52  C   UNL     1     -10.337  -9.973  -2.816  1.00  0.00     0.031 C 
ATOM     53  C   UNL     1      -4.375  -9.471  -2.777  1.00  0.00     0.029 A 
ATOM     54  C   UNL     1      -3.999  -9.633  -1.384  1.00  0.00     0.049 A 
ATOM     55  H   UNL     1      -4.871  -8.450   0.185  1.00  0.00     0.167 HD
ATOM     56  C   UNL     1      -9.235 -11.149  -4.840  1.00  0.00     0.031 A 
ATOM     57  C   UNL     1      -3.376 -10.716  -0.834  1.00  0.00     0.031 A 
ATOM     58  C   UNL     1      -7.891 -11.623  -5.172  1.00  0.00     0.049 A 
ATOM     59  C   UNL     1      -3.515 -11.974  -1.645  1.00  0.00     0.074 A 
ATOM     60  C   UNL     1      -6.844 -11.050  -5.875  1.00  0.00     0.029 A 
ATOM     61  N   UNL     1      -7.360 -12.723  -4.506  1.00  0.00    -0.354 N 
ATOM     62  N   UNL     1      -4.411 -12.121  -2.580  1.00  0.00    -0.248 NA
ATOM     63  C   UNL     1      -2.707 -13.175  -1.448  1.00  0.00     0.031 C 
ATOM     64  C   UNL     1      -5.661 -11.770  -5.570  1.00  0.00     0.029 A 
ATOM     65  C   UNL     1      -5.993 -12.793  -4.701  1.00  0.00     0.049 A 
ATOM     66  H   UNL     1      -7.884 -13.362  -3.970  1.00  0.00     0.167 HD
ATOM     67  C   UNL     1      -4.337 -13.389  -3.085  1.00  0.00     0.074 A 
ATOM     68  C   UNL     1      -3.243 -14.008  -2.360  1.00  0.00     0.031 C 
ATOM     69  C   UNL     1      -5.199 -13.824  -4.047  1.00  0.00     0.031 A 
BRANCH  56  70
ATOM     70  C   UNL     1     -10.296 -10.831  -5.866  1.00  0.00    -0.014 A 
ATOM     71  C   UNL     1      -9.931 -10.621  -7.208  1.00  0.00     0.009 A 
ATOM     72  C   UNL     1     -11.656 -10.649  -5.562  1.00  0.00     0.009 A 
ATOM     73  C   UNL     1     -10.841 -10.138  -8.157  1.00  0.00     0.001 A 
ATOM     74  C   UNL     1     -12.560 -10.117  -6.491  1.00  0.00     0.001 A 
ATOM     75  C   UNL     1     -12.148  -9.848  -7.788  1.00  0.00     0.000 A 
ENDBRANCH  56  70
BRANCH  57  76
ATOM     76  C   UNL     1      -3.275 -10.638   0.650  1.00  0.00    -0.014 A 
ATOM     77  C   UNL     1      -2.642  -9.492   1.169  1.00  0.00     0.009 A 
ATOM     78  C   UNL     1      -4.072 -11.395   1.510  1.00  0.00     0.009 A 
ATOM     79  C   UNL     1      -2.908  -9.025   2.456  1.00  0.00     0.001 A 
ATOM     80  C   UNL     1      -4.313 -10.942   2.817  1.00  0.00     0.001 A 
ATOM     81  C   UNL     1      -3.770  -9.739   3.272  1.00  0.00     0.000 A 
ENDBRANCH  57  76
BRANCH  69  82
ATOM     82  C   UNL     1      -5.316 -15.246  -4.519  1.00  0.00    -0.014 A 
ATOM     83  C   UNL     1      -5.027 -16.359  -3.719  1.00  0.00     0.009 A 
ATOM     84  C   UNL     1      -5.864 -15.497  -5.794  1.00  0.00     0.009 A 
ATOM     85  C   UNL     1      -5.220 -17.663  -4.193  1.00  0.00     0.001 A 
ATOM     86  C   UNL     1      -6.096 -16.795  -6.255  1.00  0.00     0.001 A 
ATOM     87  C   UNL     1      -5.759 -17.880  -5.457  1.00  0.00     0.000 A 
ENDBRANCH  69  82
ENDBRANCH  43  44
ENDBRANCH  35  38
ENDBRANCH  33  34
ENDBRANCH  32  33
ENDBRANCH   1  32
TORSDOF 14
