REMARK SMILES C[C@@H](C(=O)NCCCCNC(=O)c1ccc(-c2c3nc(c(-c4ccccc4)c4ccc([nH]4)c(-c4ccccc4)c4nc(c(-c5ccccc5)c5ccc2[nH]5)C=C4)C=C3)cc1)[C@@H](C)C(=O)c1cc(Cl)c2c(c1)OCCCO2
REMARK SMILES IDX 3 1 4 2 5 3 2 5 1 6 61 7 62 8 63 9 64 10 65 11 66 12 71 13
REMARK SMILES IDX 67 14 70 15 68 16 69 17 72 18 73 19 76 21 75 22 74 23 6 25
REMARK SMILES IDX 7 26 8 27 9 28 10 29 11 30 12 32 13 33 14 34 60 35 15 36
REMARK SMILES IDX 59 37 16 38 17 39 18 40 53 41 19 42 58 43 52 44 54 45 20 46
REMARK SMILES IDX 57 47 51 48 50 49 21 51 43 52 28 53 42 54 29 55 32 56 41 57
REMARK SMILES IDX 55 58 30 59 31 60 40 62 56 63 33 64 22 65 23 66 27 67 24 68
REMARK SMILES IDX 26 69 25 70 44 71 45 72 49 73 46 74 48 75 47 76 34 77 35 78
REMARK SMILES IDX 39 79 36 80 38 81 37 82
REMARK H PARENT 5 4 10 31 54 50 32 61
REMARK Flexibility Score: 80.00
ROOT
ATOM      1  C   UNL     1       1.031   2.002  -1.327  1.00  0.00     0.223 C 
ATOM      2  O   UNL     1       0.426   2.530  -2.257  1.00  0.00    -0.275 OA
ATOM      3  N   UNL     1       2.384   2.154  -1.292  1.00  0.00    -0.356 N 
ATOM      4  H   UNL     1       2.746   2.751  -1.986  1.00  0.00     0.163 HD
ENDROOT
BRANCH   1   5
ATOM      5  C   UNL     1       0.315   1.252  -0.208  1.00  0.00     0.086 C 
ATOM      6  C   UNL     1       0.564  -0.255  -0.366  1.00  0.00     0.019 C 
BRANCH   5   7
ATOM      7  C   UNL     1      -1.208   1.569  -0.194  1.00  0.00     0.070 C 
ATOM      8  C   UNL     1      -1.901   0.890   1.000  1.00  0.00     0.017 C 
BRANCH   7   9
ATOM      9  C   UNL     1      -1.616   3.064  -0.217  1.00  0.00     0.166 C 
ATOM     10  O   UNL     1      -2.494   3.500  -0.957  1.00  0.00    -0.294 OA
BRANCH   9  11
ATOM     11  C   UNL     1      -1.143   3.934   0.881  1.00  0.00     0.023 A 
ATOM     12  C   UNL     1      -2.038   4.157   1.937  1.00  0.00     0.036 A 
ATOM     13  C   UNL     1       0.200   4.292   0.978  1.00  0.00     0.062 A 
ATOM     14  C   UNL     1      -1.534   4.497   3.185  1.00  0.00     0.087 A 
ATOM     15  C   UNL     1       0.698   4.590   2.235  1.00  0.00     0.163 A 
ATOM     16  Cl  UNL     1      -2.606   4.586   4.529  1.00  0.00    -0.080 Cl
ATOM     17  C   UNL     1      -0.151   4.579   3.345  1.00  0.00     0.179 A 
BRANCH  15  18
ATOM     18  O   UNL     1       2.043   4.757   2.426  1.00  0.00    -0.489 OA
BRANCH  18  19
ATOM     19  C   UNL     1       2.667   3.507   2.717  1.00  0.00     0.233 CG0
ATOM     20  G   UNL     1       2.362   2.917   4.098  1.00  0.00     0.000 G0
ENDBRANCH  18  19
ENDBRANCH  15  18
BRANCH  17  21
ATOM     21  O   UNL     1       0.412   4.339   4.579  1.00  0.00    -0.488 OA
BRANCH  21  22
ATOM     22  C   UNL     1       0.904   2.982   4.546  1.00  0.00     0.233 C 
BRANCH  22  23
ATOM     23  C   UNL     1       2.362   2.917   4.098  1.00  0.00     0.083 CG0
ATOM     24  G   UNL     1       2.667   3.507   2.717  1.00  0.00     0.000 G0
ENDBRANCH  22  23
ENDBRANCH  21  22
ENDBRANCH  17  21
ENDBRANCH   9  11
ENDBRANCH   7   9
ENDBRANCH   5   7
ENDBRANCH   1   5
BRANCH   3  25
ATOM     25  C   UNL     1       3.381   1.585  -0.404  1.00  0.00     0.116 C 
BRANCH  25  26
ATOM     26  C   UNL     1       4.277   0.587  -1.135  1.00  0.00     0.023 C 
BRANCH  26  27
ATOM     27  C   UNL     1       5.106   1.191  -2.270  1.00  0.00     0.023 C 
BRANCH  27  28
ATOM     28  C   UNL     1       6.031   2.329  -1.857  1.00  0.00     0.116 C 
BRANCH  28  29
ATOM     29  N   UNL     1       7.043   1.917  -0.895  1.00  0.00    -0.352 N 
ATOM     30  C   UNL     1       8.388   2.203  -0.902  1.00  0.00     0.251 C 
ATOM     31  H   UNL     1       6.724   1.365  -0.145  1.00  0.00     0.163 HD
ATOM     32  O   UNL     1       9.147   1.683  -0.090  1.00  0.00    -0.269 OA
BRANCH  30  33
ATOM     33  C   UNL     1       8.911   3.123  -1.930  1.00  0.00     0.039 A 
ATOM     34  C   UNL     1       9.953   2.698  -2.758  1.00  0.00     0.014 A 
ATOM     35  C   UNL     1       8.309   4.369  -2.120  1.00  0.00     0.014 A 
ATOM     36  C   UNL     1      10.339   3.494  -3.838  1.00  0.00     0.010 A 
ATOM     37  C   UNL     1       8.649   5.126  -3.234  1.00  0.00     0.010 A 
ATOM     38  C   UNL     1       9.659   4.692  -4.109  1.00  0.00    -0.014 A 
BRANCH  38  39
ATOM     39  C   UNL     1       9.962   5.516  -5.305  1.00  0.00     0.031 A 
ATOM     40  C   UNL     1      10.469   6.918  -5.133  1.00  0.00     0.074 A 
ATOM     41  C   UNL     1       9.658   5.053  -6.533  1.00  0.00     0.049 A 
ATOM     42  N   UNL     1      10.626   7.857  -6.030  1.00  0.00    -0.248 NA
ATOM     43  C   UNL     1      10.809   7.328  -3.761  1.00  0.00     0.031 C 
ATOM     44  C   UNL     1       9.119   3.726  -6.832  1.00  0.00     0.029 A 
ATOM     45  N   UNL     1       9.729   5.669  -7.758  1.00  0.00    -0.354 N 
ATOM     46  C   UNL     1      11.043   8.979  -5.326  1.00  0.00     0.074 A 
ATOM     47  C   UNL     1      11.079   8.613  -3.927  1.00  0.00     0.031 C 
ATOM     48  C   UNL     1       8.907   3.627  -8.154  1.00  0.00     0.029 A 
ATOM     49  C   UNL     1       9.251   4.896  -8.788  1.00  0.00     0.049 A 
ATOM     50  H   UNL     1      10.088   6.576  -7.886  1.00  0.00     0.167 HD
ATOM     51  C   UNL     1      11.373  10.203  -5.803  1.00  0.00     0.031 A 
ATOM     52  C   UNL     1       9.083   5.183 -10.093  1.00  0.00     0.031 A 
ATOM     53  C   UNL     1      11.350  10.560  -7.196  1.00  0.00     0.049 A 
ATOM     54  C   UNL     1       9.464   6.542 -10.605  1.00  0.00     0.074 A 
ATOM     55  C   UNL     1      11.741  11.748  -7.788  1.00  0.00     0.029 A 
ATOM     56  N   UNL     1      10.906   9.730  -8.214  1.00  0.00    -0.354 N 
ATOM     57  N   UNL     1       9.926   7.573  -9.940  1.00  0.00    -0.248 NA
ATOM     58  C   UNL     1       9.310   6.776 -12.048  1.00  0.00     0.031 C 
ATOM     59  C   UNL     1      11.486  11.655  -9.160  1.00  0.00     0.029 A 
ATOM     60  C   UNL     1      10.989  10.389  -9.429  1.00  0.00     0.049 A 
ATOM     61  H   UNL     1      10.580   8.809  -8.092  1.00  0.00     0.167 HD
ATOM     62  C   UNL     1      10.142   8.568 -10.884  1.00  0.00     0.074 A 
ATOM     63  C   UNL     1       9.767   8.015 -12.170  1.00  0.00     0.031 C 
ATOM     64  C   UNL     1      10.614   9.826 -10.700  1.00  0.00     0.031 A 
BRANCH  51  65
ATOM     65  C   UNL     1      11.760  11.249  -4.795  1.00  0.00    -0.014 A 
ATOM     66  C   UNL     1      12.957  11.156  -4.065  1.00  0.00     0.009 A 
ATOM     67  C   UNL     1      10.913  12.345  -4.572  1.00  0.00     0.009 A 
ATOM     68  C   UNL     1      13.269  12.111  -3.095  1.00  0.00     0.001 A 
ATOM     69  C   UNL     1      11.243  13.315  -3.624  1.00  0.00     0.001 A 
ATOM     70  C   UNL     1      12.413  13.189  -2.876  1.00  0.00     0.000 A 
ENDBRANCH  51  65
BRANCH  52  71
ATOM     71  C   UNL     1       8.526   4.149 -11.003  1.00  0.00    -0.014 A 
ATOM     72  C   UNL     1       9.356   3.479 -11.913  1.00  0.00     0.009 A 
ATOM     73  C   UNL     1       7.167   3.801 -10.939  1.00  0.00     0.009 A 
ATOM     74  C   UNL     1       8.835   2.490 -12.750  1.00  0.00     0.001 A 
ATOM     75  C   UNL     1       6.654   2.794 -11.760  1.00  0.00     0.001 A 
ATOM     76  C   UNL     1       7.487   2.143 -12.668  1.00  0.00     0.000 A 
ENDBRANCH  52  71
BRANCH  64  77
ATOM     77  C   UNL     1      10.790  10.684 -11.920  1.00  0.00    -0.014 A 
ATOM     78  C   UNL     1       9.691  11.258 -12.575  1.00  0.00     0.009 A 
ATOM     79  C   UNL     1      12.085  10.978 -12.377  1.00  0.00     0.009 A 
ATOM     80  C   UNL     1       9.885  12.095 -13.676  1.00  0.00     0.001 A 
ATOM     81  C   UNL     1      12.277  11.834 -13.461  1.00  0.00     0.001 A 
ATOM     82  C   UNL     1      11.177  12.388 -14.113  1.00  0.00     0.000 A 
ENDBRANCH  64  77
ENDBRANCH  38  39
ENDBRANCH  30  33
ENDBRANCH  28  29
ENDBRANCH  27  28
ENDBRANCH  26  27
ENDBRANCH  25  26
ENDBRANCH   3  25
TORSDOF 14
