REMARK SMILES NS(=O)(=O)c1ccc(-n2nc(C(=O)NCCCCNC(=O)c3ccc(-c4c5nc(c(-c6ccccc6)c6ccc([nH]6)c(-c6ccccc6)c6nc(c(-c7ccccc7)c7ccc4[nH]7)C=C6)C=C5)cc3)cc2-c2ccc(Cl)s2)cc1
REMARK SMILES IDX 16 1 15 2 14 3 12 4 13 5 11 7 9 8 10 9 71 10 70 11 8 12 5 13
REMARK SMILES IDX 6 14 79 15 7 16 78 17 2 18 3 19 4 20 1 21 72 24 73 25 77 26
REMARK SMILES IDX 74 27 75 28 76 29 17 30 18 31 19 32 20 33 21 35 22 36 23 37
REMARK SMILES IDX 69 38 24 39 68 40 25 41 26 42 27 43 62 44 28 45 67 46 61 47
REMARK SMILES IDX 63 48 29 49 66 50 60 51 59 52 30 54 52 55 37 56 51 57 38 58
REMARK SMILES IDX 41 59 50 60 64 61 39 62 40 63 49 65 65 66 42 67 31 68 32 69
REMARK SMILES IDX 36 70 33 71 35 72 34 73 53 74 54 75 58 76 55 77 57 78 56 79
REMARK SMILES IDX 43 80 44 81 48 82 45 83 47 84 46 85
REMARK H PARENT 14 6 1 22 1 23 19 34 63 53 41 64
REMARK Flexibility Score: inf
ROOT
ATOM      1  C   UNL     1       4.732   4.465  10.771  1.00  0.00     0.023 C 
ENDROOT
BRANCH   1   2
ATOM      2  C   UNL     1       3.525   3.523  10.810  1.00  0.00     0.116 C 
BRANCH   2   3
ATOM      3  N   UNL     1       2.307   4.162  10.358  1.00  0.00    -0.351 N 
ATOM      4  C   UNL     1       1.655   4.210   9.143  1.00  0.00     0.271 C 
ATOM      5  O   UNL     1       0.589   4.834   9.148  1.00  0.00    -0.267 OA
ATOM      6  H   UNL     1       1.847   4.668  11.066  1.00  0.00     0.163 HD
BRANCH   4   7
ATOM      7  C   UNL     1       2.170   3.535   7.928  1.00  0.00     0.151 A 
ATOM      8  N   UNL     1       2.104   2.741   5.920  1.00  0.00    -0.231 N 
ATOM      9  N   UNL     1       1.452   3.556   6.783  1.00  0.00    -0.162 NA
ATOM     10  C   UNL     1       3.309   2.311   6.438  1.00  0.00     0.085 A 
ATOM     11  C   UNL     1       3.381   2.839   7.706  1.00  0.00     0.066 A 
BRANCH   8  12
ATOM     12  C   UNL     1       1.564   2.445   4.645  1.00  0.00     0.065 A 
ATOM     13  C   UNL     1       0.818   1.916   2.021  1.00  0.00     0.082 A 
ATOM     14  C   UNL     1       1.205   0.861   2.851  1.00  0.00     0.024 A 
ATOM     15  C   UNL     1       0.754   3.227   2.511  1.00  0.00     0.024 A 
ATOM     16  C   UNL     1       1.596   1.129   4.162  1.00  0.00     0.030 A 
ATOM     17  C   UNL     1       1.094   3.489   3.841  1.00  0.00     0.030 A 
BRANCH  13  18
ATOM     18  S   UNL     1       0.496   1.636   0.304  1.00  0.00     0.238 S 
ATOM     19  O   UNL     1       1.218   2.615  -0.466  1.00  0.00    -0.207 OA
ATOM     20  O   UNL     1      -0.921   1.390   0.139  1.00  0.00    -0.207 OA
BRANCH  18  21
ATOM     21  N   UNL     1       1.257   0.171  -0.028  1.00  0.00    -0.225 NA
ATOM     22  H   UNL     1       1.119  -0.069  -1.010  1.00  0.00     0.137 HD
ATOM     23  H   UNL     1       0.857  -0.560   0.560  1.00  0.00     0.137 HD
ENDBRANCH  18  21
ENDBRANCH  13  18
ENDBRANCH   8  12
BRANCH  10  24
ATOM     24  C   UNL     1       4.334   1.579   5.759  1.00  0.00     0.054 A 
ATOM     25  C   UNL     1       4.861   0.358   6.133  1.00  0.00     0.024 A 
ATOM     26  S   UNL     1       5.149   2.233   4.399  1.00  0.00    -0.122 S 
ATOM     27  C   UNL     1       5.950  -0.035   5.298  1.00  0.00     0.033 A 
ATOM     28  C   UNL     1       6.198   0.909   4.335  1.00  0.00     0.094 A 
ATOM     29  Cl  UNL     1       7.436   0.860   3.147  1.00  0.00    -0.072 Cl
ENDBRANCH  10  24
ENDBRANCH   4   7
ENDBRANCH   2   3
ENDBRANCH   1   2
BRANCH   1  30
ATOM     30  C   UNL     1       4.824   5.466  11.938  1.00  0.00     0.023 C 
BRANCH  30  31
ATOM     31  C   UNL     1       5.000   4.850  13.325  1.00  0.00     0.116 C 
BRANCH  31  32
ATOM     32  N   UNL     1       6.210   4.029  13.460  1.00  0.00    -0.352 N 
ATOM     33  C   UNL     1       6.542   3.135  14.469  1.00  0.00     0.251 C 
ATOM     34  H   UNL     1       6.875   4.127  12.740  1.00  0.00     0.163 HD
ATOM     35  O   UNL     1       7.707   2.835  14.694  1.00  0.00    -0.269 OA
BRANCH  33  36
ATOM     36  C   UNL     1       5.453   2.515  15.244  1.00  0.00     0.039 A 
ATOM     37  C   UNL     1       5.529   2.250  16.614  1.00  0.00     0.014 A 
ATOM     38  C   UNL     1       4.295   2.228  14.535  1.00  0.00     0.014 A 
ATOM     39  C   UNL     1       4.396   1.750  17.258  1.00  0.00     0.010 A 
ATOM     40  C   UNL     1       3.131   2.004  15.204  1.00  0.00     0.010 A 
ATOM     41  C   UNL     1       3.196   1.639  16.536  1.00  0.00    -0.014 A 
BRANCH  41  42
ATOM     42  C   UNL     1       1.938   1.233  17.140  1.00  0.00     0.031 A 
ATOM     43  C   UNL     1       1.504   2.106  18.254  1.00  0.00     0.074 A 
ATOM     44  C   UNL     1       1.114   0.324  16.569  1.00  0.00     0.049 A 
ATOM     45  N   UNL     1       1.509   1.818  19.511  1.00  0.00    -0.248 NA
ATOM     46  C   UNL     1       1.186   3.513  17.961  1.00  0.00     0.031 C 
ATOM     47  C   UNL     1       1.259  -0.369  15.279  1.00  0.00     0.029 A 
ATOM     48  N   UNL     1      -0.112  -0.090  16.980  1.00  0.00    -0.354 N 
ATOM     49  C   UNL     1       0.970   2.927  20.151  1.00  0.00     0.074 A 
ATOM     50  C   UNL     1       1.004   4.000  19.190  1.00  0.00     0.031 C 
ATOM     51  C   UNL     1       0.074  -0.915  14.917  1.00  0.00     0.029 A 
ATOM     52  C   UNL     1      -0.858  -0.767  16.019  1.00  0.00     0.049 A 
ATOM     53  H   UNL     1      -0.449   0.076  17.890  1.00  0.00     0.167 HD
ATOM     54  C   UNL     1       0.269   2.788  21.311  1.00  0.00     0.031 A 
ATOM     55  C   UNL     1      -2.154  -1.157  16.126  1.00  0.00     0.031 A 
ATOM     56  C   UNL     1       0.451   1.473  21.879  1.00  0.00     0.049 A 
ATOM     57  C   UNL     1      -2.482  -1.170  17.570  1.00  0.00     0.074 A 
ATOM     58  C   UNL     1       1.538   0.734  22.303  1.00  0.00     0.029 A 
ATOM     59  N   UNL     1      -0.562   0.565  21.669  1.00  0.00    -0.354 N 
ATOM     60  N   UNL     1      -1.950  -2.007  18.413  1.00  0.00    -0.248 NA
ATOM     61  C   UNL     1      -3.029   0.045  18.152  1.00  0.00     0.031 C 
ATOM     62  C   UNL     1       1.274  -0.595  21.854  1.00  0.00     0.029 A 
ATOM     63  C   UNL     1       0.008  -0.614  21.266  1.00  0.00     0.049 A 
ATOM     64  H   UNL     1      -1.525   0.733  21.787  1.00  0.00     0.167 HD
ATOM     65  C   UNL     1      -1.675  -1.240  19.536  1.00  0.00     0.074 A 
ATOM     66  C   UNL     1      -2.450  -0.012  19.355  1.00  0.00     0.031 C 
ATOM     67  C   UNL     1      -0.621  -1.543  20.352  1.00  0.00     0.031 A 
BRANCH  54  68
ATOM     68  C   UNL     1      -0.920   3.644  21.673  1.00  0.00    -0.014 A 
ATOM     69  C   UNL     1      -1.560   3.408  22.903  1.00  0.00     0.009 A 
ATOM     70  C   UNL     1      -1.607   4.457  20.751  1.00  0.00     0.009 A 
ATOM     71  C   UNL     1      -2.853   3.882  23.155  1.00  0.00     0.001 A 
ATOM     72  C   UNL     1      -2.880   4.967  21.015  1.00  0.00     0.001 A 
ATOM     73  C   UNL     1      -3.516   4.652  22.206  1.00  0.00     0.000 A 
ENDBRANCH  54  68
BRANCH  55  74
ATOM     74  C   UNL     1      -3.210  -1.257  15.093  1.00  0.00    -0.014 A 
ATOM     75  C   UNL     1      -4.396  -1.967  15.347  1.00  0.00     0.009 A 
ATOM     76  C   UNL     1      -3.190  -0.400  13.978  1.00  0.00     0.009 A 
ATOM     77  C   UNL     1      -5.535  -1.785  14.548  1.00  0.00     0.001 A 
ATOM     78  C   UNL     1      -4.327  -0.218  13.181  1.00  0.00     0.001 A 
ATOM     79  C   UNL     1      -5.505  -0.896  13.476  1.00  0.00     0.000 A 
ENDBRANCH  55  74
BRANCH  67  80
ATOM     80  C   UNL     1       0.091  -2.857  20.130  1.00  0.00    -0.014 A 
ATOM     81  C   UNL     1       0.756  -3.191  18.935  1.00  0.00     0.009 A 
ATOM     82  C   UNL     1       0.214  -3.729  21.220  1.00  0.00     0.009 A 
ATOM     83  C   UNL     1       1.495  -4.375  18.831  1.00  0.00     0.001 A 
ATOM     84  C   UNL     1       0.968  -4.900  21.123  1.00  0.00     0.001 A 
ATOM     85  C   UNL     1       1.603  -5.227  19.928  1.00  0.00     0.000 A 
ENDBRANCH  67  80
ENDBRANCH  41  42
ENDBRANCH  33  36
ENDBRANCH  31  32
ENDBRANCH  30  31
ENDBRANCH   1  30
TORSDOF 15
