REMARK SMILES Cc1cc2cc(-c3ccc([C@@H](C)C(=O)NCCCCNC(=O)c4ccc(-c5c6nc(c(-c7ccccc7)c7ccc([nH]7)c(-c7ccccc7)c7nc(c(-c8ccccc8)c8ccc5[nH]8)C=C7)C=C6)cc4)cc3)ccc2[nH]1
REMARK SMILES IDX 17 1 16 2 15 3 13 4 14 5 11 7 12 8 10 9 7 10 8 11 72 12 9 13
REMARK SMILES IDX 71 14 6 15 1 16 2 17 3 18 76 19 4 20 75 21 5 23 74 24 73 25
REMARK SMILES IDX 18 26 19 27 20 28 21 29 22 31 23 32 24 33 70 34 25 35 69 36
REMARK SMILES IDX 26 37 27 38 28 39 63 40 29 41 68 42 62 43 64 44 30 45 67 46
REMARK SMILES IDX 61 47 60 48 31 50 53 51 38 52 52 53 39 54 42 55 51 56 65 57
REMARK SMILES IDX 40 58 41 59 50 61 66 62 43 63 32 64 33 65 37 66 34 67 36 68
REMARK SMILES IDX 35 69 54 70 55 71 59 72 56 73 58 74 57 75 44 76 45 77 49 78
REMARK SMILES IDX 46 79 48 80 47 81
REMARK H PARENT 15 6 76 22 20 30 64 49 42 60
REMARK Flexibility Score: inf
ROOT
ATOM      1  C   UNL     1       5.660  -3.513  -3.432  1.00  0.00     0.023 C 
ENDROOT
BRANCH   1   2
ATOM      2  C   UNL     1       6.771  -4.434  -2.925  1.00  0.00     0.116 C 
BRANCH   2   3
ATOM      3  N   UNL     1       7.900  -3.697  -2.398  1.00  0.00    -0.356 N 
ATOM      4  C   UNL     1       8.220  -3.324  -1.128  1.00  0.00     0.227 C 
ATOM      5  O   UNL     1       9.240  -2.634  -1.001  1.00  0.00    -0.274 OA
ATOM      6  H   UNL     1       8.552  -3.415  -3.079  1.00  0.00     0.163 HD
BRANCH   4   7
ATOM      7  C   UNL     1       7.407  -3.723   0.115  1.00  0.00     0.105 C 
ATOM      8  C   UNL     1       7.365  -5.231   0.365  1.00  0.00     0.023 C 
BRANCH   7   9
ATOM      9  C   UNL     1       6.080  -2.990   0.226  1.00  0.00    -0.036 A 
ATOM     10  C   UNL     1       3.657  -1.471   0.297  1.00  0.00    -0.018 A 
ATOM     11  C   UNL     1       3.712  -2.760  -0.261  1.00  0.00     0.009 A 
ATOM     12  C   UNL     1       4.845  -0.974   0.851  1.00  0.00     0.009 A 
ATOM     13  C   UNL     1       4.884  -3.520  -0.259  1.00  0.00     0.005 A 
ATOM     14  C   UNL     1       6.039  -1.710   0.799  1.00  0.00     0.005 A 
BRANCH  10  15
ATOM     15  C   UNL     1       2.394  -0.694   0.276  1.00  0.00    -0.018 A 
ATOM     16  C   UNL     1      -3.658   0.268  -0.024  1.00  0.00     0.064 C 
ATOM     17  C   UNL     1      -2.189   0.100   0.068  1.00  0.00     0.013 A 
ATOM     18  C   UNL     1      -1.426  -1.039   0.213  1.00  0.00     0.031 A 
ATOM     19  N   UNL     1      -1.324   1.167   0.017  1.00  0.00    -0.359 N 
ATOM     20  C   UNL     1      -0.061  -0.650   0.234  1.00  0.00     0.000 A 
ATOM     21  C   UNL     1      -0.019   0.733   0.101  1.00  0.00     0.046 A 
ATOM     22  H   UNL     1      -1.598   2.109  -0.069  1.00  0.00     0.166 HD
ATOM     23  C   UNL     1       1.150  -1.357   0.345  1.00  0.00     0.019 A 
ATOM     24  C   UNL     1       1.184   1.444   0.068  1.00  0.00     0.027 A 
ATOM     25  C   UNL     1       2.377   0.706   0.145  1.00  0.00     0.011 A 
ENDBRANCH  10  15
ENDBRANCH   7   9
ENDBRANCH   4   7
ENDBRANCH   2   3
ENDBRANCH   1   2
BRANCH   1  26
ATOM     26  C   UNL     1       5.824  -3.031  -4.871  1.00  0.00     0.023 C 
BRANCH  26  27
ATOM     27  C   UNL     1       5.819  -4.127  -5.929  1.00  0.00     0.116 C 
BRANCH  27  28
ATOM     28  N   UNL     1       4.616  -4.947  -5.937  1.00  0.00    -0.352 N 
ATOM     29  C   UNL     1       4.017  -5.565  -7.015  1.00  0.00     0.251 C 
ATOM     30  H   UNL     1       4.176  -5.076  -5.066  1.00  0.00     0.163 HD
ATOM     31  O   UNL     1       2.968  -6.176  -6.889  1.00  0.00    -0.269 OA
BRANCH  29  32
ATOM     32  C   UNL     1       4.647  -5.427  -8.345  1.00  0.00     0.039 A 
ATOM     33  C   UNL     1       3.882  -4.934  -9.405  1.00  0.00     0.014 A 
ATOM     34  C   UNL     1       6.006  -5.701  -8.515  1.00  0.00     0.014 A 
ATOM     35  C   UNL     1       4.505  -4.630 -10.618  1.00  0.00     0.010 A 
ATOM     36  C   UNL     1       6.636  -5.328  -9.696  1.00  0.00     0.010 A 
ATOM     37  C   UNL     1       5.894  -4.780 -10.755  1.00  0.00    -0.014 A 
BRANCH  37  38
ATOM     38  C   UNL     1       6.604  -4.364 -11.989  1.00  0.00     0.031 A 
ATOM     39  C   UNL     1       7.322  -5.390 -12.819  1.00  0.00     0.074 A 
ATOM     40  C   UNL     1       6.683  -3.058 -12.310  1.00  0.00     0.049 A 
ATOM     41  N   UNL     1       8.097  -5.216 -13.859  1.00  0.00    -0.248 NA
ATOM     42  C   UNL     1       7.173  -6.795 -12.406  1.00  0.00     0.031 C 
ATOM     43  C   UNL     1       6.066  -1.958 -11.565  1.00  0.00     0.029 A 
ATOM     44  N   UNL     1       7.332  -2.433 -13.346  1.00  0.00    -0.354 N 
ATOM     45  C   UNL     1       8.549  -6.483 -14.206  1.00  0.00     0.074 A 
ATOM     46  C   UNL     1       7.998  -7.410 -13.241  1.00  0.00     0.031 C 
ATOM     47  C   UNL     1       6.347  -0.798 -12.181  1.00  0.00     0.029 A 
ATOM     48  C   UNL     1       7.195  -1.066 -13.337  1.00  0.00     0.049 A 
ATOM     49  H   UNL     1       7.846  -2.919 -14.031  1.00  0.00     0.167 HD
ATOM     50  C   UNL     1       9.336  -6.846 -15.245  1.00  0.00     0.031 A 
ATOM     51  C   UNL     1       7.705  -0.133 -14.163  1.00  0.00     0.031 A 
ATOM     52  C   UNL     1       9.865  -5.931 -16.218  1.00  0.00     0.049 A 
ATOM     53  C   UNL     1       8.575  -0.562 -15.311  1.00  0.00     0.074 A 
ATOM     54  C   UNL     1      10.626  -6.209 -17.340  1.00  0.00     0.029 A 
ATOM     55  N   UNL     1       9.682  -4.558 -16.187  1.00  0.00    -0.354 N 
ATOM     56  N   UNL     1       8.949  -1.770 -15.657  1.00  0.00    -0.248 NA
ATOM     57  C   UNL     1       9.089   0.502 -16.185  1.00  0.00     0.031 C 
ATOM     58  C   UNL     1      10.933  -4.998 -17.970  1.00  0.00     0.029 A 
ATOM     59  C   UNL     1      10.327  -3.972 -17.262  1.00  0.00     0.049 A 
ATOM     60  H   UNL     1       9.169  -4.071 -15.501  1.00  0.00     0.167 HD
ATOM     61  C   UNL     1       9.716  -1.614 -16.803  1.00  0.00     0.074 A 
ATOM     62  C   UNL     1       9.747  -0.197 -17.100  1.00  0.00     0.031 C 
ATOM     63  C   UNL     1      10.339  -2.561 -17.545  1.00  0.00     0.031 A 
BRANCH  50  64
ATOM     64  C   UNL     1       9.672  -8.305 -15.375  1.00  0.00    -0.014 A 
ATOM     65  C   UNL     1       8.700  -9.240 -15.767  1.00  0.00     0.009 A 
ATOM     66  C   UNL     1      10.979  -8.747 -15.120  1.00  0.00     0.009 A 
ATOM     67  C   UNL     1       9.022 -10.595 -15.864  1.00  0.00     0.001 A 
ATOM     68  C   UNL     1      11.304 -10.099 -15.245  1.00  0.00     0.001 A 
ATOM     69  C   UNL     1      10.324 -11.023 -15.606  1.00  0.00     0.000 A 
ENDBRANCH  50  64
BRANCH  51  70
ATOM     70  C   UNL     1       7.391   1.303 -13.949  1.00  0.00    -0.014 A 
ATOM     71  C   UNL     1       6.520   1.974 -14.821  1.00  0.00     0.009 A 
ATOM     72  C   UNL     1       7.965   2.012 -12.883  1.00  0.00     0.009 A 
ATOM     73  C   UNL     1       6.250   3.333 -14.645  1.00  0.00     0.001 A 
ATOM     74  C   UNL     1       7.674   3.365 -12.695  1.00  0.00     0.001 A 
ATOM     75  C   UNL     1       6.824   4.026 -13.581  1.00  0.00     0.000 A 
ENDBRANCH  51  70
BRANCH  63  76
ATOM     76  C   UNL     1      11.073  -2.101 -18.771  1.00  0.00    -0.014 A 
ATOM     77  C   UNL     1      12.313  -1.452 -18.675  1.00  0.00     0.009 A 
ATOM     78  C   UNL     1      10.537  -2.368 -20.040  1.00  0.00     0.009 A 
ATOM     79  C   UNL     1      12.991  -1.057 -19.829  1.00  0.00     0.001 A 
ATOM     80  C   UNL     1      11.228  -1.993 -21.192  1.00  0.00     0.001 A 
ATOM     81  C   UNL     1      12.451  -1.332 -21.086  1.00  0.00     0.000 A 
ENDBRANCH  63  76
ENDBRANCH  37  38
ENDBRANCH  29  32
ENDBRANCH  27  28
ENDBRANCH  26  27
ENDBRANCH   1  26
TORSDOF 13
