REMARK SMILES O=C(NCCCCNC(=O)c1ccc(-c2c3nc(c(-c4ccccc4)c4ccc([nH]4)c(-c4ccccc4)c4nc(c(-c5ccccc5)c5ccc2[nH]5)C=C4)C=C3)cc1)C1=Cc2ccc(Cl)c(Cl)c2O[C@@H]1C(F)(F)F
REMARK SMILES IDX 6 1 5 2 4 3 3 4 1 5 2 6 59 8 60 9 70 10 61 11 69 12 62 13
REMARK SMILES IDX 68 14 63 15 66 16 64 17 67 18 65 19 71 20 72 21 73 22 74 23
REMARK SMILES IDX 7 24 8 25 9 26 10 28 11 29 12 30 58 31 13 32 57 33 14 34
REMARK SMILES IDX 15 35 16 36 51 37 17 38 56 39 50 40 52 41 18 42 55 43 49 44
REMARK SMILES IDX 48 45 19 47 41 48 26 49 40 50 27 51 30 52 39 53 53 54 28 55
REMARK SMILES IDX 29 56 38 58 54 59 31 60 20 61 21 62 25 63 22 64 24 65 23 66
REMARK SMILES IDX 42 67 43 68 47 69 44 70 46 71 45 72 32 73 33 74 37 75 34 76
REMARK SMILES IDX 36 77 35 78
REMARK H PARENT 3 7 8 27 52 46 30 57
REMARK Flexibility Score: inf
ROOT
ATOM      1  C   UNL     1       3.966   4.048   1.611  1.00  0.00     0.023 C 
ENDROOT
BRANCH   1   2
ATOM      2  C   UNL     1       4.346   3.350   0.312  1.00  0.00     0.023 C 
BRANCH   2   3
ATOM      3  C   UNL     1       4.054   1.857   0.235  1.00  0.00     0.116 C 
BRANCH   3   4
ATOM      4  N   UNL     1       2.732   1.507  -0.252  1.00  0.00    -0.352 N 
ATOM      5  O   UNL     1       1.085   0.194  -1.024  1.00  0.00    -0.270 OA
ATOM      6  C   UNL     1       2.287   0.337  -0.805  1.00  0.00     0.251 C 
ATOM      7  H   UNL     1       2.055   2.217  -0.171  1.00  0.00     0.163 HD
BRANCH   6   8
ATOM      8  C   UNL     1       3.195  -0.818  -1.077  1.00  0.00     0.067 C 
ATOM      9  C   UNL     1       4.444  -0.651  -1.544  1.00  0.00     0.025 C 
ATOM     10  C   UNL     1       2.902  -2.013  -0.199  1.00  0.00     0.314 C 
ATOM     11  C   UNL     1       5.462  -0.938  -0.502  1.00  0.00     0.019 A 
ATOM     12  O   UNL     1       3.842  -2.091   0.905  1.00  0.00    -0.474 OA
ATOM     13  C   UNL     1       6.729  -0.362  -0.647  1.00  0.00     0.013 A 
ATOM     14  C   UNL     1       5.091  -1.541   0.713  1.00  0.00     0.148 A 
ATOM     15  C   UNL     1       7.591  -0.306   0.446  1.00  0.00     0.023 A 
ATOM     16  C   UNL     1       5.967  -1.496   1.809  1.00  0.00     0.102 A 
ATOM     17  C   UNL     1       7.207  -0.852   1.676  1.00  0.00     0.063 A 
ATOM     18  Cl  UNL     1       5.456  -2.148   3.333  1.00  0.00    -0.079 Cl
ATOM     19  Cl  UNL     1       8.287  -0.637   3.007  1.00  0.00    -0.083 Cl
BRANCH  10  20
ATOM     20  C   UNL     1       2.856  -3.327  -0.995  1.00  0.00     0.429 C 
ATOM     21  F   UNL     1       2.479  -4.367  -0.214  1.00  0.00    -0.167 F 
ATOM     22  F   UNL     1       1.971  -3.260  -2.018  1.00  0.00    -0.167 F 
ATOM     23  F   UNL     1       4.059  -3.644  -1.532  1.00  0.00    -0.167 F 
ENDBRANCH  10  20
ENDBRANCH   6   8
ENDBRANCH   3   4
ENDBRANCH   2   3
ENDBRANCH   1   2
BRANCH   1  24
ATOM     24  C   UNL     1       4.544   3.465   2.900  1.00  0.00     0.116 C 
BRANCH  24  25
ATOM     25  N   UNL     1       5.991   3.295   2.899  1.00  0.00    -0.352 N 
ATOM     26  C   UNL     1       6.928   3.661   3.840  1.00  0.00     0.251 C 
ATOM     27  H   UNL     1       6.356   2.848   2.102  1.00  0.00     0.163 HD
ATOM     28  O   UNL     1       8.121   3.470   3.616  1.00  0.00    -0.269 OA
BRANCH  26  29
ATOM     29  C   UNL     1       6.515   4.346   5.087  1.00  0.00     0.039 A 
ATOM     30  C   UNL     1       7.228   5.478   5.494  1.00  0.00     0.014 A 
ATOM     31  C   UNL     1       5.408   3.921   5.824  1.00  0.00     0.014 A 
ATOM     32  C   UNL     1       6.758   6.247   6.561  1.00  0.00     0.010 A 
ATOM     33  C   UNL     1       4.890   4.735   6.830  1.00  0.00     0.010 A 
ATOM     34  C   UNL     1       5.548   5.918   7.195  1.00  0.00    -0.014 A 
BRANCH  34  35
ATOM     35  C   UNL     1       4.938   6.845   8.184  1.00  0.00     0.031 A 
ATOM     36  C   UNL     1       4.739   6.437   9.616  1.00  0.00     0.074 A 
ATOM     37  C   UNL     1       4.509   8.055   7.769  1.00  0.00     0.049 A 
ATOM     38  N   UNL     1       4.277   7.145  10.616  1.00  0.00    -0.248 NA
ATOM     39  C   UNL     1       5.076   5.049   9.967  1.00  0.00     0.031 C 
ATOM     40  C   UNL     1       4.567   8.548   6.390  1.00  0.00     0.029 A 
ATOM     41  N   UNL     1       3.950   9.096   8.468  1.00  0.00    -0.354 N 
ATOM     42  C   UNL     1       4.254   6.287  11.708  1.00  0.00     0.074 A 
ATOM     43  C   UNL     1       4.699   4.994  11.236  1.00  0.00     0.031 C 
ATOM     44  C   UNL     1       4.121   9.814   6.356  1.00  0.00     0.029 A 
ATOM     45  C   UNL     1       3.720  10.212   7.700  1.00  0.00     0.049 A 
ATOM     46  H   UNL     1       3.735   9.047   9.427  1.00  0.00     0.167 HD
ATOM     47  C   UNL     1       3.913   6.553  12.992  1.00  0.00     0.031 A 
ATOM     48  C   UNL     1       3.260  11.430   8.043  1.00  0.00     0.031 A 
ATOM     49  C   UNL     1       3.479   7.840  13.467  1.00  0.00     0.049 A 
ATOM     50  C   UNL     1       2.923  11.712   9.478  1.00  0.00     0.074 A 
ATOM     51  C   UNL     1       3.186   8.229  14.763  1.00  0.00     0.029 A 
ATOM     52  N   UNL     1       3.270   8.948  12.661  1.00  0.00    -0.354 N 
ATOM     53  N   UNL     1       3.007  10.919  10.518  1.00  0.00    -0.248 NA
ATOM     54  C   UNL     1       2.447  13.067   9.787  1.00  0.00     0.031 C 
ATOM     55  C   UNL     1       2.758   9.562  14.735  1.00  0.00     0.029 A 
ATOM     56  C   UNL     1       2.830  10.015  13.427  1.00  0.00     0.049 A 
ATOM     57  H   UNL     1       3.413   8.973  11.687  1.00  0.00     0.167 HD
ATOM     58  C   UNL     1       2.620  11.685  11.609  1.00  0.00     0.074 A 
ATOM     59  C   UNL     1       2.319  13.010  11.105  1.00  0.00     0.031 C 
ATOM     60  C   UNL     1       2.524  11.324  12.912  1.00  0.00     0.031 A 
BRANCH  47  61
ATOM     61  C   UNL     1       3.994   5.417  13.973  1.00  0.00    -0.014 A 
ATOM     62  C   UNL     1       5.233   4.894  14.380  1.00  0.00     0.009 A 
ATOM     63  C   UNL     1       2.818   4.870  14.509  1.00  0.00     0.009 A 
ATOM     64  C   UNL     1       5.290   3.820  15.270  1.00  0.00     0.001 A 
ATOM     65  C   UNL     1       2.880   3.813  15.420  1.00  0.00     0.001 A 
ATOM     66  C   UNL     1       4.114   3.282  15.791  1.00  0.00     0.000 A 
ENDBRANCH  47  61
BRANCH  48  67
ATOM     67  C   UNL     1       3.153  12.500   7.018  1.00  0.00    -0.014 A 
ATOM     68  C   UNL     1       4.069  13.564   7.013  1.00  0.00     0.009 A 
ATOM     69  C   UNL     1       2.144  12.467   6.044  1.00  0.00     0.009 A 
ATOM     70  C   UNL     1       3.961  14.588   6.070  1.00  0.00     0.001 A 
ATOM     71  C   UNL     1       2.054  13.480   5.086  1.00  0.00     0.001 A 
ATOM     72  C   UNL     1       2.956  14.543   5.105  1.00  0.00     0.000 A 
ENDBRANCH  48  67
BRANCH  60  73
ATOM     73  C   UNL     1       2.099  12.390  13.881  1.00  0.00    -0.014 A 
ATOM     74  C   UNL     1       0.776  12.858  13.914  1.00  0.00     0.009 A 
ATOM     75  C   UNL     1       3.035  12.930  14.776  1.00  0.00     0.009 A 
ATOM     76  C   UNL     1       0.410  13.877  14.796  1.00  0.00     0.001 A 
ATOM     77  C   UNL     1       2.660  13.929  15.675  1.00  0.00     0.001 A 
ATOM     78  C   UNL     1       1.351  14.409  15.677  1.00  0.00     0.000 A 
ENDBRANCH  60  73
ENDBRANCH  34  35
ENDBRANCH  26  29
ENDBRANCH  24  25
ENDBRANCH   1  24
TORSDOF 12
