REMARK SMILES C#Cc1ccc2c(c1)C=C(C(=O)NCCCCNC(=O)c1ccc(-c3c4nc(c(-c5ccccc5)c5ccc([nH]5)c(-c5ccccc5)c5nc(c(-c6ccccc6)c6ccc3[nH]6)C=C5)C=C4)cc1)[C@@H](C(F)(F)F)O2
REMARK SMILES IDX 16 1 15 2 14 3 13 4 11 5 12 6 10 8 3 9 4 10 8 11 5 12 7 13
REMARK SMILES IDX 6 14 9 15 74 16 69 17 2 18 1 19 70 20 71 21 72 22 73 23
REMARK SMILES IDX 17 24 18 25 19 26 20 28 21 29 22 30 68 31 23 32 67 33 24 34
REMARK SMILES IDX 25 35 26 36 61 37 27 38 66 39 60 40 62 41 28 42 65 43 59 44
REMARK SMILES IDX 58 45 29 47 51 48 36 49 50 50 37 51 40 52 49 53 63 54 38 55
REMARK SMILES IDX 39 56 48 58 64 59 41 60 30 61 31 62 35 63 32 64 34 65 33 66
REMARK SMILES IDX 52 67 53 68 57 69 54 70 56 71 55 72 42 73 43 74 47 75 44 76
REMARK SMILES IDX 46 77 45 78
REMARK H PARENT 13 7 18 27 62 46 40 57
REMARK Flexibility Score: inf
ROOT
ATOM      1  C   UNL     1     -10.809   3.558   1.608  1.00  0.00     0.023 C 
ENDROOT
BRANCH   1   2
ATOM      2  C   UNL     1      -9.751   2.475   1.455  1.00  0.00     0.023 C 
BRANCH   2   3
ATOM      3  C   UNL     1      -9.000   2.559   0.134  1.00  0.00     0.116 C 
BRANCH   3   4
ATOM      4  N   UNL     1      -7.910   3.519   0.179  1.00  0.00    -0.352 N 
ATOM      5  C   UNL     1      -6.556   3.481   0.096  1.00  0.00     0.251 C 
ATOM      6  O   UNL     1      -5.988   4.576   0.132  1.00  0.00    -0.270 OA
ATOM      7  H   UNL     1      -8.240   4.439   0.301  1.00  0.00     0.163 HD
BRANCH   5   8
ATOM      8  C   UNL     1      -5.750   2.228  -0.024  1.00  0.00     0.067 C 
ATOM      9  C   UNL     1      -1.443   0.032  -0.034  1.00  0.00     0.025 A 
ATOM     10  C   UNL     1      -2.079  -1.212  -0.035  1.00  0.00     0.021 A 
ATOM     11  C   UNL     1      -2.196   1.212  -0.012  1.00  0.00     0.029 A 
ATOM     12  C   UNL     1      -3.467  -1.278  -0.019  1.00  0.00     0.048 A 
ATOM     13  C   UNL     1      -3.593   1.149   0.005  1.00  0.00     0.018 A 
ATOM     14  C   UNL     1      -4.211  -0.103  -0.008  1.00  0.00     0.128 A 
ATOM     15  C   UNL     1      -4.415   2.352   0.090  1.00  0.00     0.025 C 
ATOM     16  O   UNL     1      -5.560  -0.270   0.035  1.00  0.00    -0.475 OA
ATOM     17  C   UNL     1      -6.368   0.885  -0.281  1.00  0.00     0.314 C 
BRANCH   9  18
ATOM     18  C   UNL     1      -0.016   0.080  -0.041  1.00  0.00    -0.070 C 
ATOM     19  C   UNL     1       1.187   0.082  -0.042  1.00  0.00     0.010 C 
ENDBRANCH   9  18
BRANCH  17  20
ATOM     20  C   UNL     1      -6.896   0.750  -1.723  1.00  0.00     0.429 C 
ATOM     21  F   UNL     1      -7.814  -0.247  -1.796  1.00  0.00    -0.167 F 
ATOM     22  F   UNL     1      -7.520   1.869  -2.163  1.00  0.00    -0.167 F 
ATOM     23  F   UNL     1      -5.919   0.472  -2.613  1.00  0.00    -0.167 F 
ENDBRANCH  17  20
ENDBRANCH   5   8
ENDBRANCH   3   4
ENDBRANCH   2   3
ENDBRANCH   1   2
BRANCH   1  24
ATOM     24  C   UNL     1     -11.810   3.624   0.465  1.00  0.00     0.116 C 
BRANCH  24  25
ATOM     25  N   UNL     1     -12.526   2.373   0.226  1.00  0.00    -0.352 N 
ATOM     26  C   UNL     1     -13.874   2.207  -0.009  1.00  0.00     0.251 C 
ATOM     27  H   UNL     1     -11.981   1.553   0.234  1.00  0.00     0.163 HD
ATOM     28  O   UNL     1     -14.377   1.094  -0.090  1.00  0.00    -0.269 OA
BRANCH  26  29
ATOM     29  C   UNL     1     -14.703   3.423  -0.104  1.00  0.00     0.039 A 
ATOM     30  C   UNL     1     -14.277   4.470  -0.921  1.00  0.00     0.014 A 
ATOM     31  C   UNL     1     -15.786   3.582   0.761  1.00  0.00     0.014 A 
ATOM     32  C   UNL     1     -14.776   5.741  -0.695  1.00  0.00     0.010 A 
ATOM     33  C   UNL     1     -16.379   4.840   0.882  1.00  0.00     0.010 A 
ATOM     34  C   UNL     1     -15.836   5.945   0.207  1.00  0.00    -0.014 A 
BRANCH  34  35
ATOM     35  C   UNL     1     -16.358   7.321   0.412  1.00  0.00     0.031 A 
ATOM     36  C   UNL     1     -16.326   7.978   1.767  1.00  0.00     0.074 A 
ATOM     37  C   UNL     1     -16.816   8.001  -0.657  1.00  0.00     0.049 A 
ATOM     38  N   UNL     1     -16.730   9.179   2.103  1.00  0.00    -0.248 NA
ATOM     39  C   UNL     1     -15.779   7.200   2.890  1.00  0.00     0.031 C 
ATOM     40  C   UNL     1     -16.869   7.476  -2.024  1.00  0.00     0.029 A 
ATOM     41  N   UNL     1     -17.293   9.281  -0.776  1.00  0.00    -0.354 N 
ATOM     42  C   UNL     1     -16.507   9.290   3.470  1.00  0.00     0.074 A 
ATOM     43  C   UNL     1     -15.966   8.024   3.913  1.00  0.00     0.031 C 
ATOM     44  C   UNL     1     -17.282   8.444  -2.850  1.00  0.00     0.029 A 
ATOM     45  C   UNL     1     -17.623   9.624  -2.065  1.00  0.00     0.049 A 
ATOM     46  H   UNL     1     -17.390   9.895  -0.012  1.00  0.00     0.167 HD
ATOM     47  C   UNL     1     -16.723  10.357   4.276  1.00  0.00     0.031 A 
ATOM     48  C   UNL     1     -18.165  10.749  -2.568  1.00  0.00     0.031 A 
ATOM     49  C   UNL     1     -17.252  11.617   3.819  1.00  0.00     0.049 A 
ATOM     50  C   UNL     1     -18.458  11.890  -1.640  1.00  0.00     0.074 A 
ATOM     51  C   UNL     1     -17.477  12.766   4.557  1.00  0.00     0.029 A 
ATOM     52  N   UNL     1     -17.637  11.898   2.516  1.00  0.00    -0.354 N 
ATOM     53  N   UNL     1     -18.213  11.989  -0.356  1.00  0.00    -0.248 NA
ATOM     54  C   UNL     1     -19.094  13.078  -2.226  1.00  0.00     0.031 C 
ATOM     55  C   UNL     1     -18.086  13.706   3.727  1.00  0.00     0.029 A 
ATOM     56  C   UNL     1     -18.141  13.187   2.443  1.00  0.00     0.049 A 
ATOM     57  H   UNL     1     -17.563  11.275   1.758  1.00  0.00     0.167 HD
ATOM     58  C   UNL     1     -18.643  13.255   0.017  1.00  0.00     0.074 A 
ATOM     59  C   UNL     1     -19.140  13.897  -1.183  1.00  0.00     0.031 C 
ATOM     60  C   UNL     1     -18.630  13.826   1.246  1.00  0.00     0.031 A 
BRANCH  47  61
ATOM     61  C   UNL     1     -16.403  10.232   5.745  1.00  0.00    -0.014 A 
ATOM     62  C   UNL     1     -17.433  10.356   6.694  1.00  0.00     0.009 A 
ATOM     63  C   UNL     1     -15.079  10.133   6.199  1.00  0.00     0.009 A 
ATOM     64  C   UNL     1     -17.143  10.417   8.058  1.00  0.00     0.001 A 
ATOM     65  C   UNL     1     -14.795  10.154   7.568  1.00  0.00     0.001 A 
ATOM     66  C   UNL     1     -15.825  10.313   8.495  1.00  0.00     0.000 A 
ENDBRANCH  47  61
BRANCH  48  67
ATOM     67  C   UNL     1     -18.447  10.825  -4.028  1.00  0.00    -0.014 A 
ATOM     68  C   UNL     1     -19.370   9.947  -4.624  1.00  0.00     0.009 A 
ATOM     69  C   UNL     1     -17.737  11.713  -4.848  1.00  0.00     0.009 A 
ATOM     70  C   UNL     1     -19.539   9.922  -6.010  1.00  0.00     0.001 A 
ATOM     71  C   UNL     1     -17.941  11.717  -6.231  1.00  0.00     0.001 A 
ATOM     72  C   UNL     1     -18.828  10.811  -6.811  1.00  0.00     0.000 A 
ENDBRANCH  48  67
BRANCH  60  73
ATOM     73  C   UNL     1     -19.152  15.232   1.383  1.00  0.00    -0.014 A 
ATOM     74  C   UNL     1     -18.285  16.259   1.796  1.00  0.00     0.009 A 
ATOM     75  C   UNL     1     -20.517  15.520   1.236  1.00  0.00     0.009 A 
ATOM     76  C   UNL     1     -18.777  17.530   2.093  1.00  0.00     0.001 A 
ATOM     77  C   UNL     1     -21.001  16.805   1.492  1.00  0.00     0.001 A 
ATOM     78  C   UNL     1     -20.134  17.803   1.937  1.00  0.00     0.000 A 
ENDBRANCH  60  73
ENDBRANCH  34  35
ENDBRANCH  26  29
ENDBRANCH  24  25
ENDBRANCH   1  24
TORSDOF 13
