REMARK SMILES O=C1NC(=O)/C(=C/c2ccc(OCc3cn(-c4ccc(C(=O)NCCCCNC(=O)c5ccc(-c6c7nc(c(-c8ccccc8)c8ccc([nH]8)c(-c8ccccc8)c8nc(c(-c9ccccc9)c9ccc6[nH]9)C=C8)C=C7)cc5)cc4)nn3)cc2)S1
REMARK SMILES IDX 24 1 23 2 21 3 22 4 20 6 17 7 18 8 80 9 19 10 79 11 16 12
REMARK SMILES IDX 14 13 15 14 82 15 81 16 13 17 12 18 11 19 8 20 9 21 84 22
REMARK SMILES IDX 10 23 83 24 7 25 1 26 2 27 3 28 85 29 4 30 6 32 5 33 25 34
REMARK SMILES IDX 26 35 27 36 28 37 29 38 30 40 31 41 32 42 78 43 33 44 77 45
REMARK SMILES IDX 34 46 35 47 36 48 71 49 37 50 76 51 70 52 72 53 38 54 75 55
REMARK SMILES IDX 69 56 68 57 39 59 61 60 46 61 60 62 47 63 50 64 59 65 73 66
REMARK SMILES IDX 48 67 49 68 58 70 74 71 51 72 40 73 41 74 45 75 42 76 44 77
REMARK SMILES IDX 43 78 62 79 63 80 67 81 64 82 66 83 65 84 52 85 53 86 57 87
REMARK SMILES IDX 54 88 56 89 55 90
REMARK H PARENT 23 5 3 31 28 39 72 58 50 69
REMARK Flexibility Score: inf
ROOT
ATOM      1  C   UNL     1      -7.728  10.429  -1.258  1.00  0.00     0.116 C 
ENDROOT
BRANCH   1   2
ATOM      2  N   UNL     1      -8.339   9.591  -0.246  1.00  0.00    -0.352 N 
ATOM      3  C   UNL     1      -7.849   8.623   0.593  1.00  0.00     0.251 C 
ATOM      4  O   UNL     1      -8.659   8.086   1.351  1.00  0.00    -0.269 OA
ATOM      5  H   UNL     1      -9.305   9.749  -0.139  1.00  0.00     0.163 HD
BRANCH   3   6
ATOM      6  C   UNL     1      -6.407   8.243   0.682  1.00  0.00     0.039 A 
ATOM      7  C   UNL     1      -3.699   7.629   1.115  1.00  0.00     0.066 A 
ATOM      8  C   UNL     1      -4.660   7.221   2.044  1.00  0.00     0.029 A 
ATOM      9  C   UNL     1      -4.088   8.273  -0.059  1.00  0.00     0.029 A 
ATOM     10  C   UNL     1      -6.001   7.559   1.841  1.00  0.00     0.016 A 
ATOM     11  C   UNL     1      -5.443   8.516  -0.293  1.00  0.00     0.016 A 
BRANCH   7  12
ATOM     12  N   UNL     1      -2.337   7.365   1.353  1.00  0.00    -0.220 N 
ATOM     13  C   UNL     1      -0.157   7.367   1.395  1.00  0.00     0.120 A 
ATOM     14  C   UNL     1      -1.240   8.082   0.930  1.00  0.00     0.144 A 
ATOM     15  N   UNL     1      -0.624   6.291   2.105  1.00  0.00    -0.131 NA
ATOM     16  N   UNL     1      -1.944   6.321   2.106  1.00  0.00    -0.062 NA
BRANCH  13  17
ATOM     17  C   UNL     1       1.308   7.658   1.335  1.00  0.00     0.289 C 
BRANCH  17  18
ATOM     18  O   UNL     1       2.034   6.986   0.291  1.00  0.00    -0.487 OA
BRANCH  18  19
ATOM     19  C   UNL     1       2.166   5.626   0.356  1.00  0.00     0.119 A 
ATOM     20  C   UNL     1       2.210   2.825   0.124  1.00  0.00    -0.024 A 
ATOM     21  C   UNL     1       2.683   3.623  -0.920  1.00  0.00     0.012 A 
ATOM     22  C   UNL     1       1.814   3.433   1.316  1.00  0.00     0.012 A 
ATOM     23  C   UNL     1       2.653   5.018  -0.804  1.00  0.00     0.047 A 
ATOM     24  C   UNL     1       1.827   4.823   1.441  1.00  0.00     0.047 A 
BRANCH  20  25
ATOM     25  C   UNL     1       2.142   1.367  -0.011  1.00  0.00     0.029 C 
ATOM     26  O   UNL     1      -2.442  -0.716   0.023  1.00  0.00    -0.261 OA
ATOM     27  C   UNL     1      -1.262  -0.437  -0.002  1.00  0.00     0.290 C 
ATOM     28  N   UNL     1      -0.235  -1.327  -0.048  1.00  0.00    -0.282 N 
ATOM     29  S   UNL     1      -0.621   1.195   0.013  1.00  0.00    -0.022 SA
ATOM     30  C   UNL     1       1.037  -0.842  -0.077  1.00  0.00     0.265 C 
ATOM     31  H   UNL     1      -0.406  -2.297  -0.058  1.00  0.00     0.174 HD
ATOM     32  C   UNL     1       1.014   0.643  -0.031  1.00  0.00     0.083 C 
ATOM     33  O   UNL     1       2.044  -1.533  -0.119  1.00  0.00    -0.268 OA
ENDBRANCH  20  25
ENDBRANCH  18  19
ENDBRANCH  17  18
ENDBRANCH  13  17
ENDBRANCH   7  12
ENDBRANCH   3   6
ENDBRANCH   1   2
BRANCH   1  34
ATOM     34  C   UNL     1      -7.852   9.796  -2.649  1.00  0.00     0.023 C 
BRANCH  34  35
ATOM     35  C   UNL     1      -9.252   9.890  -3.275  1.00  0.00     0.023 C 
BRANCH  35  36
ATOM     36  C   UNL     1      -9.709  11.307  -3.600  1.00  0.00     0.116 C 
BRANCH  36  37
ATOM     37  N   UNL     1      -8.833  11.982  -4.560  1.00  0.00    -0.352 N 
ATOM     38  C   UNL     1      -8.801  13.325  -4.888  1.00  0.00     0.251 C 
ATOM     39  H   UNL     1      -8.187  11.408  -5.031  1.00  0.00     0.163 HD
ATOM     40  O   UNL     1      -8.332  13.711  -5.950  1.00  0.00    -0.269 OA
BRANCH  38  41
ATOM     41  C   UNL     1      -9.321  14.293  -3.910  1.00  0.00     0.039 A 
ATOM     42  C   UNL     1     -10.120  15.374  -4.287  1.00  0.00     0.014 A 
ATOM     43  C   UNL     1      -9.013  14.060  -2.573  1.00  0.00     0.014 A 
ATOM     44  C   UNL     1     -10.671  16.173  -3.288  1.00  0.00     0.010 A 
ATOM     45  C   UNL     1      -9.696  14.729  -1.595  1.00  0.00     0.010 A 
ATOM     46  C   UNL     1     -10.466  15.830  -1.942  1.00  0.00    -0.014 A 
BRANCH  46  47
ATOM     47  C   UNL     1     -11.132  16.552  -0.868  1.00  0.00     0.031 A 
ATOM     48  C   UNL     1     -12.613  16.604  -0.980  1.00  0.00     0.074 A 
ATOM     49  C   UNL     1     -10.492  16.944   0.254  1.00  0.00     0.049 A 
ATOM     50  N   UNL     1     -13.344  17.645  -1.191  1.00  0.00    -0.248 NA
ATOM     51  C   UNL     1     -13.363  15.336  -0.983  1.00  0.00     0.031 C 
ATOM     52  C   UNL     1      -9.110  16.672   0.671  1.00  0.00     0.029 A 
ATOM     53  N   UNL     1     -11.003  17.579   1.339  1.00  0.00    -0.354 N 
ATOM     54  C   UNL     1     -14.662  17.204  -1.168  1.00  0.00     0.074 A 
ATOM     55  C   UNL     1     -14.607  15.764  -1.206  1.00  0.00     0.031 C 
ATOM     56  C   UNL     1      -8.984  16.906   1.997  1.00  0.00     0.029 A 
ATOM     57  C   UNL     1     -10.213  17.508   2.479  1.00  0.00     0.049 A 
ATOM     58  H   UNL     1     -11.866  18.052   1.320  1.00  0.00     0.167 HD
ATOM     59  C   UNL     1     -15.689  18.051  -0.880  1.00  0.00     0.031 A 
ATOM     60  C   UNL     1     -10.568  17.882   3.733  1.00  0.00     0.031 A 
ATOM     61  C   UNL     1     -15.279  19.431  -0.956  1.00  0.00     0.049 A 
ATOM     62  C   UNL     1     -11.728  18.797   3.604  1.00  0.00     0.074 A 
ATOM     63  C   UNL     1     -14.732  20.218  -1.951  1.00  0.00     0.029 A 
ATOM     64  N   UNL     1     -14.993  20.072   0.228  1.00  0.00    -0.354 N 
ATOM     65  N   UNL     1     -11.645  19.977   3.058  1.00  0.00    -0.248 NA
ATOM     66  C   UNL     1     -13.060  18.209   3.624  1.00  0.00     0.031 C 
ATOM     67  C   UNL     1     -13.715  20.973  -1.294  1.00  0.00     0.029 A 
ATOM     68  C   UNL     1     -13.771  20.678   0.070  1.00  0.00     0.049 A 
ATOM     69  H   UNL     1     -15.557  20.093   1.034  1.00  0.00     0.167 HD
ATOM     70  C   UNL     1     -12.786  20.082   2.275  1.00  0.00     0.074 A 
ATOM     71  C   UNL     1     -13.663  19.003   2.733  1.00  0.00     0.031 C 
ATOM     72  C   UNL     1     -12.800  20.832   1.132  1.00  0.00     0.031 A 
BRANCH  59  73
ATOM     73  C   UNL     1     -16.938  17.627  -0.155  1.00  0.00    -0.014 A 
ATOM     74  C   UNL     1     -17.985  18.552  -0.000  1.00  0.00     0.009 A 
ATOM     75  C   UNL     1     -17.014  16.449   0.613  1.00  0.00     0.009 A 
ATOM     76  C   UNL     1     -19.019  18.333   0.918  1.00  0.00     0.001 A 
ATOM     77  C   UNL     1     -18.066  16.208   1.499  1.00  0.00     0.001 A 
ATOM     78  C   UNL     1     -19.056  17.163   1.671  1.00  0.00     0.000 A 
ENDBRANCH  59  73
BRANCH  60  79
ATOM     79  C   UNL     1     -10.162  17.283   5.025  1.00  0.00    -0.014 A 
ATOM     80  C   UNL     1     -10.389  17.956   6.237  1.00  0.00     0.009 A 
ATOM     81  C   UNL     1      -9.795  15.926   5.093  1.00  0.00     0.009 A 
ATOM     82  C   UNL     1     -10.292  17.284   7.465  1.00  0.00     0.001 A 
ATOM     83  C   UNL     1      -9.695  15.256   6.318  1.00  0.00     0.001 A 
ATOM     84  C   UNL     1      -9.960  15.932   7.504  1.00  0.00     0.000 A 
ENDBRANCH  60  79
BRANCH  72  85
ATOM     85  C   UNL     1     -11.597  21.696   0.823  1.00  0.00    -0.014 A 
ATOM     86  C   UNL     1     -10.296  21.183   0.665  1.00  0.00     0.009 A 
ATOM     87  C   UNL     1     -11.813  23.047   0.513  1.00  0.00     0.009 A 
ATOM     88  C   UNL     1      -9.244  22.003   0.239  1.00  0.00     0.001 A 
ATOM     89  C   UNL     1     -10.769  23.861   0.068  1.00  0.00     0.001 A 
ATOM     90  C   UNL     1      -9.483  23.341  -0.064  1.00  0.00     0.000 A 
ENDBRANCH  72  85
ENDBRANCH  46  47
ENDBRANCH  38  41
ENDBRANCH  36  37
ENDBRANCH  35  36
ENDBRANCH  34  35
ENDBRANCH   1  34
TORSDOF 16
