REMARK SMILES O=C(NCCCCNC(=O)[C@H]1C[C@H]2CCCC[C@@H]2[N@@H+]1CC[C@@H]1CCCO1)c1ccc(-c2c3nc(c(-c4ccccc4)c4ccc([nH]4)c(-c4ccccc4)c4nc(c(-c5ccccc5)c5ccc2[nH]5)C=C4)C=C3)cc1
REMARK SMILES IDX 6 1 5 2 4 3 3 4 1 5 2 6 27 8 28 9 74 10 29 11 73 12 30 13
REMARK SMILES IDX 31 14 32 15 67 16 33 17 72 18 66 19 68 20 34 21 71 22 65 23
REMARK SMILES IDX 64 24 35 26 57 27 42 28 56 29 43 30 46 31 55 32 69 33 44 34
REMARK SMILES IDX 45 35 54 37 70 38 47 39 36 40 37 41 41 42 38 43 40 44 39 45
REMARK SMILES IDX 58 46 59 47 63 48 60 49 62 50 61 51 48 52 49 53 53 54 50 55
REMARK SMILES IDX 52 56 51 57 7 58 8 59 9 60 10 62 11 63 12 64 19 65 13 66
REMARK SMILES IDX 18 67 14 69 17 70 15 71 16 72 20 73 21 74 22 75 23 76 26 77
REMARK SMILES IDX 24 78 25 79
REMARK H PARENT 3 7 68 25 46 36 8 61 19 68
REMARK Flexibility Score: inf
ROOT
ATOM      1  C   UNL     1       6.437   2.411  -4.316  1.00  0.00     0.023 C 
ENDROOT
BRANCH   1   2
ATOM      2  C   UNL     1       6.285   1.929  -5.765  1.00  0.00     0.023 C 
BRANCH   2   3
ATOM      3  C   UNL     1       7.591   1.601  -6.477  1.00  0.00     0.116 C 
BRANCH   3   4
ATOM      4  N   UNL     1       8.256   0.437  -5.916  1.00  0.00    -0.352 N 
ATOM      5  O   UNL     1       9.187  -1.622  -5.952  1.00  0.00    -0.269 OA
ATOM      6  C   UNL     1       8.796  -0.640  -6.577  1.00  0.00     0.251 C 
ATOM      7  H   UNL     1       8.329   0.417  -4.934  1.00  0.00     0.163 HD
BRANCH   6   8
ATOM      8  C   UNL     1       8.885  -0.619  -8.053  1.00  0.00     0.039 A 
ATOM      9  C   UNL     1       9.357   0.515  -8.716  1.00  0.00     0.014 A 
ATOM     10  C   UNL     1       8.488  -1.745  -8.782  1.00  0.00     0.014 A 
ATOM     11  C   UNL     1       9.309   0.572 -10.104  1.00  0.00     0.010 A 
ATOM     12  C   UNL     1       8.522  -1.716 -10.180  1.00  0.00     0.010 A 
ATOM     13  C   UNL     1       8.911  -0.549 -10.853  1.00  0.00    -0.014 A 
BRANCH  13  14
ATOM     14  C   UNL     1       9.000  -0.485 -12.334  1.00  0.00     0.031 A 
ATOM     15  C   UNL     1       7.775  -0.546 -13.203  1.00  0.00     0.074 A 
ATOM     16  C   UNL     1      10.216  -0.312 -12.890  1.00  0.00     0.049 A 
ATOM     17  N   UNL     1       7.688  -0.428 -14.505  1.00  0.00    -0.248 NA
ATOM     18  C   UNL     1       6.484  -0.770 -12.534  1.00  0.00     0.031 C 
ATOM     19  C   UNL     1      11.480  -0.253 -12.149  1.00  0.00     0.029 A 
ATOM     20  N   UNL     1      10.588  -0.120 -14.195  1.00  0.00    -0.354 N 
ATOM     21  C   UNL     1       6.341  -0.573 -14.813  1.00  0.00     0.074 A 
ATOM     22  C   UNL     1       5.649  -0.814 -13.565  1.00  0.00     0.031 C 
ATOM     23  C   UNL     1      12.476   0.025 -13.001  1.00  0.00     0.029 A 
ATOM     24  C   UNL     1      11.935   0.099 -14.352  1.00  0.00     0.049 A 
ATOM     25  H   UNL     1       9.952  -0.137 -14.946  1.00  0.00     0.167 HD
ATOM     26  C   UNL     1       5.739  -0.504 -16.025  1.00  0.00     0.031 A 
ATOM     27  C   UNL     1      12.662   0.324 -15.461  1.00  0.00     0.031 A 
ATOM     28  C   UNL     1       6.430  -0.269 -17.267  1.00  0.00     0.049 A 
ATOM     29  C   UNL     1      11.966   0.372 -16.789  1.00  0.00     0.074 A 
ATOM     30  C   UNL     1       5.901  -0.171 -18.544  1.00  0.00     0.029 A 
ATOM     31  N   UNL     1       7.800  -0.096 -17.390  1.00  0.00    -0.354 N 
ATOM     32  N   UNL     1      10.688   0.260 -17.055  1.00  0.00    -0.248 NA
ATOM     33  C   UNL     1      12.816   0.579 -17.968  1.00  0.00     0.031 C 
ATOM     34  C   UNL     1       6.957   0.017 -19.443  1.00  0.00     0.029 A 
ATOM     35  C   UNL     1       8.136   0.089 -18.721  1.00  0.00     0.049 A 
ATOM     36  H   UNL     1       8.439  -0.103 -16.641  1.00  0.00     0.167 HD
ATOM     37  C   UNL     1      10.579   0.388 -18.432  1.00  0.00     0.074 A 
ATOM     38  C   UNL     1      11.915   0.624 -18.939  1.00  0.00     0.031 C 
ATOM     39  C   UNL     1       9.472   0.307 -19.209  1.00  0.00     0.031 A 
BRANCH  26  40
ATOM     40  C   UNL     1       4.248  -0.701 -16.078  1.00  0.00    -0.014 A 
ATOM     41  C   UNL     1       3.368   0.299 -15.635  1.00  0.00     0.009 A 
ATOM     42  C   UNL     1       3.717  -1.869 -16.648  1.00  0.00     0.009 A 
ATOM     43  C   UNL     1       1.986   0.124 -15.744  1.00  0.00     0.001 A 
ATOM     44  C   UNL     1       2.336  -2.031 -16.776  1.00  0.00     0.001 A 
ATOM     45  C   UNL     1       1.472  -1.037 -16.320  1.00  0.00     0.000 A 
ENDBRANCH  26  40
BRANCH  27  46
ATOM     46  C   UNL     1      14.134   0.496 -15.362  1.00  0.00    -0.014 A 
ATOM     47  C   UNL     1      14.733   1.734 -15.635  1.00  0.00     0.009 A 
ATOM     48  C   UNL     1      14.948  -0.587 -14.996  1.00  0.00     0.009 A 
ATOM     49  C   UNL     1      16.121   1.876 -15.570  1.00  0.00     0.001 A 
ATOM     50  C   UNL     1      16.332  -0.434 -14.899  1.00  0.00     0.001 A 
ATOM     51  C   UNL     1      16.918   0.794 -15.197  1.00  0.00     0.000 A 
ENDBRANCH  27  46
BRANCH  39  52
ATOM     52  C   UNL     1       9.673   0.490 -20.686  1.00  0.00    -0.014 A 
ATOM     53  C   UNL     1      10.297  -0.500 -21.461  1.00  0.00     0.009 A 
ATOM     54  C   UNL     1       9.233   1.668 -21.310  1.00  0.00     0.009 A 
ATOM     55  C   UNL     1      10.517  -0.295 -22.824  1.00  0.00     0.001 A 
ATOM     56  C   UNL     1       9.429   1.858 -22.678  1.00  0.00     0.001 A 
ATOM     57  C   UNL     1      10.081   0.882 -23.431  1.00  0.00     0.000 A 
ENDBRANCH  39  52
ENDBRANCH  13  14
ENDBRANCH   6   8
ENDBRANCH   3   4
ENDBRANCH   2   3
ENDBRANCH   1   2
BRANCH   1  58
ATOM     58  C   UNL     1       7.349   3.630  -4.138  1.00  0.00     0.116 C 
BRANCH  58  59
ATOM     59  N   UNL     1       6.863   4.734  -4.935  1.00  0.00    -0.351 N 
ATOM     60  C   UNL     1       6.301   5.909  -4.543  1.00  0.00     0.278 C 
ATOM     61  H   UNL     1       6.953   4.617  -5.908  1.00  0.00     0.163 HD
ATOM     62  O   UNL     1       5.631   6.498  -5.398  1.00  0.00    -0.268 OA
BRANCH  60  63
ATOM     63  C   UNL     1       6.568   6.483  -3.133  1.00  0.00     0.274 C 
ATOM     64  C   UNL     1       6.497   8.030  -3.240  1.00  0.00     0.085 C 
ATOM     65  N   UNL     1       5.492   6.105  -2.195  1.00  0.00    -0.322 N 
ATOM     66  C   UNL     1       5.426   8.429  -2.247  1.00  0.00     0.054 C 
ATOM     67  C   UNL     1       4.539   7.202  -2.115  1.00  0.00     0.188 C 
ATOM     68  H   UNL     1       4.995   5.299  -2.573  1.00  0.00     0.349 HD
ATOM     69  C   UNL     1       4.609   9.686  -2.474  1.00  0.00     0.010 C 
ATOM     70  C   UNL     1       3.590   7.333  -0.924  1.00  0.00     0.065 C 
ATOM     71  C   UNL     1       3.711   9.882  -1.244  1.00  0.00     0.001 C 
ATOM     72  C   UNL     1       2.822   8.662  -0.967  1.00  0.00     0.006 C 
BRANCH  65  73
ATOM     73  C   UNL     1       5.722   5.184  -1.095  1.00  0.00     0.265 C 
BRANCH  73  74
ATOM     74  C   UNL     1       6.889   5.347  -0.093  1.00  0.00     0.093 C 
BRANCH  74  75
ATOM     75  C   UNL     1       6.704   6.357   1.044  1.00  0.00     0.123 C 
ATOM     76  C   UNL     1       6.956   7.804   0.669  1.00  0.00     0.034 C 
ATOM     77  O   UNL     1       7.651   6.097   2.103  1.00  0.00    -0.378 OA
ATOM     78  C   UNL     1       7.826   8.392   1.750  1.00  0.00     0.031 C 
ATOM     79  C   UNL     1       7.808   7.332   2.817  1.00  0.00     0.160 C 
ENDBRANCH  74  75
ENDBRANCH  73  74
ENDBRANCH  65  73
ENDBRANCH  60  63
ENDBRANCH  58  59
ENDBRANCH   1  58
TORSDOF 14
