REMARK SMILES CCc1ccc(S(=O)(=O)CC(=O)NCCCCNC(=O)c2ccc(-c3c4nc(c(-c5ccccc5)c5ccc([nH]5)c(-c5ccccc5)c5nc(c(-c6ccccc6)c6ccc3[nH]6)C=C5)C=C4)cc2)cc1
REMARK SMILES IDX 15 1 14 2 13 3 11 4 12 5 10 7 7 8 8 9 9 10 6 11 3 12 4 13
REMARK SMILES IDX 70 14 5 15 69 16 2 17 1 18 16 19 17 20 18 21 19 22 20 24
REMARK SMILES IDX 21 25 22 26 68 27 23 28 67 29 24 30 25 31 26 32 61 33 27 34
REMARK SMILES IDX 66 35 60 36 62 37 28 38 65 39 59 40 58 41 29 43 51 44 36 45
REMARK SMILES IDX 50 46 37 47 40 48 49 49 63 50 38 51 39 52 48 54 64 55 41 56
REMARK SMILES IDX 30 57 31 58 35 59 32 60 34 61 33 62 52 63 53 64 57 65 54 66
REMARK SMILES IDX 56 67 55 68 42 69 43 70 47 71 44 72 46 73 45 74
REMARK H PARENT 13 6 18 23 62 42 40 53
REMARK Flexibility Score: inf
ROOT
ATOM      1  C   UNL     1       0.200   5.722  -5.307  1.00  0.00     0.023 C 
ENDROOT
BRANCH   1   2
ATOM      2  C   UNL     1       0.052   7.137  -4.747  1.00  0.00     0.116 C 
BRANCH   2   3
ATOM      3  N   UNL     1      -0.693   7.122  -3.503  1.00  0.00    -0.355 N 
ATOM      4  C   UNL     1      -0.250   7.265  -2.227  1.00  0.00     0.235 C 
ATOM      5  O   UNL     1      -1.077   7.116  -1.323  1.00  0.00    -0.274 OA
ATOM      6  H   UNL     1      -1.663   6.988  -3.597  1.00  0.00     0.163 HD
BRANCH   4   7
ATOM      7  C   UNL     1       1.143   7.707  -1.918  1.00  0.00     0.241 C 
BRANCH   7   8
ATOM      8  S   UNL     1       2.359   6.443  -1.951  1.00  0.00     0.187 S 
ATOM      9  O   UNL     1       3.445   6.875  -1.090  1.00  0.00    -0.223 OA
ATOM     10  O   UNL     1       2.640   6.146  -3.347  1.00  0.00    -0.223 OA
BRANCH   8  11
ATOM     11  C   UNL     1       1.747   4.944  -1.230  1.00  0.00     0.067 A 
ATOM     12  C   UNL     1       0.904   2.510  -0.102  1.00  0.00    -0.048 A 
ATOM     13  C   UNL     1       1.856   2.525  -1.128  1.00  0.00     0.005 A 
ATOM     14  C   UNL     1       0.387   3.737   0.349  1.00  0.00     0.005 A 
ATOM     15  C   UNL     1       2.269   3.733  -1.696  1.00  0.00     0.020 A 
ATOM     16  C   UNL     1       0.816   4.951  -0.196  1.00  0.00     0.020 A 
BRANCH  12  17
ATOM     17  C   UNL     1       0.432   1.246   0.582  1.00  0.00     0.032 C 
ATOM     18  C   UNL     1       0.909  -0.077  -0.004  1.00  0.00     0.009 C 
ENDBRANCH  12  17
ENDBRANCH   8  11
ENDBRANCH   7   8
ENDBRANCH   4   7
ENDBRANCH   2   3
ENDBRANCH   1   2
BRANCH   1  19
ATOM     19  C   UNL     1      -1.108   5.085  -5.785  1.00  0.00     0.023 C 
BRANCH  19  20
ATOM     20  C   UNL     1      -1.859   5.866  -6.856  1.00  0.00     0.116 C 
BRANCH  20  21
ATOM     21  N   UNL     1      -1.066   6.101  -8.052  1.00  0.00    -0.352 N 
ATOM     22  C   UNL     1      -1.436   5.984  -9.370  1.00  0.00     0.251 C 
ATOM     23  H   UNL     1      -0.136   6.383  -7.896  1.00  0.00     0.163 HD
ATOM     24  O   UNL     1      -0.602   6.104 -10.262  1.00  0.00    -0.269 OA
BRANCH  22  25
ATOM     25  C   UNL     1      -2.841   5.676  -9.709  1.00  0.00     0.039 A 
ATOM     26  C   UNL     1      -3.103   4.663 -10.635  1.00  0.00     0.014 A 
ATOM     27  C   UNL     1      -3.893   6.362  -9.096  1.00  0.00     0.014 A 
ATOM     28  C   UNL     1      -4.423   4.291 -10.894  1.00  0.00     0.010 A 
ATOM     29  C   UNL     1      -5.202   5.938  -9.299  1.00  0.00     0.010 A 
ATOM     30  C   UNL     1      -5.481   4.899 -10.199  1.00  0.00    -0.014 A 
BRANCH  30  31
ATOM     31  C   UNL     1      -6.886   4.462 -10.399  1.00  0.00     0.031 A 
ATOM     32  C   UNL     1      -7.898   5.417 -10.970  1.00  0.00     0.074 A 
ATOM     33  C   UNL     1      -7.264   3.226 -10.016  1.00  0.00     0.049 A 
ATOM     34  N   UNL     1      -9.183   5.245 -11.155  1.00  0.00    -0.248 NA
ATOM     35  C   UNL     1      -7.407   6.747 -11.365  1.00  0.00     0.031 C 
ATOM     36  C   UNL     1      -6.389   2.216  -9.418  1.00  0.00     0.029 A 
ATOM     37  N   UNL     1      -8.491   2.612 -10.067  1.00  0.00    -0.354 N 
ATOM     38  C   UNL     1      -9.651   6.443 -11.680  1.00  0.00     0.074 A 
ATOM     39  C   UNL     1      -8.528   7.353 -11.727  1.00  0.00     0.031 C 
ATOM     40  C   UNL     1      -7.100   1.101  -9.182  1.00  0.00     0.029 A 
ATOM     41  C   UNL     1      -8.488   1.331  -9.570  1.00  0.00     0.049 A 
ATOM     42  H   UNL     1      -9.297   3.049 -10.426  1.00  0.00     0.167 HD
ATOM     43  C   UNL     1     -10.897   6.752 -12.110  1.00  0.00     0.031 A 
ATOM     44  C   UNL     1      -9.492   0.444  -9.433  1.00  0.00     0.031 A 
ATOM     45  C   UNL     1     -12.016   5.849 -12.066  1.00  0.00     0.049 A 
ATOM     46  C   UNL     1     -10.875   0.828  -9.883  1.00  0.00     0.074 A 
ATOM     47  C   UNL     1     -13.313   6.061 -12.501  1.00  0.00     0.029 A 
ATOM     48  N   UNL     1     -11.969   4.560 -11.559  1.00  0.00    -0.354 N 
ATOM     49  N   UNL     1     -11.288   1.947 -10.427  1.00  0.00    -0.248 NA
ATOM     50  C   UNL     1     -11.929  -0.183  -9.711  1.00  0.00     0.031 C 
ATOM     51  C   UNL     1     -14.062   4.915 -12.216  1.00  0.00     0.029 A 
ATOM     52  C   UNL     1     -13.217   3.970 -11.656  1.00  0.00     0.049 A 
ATOM     53  H   UNL     1     -11.167   4.129 -11.184  1.00  0.00     0.167 HD
ATOM     54  C   UNL     1     -12.639   1.762 -10.692  1.00  0.00     0.074 A 
ATOM     55  C   UNL     1     -12.971   0.419 -10.267  1.00  0.00     0.031 C 
ATOM     56  C   UNL     1     -13.527   2.628 -11.238  1.00  0.00     0.031 A 
BRANCH  43  57
ATOM     57  C   UNL     1     -11.111   8.128 -12.677  1.00  0.00    -0.014 A 
ATOM     58  C   UNL     1     -10.556   8.493 -13.914  1.00  0.00     0.009 A 
ATOM     59  C   UNL     1     -11.907   9.057 -11.989  1.00  0.00     0.009 A 
ATOM     60  C   UNL     1     -10.766   9.772 -14.435  1.00  0.00     0.001 A 
ATOM     61  C   UNL     1     -12.139  10.325 -12.526  1.00  0.00     0.001 A 
ATOM     62  C   UNL     1     -11.562  10.684 -13.743  1.00  0.00     0.000 A 
ENDBRANCH  43  57
BRANCH  44  63
ATOM     63  C   UNL     1      -9.237  -0.898  -8.845  1.00  0.00    -0.014 A 
ATOM     64  C   UNL     1      -9.339  -2.054  -9.635  1.00  0.00     0.009 A 
ATOM     65  C   UNL     1      -8.929  -1.034  -7.483  1.00  0.00     0.009 A 
ATOM     66  C   UNL     1      -9.178  -3.319  -9.064  1.00  0.00     0.001 A 
ATOM     67  C   UNL     1      -8.736  -2.299  -6.922  1.00  0.00     0.001 A 
ATOM     68  C   UNL     1      -8.874  -3.440  -7.709  1.00  0.00     0.000 A 
ENDBRANCH  44  63
BRANCH  56  69
ATOM     69  C   UNL     1     -14.930   2.132 -11.450  1.00  0.00    -0.014 A 
ATOM     70  C   UNL     1     -15.805   1.926 -10.372  1.00  0.00     0.009 A 
ATOM     71  C   UNL     1     -15.393   1.904 -12.755  1.00  0.00     0.009 A 
ATOM     72  C   UNL     1     -17.104   1.466 -10.596  1.00  0.00     0.001 A 
ATOM     73  C   UNL     1     -16.701   1.474 -12.978  1.00  0.00     0.001 A 
ATOM     74  C   UNL     1     -17.552   1.246 -11.898  1.00  0.00     0.000 A 
ENDBRANCH  56  69
ENDBRANCH  30  31
ENDBRANCH  22  25
ENDBRANCH  20  21
ENDBRANCH  19  20
ENDBRANCH   1  19
TORSDOF 14
