REMARK SMILES COc1ccc(-c2[nH]nc3nc(-c4ccc(C(F)(F)F)cc4)cc(C(=O)NCCCCNC(=O)c4ccc(-c5c6nc(c(-c7ccccc7)c7ccc([nH]7)c(-c7ccccc7)c7nc(c(-c8ccccc8)c8ccc5[nH]8)C=C7)C=C6)cc4)c23)cc1
REMARK SMILES IDX 29 1 28 2 27 3 25 4 26 5 24 7 7 8 8 9 83 10 9 11 10 13 11 14
REMARK SMILES IDX 23 15 12 16 6 17 3 18 4 19 85 20 5 21 84 22 2 23 1 24 13 25
REMARK SMILES IDX 14 26 22 27 15 28 21 29 16 30 17 31 18 32 19 33 20 34 30 35
REMARK SMILES IDX 31 36 32 37 33 38 34 40 35 41 36 42 82 43 37 44 81 45 38 46
REMARK SMILES IDX 39 47 40 48 75 49 41 50 80 51 74 52 76 53 42 54 79 55 73 56
REMARK SMILES IDX 72 57 43 59 65 60 50 61 64 62 51 63 54 64 63 65 77 66 52 67
REMARK SMILES IDX 53 68 62 70 78 71 55 72 44 73 45 74 49 75 46 76 48 77 47 78
REMARK SMILES IDX 66 79 67 80 71 81 68 82 70 83 69 84 56 85 57 86 61 87 58 88
REMARK SMILES IDX 60 89 59 90
REMARK H PARENT 27 6 8 12 32 39 76 58 54 69
REMARK Flexibility Score: inf
ROOT
ATOM      1  C   UNL     1       7.061   2.425   6.245  1.00  0.00     0.023 C 
ENDROOT
BRANCH   1   2
ATOM      2  C   UNL     1       5.676   2.745   6.805  1.00  0.00     0.116 C 
BRANCH   2   3
ATOM      3  N   UNL     1       4.610   2.197   5.993  1.00  0.00    -0.352 N 
ATOM      4  C   UNL     1       3.807   1.086   6.036  1.00  0.00     0.252 C 
ATOM      5  O   UNL     1       2.861   1.140   5.256  1.00  0.00    -0.269 OA
ATOM      6  H   UNL     1       4.411   2.765   5.213  1.00  0.00     0.163 HD
BRANCH   4   7
ATOM      7  C   UNL     1       3.967  -0.059   6.969  1.00  0.00     0.055 A 
ATOM      8  C   UNL     1       2.122  -1.659   6.249  1.00  0.00     0.075 A 
ATOM      9  N   UNL     1       1.626  -2.773   6.884  1.00  0.00    -0.275 N 
ATOM     10  C   UNL     1       3.122  -1.184   7.088  1.00  0.00     0.059 A 
ATOM     11  N   UNL     1       2.246  -3.099   8.026  1.00  0.00    -0.154 NA
ATOM     12  H   UNL     1       0.871  -3.294   6.526  1.00  0.00     0.190 HD
ATOM     13  C   UNL     1       3.177  -2.156   8.157  1.00  0.00     0.182 A 
ATOM     14  N   UNL     1       4.075  -2.087   9.172  1.00  0.00    -0.226 NA
ATOM     15  C   UNL     1       4.950  -0.123   7.962  1.00  0.00     0.043 A 
ATOM     16  C   UNL     1       4.938  -1.054   9.032  1.00  0.00     0.074 A 
BRANCH   8  17
ATOM     17  C   UNL     1       1.621  -1.289   4.932  1.00  0.00     0.001 A 
ATOM     18  C   UNL     1       0.731  -0.412   2.413  1.00  0.00     0.118 A 
ATOM     19  C   UNL     1      -0.114  -0.356   3.525  1.00  0.00     0.047 A 
ATOM     20  C   UNL     1       2.014  -0.939   2.557  1.00  0.00     0.047 A 
ATOM     21  C   UNL     1       0.321  -0.800   4.777  1.00  0.00     0.014 A 
ATOM     22  C   UNL     1       2.454  -1.384   3.809  1.00  0.00     0.014 A 
BRANCH  18  23
ATOM     23  O   UNL     1       0.200   0.110   1.266  1.00  0.00    -0.497 OA
ATOM     24  C   UNL     1       0.903  -0.151   0.058  1.00  0.00     0.278 C 
ENDBRANCH  18  23
ENDBRANCH   8  17
BRANCH  16  25
ATOM     25  C   UNL     1       5.878  -0.823  10.141  1.00  0.00     0.000 A 
ATOM     26  C   UNL     1       6.892  -1.733  10.458  1.00  0.00     0.011 A 
ATOM     27  C   UNL     1       5.822   0.389  10.857  1.00  0.00     0.011 A 
ATOM     28  C   UNL     1       7.855  -1.415  11.425  1.00  0.00     0.014 A 
ATOM     29  C   UNL     1       6.778   0.708  11.822  1.00  0.00     0.014 A 
ATOM     30  C   UNL     1       7.816  -0.186  12.105  1.00  0.00     0.056 A 
BRANCH  30  31
ATOM     31  C   UNL     1       8.883   0.162  13.115  1.00  0.00     0.416 C 
ATOM     32  F   UNL     1       8.921  -0.709  14.159  1.00  0.00    -0.166 F 
ATOM     33  F   UNL     1      10.131   0.156  12.572  1.00  0.00    -0.166 F 
ATOM     34  F   UNL     1       8.725   1.399  13.665  1.00  0.00    -0.166 F 
ENDBRANCH  30  31
ENDBRANCH  16  25
ENDBRANCH   4   7
ENDBRANCH   2   3
ENDBRANCH   1   2
BRANCH   1  35
ATOM     35  C   UNL     1       7.442   3.226   4.989  1.00  0.00     0.023 C 
BRANCH  35  36
ATOM     36  C   UNL     1       7.469   4.744   5.169  1.00  0.00     0.116 C 
BRANCH  36  37
ATOM     37  N   UNL     1       8.382   5.171   6.224  1.00  0.00    -0.352 N 
ATOM     38  C   UNL     1       8.469   6.404   6.836  1.00  0.00     0.251 C 
ATOM     39  H   UNL     1       9.019   4.490   6.540  1.00  0.00     0.163 HD
ATOM     40  O   UNL     1       9.491   6.742   7.418  1.00  0.00    -0.269 OA
BRANCH  38  41
ATOM     41  C   UNL     1       7.314   7.317   6.785  1.00  0.00     0.039 A 
ATOM     42  C   UNL     1       7.492   8.666   6.478  1.00  0.00     0.014 A 
ATOM     43  C   UNL     1       6.042   6.809   7.045  1.00  0.00     0.014 A 
ATOM     44  C   UNL     1       6.369   9.479   6.337  1.00  0.00     0.010 A 
ATOM     45  C   UNL     1       4.927   7.587   6.816  1.00  0.00     0.010 A 
ATOM     46  C   UNL     1       5.084   8.928   6.478  1.00  0.00    -0.014 A 
BRANCH  46  47
ATOM     47  C   UNL     1       3.913   9.723   6.107  1.00  0.00     0.031 A 
ATOM     48  C   UNL     1       3.950  10.278   4.725  1.00  0.00     0.074 A 
ATOM     49  C   UNL     1       2.778   9.794   6.833  1.00  0.00     0.049 A 
ATOM     50  N   UNL     1       4.002  11.521   4.378  1.00  0.00    -0.248 NA
ATOM     51  C   UNL     1       4.047   9.338   3.596  1.00  0.00     0.031 C 
ATOM     52  C   UNL     1       2.440   9.060   8.056  1.00  0.00     0.029 A 
ATOM     53  N   UNL     1       1.622  10.462   6.552  1.00  0.00    -0.354 N 
ATOM     54  C   UNL     1       3.942  11.537   2.987  1.00  0.00     0.074 A 
ATOM     55  C   UNL     1       4.133  10.174   2.560  1.00  0.00     0.031 C 
ATOM     56  C   UNL     1       1.107   9.131   8.269  1.00  0.00     0.029 A 
ATOM     57  C   UNL     1       0.528  10.046   7.301  1.00  0.00     0.049 A 
ATOM     58  H   UNL     1       1.567  11.176   5.876  1.00  0.00     0.167 HD
ATOM     59  C   UNL     1       3.493  12.631   2.309  1.00  0.00     0.031 A 
ATOM     60  C   UNL     1      -0.767  10.401   7.124  1.00  0.00     0.031 A 
ATOM     61  C   UNL     1       3.460  13.802   3.150  1.00  0.00     0.049 A 
ATOM     62  C   UNL     1      -0.788  11.652   6.337  1.00  0.00     0.074 A 
ATOM     63  C   UNL     1       4.387  14.503   3.895  1.00  0.00     0.029 A 
ATOM     64  N   UNL     1       2.229  14.197   3.617  1.00  0.00    -0.354 N 
ATOM     65  N   UNL     1      -0.379  12.797   6.799  1.00  0.00    -0.248 NA
ATOM     66  C   UNL     1      -0.891  11.563   4.891  1.00  0.00     0.031 C 
ATOM     67  C   UNL     1       3.687  14.900   5.074  1.00  0.00     0.029 A 
ATOM     68  C   UNL     1       2.361  14.482   4.949  1.00  0.00     0.049 A 
ATOM     69  H   UNL     1       1.401  14.264   3.088  1.00  0.00     0.167 HD
ATOM     70  C   UNL     1       0.266  13.393   5.727  1.00  0.00     0.074 A 
ATOM     71  C   UNL     1      -0.198  12.655   4.554  1.00  0.00     0.031 C 
ATOM     72  C   UNL     1       1.327  14.231   5.927  1.00  0.00     0.031 A 
BRANCH  59  73
ATOM     73  C   UNL     1       2.666  12.549   1.044  1.00  0.00    -0.014 A 
ATOM     74  C   UNL     1       2.229  13.748   0.448  1.00  0.00     0.009 A 
ATOM     75  C   UNL     1       2.049  11.366   0.598  1.00  0.00     0.009 A 
ATOM     76  C   UNL     1       1.163  13.768  -0.459  1.00  0.00     0.001 A 
ATOM     77  C   UNL     1       1.014  11.377  -0.343  1.00  0.00     0.001 A 
ATOM     78  C   UNL     1       0.547  12.582  -0.845  1.00  0.00     0.000 A 
ENDBRANCH  59  73
BRANCH  60  79
ATOM     79  C   UNL     1      -2.000   9.636   7.400  1.00  0.00    -0.014 A 
ATOM     80  C   UNL     1      -3.244  10.284   7.465  1.00  0.00     0.009 A 
ATOM     81  C   UNL     1      -1.994   8.232   7.315  1.00  0.00     0.009 A 
ATOM     82  C   UNL     1      -4.439   9.556   7.393  1.00  0.00     0.001 A 
ATOM     83  C   UNL     1      -3.188   7.505   7.249  1.00  0.00     0.001 A 
ATOM     84  C   UNL     1      -4.410   8.169   7.268  1.00  0.00     0.000 A 
ENDBRANCH  60  79
BRANCH  72  85
ATOM     85  C   UNL     1       1.580  14.727   7.331  1.00  0.00    -0.014 A 
ATOM     86  C   UNL     1       1.798  13.876   8.429  1.00  0.00     0.009 A 
ATOM     87  C   UNL     1       1.713  16.109   7.529  1.00  0.00     0.009 A 
ATOM     88  C   UNL     1       2.086  14.396   9.695  1.00  0.00     0.001 A 
ATOM     89  C   UNL     1       2.026  16.628   8.786  1.00  0.00     0.001 A 
ATOM     90  C   UNL     1       2.201  15.773   9.872  1.00  0.00     0.000 A 
ENDBRANCH  72  85
ENDBRANCH  46  47
ENDBRANCH  38  41
ENDBRANCH  36  37
ENDBRANCH  35  36
ENDBRANCH   1  35
TORSDOF 15
