REMARK SMILES CCCOC(=O)c1c(NC(=O)[C@H]2[C@@H](C(=O)NCCCCNC(=O)c3ccc(-c4c5nc(c(-c6ccccc6)c6ccc([nH]6)c(-c6ccccc6)c6nc(c(-c7ccccc7)c7ccc4[nH]7)C=C6)C=C5)cc3)[C@@H]3C=C[C@H]2C3)sc2c1CCCCC2
REMARK SMILES IDX 14 1 15 2 16 3 13 5 12 6 75 7 72 8 74 9 76 10 73 11 10 12
REMARK SMILES IDX 9 13 11 15 8 16 7 17 79 18 77 19 78 20 5 21 6 22 4 23 3 24
REMARK SMILES IDX 2 25 1 26 80 27 84 29 83 30 82 31 81 32 17 34 18 35 19 36
REMARK SMILES IDX 20 37 21 38 22 39 23 41 24 42 25 43 71 44 26 45 70 46 27 47
REMARK SMILES IDX 28 48 29 49 64 50 30 51 69 52 63 53 65 54 31 55 68 56 62 57
REMARK SMILES IDX 61 58 32 60 54 61 39 62 53 63 40 64 43 65 52 66 66 67 41 68
REMARK SMILES IDX 42 69 51 71 67 72 44 73 33 74 34 75 38 76 35 77 37 78 36 79
REMARK SMILES IDX 55 80 56 81 60 82 57 83 59 84 58 85 45 86 46 87 50 88 47 89
REMARK SMILES IDX 49 90 48 91
REMARK H PARENT 16 4 9 14 21 40 65 59 43 70
REMARK Flexibility Score: 100.00
ROOT
ATOM      1  C   UNL     1      -2.014   7.831  -3.447  1.00  0.00     0.224 C 
ATOM      2  O   UNL     1      -1.559   7.606  -4.574  1.00  0.00    -0.275 OA
ATOM      3  N   UNL     1      -3.121   8.607  -3.449  1.00  0.00    -0.356 N 
ATOM      4  H   UNL     1      -3.551   8.665  -4.333  1.00  0.00     0.163 HD
ENDROOT
BRANCH   1   5
ATOM      5  C   UNL     1      -1.312   7.280  -2.188  1.00  0.00     0.098 C 
ATOM      6  C   UNL     1      -1.015   5.752  -2.354  1.00  0.00     0.099 C 
ATOM      7  C   UNL     1      -2.073   5.069  -1.439  1.00  0.00     0.025 C 
ATOM      8  C   UNL     1      -2.089   7.229  -0.853  1.00  0.00     0.025 C 
ATOM      9  C   UNL     1      -1.423   5.154  -0.061  1.00  0.00    -0.027 C 
ATOM     10  C   UNL     1      -3.127   6.151  -1.191  1.00  0.00     0.017 C 
ATOM     11  C   UNL     1      -1.337   6.464   0.233  1.00  0.00    -0.027 C 
BRANCH   6  12
ATOM     12  C   UNL     1      -0.660   5.234  -3.743  1.00  0.00     0.229 C 
ATOM     13  N   UNL     1       0.575   5.631  -4.267  1.00  0.00    -0.317 N 
ATOM     14  H   UNL     1       0.689   5.566  -5.243  1.00  0.00     0.170 HD
ATOM     15  O   UNL     1      -1.462   4.588  -4.417  1.00  0.00    -0.274 OA
BRANCH  13  16
ATOM     16  C   UNL     1       1.656   6.110  -3.535  1.00  0.00     0.110 A 
ATOM     17  C   UNL     1       2.643   7.046  -3.801  1.00  0.00     0.098 A 
ATOM     18  C   UNL     1       3.399   7.365  -2.593  1.00  0.00    -0.017 A 
ATOM     19  S   UNL     1       2.149   5.234  -2.136  1.00  0.00    -0.122 S 
ATOM     20  C   UNL     1       2.910   6.633  -1.526  1.00  0.00     0.011 A 
BRANCH  17  21
ATOM     21  C   UNL     1       2.839   7.706  -5.071  1.00  0.00     0.341 C 
ATOM     22  O   UNL     1       2.170   8.649  -5.463  1.00  0.00    -0.246 OA
BRANCH  21  23
ATOM     23  O   UNL     1       3.906   7.160  -5.716  1.00  0.00    -0.462 OA
BRANCH  23  24
ATOM     24  C   UNL     1       4.272   7.739  -6.972  1.00  0.00     0.233 C 
BRANCH  24  25
ATOM     25  C   UNL     1       3.624   6.971  -8.118  1.00  0.00     0.038 C 
ATOM     26  C   UNL     1       2.120   7.184  -8.204  1.00  0.00     0.007 C 
ENDBRANCH  24  25
ENDBRANCH  23  24
ENDBRANCH  21  23
ENDBRANCH  17  21
BRANCH  18  27
ATOM     27  C   UNL     1       4.511   8.376  -2.500  1.00  0.00     0.037 CG0
ATOM     28  G   UNL     1       4.485   9.233  -1.237  1.00  0.00     0.000 G0
ENDBRANCH  18  27
BRANCH  20  29
ATOM     29  C   UNL     1       3.081   6.834  -0.056  1.00  0.00     0.047 C 
BRANCH  29  30
ATOM     30  C   UNL     1       4.529   7.110   0.309  1.00  0.00     0.006 C 
BRANCH  30  31
ATOM     31  C   UNL     1       4.983   8.548   0.043  1.00  0.00     0.001 C 
BRANCH  31  32
ATOM     32  C   UNL     1       4.485   9.233  -1.237  1.00  0.00     0.005 CG0
ATOM     33  G   UNL     1       4.511   8.376  -2.500  1.00  0.00     0.000 G0
ENDBRANCH  31  32
ENDBRANCH  30  31
ENDBRANCH  29  30
ENDBRANCH  20  29
ENDBRANCH  13  16
ENDBRANCH   6  12
ENDBRANCH   1   5
BRANCH   3  34
ATOM     34  C   UNL     1      -3.808   9.366  -2.433  1.00  0.00     0.116 C 
BRANCH  34  35
ATOM     35  C   UNL     1      -3.214  10.762  -2.282  1.00  0.00     0.023 C 
BRANCH  35  36
ATOM     36  C   UNL     1      -3.631  11.739  -3.391  1.00  0.00     0.023 C 
BRANCH  36  37
ATOM     37  C   UNL     1      -5.133  12.012  -3.477  1.00  0.00     0.116 C 
BRANCH  37  38
ATOM     38  N   UNL     1      -5.694  12.511  -2.223  1.00  0.00    -0.352 N 
ATOM     39  C   UNL     1      -7.018  12.564  -1.835  1.00  0.00     0.251 C 
ATOM     40  H   UNL     1      -5.042  12.853  -1.569  1.00  0.00     0.163 HD
ATOM     41  O   UNL     1      -7.389  13.331  -0.955  1.00  0.00    -0.269 OA
BRANCH  39  42
ATOM     42  C   UNL     1      -7.983  11.663  -2.484  1.00  0.00     0.039 A 
ATOM     43  C   UNL     1      -9.228  12.116  -2.919  1.00  0.00     0.014 A 
ATOM     44  C   UNL     1      -7.604  10.338  -2.672  1.00  0.00     0.014 A 
ATOM     45  C   UNL     1     -10.046  11.241  -3.630  1.00  0.00     0.010 A 
ATOM     46  C   UNL     1      -8.342   9.518  -3.490  1.00  0.00     0.010 A 
ATOM     47  C   UNL     1      -9.585   9.948  -3.938  1.00  0.00    -0.014 A 
BRANCH  47  48
ATOM     48  C   UNL     1     -10.347   9.089  -4.837  1.00  0.00     0.031 A 
ATOM     49  C   UNL     1     -10.705   9.713  -6.140  1.00  0.00     0.074 A 
ATOM     50  C   UNL     1     -10.547   7.769  -4.632  1.00  0.00     0.049 A 
ATOM     51  N   UNL     1     -11.886  10.014  -6.567  1.00  0.00    -0.248 NA
ATOM     52  C   UNL     1      -9.617  10.160  -7.026  1.00  0.00     0.031 C 
ATOM     53  C   UNL     1      -9.996   6.910  -3.579  1.00  0.00     0.029 A 
ATOM     54  N   UNL     1     -11.210   6.881  -5.421  1.00  0.00    -0.354 N 
ATOM     55  C   UNL     1     -11.717  10.518  -7.851  1.00  0.00     0.074 A 
ATOM     56  C   UNL     1     -10.301  10.733  -8.018  1.00  0.00     0.031 C 
ATOM     57  C   UNL     1     -10.135   5.613  -3.935  1.00  0.00     0.029 A 
ATOM     58  C   UNL     1     -10.938   5.549  -5.142  1.00  0.00     0.049 A 
ATOM     59  H   UNL     1     -11.832   7.161  -6.132  1.00  0.00     0.167 HD
ATOM     60  C   UNL     1     -12.729  10.499  -8.762  1.00  0.00     0.031 A 
ATOM     61  C   UNL     1     -11.321   4.472  -5.872  1.00  0.00     0.031 A 
ATOM     62  C   UNL     1     -14.008  10.268  -8.139  1.00  0.00     0.049 A 
ATOM     63  C   UNL     1     -12.462   4.895  -6.716  1.00  0.00     0.074 A 
ATOM     64  C   UNL     1     -14.727  10.905  -7.145  1.00  0.00     0.029 A 
ATOM     65  N   UNL     1     -14.541   9.003  -8.229  1.00  0.00    -0.354 N 
ATOM     66  N   UNL     1     -13.627   5.220  -6.232  1.00  0.00    -0.248 NA
ATOM     67  C   UNL     1     -12.176   5.401  -8.049  1.00  0.00     0.031 C 
ATOM     68  C   UNL     1     -15.264   9.846  -6.353  1.00  0.00     0.029 A 
ATOM     69  C   UNL     1     -14.918   8.638  -6.961  1.00  0.00     0.049 A 
ATOM     70  H   UNL     1     -14.634   8.462  -9.046  1.00  0.00     0.167 HD
ATOM     71  C   UNL     1     -14.021   6.321  -6.978  1.00  0.00     0.074 A 
ATOM     72  C   UNL     1     -13.138   6.323  -8.145  1.00  0.00     0.031 C 
ATOM     73  C   UNL     1     -14.825   7.289  -6.446  1.00  0.00     0.031 A 
BRANCH  60  74
ATOM     74  C   UNL     1     -12.508  10.289 -10.238  1.00  0.00    -0.014 A 
ATOM     75  C   UNL     1     -13.606  10.366 -11.113  1.00  0.00     0.009 A 
ATOM     76  C   UNL     1     -11.319   9.746 -10.763  1.00  0.00     0.009 A 
ATOM     77  C   UNL     1     -13.532   9.868 -12.420  1.00  0.00     0.001 A 
ATOM     78  C   UNL     1     -11.229   9.287 -12.079  1.00  0.00     0.001 A 
ATOM     79  C   UNL     1     -12.345   9.324 -12.900  1.00  0.00     0.000 A 
ENDBRANCH  60  74
BRANCH  61  80
ATOM     80  C   UNL     1     -10.606   3.196  -6.088  1.00  0.00    -0.014 A 
ATOM     81  C   UNL     1     -11.266   2.090  -6.647  1.00  0.00     0.009 A 
ATOM     82  C   UNL     1      -9.202   3.146  -6.009  1.00  0.00     0.009 A 
ATOM     83  C   UNL     1     -10.545   0.997  -7.149  1.00  0.00     0.001 A 
ATOM     84  C   UNL     1      -8.482   2.054  -6.506  1.00  0.00     0.001 A 
ATOM     85  C   UNL     1      -9.154   0.987  -7.093  1.00  0.00     0.000 A 
ENDBRANCH  61  80
BRANCH  73  86
ATOM     86  C   UNL     1     -15.453   7.039  -5.093  1.00  0.00    -0.014 A 
ATOM     87  C   UNL     1     -14.706   6.775  -3.930  1.00  0.00     0.009 A 
ATOM     88  C   UNL     1     -16.836   7.234  -4.957  1.00  0.00     0.009 A 
ATOM     89  C   UNL     1     -15.329   6.678  -2.680  1.00  0.00     0.001 A 
ATOM     90  C   UNL     1     -17.455   7.160  -3.708  1.00  0.00     0.001 A 
ATOM     91  C   UNL     1     -16.703   6.876  -2.570  1.00  0.00     0.000 A 
ENDBRANCH  73  86
ENDBRANCH  47  48
ENDBRANCH  39  42
ENDBRANCH  37  38
ENDBRANCH  36  37
ENDBRANCH  35  36
ENDBRANCH  34  35
ENDBRANCH   3  34
TORSDOF 17
