REMARK SMILES O=C(CSc1ccc(Cl)cc1)Nc1ccc(C(=O)NCCCCNC(=O)c2ccc(-c3c4nc(c(-c5ccccc5)c5ccc([nH]5)c(-c5ccccc5)c5nc(c(-c6ccccc6)c6ccc3[nH]6)C=C5)C=C4)cc2)cc1
REMARK SMILES IDX 20 1 19 2 17 3 18 4 16 6 13 7 14 8 76 9 15 10 75 11 12 12
REMARK SMILES IDX 1 13 2 14 3 16 4 17 5 18 6 19 11 20 7 21 10 22 8 23 9 24
REMARK SMILES IDX 21 25 22 26 23 27 24 28 25 29 26 31 27 32 28 33 74 34 29 35
REMARK SMILES IDX 73 36 30 37 31 38 32 39 67 40 33 41 72 42 66 43 68 44 34 45
REMARK SMILES IDX 71 46 65 47 64 48 35 50 57 51 42 52 56 53 43 54 46 55 55 56
REMARK SMILES IDX 69 57 44 58 45 59 54 61 70 62 47 63 36 64 37 65 41 66 38 67
REMARK SMILES IDX 40 68 39 69 58 70 59 71 63 72 60 73 62 74 61 75 48 76 49 77
REMARK SMILES IDX 53 78 50 79 52 80 51 81
REMARK H PARENT 19 5 12 15 24 30 68 49 46 60
REMARK Flexibility Score: inf
ROOT
ATOM      1  C   UNL     1      -1.716   3.746  -4.265  1.00  0.00     0.116 C 
ENDROOT
BRANCH   1   2
ATOM      2  N   UNL     1      -0.794   3.577  -5.372  1.00  0.00    -0.352 N 
ATOM      3  C   UNL     1       0.466   3.037  -5.440  1.00  0.00     0.251 C 
ATOM      4  O   UNL     1       1.012   2.994  -6.543  1.00  0.00    -0.269 OA
ATOM      5  H   UNL     1      -1.136   3.910  -6.233  1.00  0.00     0.163 HD
BRANCH   3   6
ATOM      6  C   UNL     1       1.164   2.446  -4.264  1.00  0.00     0.039 A 
ATOM      7  C   UNL     1       2.409   1.081  -2.135  1.00  0.00     0.041 A 
ATOM      8  C   UNL     1       2.702   0.739  -3.457  1.00  0.00     0.027 A 
ATOM      9  C   UNL     1       1.579   2.171  -1.887  1.00  0.00     0.027 A 
ATOM     10  C   UNL     1       2.067   1.403  -4.512  1.00  0.00     0.016 A 
ATOM     11  C   UNL     1       0.990   2.868  -2.946  1.00  0.00     0.016 A 
BRANCH   7  12
ATOM     12  N   UNL     1       2.945   0.276  -1.118  1.00  0.00    -0.325 N 
ATOM     13  O   UNL     1       1.495   0.753   0.632  1.00  0.00    -0.274 OA
ATOM     14  C   UNL     1       2.447   0.129   0.165  1.00  0.00     0.234 C 
ATOM     15  H   UNL     1       3.757  -0.235  -1.339  1.00  0.00     0.169 HD
BRANCH  14  16
ATOM     16  C   UNL     1       3.151  -0.915   1.020  1.00  0.00     0.175 C 
BRANCH  16  17
ATOM     17  S   UNL     1       4.238  -2.054   0.094  1.00  0.00    -0.116 SA
BRANCH  17  18
ATOM     18  C   UNL     1       3.095  -3.304  -0.476  1.00  0.00     0.008 A 
ATOM     19  C   UNL     1       1.920  -3.012  -1.178  1.00  0.00     0.016 A 
ATOM     20  C   UNL     1       3.455  -4.645  -0.290  1.00  0.00     0.016 A 
ATOM     21  C   UNL     1       1.121  -4.043  -1.686  1.00  0.00     0.021 A 
ATOM     22  C   UNL     1       2.655  -5.676  -0.792  1.00  0.00     0.021 A 
ATOM     23  C   UNL     1       1.493  -5.370  -1.494  1.00  0.00     0.041 A 
ATOM     24  Cl  UNL     1       0.524  -6.634  -2.141  1.00  0.00    -0.084 Cl
ENDBRANCH  17  18
ENDBRANCH  16  17
ENDBRANCH  14  16
ENDBRANCH   7  12
ENDBRANCH   3   6
ENDBRANCH   1   2
BRANCH   1  25
ATOM     25  C   UNL     1      -1.622   5.165  -3.698  1.00  0.00     0.023 C 
BRANCH  25  26
ATOM     26  C   UNL     1      -2.347   6.222  -4.535  1.00  0.00     0.023 C 
BRANCH  26  27
ATOM     27  C   UNL     1      -3.863   6.071  -4.582  1.00  0.00     0.116 C 
BRANCH  27  28
ATOM     28  N   UNL     1      -4.490   6.146  -3.272  1.00  0.00    -0.352 N 
ATOM     29  C   UNL     1      -5.721   6.665  -2.938  1.00  0.00     0.251 C 
ATOM     30  H   UNL     1      -3.964   5.777  -2.525  1.00  0.00     0.163 HD
ATOM     31  O   UNL     1      -6.072   6.745  -1.774  1.00  0.00    -0.269 OA
BRANCH  29  32
ATOM     32  C   UNL     1      -6.595   7.169  -4.018  1.00  0.00     0.039 A 
ATOM     33  C   UNL     1      -7.100   8.468  -3.918  1.00  0.00     0.014 A 
ATOM     34  C   UNL     1      -6.865   6.385  -5.141  1.00  0.00     0.014 A 
ATOM     35  C   UNL     1      -7.810   9.013  -4.988  1.00  0.00     0.010 A 
ATOM     36  C   UNL     1      -7.522   6.949  -6.229  1.00  0.00     0.010 A 
ATOM     37  C   UNL     1      -7.986   8.272  -6.168  1.00  0.00    -0.014 A 
BRANCH  37  38
ATOM     38  C   UNL     1      -8.617   8.872  -7.368  1.00  0.00     0.031 A 
ATOM     39  C   UNL     1      -9.925   8.345  -7.878  1.00  0.00     0.074 A 
ATOM     40  C   UNL     1      -7.962   9.833  -8.048  1.00  0.00     0.049 A 
ATOM     41  N   UNL     1     -10.578   8.672  -8.964  1.00  0.00    -0.248 NA
ATOM     42  C   UNL     1     -10.574   7.295  -7.077  1.00  0.00     0.031 C 
ATOM     43  C   UNL     1      -6.665  10.404  -7.676  1.00  0.00     0.029 A 
ATOM     44  N   UNL     1      -8.292  10.488  -9.208  1.00  0.00    -0.354 N 
ATOM     45  C   UNL     1     -11.703   7.857  -8.986  1.00  0.00     0.074 A 
ATOM     46  C   UNL     1     -11.624   6.995  -7.827  1.00  0.00     0.031 C 
ATOM     47  C   UNL     1      -6.319  11.335  -8.580  1.00  0.00     0.029 A 
ATOM     48  C   UNL     1      -7.345  11.396  -9.615  1.00  0.00     0.049 A 
ATOM     49  H   UNL     1      -9.128  10.322  -9.701  1.00  0.00     0.167 HD
ATOM     50  C   UNL     1     -12.716   7.839  -9.884  1.00  0.00     0.031 A 
ATOM     51  C   UNL     1      -7.301  12.181 -10.708  1.00  0.00     0.031 A 
ATOM     52  C   UNL     1     -12.800   8.704 -11.030  1.00  0.00     0.049 A 
ATOM     53  C   UNL     1      -8.426  12.124 -11.701  1.00  0.00     0.074 A 
ATOM     54  C   UNL     1     -13.820   8.806 -11.960  1.00  0.00     0.029 A 
ATOM     55  N   UNL     1     -11.822   9.612 -11.405  1.00  0.00    -0.354 N 
ATOM     56  N   UNL     1      -9.515  11.396 -11.672  1.00  0.00    -0.248 NA
ATOM     57  C   UNL     1      -8.316  13.000 -12.876  1.00  0.00     0.031 C 
ATOM     58  C   UNL     1     -13.438   9.744 -12.924  1.00  0.00     0.029 A 
ATOM     59  C   UNL     1     -12.202  10.258 -12.569  1.00  0.00     0.049 A 
ATOM     60  H   UNL     1     -10.983   9.773 -10.917  1.00  0.00     0.167 HD
ATOM     61  C   UNL     1     -10.229  11.739 -12.812  1.00  0.00     0.074 A 
ATOM     62  C   UNL     1      -9.457  12.751 -13.504  1.00  0.00     0.031 C 
ATOM     63  C   UNL     1     -11.419  11.258 -13.247  1.00  0.00     0.031 A 
BRANCH  50  64
ATOM     64  C   UNL     1     -13.816   6.841  -9.662  1.00  0.00    -0.014 A 
ATOM     65  C   UNL     1     -14.745   7.004  -8.622  1.00  0.00     0.009 A 
ATOM     66  C   UNL     1     -13.945   5.742 -10.524  1.00  0.00     0.009 A 
ATOM     67  C   UNL     1     -15.761   6.066  -8.430  1.00  0.00     0.001 A 
ATOM     68  C   UNL     1     -14.978   4.819 -10.345  1.00  0.00     0.001 A 
ATOM     69  C   UNL     1     -15.879   4.978  -9.293  1.00  0.00     0.000 A 
ENDBRANCH  50  64
BRANCH  51  70
ATOM     70  C   UNL     1      -6.148  13.092 -10.921  1.00  0.00    -0.014 A 
ATOM     71  C   UNL     1      -6.300  14.477 -10.761  1.00  0.00     0.009 A 
ATOM     72  C   UNL     1      -4.891  12.583 -11.285  1.00  0.00     0.009 A 
ATOM     73  C   UNL     1      -5.223  15.337 -10.983  1.00  0.00     0.001 A 
ATOM     74  C   UNL     1      -3.809  13.444 -11.482  1.00  0.00     0.001 A 
ATOM     75  C   UNL     1      -3.978  14.820 -11.338  1.00  0.00     0.000 A 
ENDBRANCH  51  70
BRANCH  63  76
ATOM     76  C   UNL     1     -11.968  11.835 -14.519  1.00  0.00    -0.014 A 
ATOM     77  C   UNL     1     -11.435  11.475 -15.766  1.00  0.00     0.009 A 
ATOM     78  C   UNL     1     -13.064  12.710 -14.471  1.00  0.00     0.009 A 
ATOM     79  C   UNL     1     -11.975  12.001 -16.941  1.00  0.00     0.001 A 
ATOM     80  C   UNL     1     -13.617  13.215 -15.648  1.00  0.00     0.001 A 
ATOM     81  C   UNL     1     -13.068  12.865 -16.881  1.00  0.00     0.000 A 
ENDBRANCH  63  76
ENDBRANCH  37  38
ENDBRANCH  29  32
ENDBRANCH  27  28
ENDBRANCH  26  27
ENDBRANCH  25  26
ENDBRANCH   1  25
TORSDOF 15
