REMARK SMILES C[C@@H]1CCC[C@](CCSc2ccccc2)(C(=O)NCCCCNC(=O)c2ccc(-c3c4nc(c(-c5ccccc5)c5ccc([nH]5)c(-c5ccccc5)c5nc(c(-c6ccccc6)c6ccc3[nH]6)C=C5)C=C4)cc2)C1
REMARK SMILES IDX 19 1 18 2 16 3 17 4 6 6 1 7 2 8 3 9 74 10 4 11 5 12 7 13
REMARK SMILES IDX 8 14 9 15 10 16 11 17 15 18 12 19 14 20 13 21 20 22 21 23
REMARK SMILES IDX 22 24 23 25 24 26 25 28 26 29 27 30 73 31 28 32 72 33 29 34
REMARK SMILES IDX 30 35 31 36 66 37 32 38 71 39 65 40 67 41 33 42 70 43 64 44
REMARK SMILES IDX 63 45 34 47 56 48 41 49 55 50 42 51 45 52 54 53 68 54 43 55
REMARK SMILES IDX 44 56 53 58 69 59 46 60 35 61 36 62 40 63 37 64 39 65 38 66
REMARK SMILES IDX 57 67 58 68 62 69 59 70 61 71 60 72 47 73 48 74 52 75 49 76
REMARK SMILES IDX 51 77 50 78
REMARK H PARENT 18 5 23 27 67 46 45 57
REMARK Flexibility Score: inf
ROOT
ATOM      1  C   UNL     1      -0.736   1.331   2.185  1.00  0.00     0.116 C 
ENDROOT
BRANCH   1   2
ATOM      2  N   UNL     1      -1.721   0.291   2.293  1.00  0.00    -0.356 N 
ATOM      3  C   UNL     1      -2.158  -0.658   1.436  1.00  0.00     0.226 C 
ATOM      4  O   UNL     1      -3.231  -1.169   1.784  1.00  0.00    -0.274 OA
ATOM      5  H   UNL     1      -2.169   0.264   3.169  1.00  0.00     0.163 HD
BRANCH   3   6
ATOM      6  C   UNL     1      -1.480  -1.054   0.086  1.00  0.00     0.050 C 
ATOM      7  C   UNL     1       2.097   0.381   0.224  1.00  0.00     0.007 C 
ATOM      8  C   UNL     1       0.895  -0.027  -0.650  1.00  0.00    -0.013 C 
ATOM      9  C   UNL     1       0.170   1.179  -1.259  1.00  0.00     0.003 C 
ATOM     10  C   UNL     1       0.061  -1.102   0.072  1.00  0.00     0.020 C 
ATOM     11  C   UNL     1      -1.350   1.221  -1.150  1.00  0.00     0.001 C 
ATOM     12  C   UNL     1      -2.020  -0.138  -1.037  1.00  0.00     0.017 C 
BRANCH   6  13
ATOM     13  C   UNL     1      -2.020  -2.518  -0.224  1.00  0.00     0.028 C 
BRANCH  13  14
ATOM     14  C   UNL     1      -1.385  -3.743   0.477  1.00  0.00     0.076 C 
BRANCH  14  15
ATOM     15  S   UNL     1      -1.652  -3.980   2.271  1.00  0.00    -0.126 SA
BRANCH  15  16
ATOM     16  C   UNL     1      -0.249  -3.156   3.003  1.00  0.00     0.007 A 
ATOM     17  C   UNL     1      -0.485  -2.253   4.047  1.00  0.00     0.015 A 
ATOM     18  C   UNL     1       1.069  -3.393   2.603  1.00  0.00     0.015 A 
ATOM     19  C   UNL     1       0.568  -1.543   4.629  1.00  0.00     0.001 A 
ATOM     20  C   UNL     1       2.124  -2.679   3.180  1.00  0.00     0.001 A 
ATOM     21  C   UNL     1       1.872  -1.744   4.184  1.00  0.00     0.000 A 
ENDBRANCH  15  16
ENDBRANCH  14  15
ENDBRANCH  13  14
ENDBRANCH   6  13
ENDBRANCH   3   6
ENDBRANCH   1   2
BRANCH   1  22
ATOM     22  C   UNL     1      -1.385   2.701   2.372  1.00  0.00     0.023 C 
BRANCH  22  23
ATOM     23  C   UNL     1      -1.435   3.159   3.827  1.00  0.00     0.023 C 
BRANCH  23  24
ATOM     24  C   UNL     1      -0.068   3.344   4.474  1.00  0.00     0.116 C 
BRANCH  24  25
ATOM     25  N   UNL     1       0.797   4.272   3.756  1.00  0.00    -0.352 N 
ATOM     26  C   UNL     1       1.692   5.164   4.294  1.00  0.00     0.251 C 
ATOM     27  H   UNL     1       0.733   4.257   2.773  1.00  0.00     0.163 HD
ATOM     28  O   UNL     1       2.321   5.950   3.596  1.00  0.00    -0.269 OA
BRANCH  26  29
ATOM     29  C   UNL     1       1.847   5.167   5.757  1.00  0.00     0.039 A 
ATOM     30  C   UNL     1       1.480   6.305   6.476  1.00  0.00     0.014 A 
ATOM     31  C   UNL     1       2.210   3.983   6.404  1.00  0.00     0.014 A 
ATOM     32  C   UNL     1       1.410   6.236   7.867  1.00  0.00     0.010 A 
ATOM     33  C   UNL     1       2.073   3.899   7.781  1.00  0.00     0.010 A 
ATOM     34  C   UNL     1       1.669   5.022   8.524  1.00  0.00    -0.014 A 
BRANCH  34  35
ATOM     35  C   UNL     1       1.555   4.891   9.994  1.00  0.00     0.031 A 
ATOM     36  C   UNL     1       2.785   4.577  10.795  1.00  0.00     0.074 A 
ATOM     37  C   UNL     1       0.349   4.950  10.590  1.00  0.00     0.049 A 
ATOM     38  N   UNL     1       2.890   4.255  12.058  1.00  0.00    -0.248 NA
ATOM     39  C   UNL     1       4.064   4.588  10.065  1.00  0.00     0.031 C 
ATOM     40  C   UNL     1      -0.924   5.219   9.917  1.00  0.00     0.029 A 
ATOM     41  N   UNL     1      -0.002   4.768  11.904  1.00  0.00    -0.354 N 
ATOM     42  C   UNL     1       4.238   3.989  12.262  1.00  0.00     0.074 A 
ATOM     43  C   UNL     1       4.903   4.146  10.988  1.00  0.00     0.031 C 
ATOM     44  C   UNL     1      -1.913   5.198  10.826  1.00  0.00     0.029 A 
ATOM     45  C   UNL     1      -1.352   4.874  12.134  1.00  0.00     0.049 A 
ATOM     46  H   UNL     1       0.652   4.578  12.615  1.00  0.00     0.167 HD
ATOM     47  C   UNL     1       4.869   3.659  13.413  1.00  0.00     0.031 A 
ATOM     48  C   UNL     1      -2.056   4.716  13.270  1.00  0.00     0.031 A 
ATOM     49  C   UNL     1       4.211   3.535  14.683  1.00  0.00     0.049 A 
ATOM     50  C   UNL     1      -1.331   4.367  14.540  1.00  0.00     0.074 A 
ATOM     51  C   UNL     1       4.766   3.253  15.918  1.00  0.00     0.029 A 
ATOM     52  N   UNL     1       2.849   3.697  14.880  1.00  0.00    -0.354 N 
ATOM     53  N   UNL     1      -0.051   4.156  14.728  1.00  0.00    -0.248 NA
ATOM     54  C   UNL     1      -2.147   4.242  15.757  1.00  0.00     0.031 C 
ATOM     55  C   UNL     1       3.733   3.217  16.861  1.00  0.00     0.029 A 
ATOM     56  C   UNL     1       2.543   3.519  16.218  1.00  0.00     0.049 A 
ATOM     57  H   UNL     1       2.196   3.909  14.174  1.00  0.00     0.167 HD
ATOM     58  C   UNL     1       0.097   3.909  16.087  1.00  0.00     0.074 A 
ATOM     59  C   UNL     1      -1.223   3.999  16.676  1.00  0.00     0.031 C 
ATOM     60  C   UNL     1       1.226   3.635  16.784  1.00  0.00     0.031 A 
BRANCH  47  61
ATOM     61  C   UNL     1       6.347   3.407  13.335  1.00  0.00    -0.014 A 
ATOM     62  C   UNL     1       7.252   4.457  13.112  1.00  0.00     0.009 A 
ATOM     63  C   UNL     1       6.842   2.104  13.492  1.00  0.00     0.009 A 
ATOM     64  C   UNL     1       8.620   4.200  13.003  1.00  0.00     0.001 A 
ATOM     65  C   UNL     1       8.213   1.854  13.412  1.00  0.00     0.001 A 
ATOM     66  C   UNL     1       9.099   2.900  13.157  1.00  0.00     0.000 A 
ENDBRANCH  47  61
BRANCH  48  67
ATOM     67  C   UNL     1      -3.530   4.906  13.268  1.00  0.00    -0.014 A 
ATOM     68  C   UNL     1      -4.097   6.043  13.865  1.00  0.00     0.009 A 
ATOM     69  C   UNL     1      -4.376   3.954  12.679  1.00  0.00     0.009 A 
ATOM     70  C   UNL     1      -5.484   6.209  13.895  1.00  0.00     0.001 A 
ATOM     71  C   UNL     1      -5.761   4.136  12.689  1.00  0.00     0.001 A 
ATOM     72  C   UNL     1      -6.314   5.258  13.304  1.00  0.00     0.000 A 
ENDBRANCH  48  67
BRANCH  60  73
ATOM     73  C   UNL     1       1.096   3.471  18.270  1.00  0.00    -0.014 A 
ATOM     74  C   UNL     1       0.565   2.301  18.832  1.00  0.00     0.009 A 
ATOM     75  C   UNL     1       1.579   4.480  19.119  1.00  0.00     0.009 A 
ATOM     76  C   UNL     1       0.501   2.154  20.218  1.00  0.00     0.001 A 
ATOM     77  C   UNL     1       1.535   4.320  20.504  1.00  0.00     0.001 A 
ATOM     78  C   UNL     1       0.991   3.159  21.052  1.00  0.00     0.000 A 
ENDBRANCH  60  73
ENDBRANCH  34  35
ENDBRANCH  26  29
ENDBRANCH  24  25
ENDBRANCH  23  24
ENDBRANCH  22  23
ENDBRANCH   1  22
TORSDOF 15
