REMARK SMILES Cc1ccc(S(=O)(=O)Nc2cc3c(cc2C(=O)NCCCCNC(=O)c2ccc(-c4c5nc(c(-c6ccccc6)c6ccc([nH]6)c(-c6ccccc6)c6nc(c(-c7ccccc7)c7ccc4[nH]7)C=C6)C=C5)cc2)OCCO3)s1
REMARK SMILES IDX 20 1 19 2 18 3 16 4 17 5 15 7 10 8 11 9 12 10 14 11 13 12
REMARK SMILES IDX 77 13 74 14 76 15 75 16 9 17 6 19 7 20 8 21 5 22 1 23 2 24
REMARK SMILES IDX 3 25 78 26 4 27 21 28 22 29 23 30 24 31 25 33 26 34 27 35
REMARK SMILES IDX 73 36 28 37 72 38 29 39 30 40 31 41 66 42 32 43 71 44 65 45
REMARK SMILES IDX 67 46 33 47 70 48 64 49 63 50 34 52 56 53 41 54 55 55 42 56
REMARK SMILES IDX 45 57 54 58 68 59 43 60 44 61 53 63 69 64 46 65 35 66 36 67
REMARK SMILES IDX 40 68 37 69 39 70 38 71 57 72 58 73 62 74 59 75 61 76 60 77
REMARK SMILES IDX 47 78 48 79 52 80 49 81 51 82 50 83
REMARK H PARENT 18 6 9 18 23 32 67 51 45 62
REMARK Flexibility Score: inf
ROOT
ATOM      1  C   UNL     1       0.971  -3.030   2.070  1.00  0.00     0.023 C 
ENDROOT
BRANCH   1   2
ATOM      2  C   UNL     1      -0.490  -3.332   2.374  1.00  0.00     0.116 C 
BRANCH   2   3
ATOM      3  N   UNL     1      -1.297  -2.187   2.760  1.00  0.00    -0.352 N 
ATOM      4  C   UNL     1      -2.591  -1.840   2.432  1.00  0.00     0.253 C 
ATOM      5  O   UNL     1      -3.114  -0.905   3.031  1.00  0.00    -0.269 OA
ATOM      6  H   UNL     1      -0.843  -1.550   3.358  1.00  0.00     0.163 HD
BRANCH   4   7
ATOM      7  C   UNL     1      -3.328  -2.554   1.357  1.00  0.00     0.067 A 
ATOM      8  C   UNL     1      -4.031  -1.842   0.363  1.00  0.00     0.066 A 
ATOM      9  C   UNL     1      -4.606  -2.533  -0.712  1.00  0.00     0.078 A 
ATOM     10  C   UNL     1      -4.473  -3.920  -0.800  1.00  0.00     0.163 A 
ATOM     11  C   UNL     1      -3.316  -3.953   1.321  1.00  0.00     0.066 A 
ATOM     12  C   UNL     1      -3.820  -4.624   0.214  1.00  0.00     0.162 A 
ATOM     13  O   UNL     1      -4.988  -4.528  -1.915  1.00  0.00    -0.486 OA
ATOM     14  O   UNL     1      -3.602  -5.976   0.174  1.00  0.00    -0.486 OA
ATOM     15  C   UNL     1      -5.004  -5.958  -1.795  1.00  0.00     0.271 C 
ATOM     16  C   UNL     1      -3.717  -6.467  -1.167  1.00  0.00     0.271 C 
BRANCH   8  17
ATOM     17  N   UNL     1      -4.176  -0.418   0.446  1.00  0.00    -0.278 N 
ATOM     18  H   UNL     1      -4.784  -0.016   1.107  1.00  0.00     0.180 HD
BRANCH  17  19
ATOM     19  S   UNL     1      -3.287   0.556  -0.606  1.00  0.00     0.271 S 
ATOM     20  O   UNL     1      -3.302   1.896  -0.074  1.00  0.00    -0.200 OA
ATOM     21  O   UNL     1      -3.781   0.289  -1.946  1.00  0.00    -0.200 OA
BRANCH  19  22
ATOM     22  C   UNL     1      -1.601  -0.011  -0.646  1.00  0.00     0.140 A 
ATOM     23  C   UNL     1       2.256   0.165   0.056  1.00  0.00     0.056 C 
ATOM     24  C   UNL     1       0.846  -0.120  -0.334  1.00  0.00     0.003 A 
ATOM     25  C   UNL     1       0.377  -1.145  -1.130  1.00  0.00     0.016 A 
ATOM     26  S   UNL     1      -0.429   0.883   0.215  1.00  0.00    -0.127 S 
ATOM     27  C   UNL     1      -1.033  -1.092  -1.295  1.00  0.00     0.034 A 
ENDBRANCH  19  22
ENDBRANCH  17  19
ENDBRANCH   8  17
ENDBRANCH   4   7
ENDBRANCH   2   3
ENDBRANCH   1   2
BRANCH   1  28
ATOM     28  C   UNL     1       1.744  -2.227   3.106  1.00  0.00     0.023 C 
BRANCH  28  29
ATOM     29  C   UNL     1       1.663  -2.747   4.533  1.00  0.00     0.116 C 
BRANCH  29  30
ATOM     30  N   UNL     1       2.039  -4.145   4.665  1.00  0.00    -0.352 N 
ATOM     31  C   UNL     1       2.853  -4.753   5.588  1.00  0.00     0.251 C 
ATOM     32  H   UNL     1       1.651  -4.747   3.989  1.00  0.00     0.163 HD
ATOM     33  O   UNL     1       3.106  -5.949   5.482  1.00  0.00    -0.269 OA
BRANCH  31  34
ATOM     34  C   UNL     1       3.457  -3.967   6.686  1.00  0.00     0.039 A 
ATOM     35  C   UNL     1       4.795  -4.203   7.017  1.00  0.00     0.014 A 
ATOM     36  C   UNL     1       2.721  -3.013   7.392  1.00  0.00     0.014 A 
ATOM     37  C   UNL     1       5.408  -3.444   8.015  1.00  0.00     0.010 A 
ATOM     38  C   UNL     1       3.355  -2.198   8.325  1.00  0.00     0.010 A 
ATOM     39  C   UNL     1       4.698  -2.419   8.659  1.00  0.00    -0.014 A 
BRANCH  39  40
ATOM     40  C   UNL     1       5.332  -1.598   9.719  1.00  0.00     0.031 A 
ATOM     41  C   UNL     1       4.819  -1.669  11.130  1.00  0.00     0.074 A 
ATOM     42  C   UNL     1       6.328  -0.748   9.404  1.00  0.00     0.049 A 
ATOM     43  N   UNL     1       5.217  -1.011  12.189  1.00  0.00    -0.248 NA
ATOM     44  C   UNL     1       3.686  -2.576  11.378  1.00  0.00     0.031 C 
ATOM     45  C   UNL     1       6.876  -0.538   8.062  1.00  0.00     0.029 A 
ATOM     46  N   UNL     1       7.056   0.102  10.197  1.00  0.00    -0.354 N 
ATOM     47  C   UNL     1       4.364  -1.399  13.215  1.00  0.00     0.074 A 
ATOM     48  C   UNL     1       3.399  -2.311  12.643  1.00  0.00     0.031 C 
ATOM     49  C   UNL     1       7.873   0.359   8.131  1.00  0.00     0.029 A 
ATOM     50  C   UNL     1       8.019   0.802   9.514  1.00  0.00     0.049 A 
ATOM     51  H   UNL     1       6.901   0.202  11.165  1.00  0.00     0.167 HD
ATOM     52  C   UNL     1       4.392  -1.046  14.522  1.00  0.00     0.031 A 
ATOM     53  C   UNL     1       8.927   1.692   9.956  1.00  0.00     0.031 A 
ATOM     54  C   UNL     1       5.371  -0.167  15.099  1.00  0.00     0.049 A 
ATOM     55  C   UNL     1       8.982   2.019  11.421  1.00  0.00     0.074 A 
ATOM     56  C   UNL     1       5.530   0.200  16.424  1.00  0.00     0.029 A 
ATOM     57  N   UNL     1       6.367   0.477  14.382  1.00  0.00    -0.354 N 
ATOM     58  N   UNL     1       8.217   1.585  12.393  1.00  0.00    -0.248 NA
ATOM     59  C   UNL     1      10.045   2.938  11.852  1.00  0.00     0.031 C 
ATOM     60  C   UNL     1       6.607   1.089  16.504  1.00  0.00     0.029 A 
ATOM     61  C   UNL     1       7.142   1.243  15.234  1.00  0.00     0.049 A 
ATOM     62  H   UNL     1       6.502   0.401  13.409  1.00  0.00     0.167 HD
ATOM     63  C   UNL     1       8.721   2.156  13.555  1.00  0.00     0.074 A 
ATOM     64  C   UNL     1       9.865   2.956  13.166  1.00  0.00     0.031 C 
ATOM     65  C   UNL     1       8.279   2.027  14.829  1.00  0.00     0.031 A 
BRANCH  52  66
ATOM     66  C   UNL     1       3.322  -1.620  15.407  1.00  0.00    -0.014 A 
ATOM     67  C   UNL     1       3.315  -2.982  15.749  1.00  0.00     0.009 A 
ATOM     68  C   UNL     1       2.306  -0.790  15.903  1.00  0.00     0.009 A 
ATOM     69  C   UNL     1       2.285  -3.510  16.531  1.00  0.00     0.001 A 
ATOM     70  C   UNL     1       1.294  -1.314  16.708  1.00  0.00     0.001 A 
ATOM     71  C   UNL     1       1.277  -2.675  17.012  1.00  0.00     0.000 A 
ENDBRANCH  52  66
BRANCH  53  72
ATOM     72  C   UNL     1       9.895   2.295   9.006  1.00  0.00    -0.014 A 
ATOM     73  C   UNL     1      11.232   1.870   8.994  1.00  0.00     0.009 A 
ATOM     74  C   UNL     1       9.488   3.288   8.102  1.00  0.00     0.009 A 
ATOM     75  C   UNL     1      12.149   2.444   8.111  1.00  0.00     0.001 A 
ATOM     76  C   UNL     1      10.402   3.844   7.205  1.00  0.00     0.001 A 
ATOM     77  C   UNL     1      11.733   3.428   7.215  1.00  0.00     0.000 A 
ENDBRANCH  53  72
BRANCH  65  78
ATOM     78  C   UNL     1       9.059   2.736  15.897  1.00  0.00    -0.014 A 
ATOM     79  C   UNL     1       8.977   4.127  16.057  1.00  0.00     0.009 A 
ATOM     80  C   UNL     1       9.863   1.992  16.775  1.00  0.00     0.009 A 
ATOM     81  C   UNL     1       9.714   4.765  17.057  1.00  0.00     0.001 A 
ATOM     82  C   UNL     1      10.579   2.630  17.788  1.00  0.00     0.001 A 
ATOM     83  C   UNL     1      10.511   4.016  17.923  1.00  0.00     0.000 A 
ENDBRANCH  65  78
ENDBRANCH  39  40
ENDBRANCH  31  34
ENDBRANCH  29  30
ENDBRANCH  28  29
ENDBRANCH   1  28
TORSDOF 14
