REMARK SMILES Cc1cc(OCC(=O)N/C(=C/c2ccccc2Cl)C(=O)NCCCCNC(=O)c2ccc(-c3c4nc(c(-c5ccccc5)c5ccc([nH]5)c(-c5ccccc5)c5nc(c(-c6ccccc6)c6ccc3[nH]6)C=C5)C=C4)cc2)cc(C)c1Cl
REMARK SMILES IDX 22 1 21 2 19 3 20 4 10 6 11 7 9 8 7 9 8 10 6 12 5 13 4 14
REMARK SMILES IDX 1 15 2 16 3 17 80 18 78 19 81 20 77 21 79 22 12 23 13 24
REMARK SMILES IDX 17 25 14 26 16 27 18 28 15 29 23 30 24 31 25 32 26 33 27 34
REMARK SMILES IDX 28 36 29 37 30 38 76 39 31 40 75 41 32 42 33 43 34 44 69 45
REMARK SMILES IDX 35 46 74 47 68 48 70 49 36 50 73 51 67 52 66 53 37 55 59 56
REMARK SMILES IDX 44 57 58 58 45 59 48 60 57 61 71 62 46 63 47 64 56 66 72 67
REMARK SMILES IDX 49 68 38 69 39 70 43 71 40 72 42 73 41 74 60 75 61 76 65 77
REMARK SMILES IDX 62 78 64 79 63 80 50 81 51 82 55 83 52 84 54 85 53 86
REMARK H PARENT 21 5 9 11 26 35 70 54 48 65
REMARK Flexibility Score: inf
ROOT
ATOM      1  C   UNL     1       7.397  -2.290  -2.745  1.00  0.00     0.116 C 
ENDROOT
BRANCH   1   2
ATOM      2  N   UNL     1       6.719  -1.667  -1.642  1.00  0.00    -0.351 N 
ATOM      3  C   UNL     1       6.225  -0.399  -1.654  1.00  0.00     0.267 C 
ATOM      4  O   UNL     1       6.665   0.330  -0.761  1.00  0.00    -0.268 OA
ATOM      5  H   UNL     1       6.603  -2.195  -0.819  1.00  0.00     0.163 HD
BRANCH   3   6
ATOM      6  C   UNL     1       5.231   0.154  -2.680  1.00  0.00     0.107 C 
ATOM      7  C   UNL     1       4.856  -0.344  -3.886  1.00  0.00     0.041 C 
BRANCH   6   8
ATOM      8  N   UNL     1       4.683   1.412  -2.414  1.00  0.00    -0.318 N 
ATOM      9  C   UNL     1       4.414   2.130  -1.282  1.00  0.00     0.262 C 
ATOM     10  O   UNL     1       4.121   3.324  -1.439  1.00  0.00    -0.271 OA
ATOM     11  H   UNL     1       4.430   1.894  -3.235  1.00  0.00     0.170 HD
BRANCH   9  12
ATOM     12  C   UNL     1       4.333   1.511   0.117  1.00  0.00     0.329 C 
BRANCH  12  13
ATOM     13  O   UNL     1       3.656   0.265   0.175  1.00  0.00    -0.484 OA
BRANCH  13  14
ATOM     14  C   UNL     1       2.290   0.277   0.102  1.00  0.00     0.120 A 
ATOM     15  C   UNL     1      -0.763   2.538  -0.037  1.00  0.00     0.046 C 
ATOM     16  C   UNL     1       0.072   1.286  -0.005  1.00  0.00    -0.029 A 
ATOM     17  C   UNL     1       1.472   1.407   0.057  1.00  0.00     0.051 A 
ATOM     18  C   UNL     1      -0.503   0.002  -0.027  1.00  0.00     0.047 A 
ATOM     19  C   UNL     1       0.308  -1.145   0.011  1.00  0.00    -0.029 A 
ATOM     20  Cl  UNL     1      -2.229  -0.165  -0.102  1.00  0.00    -0.084 Cl
ATOM     21  C   UNL     1       1.702  -0.988   0.081  1.00  0.00     0.051 A 
ATOM     22  C   UNL     1      -0.268  -2.534  -0.013  1.00  0.00     0.046 C 
ENDBRANCH  13  14
ENDBRANCH  12  13
ENDBRANCH   9  12
ENDBRANCH   6   8
BRANCH   7  23
ATOM     23  C   UNL     1       5.179  -1.565  -4.637  1.00  0.00    -0.005 A 
ATOM     24  C   UNL     1       6.192  -1.490  -5.612  1.00  0.00     0.010 A 
ATOM     25  C   UNL     1       4.529  -2.794  -4.434  1.00  0.00     0.048 A 
ATOM     26  C   UNL     1       6.628  -2.639  -6.279  1.00  0.00     0.001 A 
ATOM     27  C   UNL     1       4.954  -3.938  -5.122  1.00  0.00     0.021 A 
ATOM     28  Cl  UNL     1       3.229  -2.958  -3.308  1.00  0.00    -0.084 Cl
ATOM     29  C   UNL     1       6.019  -3.865  -6.022  1.00  0.00     0.002 A 
ENDBRANCH   7  23
ENDBRANCH   3   6
ENDBRANCH   1   2
BRANCH   1  30
ATOM     30  C   UNL     1       8.805  -2.788  -2.448  1.00  0.00     0.023 C 
BRANCH  30  31
ATOM     31  C   UNL     1       8.909  -3.978  -1.503  1.00  0.00     0.023 C 
BRANCH  31  32
ATOM     32  C   UNL     1       7.933  -5.123  -1.751  1.00  0.00     0.116 C 
BRANCH  32  33
ATOM     33  N   UNL     1       7.948  -5.633  -3.116  1.00  0.00    -0.352 N 
ATOM     34  C   UNL     1       8.167  -6.906  -3.588  1.00  0.00     0.251 C 
ATOM     35  H   UNL     1       7.774  -4.958  -3.812  1.00  0.00     0.163 HD
ATOM     36  O   UNL     1       8.199  -7.121  -4.792  1.00  0.00    -0.269 OA
BRANCH  34  37
ATOM     37  C   UNL     1       8.407  -8.007  -2.630  1.00  0.00     0.039 A 
ATOM     38  C   UNL     1       9.496  -8.856  -2.836  1.00  0.00     0.014 A 
ATOM     39  C   UNL     1       7.591  -8.166  -1.509  1.00  0.00     0.014 A 
ATOM     40  C   UNL     1       9.820  -9.806  -1.865  1.00  0.00     0.010 A 
ATOM     41  C   UNL     1       7.976  -9.039  -0.498  1.00  0.00     0.010 A 
ATOM     42  C   UNL     1       9.092  -9.870  -0.665  1.00  0.00    -0.014 A 
BRANCH  42  43
ATOM     43  C   UNL     1       9.491 -10.797   0.424  1.00  0.00     0.031 A 
ATOM     44  C   UNL     1       8.551 -11.880   0.881  1.00  0.00     0.074 A 
ATOM     45  C   UNL     1      10.675 -10.624   1.044  1.00  0.00     0.049 A 
ATOM     46  N   UNL     1       8.720 -12.779   1.817  1.00  0.00    -0.248 NA
ATOM     47  C   UNL     1       7.235 -11.941   0.223  1.00  0.00     0.031 C 
ATOM     48  C   UNL     1      11.644  -9.565   0.746  1.00  0.00     0.029 A 
ATOM     49  N   UNL     1      11.270 -11.340   2.053  1.00  0.00    -0.354 N 
ATOM     50  C   UNL     1       7.530 -13.495   1.871  1.00  0.00     0.074 A 
ATOM     51  C   UNL     1       6.626 -12.886   0.922  1.00  0.00     0.031 C 
ATOM     52  C   UNL     1      12.729  -9.730   1.520  1.00  0.00     0.029 A 
ATOM     53  C   UNL     1      12.522 -10.884   2.388  1.00  0.00     0.049 A 
ATOM     54  H   UNL     1      10.840 -12.108   2.494  1.00  0.00     0.167 HD
ATOM     55  C   UNL     1       7.224 -14.579   2.623  1.00  0.00     0.031 A 
ATOM     56  C   UNL     1      13.409 -11.352   3.285  1.00  0.00     0.031 A 
ATOM     57  C   UNL     1       8.130 -15.192   3.556  1.00  0.00     0.049 A 
ATOM     58  C   UNL     1      13.062 -12.579   4.080  1.00  0.00     0.074 A 
ATOM     59  C   UNL     1       7.942 -16.327   4.325  1.00  0.00     0.029 A 
ATOM     60  N   UNL     1       9.400 -14.718   3.845  1.00  0.00    -0.354 N 
ATOM     61  N   UNL     1      11.962 -13.293   4.060  1.00  0.00    -0.248 NA
ATOM     62  C   UNL     1      14.089 -13.076   5.005  1.00  0.00     0.031 C 
ATOM     63  C   UNL     1       9.085 -16.516   5.110  1.00  0.00     0.029 A 
ATOM     64  C   UNL     1      10.005 -15.530   4.789  1.00  0.00     0.049 A 
ATOM     65  H   UNL     1       9.812 -13.921   3.438  1.00  0.00     0.167 HD
ATOM     66  C   UNL     1      12.176 -14.341   4.947  1.00  0.00     0.074 A 
ATOM     67  C   UNL     1      13.518 -14.179   5.468  1.00  0.00     0.031 C 
ATOM     68  C   UNL     1      11.338 -15.347   5.300  1.00  0.00     0.031 A 
BRANCH  55  69
ATOM     69  C   UNL     1       5.848 -15.166   2.455  1.00  0.00    -0.014 A 
ATOM     70  C   UNL     1       5.472 -15.811   1.265  1.00  0.00     0.009 A 
ATOM     71  C   UNL     1       4.920 -15.088   3.504  1.00  0.00     0.009 A 
ATOM     72  C   UNL     1       4.182 -16.323   1.112  1.00  0.00     0.001 A 
ATOM     73  C   UNL     1       3.640 -15.629   3.361  1.00  0.00     0.001 A 
ATOM     74  C   UNL     1       3.269 -16.236   2.161  1.00  0.00     0.000 A 
ENDBRANCH  55  69
BRANCH  56  75
ATOM     75  C   UNL     1      14.733 -10.693   3.442  1.00  0.00    -0.014 A 
ATOM     76  C   UNL     1      15.901 -11.329   2.993  1.00  0.00     0.009 A 
ATOM     77  C   UNL     1      14.839  -9.429   4.043  1.00  0.00     0.009 A 
ATOM     78  C   UNL     1      17.150 -10.727   3.169  1.00  0.00     0.001 A 
ATOM     79  C   UNL     1      16.086  -8.817   4.191  1.00  0.00     0.001 A 
ATOM     80  C   UNL     1      17.241  -9.470   3.763  1.00  0.00     0.000 A 
ENDBRANCH  56  75
BRANCH  68  81
ATOM     81  C   UNL     1      11.871 -16.363   6.270  1.00  0.00    -0.014 A 
ATOM     82  C   UNL     1      12.090 -16.043   7.619  1.00  0.00     0.009 A 
ATOM     83  C   UNL     1      12.150 -17.665   5.825  1.00  0.00     0.009 A 
ATOM     84  C   UNL     1      12.627 -16.992   8.490  1.00  0.00     0.001 A 
ATOM     85  C   UNL     1      12.655 -18.621   6.706  1.00  0.00     0.001 A 
ATOM     86  C   UNL     1      12.906 -18.280   8.034  1.00  0.00     0.000 A 
ENDBRANCH  68  81
ENDBRANCH  42  43
ENDBRANCH  34  37
ENDBRANCH  32  33
ENDBRANCH  31  32
ENDBRANCH  30  31
ENDBRANCH   1  30
TORSDOF 16
