REMARK SMILES O=C(NCCCCNC(=O)c1cc(S(=O)(=O)C/C(Cl)=C/Cl)ccc1Cl)c1ccc(-c2c3nc(c(-c4ccccc4)c4ccc([nH]4)c(-c4ccccc4)c4nc(c(-c5ccccc5)c5ccc2[nH]5)C=C4)C=C3)cc1
REMARK SMILES IDX 6 1 5 2 4 3 3 4 1 5 2 6 26 8 27 9 73 10 28 11 72 12 29 13
REMARK SMILES IDX 30 14 31 15 66 16 32 17 71 18 65 19 67 20 33 21 70 22 64 23
REMARK SMILES IDX 63 24 34 26 56 27 41 28 55 29 42 30 45 31 54 32 68 33 43 34
REMARK SMILES IDX 44 35 53 37 69 38 46 39 35 40 36 41 40 42 37 43 39 44 38 45
REMARK SMILES IDX 57 46 58 47 62 48 59 49 61 50 60 51 47 52 48 53 52 54 49 55
REMARK SMILES IDX 51 56 50 57 7 58 8 59 9 60 10 62 11 63 12 64 24 65 13 66
REMARK SMILES IDX 23 67 25 68 22 69 14 70 15 71 16 72 17 73 18 74 19 75 20 76
REMARK SMILES IDX 21 77
REMARK H PARENT 3 7 67 25 45 36 8 61
REMARK Flexibility Score: inf
ROOT
ATOM      1  C   UNL     1       4.503  -3.901  -0.018  1.00  0.00     0.023 C 
ENDROOT
BRANCH   1   2
ATOM      2  C   UNL     1       4.991  -2.574   0.559  1.00  0.00     0.023 C 
BRANCH   2   3
ATOM      3  C   UNL     1       4.675  -1.341  -0.280  1.00  0.00     0.116 C 
BRANCH   3   4
ATOM      4  N   UNL     1       3.247  -1.113  -0.451  1.00  0.00    -0.352 N 
ATOM      5  O   UNL     1       1.260  -0.070  -0.214  1.00  0.00    -0.269 OA
ATOM      6  C   UNL     1       2.481  -0.025  -0.102  1.00  0.00     0.251 C 
ATOM      7  H   UNL     1       2.755  -1.849  -0.882  1.00  0.00     0.163 HD
BRANCH   6   8
ATOM      8  C   UNL     1       3.126   1.187   0.448  1.00  0.00     0.039 A 
ATOM      9  C   UNL     1       4.278   1.712  -0.139  1.00  0.00     0.014 A 
ATOM     10  C   UNL     1       2.580   1.792   1.583  1.00  0.00     0.014 A 
ATOM     11  C   UNL     1       4.985   2.716   0.511  1.00  0.00     0.010 A 
ATOM     12  C   UNL     1       3.242   2.868   2.182  1.00  0.00     0.010 A 
ATOM     13  C   UNL     1       4.479   3.305   1.682  1.00  0.00    -0.014 A 
BRANCH  13  14
ATOM     14  C   UNL     1       5.256   4.380   2.352  1.00  0.00     0.031 A 
ATOM     15  C   UNL     1       5.817   4.187   3.736  1.00  0.00     0.074 A 
ATOM     16  C   UNL     1       5.496   5.524   1.685  1.00  0.00     0.049 A 
ATOM     17  N   UNL     1       6.563   5.001   4.442  1.00  0.00    -0.248 NA
ATOM     18  C   UNL     1       5.496   2.926   4.421  1.00  0.00     0.031 C 
ATOM     19  C   UNL     1       5.011   5.833   0.337  1.00  0.00     0.029 A 
ATOM     20  N   UNL     1       6.232   6.627   2.034  1.00  0.00    -0.354 N 
ATOM     21  C   UNL     1       6.775   4.365   5.660  1.00  0.00     0.074 A 
ATOM     22  C   UNL     1       6.061   3.108   5.606  1.00  0.00     0.031 C 
ATOM     23  C   UNL     1       5.513   7.015  -0.050  1.00  0.00     0.029 A 
ATOM     24  C   UNL     1       6.302   7.574   1.042  1.00  0.00     0.049 A 
ATOM     25  H   UNL     1       6.668   6.730   2.911  1.00  0.00     0.167 HD
ATOM     26  C   UNL     1       7.501   4.787   6.724  1.00  0.00     0.031 A 
ATOM     27  C   UNL     1       6.927   8.765   1.011  1.00  0.00     0.031 A 
ATOM     28  C   UNL     1       8.221   6.034   6.775  1.00  0.00     0.049 A 
ATOM     29  C   UNL     1       7.705   9.217   2.211  1.00  0.00     0.074 A 
ATOM     30  C   UNL     1       9.017   6.529   7.795  1.00  0.00     0.029 A 
ATOM     31  N   UNL     1       8.229   6.984   5.766  1.00  0.00    -0.354 N 
ATOM     32  N   UNL     1       7.923   8.587   3.339  1.00  0.00    -0.248 NA
ATOM     33  C   UNL     1       8.326  10.545   2.128  1.00  0.00     0.031 C 
ATOM     34  C   UNL     1       9.465   7.801   7.422  1.00  0.00     0.029 A 
ATOM     35  C   UNL     1       8.995   8.073   6.148  1.00  0.00     0.049 A 
ATOM     36  H   UNL     1       7.759   6.897   4.905  1.00  0.00     0.167 HD
ATOM     37  C   UNL     1       8.729   9.430   4.091  1.00  0.00     0.074 A 
ATOM     38  C   UNL     1       8.971  10.609   3.285  1.00  0.00     0.031 C 
ATOM     39  C   UNL     1       9.226   9.241   5.338  1.00  0.00     0.031 A 
BRANCH  26  40
ATOM     40  C   UNL     1       7.523   3.904   7.942  1.00  0.00    -0.014 A 
ATOM     41  C   UNL     1       8.222   2.687   7.957  1.00  0.00     0.009 A 
ATOM     42  C   UNL     1       6.857   4.316   9.108  1.00  0.00     0.009 A 
ATOM     43  C   UNL     1       8.221   1.883   9.100  1.00  0.00     0.001 A 
ATOM     44  C   UNL     1       6.880   3.524  10.258  1.00  0.00     0.001 A 
ATOM     45  C   UNL     1       7.554   2.304  10.250  1.00  0.00     0.000 A 
ENDBRANCH  26  40
BRANCH  27  46
ATOM     46  C   UNL     1       6.848   9.607  -0.210  1.00  0.00    -0.014 A 
ATOM     47  C   UNL     1       7.976   9.786  -1.024  1.00  0.00     0.009 A 
ATOM     48  C   UNL     1       5.640  10.220  -0.576  1.00  0.00     0.009 A 
ATOM     49  C   UNL     1       7.900  10.578  -2.172  1.00  0.00     0.001 A 
ATOM     50  C   UNL     1       5.559  10.988  -1.739  1.00  0.00     0.001 A 
ATOM     51  C   UNL     1       6.691  11.172  -2.531  1.00  0.00     0.000 A 
ENDBRANCH  27  46
BRANCH  39  52
ATOM     52  C   UNL     1      10.118  10.319   5.886  1.00  0.00    -0.014 A 
ATOM     53  C   UNL     1       9.602  11.560   6.292  1.00  0.00     0.009 A 
ATOM     54  C   UNL     1      11.495  10.080   6.014  1.00  0.00     0.009 A 
ATOM     55  C   UNL     1      10.455  12.553   6.778  1.00  0.00     0.001 A 
ATOM     56  C   UNL     1      12.340  11.064   6.527  1.00  0.00     0.001 A 
ATOM     57  C   UNL     1      11.822  12.303   6.898  1.00  0.00     0.000 A 
ENDBRANCH  39  52
ENDBRANCH  13  14
ENDBRANCH   6   8
ENDBRANCH   3   4
ENDBRANCH   2   3
ENDBRANCH   1   2
BRANCH   1  58
ATOM     58  C   UNL     1       4.911  -4.172  -1.462  1.00  0.00     0.116 C 
BRANCH  58  59
ATOM     59  N   UNL     1       6.351  -4.218  -1.642  1.00  0.00    -0.352 N 
ATOM     60  C   UNL     1       7.087  -5.122  -2.366  1.00  0.00     0.252 C 
ATOM     61  H   UNL     1       6.864  -3.511  -1.188  1.00  0.00     0.163 HD
ATOM     62  O   UNL     1       8.309  -5.050  -2.412  1.00  0.00    -0.269 OA
BRANCH  60  63
ATOM     63  C   UNL     1       6.400  -6.235  -3.039  1.00  0.00     0.059 A 
ATOM     64  C   UNL     1       6.617  -7.520  -2.528  1.00  0.00     0.035 A 
ATOM     65  C   UNL     1       5.574  -6.047  -4.151  1.00  0.00     0.053 A 
ATOM     66  C   UNL     1       5.979  -8.619  -3.116  1.00  0.00     0.068 A 
ATOM     67  C   UNL     1       4.923  -7.149  -4.716  1.00  0.00     0.022 A 
ATOM     68  Cl  UNL     1       5.335  -4.505  -4.889  1.00  0.00    -0.083 Cl
ATOM     69  C   UNL     1       5.128  -8.437  -4.206  1.00  0.00     0.022 A 
BRANCH  66  70
ATOM     70  S   UNL     1       6.351 -10.222  -2.444  1.00  0.00     0.183 S 
ATOM     71  O   UNL     1       7.603 -10.610  -3.073  1.00  0.00    -0.223 OA
ATOM     72  O   UNL     1       6.273 -10.088  -1.003  1.00  0.00    -0.223 OA
BRANCH  70  73
ATOM     73  C   UNL     1       5.127 -11.401  -2.964  1.00  0.00     0.191 C 
BRANCH  73  74
ATOM     74  C   UNL     1       3.755 -11.103  -2.430  1.00  0.00     0.045 C 
ATOM     75  Cl  UNL     1       2.536 -10.924  -3.660  1.00  0.00    -0.087 Cl
ATOM     76  C   UNL     1       3.428 -11.100  -1.131  1.00  0.00     0.097 C 
ATOM     77  Cl  UNL     1       1.857 -10.838  -0.493  1.00  0.00    -0.092 Cl
ENDBRANCH  73  74
ENDBRANCH  70  73
ENDBRANCH  66  70
ENDBRANCH  60  63
ENDBRANCH  58  59
ENDBRANCH   1  58
TORSDOF 14
