REMARK SMILES Cc1ccc([C@H](C)Nc2ccc(C(=O)NCCCCNC(=O)c3ccc(-c4c5nc(c(-c6ccccc6)c6ccc([nH]6)c(-c6ccccc6)c6nc(c(-c7ccccc7)c7ccc4[nH]7)C=C6)C=C5)cc3)cc2Cl)cc1F
REMARK SMILES IDX 17 1 16 2 15 3 13 4 14 5 12 7 9 8 10 9 72 10 11 11 71 12
REMARK SMILES IDX 73 13 8 14 6 16 7 17 5 18 1 19 2 20 3 21 75 22 4 23 74 24
REMARK SMILES IDX 76 25 18 26 19 27 20 28 21 29 22 31 23 32 24 33 70 34 25 35
REMARK SMILES IDX 69 36 26 37 27 38 28 39 63 40 29 41 68 42 62 43 64 44 30 45
REMARK SMILES IDX 67 46 61 47 60 48 31 50 53 51 38 52 52 53 39 54 42 55 51 56
REMARK SMILES IDX 65 57 40 58 41 59 50 61 66 62 43 63 32 64 33 65 37 66 34 67
REMARK SMILES IDX 36 68 35 69 54 70 55 71 59 72 56 73 58 74 57 75 44 76 45 77
REMARK SMILES IDX 49 78 46 79 48 80 47 81
REMARK H PARENT 15 6 8 15 20 30 64 49 42 60
REMARK Flexibility Score: inf
ROOT
ATOM      1  C   UNL     1      -9.652  -3.224   3.201  1.00  0.00     0.023 C 
ENDROOT
BRANCH   1   2
ATOM      2  C   UNL     1      -9.158  -1.942   3.880  1.00  0.00     0.116 C 
BRANCH   2   3
ATOM      3  N   UNL     1      -8.332  -2.249   5.032  1.00  0.00    -0.352 N 
ATOM      4  C   UNL     1      -6.992  -2.502   5.182  1.00  0.00     0.251 C 
ATOM      5  O   UNL     1      -6.597  -2.722   6.329  1.00  0.00    -0.269 OA
ATOM      6  H   UNL     1      -8.835  -2.283   5.877  1.00  0.00     0.163 HD
BRANCH   4   7
ATOM      7  C   UNL     1      -5.995  -2.504   4.067  1.00  0.00     0.041 A 
ATOM      8  C   UNL     1      -3.946  -2.525   2.050  1.00  0.00     0.053 A 
ATOM      9  C   UNL     1      -3.645  -2.544   3.424  1.00  0.00     0.028 A 
ATOM     10  C   UNL     1      -5.310  -2.459   1.719  1.00  0.00     0.065 A 
ATOM     11  C   UNL     1      -4.641  -2.517   4.412  1.00  0.00     0.016 A 
ATOM     12  C   UNL     1      -6.303  -2.512   2.712  1.00  0.00     0.036 A 
ATOM     13  Cl  UNL     1      -5.943  -2.375   0.107  1.00  0.00    -0.082 Cl
BRANCH   8  14
ATOM     14  N   UNL     1      -2.867  -2.547   1.186  1.00  0.00    -0.377 N 
ATOM     15  H   UNL     1      -2.091  -3.080   1.477  1.00  0.00     0.161 HD
BRANCH  14  16
ATOM     16  C   UNL     1      -2.737  -1.878  -0.103  1.00  0.00     0.106 C 
ATOM     17  C   UNL     1      -1.592  -0.864   0.044  1.00  0.00     0.036 C 
BRANCH  16  18
ATOM     18  C   UNL     1      -2.565  -2.902  -1.225  1.00  0.00    -0.023 A 
ATOM     19  C   UNL     1      -2.733  -5.504  -4.695  1.00  0.00     0.047 C 
ATOM     20  C   UNL     1      -2.604  -4.647  -3.475  1.00  0.00    -0.015 A 
ATOM     21  C   UNL     1      -1.735  -3.554  -3.434  1.00  0.00     0.007 A 
ATOM     22  C   UNL     1      -3.415  -4.884  -2.370  1.00  0.00     0.126 A 
ATOM     23  C   UNL     1      -1.719  -2.692  -2.326  1.00  0.00     0.006 A 
ATOM     24  C   UNL     1      -3.382  -4.048  -1.259  1.00  0.00     0.045 A 
ATOM     25  F   UNL     1      -4.275  -5.913  -2.379  1.00  0.00    -0.207 F 
ENDBRANCH  16  18
ENDBRANCH  14  16
ENDBRANCH   8  14
ENDBRANCH   4   7
ENDBRANCH   2   3
ENDBRANCH   1   2
BRANCH   1  26
ATOM     26  C   UNL     1     -10.960  -3.770   3.779  1.00  0.00     0.023 C 
BRANCH  26  27
ATOM     27  C   UNL     1     -12.171  -2.877   3.536  1.00  0.00     0.116 C 
BRANCH  27  28
ATOM     28  N   UNL     1     -12.460  -2.658   2.127  1.00  0.00    -0.352 N 
ATOM     29  C   UNL     1     -13.664  -2.319   1.555  1.00  0.00     0.251 C 
ATOM     30  H   UNL     1     -11.701  -2.765   1.508  1.00  0.00     0.163 HD
ATOM     31  O   UNL     1     -13.786  -2.253   0.340  1.00  0.00    -0.269 OA
BRANCH  29  32
ATOM     32  C   UNL     1     -14.827  -2.090   2.435  1.00  0.00     0.039 A 
ATOM     33  C   UNL     1     -16.002  -2.804   2.190  1.00  0.00     0.014 A 
ATOM     34  C   UNL     1     -14.736  -1.222   3.526  1.00  0.00     0.014 A 
ATOM     35  C   UNL     1     -17.067  -2.701   3.086  1.00  0.00     0.010 A 
ATOM     36  C   UNL     1     -15.771  -1.172   4.452  1.00  0.00     0.010 A 
ATOM     37  C   UNL     1     -16.944  -1.914   4.243  1.00  0.00    -0.014 A 
BRANCH  37  38
ATOM     38  C   UNL     1     -18.030  -1.857   5.250  1.00  0.00     0.031 A 
ATOM     39  C   UNL     1     -18.762  -0.569   5.495  1.00  0.00     0.074 A 
ATOM     40  C   UNL     1     -18.310  -2.947   5.990  1.00  0.00     0.049 A 
ATOM     41  N   UNL     1     -19.693  -0.304   6.375  1.00  0.00    -0.248 NA
ATOM     42  C   UNL     1     -18.380   0.580   4.657  1.00  0.00     0.031 C 
ATOM     43  C   UNL     1     -17.640  -4.246   5.879  1.00  0.00     0.029 A 
ATOM     44  N   UNL     1     -19.230  -3.133   6.991  1.00  0.00    -0.354 N 
ATOM     45  C   UNL     1     -19.997   1.041   6.207  1.00  0.00     0.074 A 
ATOM     46  C   UNL     1     -19.118   1.549   5.177  1.00  0.00     0.031 C 
ATOM     47  C   UNL     1     -18.188  -5.098   6.760  1.00  0.00     0.029 A 
ATOM     48  C   UNL     1     -19.220  -4.400   7.519  1.00  0.00     0.049 A 
ATOM     49  H   UNL     1     -19.839  -2.424   7.301  1.00  0.00     0.167 HD
ATOM     50  C   UNL     1     -20.939   1.782   6.837  1.00  0.00     0.031 A 
ATOM     51  C   UNL     1     -19.958  -4.938   8.508  1.00  0.00     0.031 A 
ATOM     52  C   UNL     1     -21.820   1.276   7.854  1.00  0.00     0.049 A 
ATOM     53  C   UNL     1     -20.994  -4.094   9.194  1.00  0.00     0.074 A 
ATOM     54  C   UNL     1     -22.837   1.937   8.522  1.00  0.00     0.029 A 
ATOM     55  N   UNL     1     -21.792  -0.019   8.346  1.00  0.00    -0.354 N 
ATOM     56  N   UNL     1     -21.309  -2.839   8.982  1.00  0.00    -0.248 NA
ATOM     57  C   UNL     1     -21.785  -4.745  10.248  1.00  0.00     0.031 C 
ATOM     58  C   UNL     1     -23.400   1.050   9.445  1.00  0.00     0.029 A 
ATOM     59  C   UNL     1     -22.764  -0.174   9.319  1.00  0.00     0.049 A 
ATOM     60  H   UNL     1     -21.172  -0.724   8.049  1.00  0.00     0.167 HD
ATOM     61  C   UNL     1     -22.351  -2.558   9.856  1.00  0.00     0.074 A 
ATOM     62  C   UNL     1     -22.624  -3.777  10.590  1.00  0.00     0.031 C 
ATOM     63  C   UNL     1     -23.022  -1.395  10.036  1.00  0.00     0.031 A 
BRANCH  50  64
ATOM     64  C   UNL     1     -21.059   3.224   6.435  1.00  0.00    -0.014 A 
ATOM     65  C   UNL     1     -21.591   3.584   5.186  1.00  0.00     0.009 A 
ATOM     66  C   UNL     1     -20.658   4.236   7.321  1.00  0.00     0.009 A 
ATOM     67  C   UNL     1     -21.685   4.928   4.818  1.00  0.00     0.001 A 
ATOM     68  C   UNL     1     -20.778   5.579   6.960  1.00  0.00     0.001 A 
ATOM     69  C   UNL     1     -21.282   5.924   5.707  1.00  0.00     0.000 A 
ENDBRANCH  50  64
BRANCH  51  70
ATOM     70  C   UNL     1     -19.759  -6.357   8.900  1.00  0.00    -0.014 A 
ATOM     71  C   UNL     1     -20.725  -7.324   8.581  1.00  0.00     0.009 A 
ATOM     72  C   UNL     1     -18.611  -6.750   9.604  1.00  0.00     0.009 A 
ATOM     73  C   UNL     1     -20.559  -8.650   8.985  1.00  0.00     0.001 A 
ATOM     74  C   UNL     1     -18.435  -8.083   9.984  1.00  0.00     0.001 A 
ATOM     75  C   UNL     1     -19.413  -9.029   9.683  1.00  0.00     0.000 A 
ENDBRANCH  51  70
BRANCH  63  76
ATOM     76  C   UNL     1     -24.139  -1.398  11.040  1.00  0.00    -0.014 A 
ATOM     77  C   UNL     1     -23.877  -1.409  12.418  1.00  0.00     0.009 A 
ATOM     78  C   UNL     1     -25.470  -1.350  10.597  1.00  0.00     0.009 A 
ATOM     79  C   UNL     1     -24.930  -1.404  13.334  1.00  0.00     0.001 A 
ATOM     80  C   UNL     1     -26.519  -1.319  11.516  1.00  0.00     0.001 A 
ATOM     81  C   UNL     1     -26.249  -1.354  12.883  1.00  0.00     0.000 A 
ENDBRANCH  63  76
ENDBRANCH  37  38
ENDBRANCH  29  32
ENDBRANCH  27  28
ENDBRANCH  26  27
ENDBRANCH   1  26
TORSDOF 14
