REMARK SMILES CCc1n[nH]c(C(=O)N[C@@]2(C(=O)NCCCCNC(=O)c3ccc(-c4c5nc(c(-c6ccccc6)c6ccc([nH]6)c(-c6ccccc6)c6nc(c(-c7ccccc7)c7ccc4[nH]7)C=C6)C=C5)cc3)CCCC[C@H]2C)n1
REMARK SMILES IDX 15 1 14 2 13 3 11 4 12 5 10 7 69 8 73 9 70 10 72 11 74 12
REMARK SMILES IDX 71 13 9 14 7 15 8 16 6 18 3 19 4 20 75 21 5 22 2 24 1 25
REMARK SMILES IDX 16 26 17 27 18 28 19 29 20 31 21 32 22 33 68 34 23 35 67 36
REMARK SMILES IDX 24 37 25 38 26 39 61 40 27 41 66 42 60 43 62 44 28 45 65 46
REMARK SMILES IDX 59 47 58 48 29 50 51 51 36 52 50 53 37 54 40 55 49 56 63 57
REMARK SMILES IDX 38 58 39 59 48 61 64 62 41 63 30 64 31 65 35 66 32 67 34 68
REMARK SMILES IDX 33 69 52 70 53 71 57 72 54 73 56 74 55 75 42 76 43 77 47 78
REMARK SMILES IDX 44 79 46 80 45 81
REMARK H PARENT 13 6 9 17 5 23 18 30 62 49 40 60
REMARK Flexibility Score: inf
ROOT
ATOM      1  C   UNL     1      -2.571   4.560  -1.395  1.00  0.00     0.023 C 
ENDROOT
BRANCH   1   2
ATOM      2  C   UNL     1      -1.097   4.764  -1.057  1.00  0.00     0.116 C 
BRANCH   2   3
ATOM      3  N   UNL     1      -0.832   5.738  -0.007  1.00  0.00    -0.354 N 
ATOM      4  C   UNL     1      -0.320   5.563   1.260  1.00  0.00     0.246 C 
ATOM      5  O   UNL     1      -0.070   6.581   1.917  1.00  0.00    -0.272 OA
ATOM      6  H   UNL     1      -1.055   6.668  -0.239  1.00  0.00     0.163 HD
BRANCH   4   7
ATOM      7  C   UNL     1      -0.125   4.121   1.893  1.00  0.00     0.122 C 
ATOM      8  C   UNL     1       0.867   3.365   0.990  1.00  0.00     0.039 C 
ATOM      9  C   UNL     1      -1.573   3.571   2.030  1.00  0.00     0.021 C 
ATOM     10  C   UNL     1       0.434   2.004   0.452  1.00  0.00     0.003 C 
ATOM     11  C   UNL     1      -1.663   2.059   2.010  1.00  0.00     0.006 C 
ATOM     12  C   UNL     1      -2.362   4.180   3.201  1.00  0.00     0.011 C 
ATOM     13  C   UNL     1      -0.970   1.487   0.780  1.00  0.00     0.000 C 
BRANCH   7  14
ATOM     14  N   UNL     1       0.503   4.339   3.233  1.00  0.00    -0.335 N 
ATOM     15  C   UNL     1       1.164   3.553   4.154  1.00  0.00     0.289 C 
ATOM     16  O   UNL     1       1.567   4.132   5.168  1.00  0.00    -0.266 OA
ATOM     17  H   UNL     1       0.426   5.274   3.531  1.00  0.00     0.165 HD
BRANCH  15  18
ATOM     18  C   UNL     1       1.457   2.144   3.964  1.00  0.00     0.214 A 
ATOM     19  C   UNL     1       1.599   0.099   3.370  1.00  0.00     0.151 A 
ATOM     20  N   UNL     1       2.530   0.195   4.325  1.00  0.00    -0.158 NA
ATOM     21  N   UNL     1       0.923   1.271   3.135  1.00  0.00    -0.207 NA
ATOM     22  N   UNL     1       2.401   1.482   4.701  1.00  0.00    -0.255 N 
ATOM     23  H   UNL     1       2.926   1.899   5.422  1.00  0.00     0.192 HD
BRANCH  19  24
ATOM     24  C   UNL     1       1.280  -1.186   2.677  1.00  0.00     0.076 C 
ATOM     25  C   UNL     1       1.758  -1.271   1.233  1.00  0.00     0.012 C 
ENDBRANCH  19  24
ENDBRANCH  15  18
ENDBRANCH   7  14
ENDBRANCH   4   7
ENDBRANCH   2   3
ENDBRANCH   1   2
BRANCH   1  26
ATOM     26  C   UNL     1      -3.103   5.453  -2.503  1.00  0.00     0.023 C 
BRANCH  26  27
ATOM     27  C   UNL     1      -2.367   5.353  -3.834  1.00  0.00     0.116 C 
BRANCH  27  28
ATOM     28  N   UNL     1      -2.376   4.023  -4.429  1.00  0.00    -0.352 N 
ATOM     29  C   UNL     1      -2.601   3.679  -5.747  1.00  0.00     0.251 C 
ATOM     30  H   UNL     1      -2.200   3.275  -3.814  1.00  0.00     0.163 HD
ATOM     31  O   UNL     1      -2.643   2.510  -6.097  1.00  0.00    -0.269 OA
BRANCH  29  32
ATOM     32  C   UNL     1      -2.851   4.761  -6.723  1.00  0.00     0.039 A 
ATOM     33  C   UNL     1      -4.036   4.740  -7.461  1.00  0.00     0.014 A 
ATOM     34  C   UNL     1      -1.978   5.849  -6.806  1.00  0.00     0.014 A 
ATOM     35  C   UNL     1      -4.405   5.870  -8.194  1.00  0.00     0.010 A 
ATOM     36  C   UNL     1      -2.386   7.000  -7.470  1.00  0.00     0.010 A 
ATOM     37  C   UNL     1      -3.615   7.030  -8.148  1.00  0.00    -0.014 A 
BRANCH  37  38
ATOM     38  C   UNL     1      -4.079   8.308  -8.743  1.00  0.00     0.031 A 
ATOM     39  C   UNL     1      -3.305   8.950  -9.857  1.00  0.00     0.074 A 
ATOM     40  C   UNL     1      -5.143   8.941  -8.209  1.00  0.00     0.049 A 
ATOM     41  N   UNL     1      -3.493  10.112 -10.429  1.00  0.00    -0.248 NA
ATOM     42  C   UNL     1      -2.152   8.198 -10.380  1.00  0.00     0.031 C 
ATOM     43  C   UNL     1      -5.956   8.447  -7.094  1.00  0.00     0.029 A 
ATOM     44  N   UNL     1      -5.715  10.149  -8.523  1.00  0.00    -0.354 N 
ATOM     45  C   UNL     1      -2.475  10.238 -11.366  1.00  0.00     0.074 A 
ATOM     46  C   UNL     1      -1.647   9.056 -11.255  1.00  0.00     0.031 C 
ATOM     47  C   UNL     1      -6.932   9.332  -6.834  1.00  0.00     0.029 A 
ATOM     48  C   UNL     1      -6.787  10.476  -7.728  1.00  0.00     0.049 A 
ATOM     49  H   UNL     1      -5.387  10.727  -9.250  1.00  0.00     0.167 HD
ATOM     50  C   UNL     1      -2.259  11.240 -12.250  1.00  0.00     0.031 A 
ATOM     51  C   UNL     1      -7.558  11.579  -7.707  1.00  0.00     0.031 A 
ATOM     52  C   UNL     1      -3.085  12.412 -12.366  1.00  0.00     0.049 A 
ATOM     53  C   UNL     1      -7.276  12.692  -8.677  1.00  0.00     0.074 A 
ATOM     54  C   UNL     1      -2.986  13.448 -13.278  1.00  0.00     0.029 A 
ATOM     55  N   UNL     1      -4.157  12.706 -11.539  1.00  0.00    -0.354 N 
ATOM     56  N   UNL     1      -6.353  12.763  -9.605  1.00  0.00    -0.248 NA
ATOM     57  C   UNL     1      -8.141  13.877  -8.593  1.00  0.00     0.031 C 
ATOM     58  C   UNL     1      -3.965  14.398 -12.967  1.00  0.00     0.029 A 
ATOM     59  C   UNL     1      -4.706  13.927 -11.895  1.00  0.00     0.049 A 
ATOM     60  H   UNL     1      -4.480  12.133 -10.806  1.00  0.00     0.167 HD
ATOM     61  C   UNL     1      -6.536  13.991 -10.226  1.00  0.00     0.074 A 
ATOM     62  C   UNL     1      -7.670  14.623  -9.584  1.00  0.00     0.031 C 
ATOM     63  C   UNL     1      -5.825  14.548 -11.237  1.00  0.00     0.031 A 
BRANCH  50  64
ATOM     64  C   UNL     1      -1.070  11.112 -13.160  1.00  0.00    -0.014 A 
ATOM     65  C   UNL     1      -1.051  10.171 -14.201  1.00  0.00     0.009 A 
ATOM     66  C   UNL     1       0.030  11.967 -12.996  1.00  0.00     0.009 A 
ATOM     67  C   UNL     1       0.062  10.066 -15.039  1.00  0.00     0.001 A 
ATOM     68  C   UNL     1       1.129  11.878 -13.851  1.00  0.00     0.001 A 
ATOM     69  C   UNL     1       1.148  10.922 -14.866  1.00  0.00     0.000 A 
ENDBRANCH  50  64
BRANCH  51  70
ATOM     70  C   UNL     1      -8.672  11.693  -6.730  1.00  0.00    -0.014 A 
ATOM     71  C   UNL     1     -10.005  11.624  -7.161  1.00  0.00     0.009 A 
ATOM     72  C   UNL     1      -8.408  11.878  -5.363  1.00  0.00     0.009 A 
ATOM     73  C   UNL     1     -11.052  11.761  -6.247  1.00  0.00     0.001 A 
ATOM     74  C   UNL     1      -9.457  11.987  -4.448  1.00  0.00     0.001 A 
ATOM     75  C   UNL     1     -10.778  11.937  -4.891  1.00  0.00     0.000 A 
ENDBRANCH  51  70
BRANCH  63  76
ATOM     76  C   UNL     1      -6.261  15.903 -11.714  1.00  0.00    -0.014 A 
ATOM     77  C   UNL     1      -6.017  17.053 -10.948  1.00  0.00     0.009 A 
ATOM     78  C   UNL     1      -6.887  16.036 -12.963  1.00  0.00     0.009 A 
ATOM     79  C   UNL     1      -6.418  18.307 -11.411  1.00  0.00     0.001 A 
ATOM     80  C   UNL     1      -7.262  17.294 -13.436  1.00  0.00     0.001 A 
ATOM     81  C   UNL     1      -7.035  18.427 -12.656  1.00  0.00     0.000 A 
ENDBRANCH  63  76
ENDBRANCH  37  38
ENDBRANCH  29  32
ENDBRANCH  27  28
ENDBRANCH  26  27
ENDBRANCH   1  26
TORSDOF 14
