REMARK SMILES O=C(NCCCCNC(=O)c1csc(C[NH2+][C@H]2CCSc3ccc(F)cc32)c1)c1ccc(-c2c3nc(c(-c4ccccc4)c4ccc([nH]4)c(-c4ccccc4)c4nc(c(-c5ccccc5)c5ccc2[nH]5)C=C4)C=C3)cc1
REMARK SMILES IDX 6 1 5 2 4 3 3 4 1 5 2 6 29 8 30 9 76 10 31 11 75 12 32 13
REMARK SMILES IDX 33 14 34 15 69 16 35 17 74 18 68 19 70 20 36 21 73 22 67 23
REMARK SMILES IDX 66 24 37 26 59 27 44 28 58 29 45 30 48 31 57 32 71 33 46 34
REMARK SMILES IDX 47 35 56 37 72 38 49 39 38 40 39 41 43 42 40 43 42 44 41 45
REMARK SMILES IDX 60 46 61 47 65 48 62 49 64 50 63 51 50 52 51 53 55 54 52 55
REMARK SMILES IDX 54 56 53 57 7 58 8 59 9 60 10 62 11 63 12 64 28 65 13 66
REMARK SMILES IDX 14 67 15 68 16 69 17 72 18 73 27 74 19 75 21 76 26 77 20 78
REMARK SMILES IDX 22 79 24 80 23 81 25 82
REMARK H PARENT 3 7 70 25 48 36 8 61 16 70 16 71
REMARK Flexibility Score: inf
ROOT
ATOM      1  C   UNL     1       8.914   4.152 -18.068  1.00  0.00     0.023 C 
ENDROOT
BRANCH   1   2
ATOM      2  C   UNL     1       9.324   4.368 -19.528  1.00  0.00     0.023 C 
BRANCH   2   3
ATOM      3  C   UNL     1       9.584   5.815 -19.939  1.00  0.00     0.116 C 
BRANCH   3   4
ATOM      4  N   UNL     1      10.610   6.458 -19.139  1.00  0.00    -0.352 N 
ATOM      5  O   UNL     1      12.482   7.617 -18.691  1.00  0.00    -0.269 OA
ATOM      6  C   UNL     1      11.654   7.260 -19.526  1.00  0.00     0.251 C 
ATOM      7  H   UNL     1      10.548   6.293 -18.171  1.00  0.00     0.163 HD
BRANCH   6   8
ATOM      8  C   UNL     1      11.812   7.685 -20.936  1.00  0.00     0.039 A 
ATOM      9  C   UNL     1      13.101   7.706 -21.481  1.00  0.00     0.014 A 
ATOM     10  C   UNL     1      10.727   8.118 -21.703  1.00  0.00     0.014 A 
ATOM     11  C   UNL     1      13.298   8.126 -22.799  1.00  0.00     0.010 A 
ATOM     12  C   UNL     1      10.916   8.483 -23.036  1.00  0.00     0.010 A 
ATOM     13  C   UNL     1      12.205   8.505 -23.591  1.00  0.00    -0.014 A 
BRANCH  13  14
ATOM     14  C   UNL     1      12.398   8.983 -24.983  1.00  0.00     0.031 A 
ATOM     15  C   UNL     1      12.127  10.422 -25.325  1.00  0.00     0.074 A 
ATOM     16  C   UNL     1      12.789   8.126 -25.945  1.00  0.00     0.049 A 
ATOM     17  N   UNL     1      12.170  11.016 -26.490  1.00  0.00    -0.248 NA
ATOM     18  C   UNL     1      11.742  11.306 -24.213  1.00  0.00     0.031 C 
ATOM     19  C   UNL     1      13.080   6.706 -25.749  1.00  0.00     0.029 A 
ATOM     20  N   UNL     1      13.010   8.332 -27.284  1.00  0.00    -0.354 N 
ATOM     21  C   UNL     1      11.798  12.333 -26.255  1.00  0.00     0.074 A 
ATOM     22  C   UNL     1      11.500  12.445 -24.845  1.00  0.00     0.031 C 
ATOM     23  C   UNL     1      13.473   6.175 -26.919  1.00  0.00     0.029 A 
ATOM     24  C   UNL     1      13.425   7.206 -27.952  1.00  0.00     0.049 A 
ATOM     25  H   UNL     1      12.884   9.203 -27.724  1.00  0.00     0.167 HD
ATOM     26  C   UNL     1      11.727  13.362 -27.131  1.00  0.00     0.031 A 
ATOM     27  C   UNL     1      13.733   7.023 -29.250  1.00  0.00     0.031 A 
ATOM     28  C   UNL     1      12.046  13.264 -28.529  1.00  0.00     0.049 A 
ATOM     29  C   UNL     1      13.638   8.178 -30.207  1.00  0.00     0.074 A 
ATOM     30  C   UNL     1      12.029  14.262 -29.488  1.00  0.00     0.029 A 
ATOM     31  N   UNL     1      12.453  12.102 -29.164  1.00  0.00    -0.354 N 
ATOM     32  N   UNL     1      13.291   9.418 -29.967  1.00  0.00    -0.248 NA
ATOM     33  C   UNL     1      13.981   7.908 -31.611  1.00  0.00     0.031 C 
ATOM     34  C   UNL     1      12.396  13.696 -30.712  1.00  0.00     0.029 A 
ATOM     35  C   UNL     1      12.682  12.356 -30.505  1.00  0.00     0.049 A 
ATOM     36  H   UNL     1      12.562  11.227 -28.727  1.00  0.00     0.167 HD
ATOM     37  C   UNL     1      13.389  10.081 -31.183  1.00  0.00     0.074 A 
ATOM     38  C   UNL     1      13.838   9.109 -32.158  1.00  0.00     0.031 C 
ATOM     39  C   UNL     1      13.129  11.380 -31.463  1.00  0.00     0.031 A 
BRANCH  26  40
ATOM     40  C   UNL     1      11.285  14.694 -26.599  1.00  0.00    -0.014 A 
ATOM     41  C   UNL     1      10.017  15.195 -26.932  1.00  0.00     0.009 A 
ATOM     42  C   UNL     1      12.142  15.476 -25.808  1.00  0.00     0.009 A 
ATOM     43  C   UNL     1       9.614  16.453 -26.481  1.00  0.00     0.001 A 
ATOM     44  C   UNL     1      11.727  16.723 -25.339  1.00  0.00     0.001 A 
ATOM     45  C   UNL     1      10.466  17.213 -25.680  1.00  0.00     0.000 A 
ENDBRANCH  26  40
BRANCH  27  46
ATOM     46  C   UNL     1      14.192   5.689 -29.713  1.00  0.00    -0.014 A 
ATOM     47  C   UNL     1      13.286   4.626 -29.849  1.00  0.00     0.009 A 
ATOM     48  C   UNL     1      15.549   5.468 -29.989  1.00  0.00     0.009 A 
ATOM     49  C   UNL     1      13.733   3.363 -30.241  1.00  0.00     0.001 A 
ATOM     50  C   UNL     1      15.990   4.208 -30.401  1.00  0.00     0.001 A 
ATOM     51  C   UNL     1      15.083   3.156 -30.521  1.00  0.00     0.000 A 
ENDBRANCH  27  46
BRANCH  39  52
ATOM     52  C   UNL     1      13.338  11.846 -32.874  1.00  0.00    -0.014 A 
ATOM     53  C   UNL     1      14.438  12.661 -33.182  1.00  0.00     0.009 A 
ATOM     54  C   UNL     1      12.396  11.562 -33.873  1.00  0.00     0.009 A 
ATOM     55  C   UNL     1      14.588  13.191 -34.464  1.00  0.00     0.001 A 
ATOM     56  C   UNL     1      12.559  12.078 -35.160  1.00  0.00     0.001 A 
ATOM     57  C   UNL     1      13.649  12.897 -35.452  1.00  0.00     0.000 A 
ENDBRANCH  39  52
ENDBRANCH  13  14
ENDBRANCH   6   8
ENDBRANCH   3   4
ENDBRANCH   2   3
ENDBRANCH   1   2
BRANCH   1  58
ATOM     58  C   UNL     1       7.744   5.005 -17.579  1.00  0.00     0.116 C 
BRANCH  58  59
ATOM     59  N   UNL     1       6.529   4.749 -18.337  1.00  0.00    -0.352 N 
ATOM     60  C   UNL     1       5.376   4.135 -17.938  1.00  0.00     0.252 C 
ATOM     61  H   UNL     1       6.540   5.063 -19.271  1.00  0.00     0.163 HD
ATOM     62  O   UNL     1       4.560   3.782 -18.803  1.00  0.00    -0.269 OA
BRANCH  60  63
ATOM     63  C   UNL     1       5.140   3.889 -16.527  1.00  0.00     0.051 A 
ATOM     64  C   UNL     1       5.237   4.853 -15.538  1.00  0.00     0.079 A 
ATOM     65  C   UNL     1       4.694   2.646 -15.971  1.00  0.00     0.035 A 
ATOM     66  S   UNL     1       4.911   4.238 -13.978  1.00  0.00    -0.142 S 
ATOM     67  C   UNL     1       4.560   2.682 -14.596  1.00  0.00     0.059 A 
BRANCH  67  68
ATOM     68  C   UNL     1       4.143   1.574 -13.675  1.00  0.00     0.308 C 
BRANCH  68  69
ATOM     69  N   UNL     1       5.240   0.624 -13.515  1.00  0.00    -0.336 N 
ATOM     70  H   UNL     1       6.079   1.146 -13.263  1.00  0.00     0.347 HD
ATOM     71  H   UNL     1       5.324   0.131 -14.405  1.00  0.00     0.347 HD
BRANCH  69  72
ATOM     72  C   UNL     1       5.018  -0.412 -12.487  1.00  0.00     0.215 C 
ATOM     73  C   UNL     1       3.676  -1.136 -12.706  1.00  0.00     0.081 C 
ATOM     74  C   UNL     1       6.238  -1.330 -12.425  1.00  0.00     0.026 A 
ATOM     75  C   UNL     1       3.516  -2.344 -11.804  1.00  0.00     0.081 C 
ATOM     76  C   UNL     1       6.161  -2.735 -12.398  1.00  0.00     0.017 A 
ATOM     77  C   UNL     1       7.518  -0.736 -12.359  1.00  0.00     0.050 A 
ATOM     78  S   UNL     1       4.631  -3.649 -12.363  1.00  0.00    -0.125 SA
ATOM     79  C   UNL     1       7.338  -3.505 -12.387  1.00  0.00     0.018 A 
ATOM     80  C   UNL     1       8.670  -1.514 -12.330  1.00  0.00     0.123 A 
ATOM     81  C   UNL     1       8.592  -2.896 -12.357  1.00  0.00     0.040 A 
ATOM     82  F   UNL     1       9.870  -0.921 -12.281  1.00  0.00    -0.207 F 
ENDBRANCH  69  72
ENDBRANCH  68  69
ENDBRANCH  67  68
ENDBRANCH  60  63
ENDBRANCH  58  59
ENDBRANCH   1  58
TORSDOF 14
