REMARK SMILES CCCNC(=O)[C@H](C)[NH2+][C@H](C)[C@@H](C)C(=O)NCCCCNC(=O)c1ccc(-c2c3nc(c(-c4ccccc4)c4ccc([nH]4)c(-c4ccccc4)c4nc(c(-c5ccccc5)c5ccc2[nH]5)C=C4)C=C3)cc1
REMARK SMILES IDX 14 1 15 2 16 3 12 5 13 6 10 7 11 8 9 9 7 12 8 13 5 14 4 15
REMARK SMILES IDX 6 17 3 18 2 19 1 20 17 21 18 22 19 23 20 24 21 25 22 26
REMARK SMILES IDX 23 28 24 29 25 30 71 31 26 32 70 33 27 34 28 35 29 36 64 37
REMARK SMILES IDX 30 38 69 39 63 40 65 41 31 42 68 43 62 44 61 45 32 47 54 48
REMARK SMILES IDX 39 49 53 50 40 51 43 52 52 53 66 54 41 55 42 56 51 58 67 59
REMARK SMILES IDX 44 60 33 61 34 62 38 63 35 64 37 65 36 66 55 67 56 68 60 69
REMARK SMILES IDX 57 70 59 71 58 72 45 73 46 74 50 75 47 76 49 77 48 78
REMARK H PARENT 16 4 9 10 9 11 4 16 21 27 65 46 43 57
REMARK Flexibility Score: inf
ROOT
ATOM      1  C   UNL     1       1.302   8.528  -2.074  1.00  0.00     0.228 C 
ATOM      2  O   UNL     1       1.968   9.230  -1.304  1.00  0.00    -0.275 OA
ATOM      3  N   UNL     1       0.411   9.179  -2.868  1.00  0.00    -0.356 N 
ATOM      4  H   UNL     1       0.285  10.129  -2.644  1.00  0.00     0.163 HD
ENDROOT
BRANCH   1   5
ATOM      5  C   UNL     1       1.546   7.021  -2.161  1.00  0.00     0.133 C 
ATOM      6  C   UNL     1       2.421   6.787  -3.404  1.00  0.00     0.024 C 
BRANCH   5   7
ATOM      7  C   UNL     1       0.275   6.125  -2.049  1.00  0.00     0.192 C 
ATOM      8  C   UNL     1       0.555   4.690  -2.531  1.00  0.00     0.076 C 
BRANCH   7   9
ATOM      9  N   UNL     1      -0.341   5.949  -0.719  1.00  0.00    -0.333 N 
ATOM     10  H   UNL     1      -1.198   5.412  -0.850  1.00  0.00     0.347 HD
ATOM     11  H   UNL     1       0.383   5.495  -0.160  1.00  0.00     0.347 HD
BRANCH   9  12
ATOM     12  C   UNL     1      -0.695   7.164   0.050  1.00  0.00     0.269 C 
ATOM     13  C   UNL     1      -1.881   6.807   0.941  1.00  0.00     0.086 C 
BRANCH  12  14
ATOM     14  C   UNL     1       0.531   7.588   0.885  1.00  0.00     0.277 C 
ATOM     15  N   UNL     1       0.627   8.910   1.232  1.00  0.00    -0.351 N 
ATOM     16  H   UNL     1       1.184   9.506   0.680  1.00  0.00     0.163 HD
ATOM     17  O   UNL     1       1.456   6.814   1.135  1.00  0.00    -0.268 OA
BRANCH  15  18
ATOM     18  C   UNL     1      -0.059   9.462   2.381  1.00  0.00     0.116 C 
BRANCH  18  19
ATOM     19  C   UNL     1       0.357   8.770   3.683  1.00  0.00     0.018 C 
ATOM     20  C   UNL     1       1.824   9.001   4.025  1.00  0.00     0.006 C 
ENDBRANCH  18  19
ENDBRANCH  15  18
ENDBRANCH  12  14
ENDBRANCH   9  12
ENDBRANCH   7   9
ENDBRANCH   5   7
ENDBRANCH   1   5
BRANCH   3  21
ATOM     21  C   UNL     1      -0.383   8.715  -3.986  1.00  0.00     0.116 C 
BRANCH  21  22
ATOM     22  C   UNL     1      -1.879   8.688  -3.674  1.00  0.00     0.023 C 
BRANCH  22  23
ATOM     23  C   UNL     1      -2.504  10.051  -3.381  1.00  0.00     0.023 C 
BRANCH  23  24
ATOM     24  C   UNL     1      -2.185  11.141  -4.396  1.00  0.00     0.116 C 
BRANCH  24  25
ATOM     25  N   UNL     1      -2.488  10.752  -5.764  1.00  0.00    -0.352 N 
ATOM     26  C   UNL     1      -3.075  11.481  -6.768  1.00  0.00     0.251 C 
ATOM     27  H   UNL     1      -2.235   9.831  -6.005  1.00  0.00     0.163 HD
ATOM     28  O   UNL     1      -3.356  10.948  -7.832  1.00  0.00    -0.269 OA
BRANCH  26  29
ATOM     29  C   UNL     1      -3.403  12.903  -6.539  1.00  0.00     0.039 A 
ATOM     30  C   UNL     1      -4.664  13.364  -6.922  1.00  0.00     0.014 A 
ATOM     31  C   UNL     1      -2.488  13.769  -5.934  1.00  0.00     0.014 A 
ATOM     32  C   UNL     1      -5.031  14.678  -6.637  1.00  0.00     0.010 A 
ATOM     33  C   UNL     1      -2.886  15.054  -5.576  1.00  0.00     0.010 A 
ATOM     34  C   UNL     1      -4.161  15.522  -5.926  1.00  0.00    -0.014 A 
BRANCH  34  35
ATOM     35  C   UNL     1      -4.589  16.885  -5.527  1.00  0.00     0.031 A 
ATOM     36  C   UNL     1      -3.879  18.097  -6.064  1.00  0.00     0.074 A 
ATOM     37  C   UNL     1      -5.598  17.028  -4.645  1.00  0.00     0.049 A 
ATOM     38  N   UNL     1      -4.123  19.363  -5.833  1.00  0.00    -0.248 NA
ATOM     39  C   UNL     1      -2.734  17.861  -6.958  1.00  0.00     0.031 C 
ATOM     40  C   UNL     1      -6.330  15.929  -4.010  1.00  0.00     0.029 A 
ATOM     41  N   UNL     1      -6.186  18.156  -4.132  1.00  0.00    -0.354 N 
ATOM     42  C   UNL     1      -3.159  20.068  -6.542  1.00  0.00     0.074 A 
ATOM     43  C   UNL     1      -2.294  19.093  -7.167  1.00  0.00     0.031 C 
ATOM     44  C   UNL     1      -7.293  16.437  -3.225  1.00  0.00     0.029 A 
ATOM     45  C   UNL     1      -7.221  17.893  -3.268  1.00  0.00     0.049 A 
ATOM     46  H   UNL     1      -5.894  19.068  -4.362  1.00  0.00     0.167 HD
ATOM     47  C   UNL     1      -3.019  21.408  -6.678  1.00  0.00     0.031 A 
ATOM     48  C   UNL     1      -8.023  18.731  -2.583  1.00  0.00     0.031 A 
ATOM     49  C   UNL     1      -3.885  22.378  -6.060  1.00  0.00     0.049 A 
ATOM     50  C   UNL     1      -7.840  20.214  -2.747  1.00  0.00     0.074 A 
ATOM     51  C   UNL     1      -3.864  23.756  -6.188  1.00  0.00     0.029 A 
ATOM     52  N   UNL     1      -4.921  22.072  -5.192  1.00  0.00    -0.354 N 
ATOM     53  N   UNL     1      -6.979  20.864  -3.493  1.00  0.00    -0.248 NA
ATOM     54  C   UNL     1      -8.750  21.079  -1.985  1.00  0.00     0.031 C 
ATOM     55  C   UNL     1      -4.848  24.287  -5.348  1.00  0.00     0.029 A 
ATOM     56  C   UNL     1      -5.526  23.237  -4.751  1.00  0.00     0.049 A 
ATOM     57  H   UNL     1      -5.188  21.162  -4.928  1.00  0.00     0.167 HD
ATOM     58  C   UNL     1      -7.261  22.211  -3.310  1.00  0.00     0.074 A 
ATOM     59  C   UNL     1      -8.389  22.283  -2.403  1.00  0.00     0.031 C 
ATOM     60  C   UNL     1      -6.642  23.293  -3.842  1.00  0.00     0.031 A 
BRANCH  47  61
ATOM     61  C   UNL     1      -1.881  21.909  -7.523  1.00  0.00    -0.014 A 
ATOM     62  C   UNL     1      -1.876  21.738  -8.917  1.00  0.00     0.009 A 
ATOM     63  C   UNL     1      -0.823  22.611  -6.924  1.00  0.00     0.009 A 
ATOM     64  C   UNL     1      -0.821  22.232  -9.688  1.00  0.00     0.001 A 
ATOM     65  C   UNL     1       0.215  23.130  -7.700  1.00  0.00     0.001 A 
ATOM     66  C   UNL     1       0.219  22.934  -9.080  1.00  0.00     0.000 A 
ENDBRANCH  47  61
BRANCH  48  67
ATOM     67  C   UNL     1      -9.078  18.191  -1.685  1.00  0.00    -0.014 A 
ATOM     68  C   UNL     1     -10.437  18.356  -1.994  1.00  0.00     0.009 A 
ATOM     69  C   UNL     1      -8.730  17.524  -0.500  1.00  0.00     0.009 A 
ATOM     70  C   UNL     1     -11.423  17.896  -1.118  1.00  0.00     0.001 A 
ATOM     71  C   UNL     1      -9.718  17.035   0.357  1.00  0.00     0.001 A 
ATOM     72  C   UNL     1     -11.064  17.233   0.053  1.00  0.00     0.000 A 
ENDBRANCH  48  67
BRANCH  60  73
ATOM     73  C   UNL     1      -7.191  24.645  -3.479  1.00  0.00    -0.014 A 
ATOM     74  C   UNL     1      -7.052  25.167  -2.184  1.00  0.00     0.009 A 
ATOM     75  C   UNL     1      -7.836  25.418  -4.458  1.00  0.00     0.009 A 
ATOM     76  C   UNL     1      -7.586  26.418  -1.866  1.00  0.00     0.001 A 
ATOM     77  C   UNL     1      -8.338  26.681  -4.146  1.00  0.00     0.001 A 
ATOM     78  C   UNL     1      -8.224  27.175  -2.848  1.00  0.00     0.000 A 
ENDBRANCH  60  73
ENDBRANCH  34  35
ENDBRANCH  26  29
ENDBRANCH  24  25
ENDBRANCH  23  24
ENDBRANCH  22  23
ENDBRANCH  21  22
ENDBRANCH   3  21
TORSDOF 17
