REMARK SMILES Nc1ccc(-c2cc(Cl)cc3c2O[C@H](C(F)(F)F)C(C(=O)NCCCCNC(=O)c2ccc(-c4c5nc(c(-c6ccccc6)c6ccc([nH]6)c(-c6ccccc6)c6nc(c(-c7ccccc7)c7ccc4[nH]7)C=C6)C=C5)cc2)=C3)cc1
REMARK SMILES IDX 24 1 23 2 22 3 20 4 21 5 19 7 6 8 7 9 12 10 8 11 11 12 13 13
REMARK SMILES IDX 9 14 10 15 78 16 14 17 5 18 2 19 3 20 80 21 4 22 79 23 1 24
REMARK SMILES IDX 15 27 16 28 17 29 18 30 25 31 26 32 27 33 28 34 29 36 30 37
REMARK SMILES IDX 31 38 77 39 32 40 76 41 33 42 34 43 35 44 70 45 36 46 75 47
REMARK SMILES IDX 69 48 71 49 37 50 74 51 68 52 67 53 38 55 60 56 45 57 59 58
REMARK SMILES IDX 46 59 49 60 58 61 72 62 47 63 48 64 57 66 73 67 50 68 39 69
REMARK SMILES IDX 40 70 44 71 41 72 43 73 42 74 61 75 62 76 66 77 63 78 65 79
REMARK SMILES IDX 64 80 51 81 52 82 56 83 53 84 55 85 54 86
REMARK H PARENT 22 6 1 25 1 26 27 35 71 54 49 65
REMARK Flexibility Score: inf
ROOT
ATOM      1  C   UNL     1      -3.634  -2.329   6.620  1.00  0.00     0.023 C 
ENDROOT
BRANCH   1   2
ATOM      2  C   UNL     1      -4.213  -3.306   5.599  1.00  0.00     0.116 C 
BRANCH   2   3
ATOM      3  N   UNL     1      -5.556  -2.937   5.185  1.00  0.00    -0.352 N 
ATOM      4  C   UNL     1      -6.124  -2.290   4.138  1.00  0.00     0.251 C 
ATOM      5  O   UNL     1      -7.355  -2.194   4.185  1.00  0.00    -0.270 OA
ATOM      6  H   UNL     1      -6.231  -3.235   5.837  1.00  0.00     0.163 HD
BRANCH   4   7
ATOM      7  C   UNL     1      -5.384  -1.710   2.980  1.00  0.00     0.067 C 
ATOM      8  C   UNL     1      -3.364   0.143  -0.221  1.00  0.00     0.026 A 
ATOM      9  C   UNL     1      -4.117   0.683  -1.272  1.00  0.00     0.033 A 
ATOM     10  C   UNL     1      -4.058  -0.406   0.876  1.00  0.00     0.135 A 
ATOM     11  C   UNL     1      -5.513   0.667  -1.222  1.00  0.00     0.042 A 
ATOM     12  C   UNL     1      -5.457  -0.431   0.926  1.00  0.00     0.019 A 
ATOM     13  O   UNL     1      -3.310  -0.861   1.932  1.00  0.00    -0.475 OA
ATOM     14  Cl  UNL     1      -6.417   1.340  -2.523  1.00  0.00    -0.084 Cl
ATOM     15  C   UNL     1      -6.186   0.113  -0.131  1.00  0.00     0.032 A 
ATOM     16  C   UNL     1      -6.117  -1.000   2.099  1.00  0.00     0.025 C 
ATOM     17  C   UNL     1      -3.915  -1.899   2.739  1.00  0.00     0.314 C 
BRANCH   8  18
ATOM     18  C   UNL     1      -1.893   0.136  -0.265  1.00  0.00    -0.014 A 
ATOM     19  C   UNL     1       0.938   0.094  -0.166  1.00  0.00     0.031 A 
ATOM     20  C   UNL     1       0.212  -1.095  -0.224  1.00  0.00     0.026 A 
ATOM     21  C   UNL     1       0.240   1.302  -0.146  1.00  0.00     0.026 A 
ATOM     22  C   UNL     1      -1.184  -1.076  -0.289  1.00  0.00     0.011 A 
ATOM     23  C   UNL     1      -1.159   1.327  -0.207  1.00  0.00     0.011 A 
BRANCH  19  24
ATOM     24  N   UNL     1       2.313   0.070  -0.002  1.00  0.00    -0.399 N 
ATOM     25  H   UNL     1       2.795  -0.788  -0.017  1.00  0.00     0.156 HD
ATOM     26  H   UNL     1       2.807   0.911   0.130  1.00  0.00     0.156 HD
ENDBRANCH  19  24
ENDBRANCH   8  18
BRANCH  17  27
ATOM     27  C   UNL     1      -3.576  -3.281   2.147  1.00  0.00     0.429 C 
ATOM     28  F   UNL     1      -2.247  -3.531   2.253  1.00  0.00    -0.167 F 
ATOM     29  F   UNL     1      -4.208  -4.289   2.794  1.00  0.00    -0.167 F 
ATOM     30  F   UNL     1      -3.904  -3.388   0.840  1.00  0.00    -0.167 F 
ENDBRANCH  17  27
ENDBRANCH   4   7
ENDBRANCH   2   3
ENDBRANCH   1   2
BRANCH   1  31
ATOM     31  C   UNL     1      -3.995  -2.647   8.073  1.00  0.00     0.023 C 
BRANCH  31  32
ATOM     32  C   UNL     1      -3.606  -4.043   8.554  1.00  0.00     0.116 C 
BRANCH  32  33
ATOM     33  N   UNL     1      -2.203  -4.381   8.362  1.00  0.00    -0.352 N 
ATOM     34  C   UNL     1      -1.467  -5.332   9.037  1.00  0.00     0.251 C 
ATOM     35  H   UNL     1      -1.724  -3.872   7.668  1.00  0.00     0.163 HD
ATOM     36  O   UNL     1      -0.268  -5.469   8.829  1.00  0.00    -0.269 OA
BRANCH  34  37
ATOM     37  C   UNL     1      -2.146  -6.141  10.070  1.00  0.00     0.039 A 
ATOM     38  C   UNL     1      -3.334  -6.805   9.768  1.00  0.00     0.014 A 
ATOM     39  C   UNL     1      -1.641  -6.140  11.373  1.00  0.00     0.014 A 
ATOM     40  C   UNL     1      -4.115  -7.306  10.802  1.00  0.00     0.010 A 
ATOM     41  C   UNL     1      -2.392  -6.717  12.400  1.00  0.00     0.010 A 
ATOM     42  C   UNL     1      -3.663  -7.247  12.131  1.00  0.00    -0.014 A 
BRANCH  42  43
ATOM     43  C   UNL     1      -4.559  -7.715  13.218  1.00  0.00     0.031 A 
ATOM     44  C   UNL     1      -5.130  -6.745  14.218  1.00  0.00     0.074 A 
ATOM     45  C   UNL     1      -4.933  -9.008  13.246  1.00  0.00     0.049 A 
ATOM     46  N   UNL     1      -5.986  -6.969  15.184  1.00  0.00    -0.248 NA
ATOM     47  C   UNL     1      -4.689  -5.343  14.125  1.00  0.00     0.031 C 
ATOM     48  C   UNL     1      -4.467 -10.038  12.316  1.00  0.00     0.029 A 
ATOM     49  N   UNL     1      -5.822  -9.666  14.057  1.00  0.00    -0.354 N 
ATOM     50  C   UNL     1      -6.170  -5.748  15.821  1.00  0.00     0.074 A 
ATOM     51  C   UNL     1      -5.322  -4.788  15.150  1.00  0.00     0.031 C 
ATOM     52  C   UNL     1      -5.127 -11.179  12.562  1.00  0.00     0.029 A 
ATOM     53  C   UNL     1      -6.016 -10.979  13.702  1.00  0.00     0.049 A 
ATOM     54  H   UNL     1      -6.277  -9.240  14.819  1.00  0.00     0.167 HD
ATOM     55  C   UNL     1      -6.979  -5.452  16.866  1.00  0.00     0.031 A 
ATOM     56  C   UNL     1      -6.819 -11.920  14.231  1.00  0.00     0.031 A 
ATOM     57  C   UNL     1      -7.832  -6.403  17.527  1.00  0.00     0.049 A 
ATOM     58  C   UNL     1      -7.687 -11.573  15.404  1.00  0.00     0.074 A 
ATOM     59  C   UNL     1      -8.686  -6.193  18.597  1.00  0.00     0.029 A 
ATOM     60  N   UNL     1      -7.948  -7.739  17.178  1.00  0.00    -0.354 N 
ATOM     61  N   UNL     1      -7.835 -10.417  16.002  1.00  0.00    -0.248 NA
ATOM     62  C   UNL     1      -8.494 -12.660  15.977  1.00  0.00     0.031 C 
ATOM     63  C   UNL     1      -9.287  -7.412  18.922  1.00  0.00     0.029 A 
ATOM     64  C   UNL     1      -8.847  -8.369  18.021  1.00  0.00     0.049 A 
ATOM     65  H   UNL     1      -7.463  -8.175  16.441  1.00  0.00     0.167 HD
ATOM     66  C   UNL     1      -8.753 -10.634  17.020  1.00  0.00     0.074 A 
ATOM     67  C   UNL     1      -9.146 -12.026  16.943  1.00  0.00     0.031 C 
ATOM     68  C   UNL     1      -9.222  -9.756  17.939  1.00  0.00     0.031 A 
BRANCH  55  69
ATOM     69  C   UNL     1      -6.976  -4.040  17.378  1.00  0.00    -0.014 A 
ATOM     70  C   UNL     1      -6.393  -3.751  18.623  1.00  0.00     0.009 A 
ATOM     71  C   UNL     1      -7.620  -3.011  16.674  1.00  0.00     0.009 A 
ATOM     72  C   UNL     1      -6.460  -2.462  19.155  1.00  0.00     0.001 A 
ATOM     73  C   UNL     1      -7.665  -1.717  17.199  1.00  0.00     0.001 A 
ATOM     74  C   UNL     1      -7.093  -1.446  18.442  1.00  0.00     0.000 A 
ENDBRANCH  55  69
BRANCH  56  75
ATOM     75  C   UNL     1      -6.835 -13.278  13.631  1.00  0.00    -0.014 A 
ATOM     76  C   UNL     1      -5.722 -14.125  13.758  1.00  0.00     0.009 A 
ATOM     77  C   UNL     1      -7.936 -13.710  12.877  1.00  0.00     0.009 A 
ATOM     78  C   UNL     1      -5.699 -15.366  13.119  1.00  0.00     0.001 A 
ATOM     79  C   UNL     1      -7.920 -14.963  12.261  1.00  0.00     0.001 A 
ATOM     80  C   UNL     1      -6.799 -15.785  12.374  1.00  0.00     0.000 A 
ENDBRANCH  56  75
BRANCH  68  81
ATOM     81  C   UNL     1     -10.216 -10.265  18.942  1.00  0.00    -0.014 A 
ATOM     82  C   UNL     1     -11.560  -9.867  18.857  1.00  0.00     0.009 A 
ATOM     83  C   UNL     1      -9.808 -11.067  20.018  1.00  0.00     0.009 A 
ATOM     84  C   UNL     1     -12.475 -10.256  19.835  1.00  0.00     0.001 A 
ATOM     85  C   UNL     1     -10.731 -11.473  20.983  1.00  0.00     0.001 A 
ATOM     86  C   UNL     1     -12.061 -11.062  20.895  1.00  0.00     0.000 A 
ENDBRANCH  68  81
ENDBRANCH  42  43
ENDBRANCH  34  37
ENDBRANCH  32  33
ENDBRANCH  31  32
ENDBRANCH   1  31
TORSDOF 14
