REMARK SMILES CC[C@@H](NC(=O)N[C@@](C)(CC)C(=O)NCCCCNC(=O)c1ccc(-c2c3nc(c(-c4ccccc4)c4ccc([nH]4)c(-c4ccccc4)c4nc(c(-c5ccccc5)c5ccc2[nH]5)C=C4)C=C3)cc1)c1cccs1
REMARK SMILES IDX 16 1 15 2 14 3 12 4 13 5 8 7 9 8 7 9 4 10 5 11 6 13 3 15
REMARK SMILES IDX 2 16 1 17 70 18 71 19 74 20 72 21 73 22 10 23 11 24 17 25
REMARK SMILES IDX 18 26 19 27 20 28 21 30 22 31 23 32 69 33 24 34 68 35 25 36
REMARK SMILES IDX 26 37 27 38 62 39 28 40 67 41 61 42 63 43 29 44 66 45 60 46
REMARK SMILES IDX 59 47 30 49 52 50 37 51 51 52 38 53 41 54 50 55 64 56 39 57
REMARK SMILES IDX 40 58 49 60 65 61 42 62 31 63 32 64 36 65 33 66 35 67 34 68
REMARK SMILES IDX 53 69 54 70 58 71 55 72 57 73 56 74 43 75 44 76 48 77 45 78
REMARK SMILES IDX 47 79 46 80
REMARK H PARENT 14 6 4 12 7 14 19 29 63 48 41 59
REMARK Flexibility Score: inf
ROOT
ATOM      1  C   UNL     1      -0.116   5.110  -2.917  1.00  0.00     0.023 C 
ENDROOT
BRANCH   1   2
ATOM      2  C   UNL     1       0.265   3.876  -3.731  1.00  0.00     0.116 C 
BRANCH   2   3
ATOM      3  N   UNL     1       0.062   2.682  -2.929  1.00  0.00    -0.354 N 
ATOM      4  C   UNL     1      -0.332   1.400  -3.175  1.00  0.00     0.245 C 
ATOM      5  O   UNL     1      -0.916   0.977  -2.154  1.00  0.00    -0.272 OA
ATOM      6  H   UNL     1       0.256   2.835  -1.976  1.00  0.00     0.163 HD
BRANCH   4   7
ATOM      7  C   UNL     1      -0.298   0.420  -4.696  1.00  0.00     0.117 C 
ATOM      8  C   UNL     1       1.355  -0.102  -6.124  1.00  0.00     0.045 C 
BRANCH   7   9
ATOM      9  N   UNL     1      -1.136  -0.855  -3.780  1.00  0.00    -0.324 N 
ATOM     10  N   UNL     1       0.467  -2.128  -2.599  1.00  0.00    -0.331 N 
ATOM     11  C   UNL     1      -0.824  -1.853  -2.907  1.00  0.00     0.316 C 
ATOM     12  H   UNL     1       0.639  -2.977  -2.130  1.00  0.00     0.166 HD
ATOM     13  O   UNL     1      -1.708  -2.604  -2.496  1.00  0.00    -0.249 OA
ATOM     14  H   UNL     1      -2.105  -0.832  -3.953  1.00  0.00     0.166 HD
BRANCH  10  15
ATOM     15  C   UNL     1       1.616  -1.302  -2.886  1.00  0.00     0.124 C 
BRANCH  15  16
ATOM     16  C   UNL     1       1.810  -0.299  -1.738  1.00  0.00     0.027 C 
ATOM     17  C   UNL     1       2.189  -0.915  -0.396  1.00  0.00     0.006 C 
ENDBRANCH  15  16
BRANCH  15  18
ATOM     18  C   UNL     1       1.270  -0.777  -4.256  1.00  0.00     0.027 A 
ATOM     19  C   UNL     1       0.164  -1.471  -5.465  1.00  0.00     0.017 A 
ATOM     20  S   UNL     1       1.750   1.420  -4.720  1.00  0.00    -0.147 S 
ATOM     21  C   UNL     1      -0.534  -0.151  -6.663  1.00  0.00     0.012 A 
ATOM     22  C   UNL     1       0.171   1.434  -6.409  1.00  0.00     0.065 A 
ENDBRANCH  15  18
ENDBRANCH  10  15
ENDBRANCH   7   9
BRANCH   7  23
ATOM     23  C   UNL     1      -1.883   1.270  -5.133  1.00  0.00     0.035 C 
ATOM     24  C   UNL     1      -3.010   1.423  -4.082  1.00  0.00     0.007 C 
ENDBRANCH   7  23
ENDBRANCH   4   7
ENDBRANCH   2   3
ENDBRANCH   1   2
BRANCH   1  25
ATOM     25  C   UNL     1       0.900   5.486  -1.831  1.00  0.00     0.023 C 
BRANCH  25  26
ATOM     26  C   UNL     1       2.326   5.727  -2.318  1.00  0.00     0.116 C 
BRANCH  26  27
ATOM     27  N   UNL     1       2.397   6.587  -3.495  1.00  0.00    -0.352 N 
ATOM     28  C   UNL     1       3.200   7.680  -3.709  1.00  0.00     0.251 C 
ATOM     29  H   UNL     1       1.790   6.351  -4.233  1.00  0.00     0.163 HD
ATOM     30  O   UNL     1       3.089   8.368  -4.715  1.00  0.00    -0.269 OA
BRANCH  28  31
ATOM     31  C   UNL     1       4.183   8.018  -2.670  1.00  0.00     0.039 A 
ATOM     32  C   UNL     1       4.081   9.245  -2.015  1.00  0.00     0.014 A 
ATOM     33  C   UNL     1       5.100   7.047  -2.260  1.00  0.00     0.014 A 
ATOM     34  C   UNL     1       4.866   9.475  -0.888  1.00  0.00     0.010 A 
ATOM     35  C   UNL     1       5.813   7.246  -1.087  1.00  0.00     0.010 A 
ATOM     36  C   UNL     1       5.706   8.462  -0.393  1.00  0.00    -0.014 A 
BRANCH  36  37
ATOM     37  C   UNL     1       6.492   8.665   0.847  1.00  0.00     0.031 A 
ATOM     38  C   UNL     1       7.993   8.647   0.786  1.00  0.00     0.074 A 
ATOM     39  C   UNL     1       5.857   8.820   2.026  1.00  0.00     0.049 A 
ATOM     40  N   UNL     1       8.859   8.790   1.755  1.00  0.00    -0.248 NA
ATOM     41  C   UNL     1       8.602   8.407  -0.533  1.00  0.00     0.031 C 
ATOM     42  C   UNL     1       4.405   8.807   2.219  1.00  0.00     0.029 A 
ATOM     43  N   UNL     1       6.356   9.025   3.287  1.00  0.00    -0.354 N 
ATOM     44  C   UNL     1      10.107   8.645   1.165  1.00  0.00     0.074 A 
ATOM     45  C   UNL     1       9.887   8.333  -0.229  1.00  0.00     0.031 C 
ATOM     46  C   UNL     1       4.131   9.038   3.514  1.00  0.00     0.029 A 
ATOM     47  C   UNL     1       5.385   9.175   4.247  1.00  0.00     0.049 A 
ATOM     48  H   UNL     1       7.320   9.061   3.486  1.00  0.00     0.167 HD
ATOM     49  C   UNL     1      11.331   8.788   1.725  1.00  0.00     0.031 A 
ATOM     50  C   UNL     1       5.495   9.399   5.571  1.00  0.00     0.031 A 
ATOM     51  C   UNL     1      11.546   9.106   3.110  1.00  0.00     0.049 A 
ATOM     52  C   UNL     1       6.867   9.537   6.173  1.00  0.00     0.074 A 
ATOM     53  C   UNL     1      12.742   9.323   3.768  1.00  0.00     0.029 A 
ATOM     54  N   UNL     1      10.536   9.247   4.050  1.00  0.00    -0.354 N 
ATOM     55  N   UNL     1       8.038   9.475   5.586  1.00  0.00    -0.248 NA
ATOM     56  C   UNL     1       6.931   9.790   7.619  1.00  0.00     0.031 C 
ATOM     57  C   UNL     1      12.460   9.537   5.121  1.00  0.00     0.029 A 
ATOM     58  C   UNL     1      11.084   9.523   5.290  1.00  0.00     0.049 A 
ATOM     59  H   UNL     1       9.573   9.164   3.863  1.00  0.00     0.167 HD
ATOM     60  C   UNL     1       8.975   9.713   6.583  1.00  0.00     0.074 A 
ATOM     61  C   UNL     1       8.234   9.940   7.807  1.00  0.00     0.031 C 
ATOM     62  C   UNL     1      10.328   9.744   6.496  1.00  0.00     0.031 A 
BRANCH  49  63
ATOM     63  C   UNL     1      12.525   8.592   0.832  1.00  0.00    -0.014 A 
ATOM     64  C   UNL     1      12.819   9.496  -0.203  1.00  0.00     0.009 A 
ATOM     65  C   UNL     1      13.380   7.499   1.039  1.00  0.00     0.009 A 
ATOM     66  C   UNL     1      13.918   9.285  -1.038  1.00  0.00     0.001 A 
ATOM     67  C   UNL     1      14.498   7.310   0.225  1.00  0.00     0.001 A 
ATOM     68  C   UNL     1      14.760   8.196  -0.819  1.00  0.00     0.000 A 
ENDBRANCH  49  63
BRANCH  50  69
ATOM     69  C   UNL     1       4.277   9.530   6.415  1.00  0.00    -0.014 A 
ATOM     70  C   UNL     1       3.939  10.762   6.998  1.00  0.00     0.009 A 
ATOM     71  C   UNL     1       3.454   8.420   6.660  1.00  0.00     0.009 A 
ATOM     72  C   UNL     1       2.825  10.871   7.834  1.00  0.00     0.001 A 
ATOM     73  C   UNL     1       2.321   8.539   7.469  1.00  0.00     0.001 A 
ATOM     74  C   UNL     1       2.014   9.761   8.065  1.00  0.00     0.000 A 
ENDBRANCH  50  69
BRANCH  62  75
ATOM     75  C   UNL     1      11.091  10.074   7.749  1.00  0.00    -0.014 A 
ATOM     76  C   UNL     1      11.163   9.174   8.823  1.00  0.00     0.009 A 
ATOM     77  C   UNL     1      11.784  11.292   7.835  1.00  0.00     0.009 A 
ATOM     78  C   UNL     1      11.881   9.506   9.974  1.00  0.00     0.001 A 
ATOM     79  C   UNL     1      12.530  11.605   8.971  1.00  0.00     0.001 A 
ATOM     80  C   UNL     1      12.569  10.717  10.044  1.00  0.00     0.000 A 
ENDBRANCH  62  75
ENDBRANCH  36  37
ENDBRANCH  28  31
ENDBRANCH  26  27
ENDBRANCH  25  26
ENDBRANCH   1  25
TORSDOF 16
