REMARK SMILES C[C@@H](C(=O)NCCCCNC(=O)c1ccc(-c2c3nc(c(-c4ccccc4)c4ccc([nH]4)c(-c4ccccc4)c4nc(c(-c5ccccc5)c5ccc2[nH]5)C=C4)C=C3)cc1)[C@@H](C)C(=O)c1ccc(Br)cc1
REMARK SMILES IDX 7 1 6 2 5 3 3 4 4 5 2 7 1 8 61 9 62 10 63 11 64 12 65 13
REMARK SMILES IDX 66 14 71 15 67 16 70 17 68 18 69 19 8 20 9 21 10 22 11 23
REMARK SMILES IDX 12 25 13 26 14 27 60 28 15 29 59 30 16 31 17 32 18 33 53 34
REMARK SMILES IDX 19 35 58 36 52 37 54 38 20 39 57 40 51 41 50 42 21 44 43 45
REMARK SMILES IDX 28 46 42 47 29 48 32 49 41 50 55 51 30 52 31 53 40 55 56 56
REMARK SMILES IDX 33 57 22 58 23 59 27 60 24 61 26 62 25 63 44 64 45 65 49 66
REMARK SMILES IDX 46 67 48 68 47 69 34 70 35 71 39 72 36 73 38 74 37 75
REMARK H PARENT 5 6 10 24 54 43 32 54
REMARK Flexibility Score: inf
ROOT
ATOM      1  C   UNL     1       4.189  -0.474   1.128  1.00  0.00     0.023 C 
ENDROOT
BRANCH   1   2
ATOM      2  C   UNL     1       3.357  -1.674   0.673  1.00  0.00     0.116 C 
BRANCH   2   3
ATOM      3  N   UNL     1       2.298  -1.968   1.619  1.00  0.00    -0.356 N 
ATOM      4  C   UNL     1       0.962  -1.714   1.549  1.00  0.00     0.223 C 
ATOM      5  O   UNL     1       0.296  -1.912   2.562  1.00  0.00    -0.275 OA
ATOM      6  H   UNL     1       2.591  -2.423   2.441  1.00  0.00     0.163 HD
BRANCH   4   7
ATOM      7  C   UNL     1       0.348  -1.212   0.242  1.00  0.00     0.086 C 
ATOM      8  C   UNL     1       0.625   0.290   0.101  1.00  0.00     0.019 C 
BRANCH   7   9
ATOM      9  C   UNL     1      -1.170  -1.507   0.183  1.00  0.00     0.070 C 
ATOM     10  C   UNL     1      -1.792  -1.128  -1.166  1.00  0.00     0.017 C 
BRANCH   9  11
ATOM     11  C   UNL     1      -1.611  -2.935   0.540  1.00  0.00     0.166 C 
ATOM     12  O   UNL     1      -2.407  -3.146   1.456  1.00  0.00    -0.294 OA
BRANCH  11  13
ATOM     13  C   UNL     1      -1.270  -4.086  -0.340  1.00  0.00     0.018 A 
ATOM     14  C   UNL     1      -2.331  -4.901  -0.764  1.00  0.00     0.013 A 
ATOM     15  C   UNL     1       0.035  -4.398  -0.726  1.00  0.00     0.013 A 
ATOM     16  C   UNL     1      -2.094  -5.992  -1.603  1.00  0.00     0.016 A 
ATOM     17  C   UNL     1       0.272  -5.488  -1.572  1.00  0.00     0.016 A 
ATOM     18  C   UNL     1      -0.793  -6.274  -2.011  1.00  0.00     0.018 A 
ATOM     19  Br  UNL     1      -0.465  -7.743  -3.154  1.00  0.00    -0.051 Br
ENDBRANCH  11  13
ENDBRANCH   9  11
ENDBRANCH   7   9
ENDBRANCH   4   7
ENDBRANCH   2   3
ENDBRANCH   1   2
BRANCH   1  20
ATOM     20  C   UNL     1       4.968  -0.686   2.429  1.00  0.00     0.023 C 
BRANCH  20  21
ATOM     21  C   UNL     1       5.929  -1.868   2.424  1.00  0.00     0.116 C 
BRANCH  21  22
ATOM     22  N   UNL     1       6.918  -1.786   1.361  1.00  0.00    -0.352 N 
ATOM     23  C   UNL     1       8.271  -2.001   1.411  1.00  0.00     0.251 C 
ATOM     24  H   UNL     1       6.564  -1.539   0.476  1.00  0.00     0.163 HD
ATOM     25  O   UNL     1       8.967  -1.744   0.431  1.00  0.00    -0.269 OA
BRANCH  23  26
ATOM     26  C   UNL     1       8.900  -2.513   2.647  1.00  0.00     0.039 A 
ATOM     27  C   UNL     1      10.101  -1.939   3.073  1.00  0.00     0.014 A 
ATOM     28  C   UNL     1       8.319  -3.550   3.383  1.00  0.00     0.014 A 
ATOM     29  C   UNL     1      10.687  -2.367   4.265  1.00  0.00     0.010 A 
ATOM     30  C   UNL     1       8.862  -3.918   4.612  1.00  0.00     0.010 A 
ATOM     31  C   UNL     1      10.055  -3.336   5.063  1.00  0.00    -0.014 A 
BRANCH  31  32
ATOM     32  C   UNL     1      10.638  -3.741   6.367  1.00  0.00     0.031 A 
ATOM     33  C   UNL     1      11.112  -5.152   6.588  1.00  0.00     0.074 A 
ATOM     34  C   UNL     1      10.715  -2.841   7.367  1.00  0.00     0.049 A 
ATOM     35  N   UNL     1      11.653  -5.682   7.656  1.00  0.00    -0.248 NA
ATOM     36  C   UNL     1      10.936  -6.097   5.473  1.00  0.00     0.031 C 
ATOM     37  C   UNL     1      10.245  -1.455   7.300  1.00  0.00     0.029 A 
ATOM     38  N   UNL     1      11.221  -2.957   8.638  1.00  0.00    -0.354 N 
ATOM     39  C   UNL     1      11.883  -7.015   7.341  1.00  0.00     0.074 A 
ATOM     40  C   UNL     1      11.362  -7.231   6.009  1.00  0.00     0.031 C 
ATOM     41  C   UNL     1      10.517  -0.842   8.463  1.00  0.00     0.029 A 
ATOM     42  C   UNL     1      11.144  -1.797   9.369  1.00  0.00     0.049 A 
ATOM     43  H   UNL     1      11.603  -3.793   8.991  1.00  0.00     0.167 HD
ATOM     44  C   UNL     1      12.498  -7.970   8.079  1.00  0.00     0.031 A 
ATOM     45  C   UNL     1      11.534  -1.531  10.630  1.00  0.00     0.031 A 
ATOM     46  C   UNL     1      13.012  -7.761   9.407  1.00  0.00     0.049 A 
ATOM     47  C   UNL     1      12.196  -2.614  11.436  1.00  0.00     0.074 A 
ATOM     48  C   UNL     1      13.678  -8.656  10.226  1.00  0.00     0.029 A 
ATOM     49  N   UNL     1      12.916  -6.571  10.112  1.00  0.00    -0.354 N 
ATOM     50  N   UNL     1      12.468  -3.850  11.096  1.00  0.00    -0.248 NA
ATOM     51  C   UNL     1      12.621  -2.256  12.797  1.00  0.00     0.031 C 
ATOM     52  C   UNL     1      13.941  -8.023  11.445  1.00  0.00     0.029 A 
ATOM     53  C   UNL     1      13.495  -6.714  11.362  1.00  0.00     0.049 A 
ATOM     54  H   UNL     1      12.498  -5.746   9.774  1.00  0.00     0.167 HD
ATOM     55  C   UNL     1      13.120  -4.409  12.188  1.00  0.00     0.074 A 
ATOM     56  C   UNL     1      13.225  -3.368  13.190  1.00  0.00     0.031 C 
ATOM     57  C   UNL     1      13.589  -5.670  12.349  1.00  0.00     0.031 A 
BRANCH  44  58
ATOM     58  C   UNL     1      12.655  -9.331   7.458  1.00  0.00    -0.014 A 
ATOM     59  C   UNL     1      13.530  -9.536   6.379  1.00  0.00     0.009 A 
ATOM     60  C   UNL     1      11.951 -10.428   7.977  1.00  0.00     0.009 A 
ATOM     61  C   UNL     1      13.671 -10.804   5.811  1.00  0.00     0.001 A 
ATOM     62  C   UNL     1      12.117 -11.701   7.427  1.00  0.00     0.001 A 
ATOM     63  C   UNL     1      12.968 -11.886   6.339  1.00  0.00     0.000 A 
ENDBRANCH  44  58
BRANCH  45  64
ATOM     64  C   UNL     1      11.321  -0.178  11.211  1.00  0.00    -0.014 A 
ATOM     65  C   UNL     1      12.411   0.658  11.501  1.00  0.00     0.009 A 
ATOM     66  C   UNL     1      10.025   0.273  11.504  1.00  0.00     0.009 A 
ATOM     67  C   UNL     1      12.209   1.900  12.108  1.00  0.00     0.001 A 
ATOM     68  C   UNL     1       9.823   1.530  12.079  1.00  0.00     0.001 A 
ATOM     69  C   UNL     1      10.916   2.336  12.393  1.00  0.00     0.000 A 
ENDBRANCH  45  64
BRANCH  57  70
ATOM     70  C   UNL     1      14.290  -5.979  13.643  1.00  0.00    -0.014 A 
ATOM     71  C   UNL     1      13.587  -6.058  14.856  1.00  0.00     0.009 A 
ATOM     72  C   UNL     1      15.674  -6.214  13.643  1.00  0.00     0.009 A 
ATOM     73  C   UNL     1      14.265  -6.319  16.049  1.00  0.00     0.001 A 
ATOM     74  C   UNL     1      16.343  -6.508  14.832  1.00  0.00     0.001 A 
ATOM     75  C   UNL     1      15.640  -6.548  16.035  1.00  0.00     0.000 A 
ENDBRANCH  57  70
ENDBRANCH  31  32
ENDBRANCH  23  26
ENDBRANCH  21  22
ENDBRANCH  20  21
ENDBRANCH   1  20
TORSDOF 14
