REMARK SMILES CC(=O)Nc1ccc(/C=C2/CCc3oc(C(=O)NCCCCNC(=O)c4ccc(-c5c6nc(c(-c7ccccc7)c7ccc([nH]7)c(-c7ccccc7)c7nc(c(-c8ccccc8)c8ccc5[nH]8)C=C7)C=C6)cc4)c(C)c3C2=O)cc1
REMARK SMILES IDX 20 1 19 2 18 3 16 4 17 5 15 7 9 8 10 9 11 10 77 11 12 12
REMARK SMILES IDX 76 13 78 14 13 15 74 16 14 17 75 18 8 19 5 20 6 21 80 22
REMARK SMILES IDX 7 23 79 24 4 25 1 26 2 27 3 28 21 30 22 31 23 32 24 33 25 35
REMARK SMILES IDX 26 36 27 37 73 38 28 39 72 40 29 41 30 42 31 43 66 44 32 45
REMARK SMILES IDX 71 46 65 47 67 48 33 49 70 50 64 51 63 52 34 54 56 55 41 56
REMARK SMILES IDX 55 57 42 58 45 59 54 60 68 61 43 62 44 63 53 65 69 66 46 67
REMARK SMILES IDX 35 68 36 69 40 70 37 71 39 72 38 73 57 74 58 75 62 76 59 77
REMARK SMILES IDX 61 78 60 79 47 80 48 81 52 82 49 83 51 84 50 85
REMARK H PARENT 18 6 4 29 23 34 67 53 45 64
REMARK Flexibility Score: inf
ROOT
ATOM      1  C   UNL     1       3.045 -13.714  -3.490  1.00  0.00     0.023 C 
ENDROOT
BRANCH   1   2
ATOM      2  C   UNL     1       1.781 -12.848  -3.452  1.00  0.00     0.116 C 
BRANCH   2   3
ATOM      3  N   UNL     1       0.987 -13.052  -2.248  1.00  0.00    -0.349 N 
ATOM      4  C   UNL     1       0.825 -12.297  -1.100  1.00  0.00     0.287 C 
ATOM      5  O   UNL     1       0.027 -12.754  -0.277  1.00  0.00    -0.266 OA
ATOM      6  H   UNL     1       0.465 -13.886  -2.252  1.00  0.00     0.163 HD
BRANCH   4   7
ATOM      7  C   UNL     1       1.550 -11.051  -0.888  1.00  0.00     0.195 A 
ATOM      8  C   UNL     1       3.820  -5.693  -0.481  1.00  0.00     0.016 C 
ATOM      9  C   UNL     1       3.819  -7.040  -0.440  1.00  0.00     0.001 C 
ATOM     10  C   UNL     1       4.708  -7.819  -1.407  1.00  0.00     0.048 C 
ATOM     11  C   UNL     1       2.971  -7.903   0.479  1.00  0.00     0.192 C 
ATOM     12  C   UNL     1       3.871  -8.726  -2.317  1.00  0.00     0.081 C 
ATOM     13  C   UNL     1       2.487  -9.104  -0.195  1.00  0.00     0.067 A 
ATOM     14  O   UNL     1       2.757  -7.649   1.647  1.00  0.00    -0.289 OA
ATOM     15  C   UNL     1       2.919  -9.443  -1.451  1.00  0.00     0.116 A 
ATOM     16  C   UNL     1       1.575 -10.145   0.183  1.00  0.00     0.012 A 
ATOM     17  O   UNL     1       2.389 -10.599  -1.868  1.00  0.00    -0.455 OA
ATOM     18  C   UNL     1       0.825 -10.209   1.468  1.00  0.00     0.049 C 
BRANCH   8  19
ATOM     19  C   UNL     1       3.038  -4.652   0.210  1.00  0.00    -0.025 A 
ATOM     20  C   UNL     1       1.549  -2.485   1.260  1.00  0.00     0.041 A 
ATOM     21  C   UNL     1       1.117  -3.798   1.438  1.00  0.00     0.027 A 
ATOM     22  C   UNL     1       2.756  -2.255   0.609  1.00  0.00     0.027 A 
ATOM     23  C   UNL     1       1.833  -4.865   0.879  1.00  0.00     0.010 A 
ATOM     24  C   UNL     1       3.495  -3.328   0.098  1.00  0.00     0.010 A 
BRANCH  20  25
ATOM     25  N   UNL     1       0.747  -1.462   1.784  1.00  0.00    -0.326 N 
ATOM     26  C   UNL     1       0.991   0.205  -0.043  1.00  0.00     0.114 C 
ATOM     27  C   UNL     1       0.545  -0.185   1.342  1.00  0.00     0.221 C 
ATOM     28  O   UNL     1      -0.077   0.607   2.052  1.00  0.00    -0.275 OA
ATOM     29  H   UNL     1       0.251  -1.702   2.600  1.00  0.00     0.169 HD
ENDBRANCH  20  25
ENDBRANCH   8  19
ENDBRANCH   4   7
ENDBRANCH   2   3
ENDBRANCH   1   2
BRANCH   1  30
ATOM     30  C   UNL     1       2.825 -15.205  -3.796  1.00  0.00     0.023 C 
BRANCH  30  31
ATOM     31  C   UNL     1       2.210 -15.503  -5.159  1.00  0.00     0.116 C 
BRANCH  31  32
ATOM     32  N   UNL     1       3.033 -15.075  -6.298  1.00  0.00    -0.352 N 
ATOM     33  C   UNL     1       2.696 -15.086  -7.645  1.00  0.00     0.251 C 
ATOM     34  H   UNL     1       3.933 -14.739  -6.079  1.00  0.00     0.163 HD
ATOM     35  O   UNL     1       3.549 -15.071  -8.522  1.00  0.00    -0.269 OA
BRANCH  33  36
ATOM     36  C   UNL     1       1.266 -15.089  -7.997  1.00  0.00     0.039 A 
ATOM     37  C   UNL     1       0.722 -15.888  -9.007  1.00  0.00     0.014 A 
ATOM     38  C   UNL     1       0.452 -14.296  -7.202  1.00  0.00     0.014 A 
ATOM     39  C   UNL     1      -0.667 -15.939  -9.139  1.00  0.00     0.010 A 
ATOM     40  C   UNL     1      -0.887 -14.546  -7.168  1.00  0.00     0.010 A 
ATOM     41  C   UNL     1      -1.466 -15.272  -8.197  1.00  0.00    -0.014 A 
BRANCH  41  42
ATOM     42  C   UNL     1      -2.921 -15.348  -8.200  1.00  0.00     0.031 A 
ATOM     43  C   UNL     1      -3.471 -16.722  -8.103  1.00  0.00     0.074 A 
ATOM     44  C   UNL     1      -3.695 -14.251  -8.024  1.00  0.00     0.049 A 
ATOM     45  N   UNL     1      -4.082 -17.392  -9.020  1.00  0.00    -0.248 NA
ATOM     46  C   UNL     1      -3.195 -17.497  -6.880  1.00  0.00     0.031 C 
ATOM     47  C   UNL     1      -3.258 -12.875  -7.727  1.00  0.00     0.029 A 
ATOM     48  N   UNL     1      -5.049 -14.151  -7.936  1.00  0.00    -0.354 N 
ATOM     49  C   UNL     1      -4.475 -18.584  -8.416  1.00  0.00     0.074 A 
ATOM     50  C   UNL     1      -3.729 -18.681  -7.188  1.00  0.00     0.031 C 
ATOM     51  C   UNL     1      -4.295 -12.159  -7.241  1.00  0.00     0.029 A 
ATOM     52  C   UNL     1      -5.499 -12.947  -7.403  1.00  0.00     0.049 A 
ATOM     53  H   UNL     1      -5.658 -14.868  -8.224  1.00  0.00     0.167 HD
ATOM     54  C   UNL     1      -5.609 -19.226  -8.816  1.00  0.00     0.031 A 
ATOM     55  C   UNL     1      -6.778 -12.612  -7.120  1.00  0.00     0.031 A 
ATOM     56  C   UNL     1      -6.130 -18.647 -10.027  1.00  0.00     0.049 A 
ATOM     57  C   UNL     1      -7.648 -13.498  -7.918  1.00  0.00     0.074 A 
ATOM     58  C   UNL     1      -5.808 -18.646 -11.365  1.00  0.00     0.029 A 
ATOM     59  N   UNL     1      -6.963 -17.581  -9.802  1.00  0.00    -0.354 N 
ATOM     60  N   UNL     1      -7.677 -13.481  -9.220  1.00  0.00    -0.248 NA
ATOM     61  C   UNL     1      -8.241 -14.672  -7.293  1.00  0.00     0.031 C 
ATOM     62  C   UNL     1      -6.295 -17.407 -11.882  1.00  0.00     0.029 A 
ATOM     63  C   UNL     1      -6.942 -16.713 -10.860  1.00  0.00     0.049 A 
ATOM     64  H   UNL     1      -7.503 -17.457  -8.989  1.00  0.00     0.167 HD
ATOM     65  C   UNL     1      -7.878 -14.802  -9.573  1.00  0.00     0.074 A 
ATOM     66  C   UNL     1      -8.399 -15.443  -8.373  1.00  0.00     0.031 C 
ATOM     67  C   UNL     1      -7.307 -15.321 -10.698  1.00  0.00     0.031 A 
BRANCH  54  68
ATOM     68  C   UNL     1      -6.534 -19.982  -7.884  1.00  0.00    -0.014 A 
ATOM     69  C   UNL     1      -7.666 -20.614  -8.434  1.00  0.00     0.009 A 
ATOM     70  C   UNL     1      -6.512 -19.843  -6.484  1.00  0.00     0.009 A 
ATOM     71  C   UNL     1      -8.738 -21.025  -7.632  1.00  0.00     0.001 A 
ATOM     72  C   UNL     1      -7.565 -20.285  -5.676  1.00  0.00     0.001 A 
ATOM     73  C   UNL     1      -8.690 -20.854  -6.253  1.00  0.00     0.000 A 
ENDBRANCH  54  68
BRANCH  55  74
ATOM     74  C   UNL     1      -7.306 -11.748  -6.047  1.00  0.00    -0.014 A 
ATOM     75  C   UNL     1      -8.584 -11.177  -6.151  1.00  0.00     0.009 A 
ATOM     76  C   UNL     1      -6.678 -11.737  -4.788  1.00  0.00     0.009 A 
ATOM     77  C   UNL     1      -9.235 -10.666  -5.021  1.00  0.00     0.001 A 
ATOM     78  C   UNL     1      -7.331 -11.229  -3.660  1.00  0.00     0.001 A 
ATOM     79  C   UNL     1      -8.617 -10.712  -3.773  1.00  0.00     0.000 A 
ENDBRANCH  55  74
BRANCH  67  80
ATOM     80  C   UNL     1      -6.862 -14.356 -11.761  1.00  0.00    -0.014 A 
ATOM     81  C   UNL     1      -5.803 -13.447 -11.600  1.00  0.00     0.009 A 
ATOM     82  C   UNL     1      -7.494 -14.434 -13.010  1.00  0.00     0.009 A 
ATOM     83  C   UNL     1      -5.404 -12.625 -12.661  1.00  0.00     0.001 A 
ATOM     84  C   UNL     1      -7.085 -13.628 -14.072  1.00  0.00     0.001 A 
ATOM     85  C   UNL     1      -6.043 -12.720 -13.896  1.00  0.00     0.000 A 
ENDBRANCH  67  80
ENDBRANCH  41  42
ENDBRANCH  33  36
ENDBRANCH  31  32
ENDBRANCH  30  31
ENDBRANCH   1  30
TORSDOF 13
