REMARK SMILES Cc1cc(C(=O)NCCCCNC(=O)c2ccc(-c3c4nc(c(-c5ccccc5)c5ccc([nH]5)c(-c5ccccc5)c5nc(c(-c6ccccc6)c6ccc3[nH]6)C=C5)C=C4)cc2)ccc1NC(=O)c1ccc(=O)n(CCOc2ccccc2)n1
REMARK SMILES IDX 5 1 6 2 7 3 4 5 1 6 2 7 3 8 65 9 64 10 63 11 66 12 67 13
REMARK SMILES IDX 68 15 69 16 70 17 84 18 71 19 74 20 72 21 73 22 75 23 76 24
REMARK SMILES IDX 77 25 78 26 79 27 83 28 80 29 82 30 81 31 8 32 9 33 10 34
REMARK SMILES IDX 11 35 12 36 13 37 14 39 15 40 16 41 62 42 17 43 61 44 18 45
REMARK SMILES IDX 19 46 20 47 55 48 21 49 60 50 54 51 56 52 22 53 59 54 53 55
REMARK SMILES IDX 52 56 23 58 45 59 30 60 44 61 31 62 34 63 43 64 57 65 32 66
REMARK SMILES IDX 33 67 42 69 58 70 35 71 24 72 25 73 29 74 26 75 28 76 27 77
REMARK SMILES IDX 46 78 47 79 51 80 48 81 50 82 49 83 36 84 37 85 41 86 38 87
REMARK SMILES IDX 40 88 39 89
REMARK H PARENT 7 4 66 14 12 38 56 57 34 68
REMARK Flexibility Score: inf
ROOT
ATOM      1  C   UNL     1      -1.547  -2.658  -0.179  1.00  0.00     0.251 C 
ATOM      2  O   UNL     1      -0.981  -3.747  -0.097  1.00  0.00    -0.269 OA
ATOM      3  N   UNL     1      -2.926  -2.628  -0.180  1.00  0.00    -0.352 N 
ATOM      4  H   UNL     1      -3.344  -3.509  -0.314  1.00  0.00     0.163 HD
ENDROOT
BRANCH   1   5
ATOM      5  C   UNL     1      -0.722  -1.425  -0.258  1.00  0.00     0.040 A 
ATOM      6  C   UNL     1       2.773  -0.303   0.746  1.00  0.00     0.046 C 
ATOM      7  C   UNL     1       1.338  -0.199   0.306  1.00  0.00    -0.027 A 
ATOM      8  C   UNL     1       0.562  -1.387   0.306  1.00  0.00     0.019 A 
ATOM      9  C   UNL     1       0.764   0.977  -0.196  1.00  0.00     0.044 A 
ATOM     10  C   UNL     1      -0.378   0.840  -0.977  1.00  0.00     0.027 A 
ATOM     11  C   UNL     1      -1.122  -0.333  -1.002  1.00  0.00     0.016 A 
BRANCH   9  12
ATOM     12  N   UNL     1       1.316   2.250   0.083  1.00  0.00    -0.320 N 
ATOM     13  C   UNL     1       0.678   3.481   0.192  1.00  0.00     0.276 C 
ATOM     14  H   UNL     1       2.291   2.266   0.220  1.00  0.00     0.170 HD
ATOM     15  O   UNL     1       1.291   4.517   0.422  1.00  0.00    -0.267 OA
BRANCH  13  16
ATOM     16  C   UNL     1      -0.830   3.554   0.036  1.00  0.00     0.149 A 
ATOM     17  C   UNL     1      -1.303   3.987  -1.295  1.00  0.00     0.042 A 
ATOM     18  N   UNL     1      -1.606   3.189   1.016  1.00  0.00    -0.164 NA
ATOM     19  C   UNL     1      -2.510   3.531  -1.635  1.00  0.00     0.076 A 
ATOM     20  N   UNL     1      -2.937   2.968   0.671  1.00  0.00    -0.226 N 
ATOM     21  C   UNL     1      -3.308   2.763  -0.651  1.00  0.00     0.266 A 
ATOM     22  O   UNL     1      -4.248   2.079  -1.040  1.00  0.00    -0.268 OA
BRANCH  20  23
ATOM     23  C   UNL     1      -3.891   2.740   1.759  1.00  0.00     0.190 C 
BRANCH  23  24
ATOM     24  C   UNL     1      -4.556   4.051   2.220  1.00  0.00     0.253 C 
BRANCH  24  25
ATOM     25  O   UNL     1      -5.812   4.283   1.546  1.00  0.00    -0.492 OA
BRANCH  25  26
ATOM     26  C   UNL     1      -5.738   5.289   0.626  1.00  0.00     0.119 A 
ATOM     27  C   UNL     1      -5.910   6.620   0.989  1.00  0.00     0.046 A 
ATOM     28  C   UNL     1      -5.588   4.953  -0.714  1.00  0.00     0.046 A 
ATOM     29  C   UNL     1      -5.814   7.616   0.012  1.00  0.00     0.004 A 
ATOM     30  C   UNL     1      -5.424   5.942  -1.680  1.00  0.00     0.004 A 
ATOM     31  C   UNL     1      -5.530   7.279  -1.314  1.00  0.00     0.000 A 
ENDBRANCH  25  26
ENDBRANCH  24  25
ENDBRANCH  23  24
ENDBRANCH  20  23
ENDBRANCH  13  16
ENDBRANCH   9  12
ENDBRANCH   1   5
BRANCH   3  32
ATOM     32  C   UNL     1      -3.885  -1.535  -0.018  1.00  0.00     0.116 C 
BRANCH  32  33
ATOM     33  C   UNL     1      -4.615  -1.145  -1.317  1.00  0.00     0.023 C 
BRANCH  33  34
ATOM     34  C   UNL     1      -5.446  -2.249  -1.968  1.00  0.00     0.023 C 
BRANCH  34  35
ATOM     35  C   UNL     1      -6.790  -2.483  -1.293  1.00  0.00     0.116 C 
BRANCH  35  36
ATOM     36  N   UNL     1      -7.881  -1.652  -1.795  1.00  0.00    -0.352 N 
ATOM     37  C   UNL     1      -9.199  -1.564  -1.369  1.00  0.00     0.251 C 
ATOM     38  H   UNL     1      -7.645  -1.064  -2.549  1.00  0.00     0.163 HD
ATOM     39  O   UNL     1      -9.989  -0.843  -1.960  1.00  0.00    -0.269 OA
BRANCH  37  40
ATOM     40  C   UNL     1      -9.609  -2.221  -0.099  1.00  0.00     0.039 A 
ATOM     41  C   UNL     1     -10.367  -1.461   0.802  1.00  0.00     0.014 A 
ATOM     42  C   UNL     1      -9.027  -3.411   0.317  1.00  0.00     0.014 A 
ATOM     43  C   UNL     1     -10.264  -1.724   2.164  1.00  0.00     0.010 A 
ATOM     44  C   UNL     1      -8.806  -3.589   1.666  1.00  0.00     0.010 A 
ATOM     45  C   UNL     1      -9.349  -2.685   2.582  1.00  0.00    -0.014 A 
BRANCH  45  46
ATOM     46  C   UNL     1      -8.751  -2.692   3.912  1.00  0.00     0.031 A 
ATOM     47  C   UNL     1      -9.043  -3.784   4.861  1.00  0.00     0.074 A 
ATOM     48  C   UNL     1      -7.819  -1.757   4.212  1.00  0.00     0.049 A 
ATOM     49  N   UNL     1      -8.883  -3.704   6.139  1.00  0.00    -0.248 NA
ATOM     50  C   UNL     1      -9.610  -5.057   4.431  1.00  0.00     0.031 C 
ATOM     51  C   UNL     1      -6.880  -1.770   5.332  1.00  0.00     0.029 A 
ATOM     52  N   UNL     1      -7.673  -0.474   3.675  1.00  0.00    -0.354 N 
ATOM     53  C   UNL     1      -8.991  -4.982   6.641  1.00  0.00     0.074 A 
ATOM     54  C   UNL     1      -9.564  -5.757   5.567  1.00  0.00     0.031 C 
ATOM     55  C   UNL     1      -6.504  -0.507   5.590  1.00  0.00     0.029 A 
ATOM     56  C   UNL     1      -7.315   0.356   4.747  1.00  0.00     0.049 A 
ATOM     57  H   UNL     1      -7.796  -0.208   2.735  1.00  0.00     0.167 HD
ATOM     58  C   UNL     1      -8.423  -5.277   7.846  1.00  0.00     0.031 A 
ATOM     59  C   UNL     1      -8.095   1.383   5.197  1.00  0.00     0.031 A 
ATOM     60  C   UNL     1      -7.922  -4.075   8.514  1.00  0.00     0.049 A 
ATOM     61  C   UNL     1      -8.466   1.247   6.659  1.00  0.00     0.074 A 
ATOM     62  C   UNL     1      -6.652  -3.547   8.680  1.00  0.00     0.029 A 
ATOM     63  N   UNL     1      -8.815  -3.072   8.873  1.00  0.00    -0.354 N 
ATOM     64  N   UNL     1      -8.390   0.128   7.323  1.00  0.00    -0.248 NA
ATOM     65  C   UNL     1      -9.001   2.339   7.468  1.00  0.00     0.031 C 
ATOM     66  C   UNL     1      -6.791  -2.185   9.056  1.00  0.00     0.029 A 
ATOM     67  C   UNL     1      -8.141  -1.900   9.151  1.00  0.00     0.049 A 
ATOM     68  H   UNL     1      -9.792  -3.183   8.923  1.00  0.00     0.167 HD
ATOM     69  C   UNL     1      -8.838   0.321   8.602  1.00  0.00     0.074 A 
ATOM     70  C   UNL     1      -9.208   1.724   8.647  1.00  0.00     0.031 C 
ATOM     71  C   UNL     1      -8.879  -0.696   9.510  1.00  0.00     0.031 A 
BRANCH  58  72
ATOM     72  C   UNL     1      -8.042  -6.683   8.271  1.00  0.00    -0.014 A 
ATOM     73  C   UNL     1      -7.027  -6.864   9.230  1.00  0.00     0.009 A 
ATOM     74  C   UNL     1      -8.568  -7.863   7.720  1.00  0.00     0.009 A 
ATOM     75  C   UNL     1      -6.506  -8.129   9.540  1.00  0.00     0.001 A 
ATOM     76  C   UNL     1      -8.037  -9.130   8.003  1.00  0.00     0.001 A 
ATOM     77  C   UNL     1      -6.993  -9.262   8.904  1.00  0.00     0.000 A 
ENDBRANCH  58  72
BRANCH  59  78
ATOM     78  C   UNL     1      -8.979   1.994   4.169  1.00  0.00    -0.014 A 
ATOM     79  C   UNL     1      -8.382   2.743   3.141  1.00  0.00     0.009 A 
ATOM     80  C   UNL     1     -10.298   1.552   3.994  1.00  0.00     0.009 A 
ATOM     81  C   UNL     1      -9.040   2.950   1.925  1.00  0.00     0.001 A 
ATOM     82  C   UNL     1     -10.960   1.770   2.777  1.00  0.00     0.001 A 
ATOM     83  C   UNL     1     -10.318   2.436   1.733  1.00  0.00     0.000 A 
ENDBRANCH  59  78
BRANCH  71  84
ATOM     84  C   UNL     1      -9.563  -0.652  10.851  1.00  0.00    -0.014 A 
ATOM     85  C   UNL     1     -10.643   0.187  11.154  1.00  0.00     0.009 A 
ATOM     86  C   UNL     1      -9.207  -1.610  11.827  1.00  0.00     0.009 A 
ATOM     87  C   UNL     1     -11.309   0.098  12.384  1.00  0.00     0.001 A 
ATOM     88  C   UNL     1      -9.896  -1.731  13.035  1.00  0.00     0.001 A 
ATOM     89  C   UNL     1     -10.944  -0.867  13.319  1.00  0.00     0.000 A 
ENDBRANCH  71  84
ENDBRANCH  45  46
ENDBRANCH  37  40
ENDBRANCH  35  36
ENDBRANCH  34  35
ENDBRANCH  33  34
ENDBRANCH  32  33
ENDBRANCH   3  32
TORSDOF 17
