REMARK SMILES O=C(NCCCCNC(=O)[C@H](CO)NC(=O)[C@H](Cc1c[nH]c2ccccc12)NC(=O)c1ccc(F)cc1)c1ccc(-c2c3nc(c(-c4ccccc4)c4ccc([nH]4)c(-c4ccccc4)c4nc(c(-c5ccccc5)c5ccc2[nH]5)C=C4)C=C3)cc1
REMARK SMILES IDX 6 1 5 2 4 3 3 4 1 5 2 6 38 8 39 9 85 10 40 11 84 12 41 13
REMARK SMILES IDX 42 14 43 15 78 16 44 17 83 18 77 19 79 20 45 21 82 22 76 23
REMARK SMILES IDX 75 24 46 26 68 27 53 28 67 29 54 30 57 31 66 32 80 33 55 34
REMARK SMILES IDX 56 35 65 37 81 38 58 39 47 40 48 41 52 42 49 43 51 44 50 45
REMARK SMILES IDX 69 46 70 47 74 48 71 49 73 50 72 51 59 52 60 53 64 54 61 55
REMARK SMILES IDX 63 56 62 57 7 58 8 59 9 60 10 62 11 63 14 64 15 65 16 67
REMARK SMILES IDX 17 68 28 69 29 70 30 72 31 73 32 74 37 75 33 76 36 77 34 78
REMARK SMILES IDX 35 79 18 80 19 81 20 82 27 83 21 84 22 85 26 86 23 88 25 89
REMARK SMILES IDX 24 90 12 91 13 92
REMARK H PARENT 3 7 79 25 57 36 8 61 14 66 28 71 21 87 13 93
REMARK Flexibility Score: inf
ROOT
ATOM      1  C   UNL     1       6.290  10.432  -4.234  1.00  0.00     0.023 C 
ENDROOT
BRANCH   1   2
ATOM      2  C   UNL     1       5.840   9.553  -5.390  1.00  0.00     0.023 C 
BRANCH   2   3
ATOM      3  C   UNL     1       4.800   8.494  -5.050  1.00  0.00     0.116 C 
BRANCH   3   4
ATOM      4  N   UNL     1       3.532   9.041  -4.586  1.00  0.00    -0.352 N 
ATOM      5  O   UNL     1       1.325   9.520  -4.619  1.00  0.00    -0.269 OA
ATOM      6  C   UNL     1       2.271   8.924  -5.127  1.00  0.00     0.251 C 
ATOM      7  H   UNL     1       3.584   9.576  -3.761  1.00  0.00     0.163 HD
BRANCH   6   8
ATOM      8  C   UNL     1       2.069   8.111  -6.347  1.00  0.00     0.039 A 
ATOM      9  C   UNL     1       2.611   6.829  -6.438  1.00  0.00     0.014 A 
ATOM     10  C   UNL     1       1.364   8.652  -7.427  1.00  0.00     0.014 A 
ATOM     11  C   UNL     1       2.617   6.171  -7.662  1.00  0.00     0.010 A 
ATOM     12  C   UNL     1       1.283   7.941  -8.630  1.00  0.00     0.010 A 
ATOM     13  C   UNL     1       1.949   6.715  -8.772  1.00  0.00    -0.014 A 
BRANCH  13  14
ATOM     14  C   UNL     1       1.926   5.950 -10.047  1.00  0.00     0.031 A 
ATOM     15  C   UNL     1       2.582   6.478 -11.294  1.00  0.00     0.074 A 
ATOM     16  C   UNL     1       1.345   4.735 -10.057  1.00  0.00     0.049 A 
ATOM     17  N   UNL     1       2.685   5.910 -12.471  1.00  0.00    -0.248 NA
ATOM     18  C   UNL     1       3.196   7.812 -11.220  1.00  0.00     0.031 C 
ATOM     19  C   UNL     1       0.676   4.111  -8.912  1.00  0.00     0.029 A 
ATOM     20  N   UNL     1       1.248   3.795 -11.050  1.00  0.00    -0.354 N 
ATOM     21  C   UNL     1       3.352   6.822 -13.280  1.00  0.00     0.074 A 
ATOM     22  C   UNL     1       3.615   7.989 -12.466  1.00  0.00     0.031 C 
ATOM     23  C   UNL     1       0.292   2.872  -9.249  1.00  0.00     0.029 A 
ATOM     24  C   UNL     1       0.626   2.638 -10.649  1.00  0.00     0.049 A 
ATOM     25  H   UNL     1       1.591   3.935 -11.963  1.00  0.00     0.167 HD
ATOM     26  C   UNL     1       3.713   6.697 -14.580  1.00  0.00     0.031 A 
ATOM     27  C   UNL     1       0.338   1.515 -11.330  1.00  0.00     0.031 A 
ATOM     28  C   UNL     1       3.458   5.532 -15.389  1.00  0.00     0.049 A 
ATOM     29  C   UNL     1       0.727   1.415 -12.773  1.00  0.00     0.074 A 
ATOM     30  C   UNL     1       3.813   5.303 -16.708  1.00  0.00     0.029 A 
ATOM     31  N   UNL     1       2.782   4.402 -14.957  1.00  0.00    -0.354 N 
ATOM     32  N   UNL     1       1.376   2.280 -13.513  1.00  0.00    -0.248 NA
ATOM     33  C   UNL     1       0.340   0.184 -13.476  1.00  0.00     0.031 C 
ATOM     34  C   UNL     1       3.312   4.053 -17.087  1.00  0.00     0.029 A 
ATOM     35  C   UNL     1       2.688   3.483 -15.990  1.00  0.00     0.049 A 
ATOM     36  H   UNL     1       2.422   4.271 -14.050  1.00  0.00     0.167 HD
ATOM     37  C   UNL     1       1.484   1.696 -14.767  1.00  0.00     0.074 A 
ATOM     38  C   UNL     1       0.854   0.394 -14.680  1.00  0.00     0.031 C 
ATOM     39  C   UNL     1       2.050   2.197 -15.891  1.00  0.00     0.031 A 
BRANCH  26  40
ATOM     40  C   UNL     1       4.404   7.865 -15.228  1.00  0.00    -0.014 A 
ATOM     41  C   UNL     1       5.742   8.174 -14.940  1.00  0.00     0.009 A 
ATOM     42  C   UNL     1       3.721   8.632 -16.185  1.00  0.00     0.009 A 
ATOM     43  C   UNL     1       6.373   9.245 -15.578  1.00  0.00     0.001 A 
ATOM     44  C   UNL     1       4.361   9.688 -16.838  1.00  0.00     0.001 A 
ATOM     45  C   UNL     1       5.685   9.998 -16.529  1.00  0.00     0.000 A 
ENDBRANCH  26  40
BRANCH  27  46
ATOM     46  C   UNL     1      -0.373   0.405 -10.647  1.00  0.00    -0.014 A 
ATOM     47  C   UNL     1       0.294  -0.789 -10.340  1.00  0.00     0.009 A 
ATOM     48  C   UNL     1      -1.719   0.549 -10.275  1.00  0.00     0.009 A 
ATOM     49  C   UNL     1      -0.378  -1.823  -9.685  1.00  0.00     0.001 A 
ATOM     50  C   UNL     1      -2.380  -0.474  -9.595  1.00  0.00     0.001 A 
ATOM     51  C   UNL     1      -1.711  -1.663  -9.307  1.00  0.00     0.000 A 
ENDBRANCH  27  46
BRANCH  39  52
ATOM     52  C   UNL     1       2.028   1.320 -17.109  1.00  0.00    -0.014 A 
ATOM     53  C   UNL     1       0.844   1.122 -17.837  1.00  0.00     0.009 A 
ATOM     54  C   UNL     1       3.209   0.700 -17.543  1.00  0.00     0.009 A 
ATOM     55  C   UNL     1       0.839   0.291 -18.959  1.00  0.00     0.001 A 
ATOM     56  C   UNL     1       3.205  -0.110 -18.679  1.00  0.00     0.001 A 
ATOM     57  C   UNL     1       2.019  -0.321 -19.380  1.00  0.00     0.000 A 
ENDBRANCH  39  52
ENDBRANCH  13  14
ENDBRANCH   6   8
ENDBRANCH   3   4
ENDBRANCH   2   3
ENDBRANCH   1   2
BRANCH   1  58
ATOM     58  C   UNL     1       6.765   9.710  -2.983  1.00  0.00     0.116 C 
BRANCH  58  59
ATOM     59  N   UNL     1       7.942   8.880  -3.130  1.00  0.00    -0.354 N 
ATOM     60  C   UNL     1       8.911   8.616  -2.195  1.00  0.00     0.244 C 
ATOM     61  H   UNL     1       8.063   8.453  -4.009  1.00  0.00     0.163 HD
ATOM     62  O   UNL     1       9.683   7.678  -2.412  1.00  0.00    -0.273 OA
BRANCH  60  63
ATOM     63  C   UNL     1       9.041   9.475  -0.918  1.00  0.00     0.197 C 
BRANCH  63  64
ATOM     64  N   UNL     1       8.961   8.608   0.274  1.00  0.00    -0.340 N 
ATOM     65  C   UNL     1       8.079   8.460   1.304  1.00  0.00     0.243 C 
ATOM     66  H   UNL     1       9.725   7.990   0.342  1.00  0.00     0.164 HD
ATOM     67  O   UNL     1       8.408   7.648   2.179  1.00  0.00    -0.273 OA
BRANCH  65  68
ATOM     68  C   UNL     1       6.678   9.141   1.401  1.00  0.00     0.176 C 
BRANCH  68  69
ATOM     69  N   UNL     1       6.468  10.154   0.391  1.00  0.00    -0.340 N 
ATOM     70  C   UNL     1       6.284  11.502   0.422  1.00  0.00     0.251 C 
ATOM     71  H   UNL     1       6.454   9.787  -0.523  1.00  0.00     0.164 HD
ATOM     72  O   UNL     1       5.962  12.069  -0.622  1.00  0.00    -0.269 OA
BRANCH  70  73
ATOM     73  C   UNL     1       6.433  12.288   1.656  1.00  0.00     0.040 A 
ATOM     74  C   UNL     1       7.552  12.171   2.487  1.00  0.00     0.017 A 
ATOM     75  C   UNL     1       5.457  13.262   1.915  1.00  0.00     0.017 A 
ATOM     76  C   UNL     1       7.670  13.009   3.599  1.00  0.00     0.040 A 
ATOM     77  C   UNL     1       5.581  14.096   3.024  1.00  0.00     0.040 A 
ATOM     78  C   UNL     1       6.685  13.959   3.857  1.00  0.00     0.123 A 
ATOM     79  F   UNL     1       6.811  14.768   4.917  1.00  0.00    -0.207 F 
ENDBRANCH  70  73
ENDBRANCH  68  69
BRANCH  68  80
ATOM     80  C   UNL     1       5.619   8.002   1.301  1.00  0.00     0.072 C 
BRANCH  80  81
ATOM     81  C   UNL     1       4.208   8.341   0.848  1.00  0.00    -0.020 A 
ATOM     82  C   UNL     1       3.814   9.064  -0.267  1.00  0.00     0.087 A 
ATOM     83  C   UNL     1       2.985   7.840   1.429  1.00  0.00     0.003 A 
ATOM     84  N   UNL     1       2.449   9.069  -0.350  1.00  0.00    -0.361 N 
ATOM     85  C   UNL     1       1.920   8.302   0.652  1.00  0.00     0.046 A 
ATOM     86  C   UNL     1       2.682   7.005   2.525  1.00  0.00     0.010 A 
ATOM     87  H   UNL     1       1.925   9.553  -1.029  1.00  0.00     0.166 HD
ATOM     88  C   UNL     1       0.583   7.980   0.905  1.00  0.00     0.026 A 
ATOM     89  C   UNL     1       1.347   6.667   2.792  1.00  0.00     0.001 A 
ATOM     90  C   UNL     1       0.314   7.148   1.990  1.00  0.00     0.002 A 
ENDBRANCH  80  81
ENDBRANCH  68  80
ENDBRANCH  65  68
ENDBRANCH  63  64
BRANCH  63  91
ATOM     91  C   UNL     1      10.386  10.230  -0.983  1.00  0.00     0.191 C 
BRANCH  91  92
ATOM     92  O   UNL     1      10.170  11.623  -1.235  1.00  0.00    -0.394 OA
ATOM     93  H   UNL     1       9.715  11.732  -2.085  1.00  0.00     0.210 HD
ENDBRANCH  91  92
ENDBRANCH  63  91
ENDBRANCH  60  63
ENDBRANCH  58  59
ENDBRANCH   1  58
TORSDOF 19
