REMARK SMILES O=C(NCCCCNC(=O)c1ccc(-c2c3nc(c(-c4ccccc4)c4ccc([nH]4)c(-c4ccccc4)c4nc(c(-c5ccccc5)c5ccc2[nH]5)C=C4)C=C3)cc1)c1ccc(NC(=O)[C@@H]2CC=CC[C@H]2C(=O)Nc2cccc([N+](=O)[O-])c2)cc1
REMARK SMILES IDX 4 1 3 2 1 3 2 4 59 6 60 7 85 8 61 9 84 10 62 11 63 12 64 13
REMARK SMILES IDX 65 15 66 16 67 17 71 18 68 19 70 20 69 21 72 22 73 23 74 24
REMARK SMILES IDX 75 26 76 27 83 28 77 29 79 30 78 31 80 32 81 33 82 34 5 35
REMARK SMILES IDX 6 36 7 37 8 38 9 39 10 41 11 42 12 43 58 44 13 45 57 46
REMARK SMILES IDX 14 47 15 48 16 49 51 50 17 51 56 52 50 53 52 54 18 55 55 56
REMARK SMILES IDX 49 57 48 58 19 60 41 61 26 62 40 63 27 64 30 65 39 66 53 67
REMARK SMILES IDX 28 68 29 69 38 71 54 72 31 73 20 74 21 75 25 76 22 77 24 78
REMARK SMILES IDX 23 79 42 80 43 81 47 82 44 83 46 84 45 85 32 86 33 87 37 88
REMARK SMILES IDX 34 89 36 90 35 91
REMARK H PARENT 3 5 63 14 74 25 8 40 52 59 30 70
REMARK Flexibility Score: inf
ROOT
ATOM      1  C   UNL     1      10.076  -9.305  -0.458  1.00  0.00     0.116 C 
ENDROOT
BRANCH   1   2
ATOM      2  N   UNL     1      11.458  -8.888  -0.519  1.00  0.00    -0.352 N 
ATOM      3  O   UNL     1      13.287  -7.644  -0.681  1.00  0.00    -0.269 OA
ATOM      4  C   UNL     1      12.054  -7.662  -0.681  1.00  0.00     0.251 C 
ATOM      5  H   UNL     1      12.098  -9.630  -0.426  1.00  0.00     0.163 HD
BRANCH   4   6
ATOM      6  C   UNL     1      11.311  -6.367  -0.749  1.00  0.00     0.039 A 
ATOM      7  C   UNL     1       9.994  -6.189  -1.183  1.00  0.00     0.016 A 
ATOM      8  C   UNL     1      12.004  -5.242  -0.285  1.00  0.00     0.016 A 
ATOM      9  C   UNL     1       9.307  -4.991  -0.901  1.00  0.00     0.027 A 
ATOM     10  C   UNL     1      11.341  -4.036  -0.066  1.00  0.00     0.027 A 
ATOM     11  C   UNL     1       9.960  -3.958  -0.238  1.00  0.00     0.041 A 
BRANCH  11  12
ATOM     12  N   UNL     1       9.350  -2.825   0.301  1.00  0.00    -0.326 N 
ATOM     13  C   UNL     1       8.187  -2.599   0.968  1.00  0.00     0.228 C 
ATOM     14  H   UNL     1       9.881  -2.007   0.171  1.00  0.00     0.169 HD
ATOM     15  O   UNL     1       8.013  -1.419   1.301  1.00  0.00    -0.274 OA
BRANCH  13  16
ATOM     16  C   UNL     1       7.140  -3.685   1.300  1.00  0.00     0.095 C 
ATOM     17  C   UNL     1       5.898  -2.930   1.862  1.00  0.00     0.041 C 
ATOM     18  C   UNL     1       7.606  -4.814   2.252  1.00  0.00     0.095 C 
ATOM     19  C   UNL     1       4.910  -3.725   2.650  1.00  0.00    -0.030 C 
ATOM     20  C   UNL     1       6.640  -5.342   3.347  1.00  0.00     0.041 C 
ATOM     21  C   UNL     1       5.254  -4.812   3.338  1.00  0.00    -0.030 C 
BRANCH  18  22
ATOM     22  C   UNL     1       8.139  -6.099   1.638  1.00  0.00     0.228 C 
ATOM     23  O   UNL     1       9.288  -6.457   1.949  1.00  0.00    -0.274 OA
ATOM     24  N   UNL     1       7.439  -7.033   0.942  1.00  0.00    -0.326 N 
ATOM     25  H   UNL     1       7.958  -7.868   0.897  1.00  0.00     0.169 HD
BRANCH  24  26
ATOM     26  C   UNL     1       6.219  -7.200   0.267  1.00  0.00     0.048 A 
ATOM     27  C   UNL     1       5.906  -8.523  -0.098  1.00  0.00     0.026 A 
ATOM     28  C   UNL     1       5.338  -6.203  -0.121  1.00  0.00     0.111 A 
ATOM     29  C   UNL     1       4.743  -8.840  -0.812  1.00  0.00     0.009 A 
ATOM     30  C   UNL     1       4.189  -6.511  -0.873  1.00  0.00     0.271 A 
ATOM     31  C   UNL     1       3.876  -7.828  -1.209  1.00  0.00     0.086 A 
BRANCH  30  32
ATOM     32  N   UNL     1       3.320  -5.419  -1.327  1.00  0.00     0.062 N 
ATOM     33  O   UNL     1       2.167  -5.706  -1.672  1.00  0.00    -0.258 OA
ATOM     34  O   UNL     1       3.803  -4.277  -1.349  1.00  0.00    -0.258 OA
ENDBRANCH  30  32
ENDBRANCH  24  26
ENDBRANCH  18  22
ENDBRANCH  13  16
ENDBRANCH  11  12
ENDBRANCH   4   6
ENDBRANCH   1   2
BRANCH   1  35
ATOM     35  C   UNL     1       9.649  -9.970  -1.765  1.00  0.00     0.023 C 
BRANCH  35  36
ATOM     36  C   UNL     1       9.922 -11.475  -1.800  1.00  0.00     0.023 C 
BRANCH  36  37
ATOM     37  C   UNL     1       9.089 -12.302  -0.823  1.00  0.00     0.116 C 
BRANCH  37  38
ATOM     38  N   UNL     1       7.657 -12.226  -1.072  1.00  0.00    -0.352 N 
ATOM     39  C   UNL     1       6.725 -13.240  -1.128  1.00  0.00     0.251 C 
ATOM     40  H   UNL     1       7.303 -11.320  -1.223  1.00  0.00     0.163 HD
ATOM     41  O   UNL     1       5.566 -12.991  -1.420  1.00  0.00    -0.269 OA
BRANCH  39  42
ATOM     42  C   UNL     1       7.159 -14.634  -0.883  1.00  0.00     0.039 A 
ATOM     43  C   UNL     1       6.823 -15.617  -1.819  1.00  0.00     0.014 A 
ATOM     44  C   UNL     1       7.951 -14.955   0.221  1.00  0.00     0.014 A 
ATOM     45  C   UNL     1       7.365 -16.899  -1.696  1.00  0.00     0.010 A 
ATOM     46  C   UNL     1       8.555 -16.207   0.294  1.00  0.00     0.010 A 
ATOM     47  C   UNL     1       8.278 -17.190  -0.669  1.00  0.00    -0.014 A 
BRANCH  47  48
ATOM     48  C   UNL     1       8.975 -18.501  -0.603  1.00  0.00     0.031 A 
ATOM     49  C   UNL     1       8.785 -19.406   0.583  1.00  0.00     0.074 A 
ATOM     50  C   UNL     1       9.841 -18.849  -1.578  1.00  0.00     0.049 A 
ATOM     51  N   UNL     1       9.352 -20.558   0.843  1.00  0.00    -0.248 NA
ATOM     52  C   UNL     1       7.858 -18.944   1.629  1.00  0.00     0.031 C 
ATOM     53  C   UNL     1      10.158 -18.044  -2.760  1.00  0.00     0.029 A 
ATOM     54  N   UNL     1      10.618 -19.971  -1.724  1.00  0.00    -0.354 N 
ATOM     55  C   UNL     1       8.864 -20.948   2.083  1.00  0.00     0.074 A 
ATOM     56  C   UNL     1       7.998 -19.886   2.549  1.00  0.00     0.031 C 
ATOM     57  C   UNL     1      11.037 -18.713  -3.525  1.00  0.00     0.029 A 
ATOM     58  C   UNL     1      11.379 -19.971  -2.870  1.00  0.00     0.049 A 
ATOM     59  H   UNL     1      10.630 -20.708  -1.071  1.00  0.00     0.167 HD
ATOM     60  C   UNL     1       9.095 -22.094   2.766  1.00  0.00     0.031 A 
ATOM     61  C   UNL     1      12.257 -20.877  -3.340  1.00  0.00     0.031 A 
ATOM     62  C   UNL     1       9.947 -23.156   2.302  1.00  0.00     0.049 A 
ATOM     63  C   UNL     1      12.507 -22.136  -2.557  1.00  0.00     0.074 A 
ATOM     64  C   UNL     1      10.196 -24.382   2.896  1.00  0.00     0.029 A 
ATOM     65  N   UNL     1      10.692 -23.118   1.135  1.00  0.00    -0.354 N 
ATOM     66  N   UNL     1      11.978 -22.522  -1.421  1.00  0.00    -0.248 NA
ATOM     67  C   UNL     1      13.470 -23.089  -3.128  1.00  0.00     0.031 C 
ATOM     68  C   UNL     1      11.134 -25.064   2.114  1.00  0.00     0.029 A 
ATOM     69  C   UNL     1      11.422 -24.288   1.003  1.00  0.00     0.049 A 
ATOM     70  H   UNL     1      10.701 -22.371   0.494  1.00  0.00     0.167 HD
ATOM     71  C   UNL     1      12.520 -23.773  -1.157  1.00  0.00     0.074 A 
ATOM     72  C   UNL     1      13.406 -24.088  -2.258  1.00  0.00     0.031 C 
ATOM     73  C   UNL     1      12.302 -24.589  -0.097  1.00  0.00     0.031 A 
BRANCH  60  74
ATOM     74  C   UNL     1       8.416 -22.254   4.098  1.00  0.00    -0.014 A 
ATOM     75  C   UNL     1       7.026 -22.436   4.189  1.00  0.00     0.009 A 
ATOM     76  C   UNL     1       9.178 -22.256   5.277  1.00  0.00     0.009 A 
ATOM     77  C   UNL     1       6.410 -22.577   5.434  1.00  0.00     0.001 A 
ATOM     78  C   UNL     1       8.563 -22.428   6.518  1.00  0.00     0.001 A 
ATOM     79  C   UNL     1       7.179 -22.578   6.597  1.00  0.00     0.000 A 
ENDBRANCH  60  74
BRANCH  61  80
ATOM     80  C   UNL     1      12.956 -20.640  -4.631  1.00  0.00    -0.014 A 
ATOM     81  C   UNL     1      12.646 -21.413  -5.761  1.00  0.00     0.009 A 
ATOM     82  C   UNL     1      13.944 -19.649  -4.738  1.00  0.00     0.009 A 
ATOM     83  C   UNL     1      13.330 -21.218  -6.963  1.00  0.00     0.001 A 
ATOM     84  C   UNL     1      14.606 -19.436  -5.950  1.00  0.00     0.001 A 
ATOM     85  C   UNL     1      14.306 -20.227  -7.058  1.00  0.00     0.000 A 
ENDBRANCH  61  80
BRANCH  73  86
ATOM     86  C   UNL     1      13.005 -25.917  -0.093  1.00  0.00    -0.014 A 
ATOM     87  C   UNL     1      14.388 -26.012   0.128  1.00  0.00     0.009 A 
ATOM     88  C   UNL     1      12.263 -27.095  -0.275  1.00  0.00     0.009 A 
ATOM     89  C   UNL     1      15.018 -27.258   0.133  1.00  0.00     0.001 A 
ATOM     90  C   UNL     1      12.891 -28.341  -0.239  1.00  0.00     0.001 A 
ATOM     91  C   UNL     1      14.269 -28.421  -0.045  1.00  0.00     0.000 A 
ENDBRANCH  73  86
ENDBRANCH  47  48
ENDBRANCH  39  42
ENDBRANCH  37  38
ENDBRANCH  36  37
ENDBRANCH  35  36
ENDBRANCH   1  35
TORSDOF 16
