REMARK SMILES C/C(=N\Nc1nc(-c2ccc(Cl)cc2)cs1)c1nnn(-c2ccc(C(=O)NCCCCNC(=O)c3ccc(-c4c5nc(c(-c6ccccc6)c6ccc([nH]6)c(-c6ccccc6)c6nc(c(-c7ccccc7)c7ccc4[nH]7)C=C6)C=C5)cc3)cc2)c1C
REMARK SMILES IDX 28 1 27 2 25 3 26 4 24 6 21 7 22 8 84 9 23 10 83 11 20 12
REMARK SMILES IDX 17 13 18 14 85 15 19 16 86 17 2 18 1 19 3 20 4 21 5 23 6 24
REMARK SMILES IDX 16 25 7 26 15 27 8 28 9 29 14 30 10 31 13 32 11 33 12 34
REMARK SMILES IDX 29 35 30 36 31 37 32 38 33 39 34 41 35 42 36 43 82 44 37 45
REMARK SMILES IDX 81 46 38 47 39 48 40 49 75 50 41 51 80 52 74 53 76 54 42 55
REMARK SMILES IDX 79 56 73 57 72 58 43 60 65 61 50 62 64 63 51 64 54 65 63 66
REMARK SMILES IDX 77 67 52 68 53 69 62 71 78 72 55 73 44 74 45 75 49 76 46 77
REMARK SMILES IDX 48 78 47 79 66 80 67 81 71 82 68 83 70 84 69 85 56 86 57 87
REMARK SMILES IDX 61 88 58 89 60 90 59 91
REMARK H PARENT 27 5 4 22 32 40 76 59 54 70
REMARK Flexibility Score: inf
ROOT
ATOM      1  C   UNL     1       8.353   3.339  -5.069  1.00  0.00     0.116 C 
ENDROOT
BRANCH   1   2
ATOM      2  N   UNL     1       7.928   4.724  -5.201  1.00  0.00    -0.352 N 
ATOM      3  C   UNL     1       6.706   5.348  -5.106  1.00  0.00     0.251 C 
ATOM      4  O   UNL     1       6.695   6.577  -5.186  1.00  0.00    -0.269 OA
ATOM      5  H   UNL     1       8.668   5.342  -5.400  1.00  0.00     0.163 HD
BRANCH   3   6
ATOM      6  C   UNL     1       5.423   4.630  -4.851  1.00  0.00     0.039 A 
ATOM      7  C   UNL     1       3.073   3.344  -4.051  1.00  0.00     0.067 A 
ATOM      8  C   UNL     1       3.174   4.723  -3.881  1.00  0.00     0.029 A 
ATOM      9  C   UNL     1       4.066   2.631  -4.724  1.00  0.00     0.029 A 
ATOM     10  C   UNL     1       4.364   5.356  -4.264  1.00  0.00     0.016 A 
ATOM     11  C   UNL     1       5.216   3.284  -5.155  1.00  0.00     0.016 A 
BRANCH   7  12
ATOM     12  N   UNL     1       2.064   2.619  -3.398  1.00  0.00    -0.217 N 
ATOM     13  C   UNL     1       0.975   1.187  -2.174  1.00  0.00     0.132 A 
ATOM     14  N   UNL     1       0.083   1.879  -2.955  1.00  0.00    -0.128 NA
ATOM     15  C   UNL     1       2.256   1.655  -2.428  1.00  0.00     0.071 A 
ATOM     16  N   UNL     1       0.752   2.814  -3.623  1.00  0.00    -0.061 NA
ATOM     17  C   UNL     1       3.573   1.371  -1.797  1.00  0.00     0.069 C 
BRANCH  13  18
ATOM     18  C   UNL     1       0.597   0.190  -1.179  1.00  0.00     0.087 C 
ATOM     19  C   UNL     1       1.212   0.373   0.186  1.00  0.00     0.071 C 
ATOM     20  N   UNL     1      -0.179  -0.774  -1.595  1.00  0.00    -0.176 NA
BRANCH  20  21
ATOM     21  N   UNL     1      -0.517  -1.876  -0.838  1.00  0.00    -0.252 N 
ATOM     22  H   UNL     1      -0.880  -2.631  -1.354  1.00  0.00     0.193 HD
BRANCH  21  23
ATOM     23  C   UNL     1      -0.433  -2.093   0.499  1.00  0.00     0.203 A 
ATOM     24  N   UNL     1      -0.664  -1.209   1.440  1.00  0.00    -0.219 NA
ATOM     25  S   UNL     1       0.134  -3.612   1.104  1.00  0.00    -0.103 S 
ATOM     26  C   UNL     1      -0.061  -1.591   2.620  1.00  0.00     0.084 A 
ATOM     27  C   UNL     1       0.437  -2.876   2.631  1.00  0.00     0.097 A 
BRANCH  26  28
ATOM     28  C   UNL     1       0.107  -0.614   3.679  1.00  0.00     0.001 A 
ATOM     29  C   UNL     1      -1.000   0.126   4.112  1.00  0.00     0.012 A 
ATOM     30  C   UNL     1       1.382  -0.297   4.170  1.00  0.00     0.012 A 
ATOM     31  C   UNL     1      -0.842   1.153   5.047  1.00  0.00     0.021 A 
ATOM     32  C   UNL     1       1.541   0.739   5.096  1.00  0.00     0.021 A 
ATOM     33  C   UNL     1       0.428   1.455   5.533  1.00  0.00     0.041 A 
ATOM     34  Cl  UNL     1       0.627   2.735   6.665  1.00  0.00    -0.084 Cl
ENDBRANCH  26  28
ENDBRANCH  21  23
ENDBRANCH  20  21
ENDBRANCH  13  18
ENDBRANCH   7  12
ENDBRANCH   3   6
ENDBRANCH   1   2
BRANCH   1  35
ATOM     35  C   UNL     1       8.514   2.659  -6.435  1.00  0.00     0.023 C 
BRANCH  35  36
ATOM     36  C   UNL     1       9.764   3.069  -7.228  1.00  0.00     0.023 C 
BRANCH  36  37
ATOM     37  C   UNL     1      11.087   2.618  -6.619  1.00  0.00     0.116 C 
BRANCH  37  38
ATOM     38  N   UNL     1      11.209   1.164  -6.539  1.00  0.00    -0.352 N 
ATOM     39  C   UNL     1      12.170   0.426  -5.873  1.00  0.00     0.251 C 
ATOM     40  H   UNL     1      10.523   0.646  -7.018  1.00  0.00     0.163 HD
ATOM     41  O   UNL     1      12.417  -0.724  -6.195  1.00  0.00    -0.269 OA
BRANCH  39  42
ATOM     42  C   UNL     1      12.886   1.050  -4.746  1.00  0.00     0.039 A 
ATOM     43  C   UNL     1      14.268   0.900  -4.599  1.00  0.00     0.014 A 
ATOM     44  C   UNL     1      12.148   1.810  -3.840  1.00  0.00     0.014 A 
ATOM     45  C   UNL     1      14.916   1.596  -3.582  1.00  0.00     0.010 A 
ATOM     46  C   UNL     1      12.799   2.582  -2.908  1.00  0.00     0.010 A 
ATOM     47  C   UNL     1      14.179   2.457  -2.753  1.00  0.00    -0.014 A 
BRANCH  47  48
ATOM     48  C   UNL     1      14.864   3.384  -1.851  1.00  0.00     0.031 A 
ATOM     49  C   UNL     1      15.823   4.292  -2.542  1.00  0.00     0.074 A 
ATOM     50  C   UNL     1      14.471   3.586  -0.573  1.00  0.00     0.049 A 
ATOM     51  N   UNL     1      17.101   4.374  -2.372  1.00  0.00    -0.248 NA
ATOM     52  C   UNL     1      15.319   5.112  -3.661  1.00  0.00     0.031 C 
ATOM     53  C   UNL     1      13.323   2.970   0.107  1.00  0.00     0.029 A 
ATOM     54  N   UNL     1      14.909   4.491   0.350  1.00  0.00    -0.354 N 
ATOM     55  C   UNL     1      17.526   5.414  -3.196  1.00  0.00     0.074 A 
ATOM     56  C   UNL     1      16.441   5.682  -4.103  1.00  0.00     0.031 C 
ATOM     57  C   UNL     1      13.003   3.692   1.202  1.00  0.00     0.029 A 
ATOM     58  C   UNL     1      14.012   4.717   1.394  1.00  0.00     0.049 A 
ATOM     59  H   UNL     1      15.781   4.943   0.285  1.00  0.00     0.167 HD
ATOM     60  C   UNL     1      18.599   6.182  -2.856  1.00  0.00     0.031 A 
ATOM     61  C   UNL     1      14.063   5.699   2.328  1.00  0.00     0.031 A 
ATOM     62  C   UNL     1      19.390   5.549  -1.830  1.00  0.00     0.049 A 
ATOM     63  C   UNL     1      15.442   6.223   2.345  1.00  0.00     0.074 A 
ATOM     64  C   UNL     1      20.097   4.372  -1.704  1.00  0.00     0.029 A 
ATOM     65  N   UNL     1      19.185   6.017  -0.557  1.00  0.00    -0.354 N 
ATOM     66  N   UNL     1      16.466   5.540   2.763  1.00  0.00    -0.248 NA
ATOM     67  C   UNL     1      15.755   7.380   1.525  1.00  0.00     0.031 C 
ATOM     68  C   UNL     1      19.930   3.979  -0.342  1.00  0.00     0.029 A 
ATOM     69  C   UNL     1      19.195   4.968   0.317  1.00  0.00     0.049 A 
ATOM     70  H   UNL     1      19.052   6.961  -0.312  1.00  0.00     0.167 HD
ATOM     71  C   UNL     1      17.485   5.878   1.888  1.00  0.00     0.074 A 
ATOM     72  C   UNL     1      17.036   7.117   1.256  1.00  0.00     0.031 C 
ATOM     73  C   UNL     1      18.440   4.960   1.552  1.00  0.00     0.031 A 
BRANCH  60  74
ATOM     74  C   UNL     1      18.624   7.691  -3.041  1.00  0.00    -0.014 A 
ATOM     75  C   UNL     1      19.750   8.401  -2.581  1.00  0.00     0.009 A 
ATOM     76  C   UNL     1      17.482   8.459  -3.339  1.00  0.00     0.009 A 
ATOM     77  C   UNL     1      19.698   9.780  -2.338  1.00  0.00     0.001 A 
ATOM     78  C   UNL     1      17.440   9.842  -3.139  1.00  0.00     0.001 A 
ATOM     79  C   UNL     1      18.538  10.498  -2.606  1.00  0.00     0.000 A 
ENDBRANCH  60  74
BRANCH  61  80
ATOM     80  C   UNL     1      12.967   6.392   3.044  1.00  0.00    -0.014 A 
ATOM     81  C   UNL     1      13.233   7.158   4.192  1.00  0.00     0.009 A 
ATOM     82  C   UNL     1      11.707   6.542   2.439  1.00  0.00     0.009 A 
ATOM     83  C   UNL     1      12.294   8.076   4.683  1.00  0.00     0.001 A 
ATOM     84  C   UNL     1      10.767   7.455   2.932  1.00  0.00     0.001 A 
ATOM     85  C   UNL     1      11.068   8.236   4.043  1.00  0.00     0.000 A 
ENDBRANCH  61  80
BRANCH  73  86
ATOM     86  C   UNL     1      18.575   3.740   2.430  1.00  0.00    -0.014 A 
ATOM     87  C   UNL     1      17.539   2.818   2.665  1.00  0.00     0.009 A 
ATOM     88  C   UNL     1      19.839   3.468   2.975  1.00  0.00     0.009 A 
ATOM     89  C   UNL     1      17.753   1.689   3.463  1.00  0.00     0.001 A 
ATOM     90  C   UNL     1      20.060   2.328   3.748  1.00  0.00     0.001 A 
ATOM     91  C   UNL     1      19.014   1.445   4.003  1.00  0.00     0.000 A 
ENDBRANCH  73  86
ENDBRANCH  47  48
ENDBRANCH  39  42
ENDBRANCH  37  38
ENDBRANCH  36  37
ENDBRANCH  35  36
ENDBRANCH   1  35
TORSDOF 16
