REMARK SMILES O=C(NCCCCNC(=O)[C@@H]1CCCN1S(=O)(=O)c1ccc2c3c(cccc13)C(=O)N2)c1ccc(-c2c3nc(c(-c4ccccc4)c4ccc([nH]4)c(-c4ccccc4)c4nc(c(-c5ccccc5)c5ccc2[nH]5)C=C4)C=C3)cc1
REMARK SMILES IDX 5 1 4 2 3 3 1 4 2 5 32 7 33 8 79 9 34 10 78 11 35 12 36 13
REMARK SMILES IDX 37 14 72 15 38 16 77 17 71 18 73 19 39 20 76 21 70 22 69 23
REMARK SMILES IDX 40 25 62 26 47 27 61 28 48 29 51 30 60 31 74 32 49 33 50 34
REMARK SMILES IDX 59 36 75 37 52 38 41 39 42 40 46 41 43 42 45 43 44 44 63 45
REMARK SMILES IDX 64 46 68 47 65 48 67 49 66 50 53 51 54 52 58 53 55 54 57 55
REMARK SMILES IDX 56 56 6 57 7 58 8 59 9 60 10 62 11 63 12 64 15 65 13 66
REMARK SMILES IDX 14 67 16 68 17 69 18 70 19 71 20 72 28 73 21 74 23 75 27 76
REMARK SMILES IDX 22 77 24 78 26 79 31 80 25 81 29 82 30 84
REMARK H PARENT 3 6 73 24 51 35 8 61 31 83
REMARK Flexibility Score: inf
ROOT
ATOM      1  C   UNL     1       5.011  -1.980   1.477  1.00  0.00     0.023 C 
ENDROOT
BRANCH   1   2
ATOM      2  C   UNL     1       4.621  -1.167   0.245  1.00  0.00     0.116 C 
BRANCH   2   3
ATOM      3  N   UNL     1       3.180  -1.076   0.070  1.00  0.00    -0.352 N 
ATOM      4  O   UNL     1       1.172  -0.053  -0.039  1.00  0.00    -0.269 OA
ATOM      5  C   UNL     1       2.394   0.041  -0.063  1.00  0.00     0.251 C 
ATOM      6  H   UNL     1       2.702  -1.936   0.042  1.00  0.00     0.163 HD
BRANCH   5   7
ATOM      7  C   UNL     1       3.032   1.363  -0.210  1.00  0.00     0.039 A 
ATOM      8  C   UNL     1       4.025   1.567  -1.173  1.00  0.00     0.014 A 
ATOM      9  C   UNL     1       2.630   2.406   0.628  1.00  0.00     0.014 A 
ATOM     10  C   UNL     1       4.696   2.785  -1.222  1.00  0.00     0.010 A 
ATOM     11  C   UNL     1       3.270   3.643   0.544  1.00  0.00     0.010 A 
ATOM     12  C   UNL     1       4.327   3.831  -0.360  1.00  0.00    -0.014 A 
BRANCH  12  13
ATOM     13  C   UNL     1       5.042   5.127  -0.429  1.00  0.00     0.031 A 
ATOM     14  C   UNL     1       5.964   5.554   0.677  1.00  0.00     0.074 A 
ATOM     15  C   UNL     1       4.877   5.909  -1.513  1.00  0.00     0.049 A 
ATOM     16  N   UNL     1       6.687   6.641   0.765  1.00  0.00    -0.248 NA
ATOM     17  C   UNL     1       6.098   4.647   1.829  1.00  0.00     0.031 C 
ATOM     18  C   UNL     1       4.021   5.590  -2.658  1.00  0.00     0.029 A 
ATOM     19  N   UNL     1       5.431   7.121  -1.836  1.00  0.00    -0.354 N 
ATOM     20  C   UNL     1       7.361   6.550   1.975  1.00  0.00     0.074 A 
ATOM     21  C   UNL     1       6.941   5.317   2.605  1.00  0.00     0.031 C 
ATOM     22  C   UNL     1       4.131   6.567  -3.570  1.00  0.00     0.029 A 
ATOM     23  C   UNL     1       5.027   7.600  -3.057  1.00  0.00     0.049 A 
ATOM     24  H   UNL     1       6.058   7.601  -1.248  1.00  0.00     0.167 HD
ATOM     25  C   UNL     1       8.259   7.413   2.504  1.00  0.00     0.031 A 
ATOM     26  C   UNL     1       5.334   8.746  -3.694  1.00  0.00     0.031 A 
ATOM     27  C   UNL     1       8.675   8.639   1.877  1.00  0.00     0.049 A 
ATOM     28  C   UNL     1       6.282   9.716  -3.053  1.00  0.00     0.074 A 
ATOM     29  C   UNL     1       9.599   9.562   2.336  1.00  0.00     0.029 A 
ATOM     30  N   UNL     1       8.197   9.113   0.668  1.00  0.00    -0.354 N 
ATOM     31  N   UNL     1       6.929   9.603  -1.919  1.00  0.00    -0.248 NA
ATOM     32  C   UNL     1       6.545  10.970  -3.775  1.00  0.00     0.031 C 
ATOM     33  C   UNL     1       9.641  10.622   1.430  1.00  0.00     0.029 A 
ATOM     34  C   UNL     1       8.788  10.331   0.378  1.00  0.00     0.049 A 
ATOM     35  H   UNL     1       7.537   8.654   0.100  1.00  0.00     0.167 HD
ATOM     36  C   UNL     1       7.690  10.758  -1.800  1.00  0.00     0.074 A 
ATOM     37  C   UNL     1       7.432  11.556  -2.980  1.00  0.00     0.031 C 
ATOM     38  C   UNL     1       8.527  11.117  -0.799  1.00  0.00     0.031 A 
BRANCH  25  39
ATOM     39  C   UNL     1       8.874   7.078   3.832  1.00  0.00    -0.014 A 
ATOM     40  C   UNL     1       9.893   6.118   3.928  1.00  0.00     0.009 A 
ATOM     41  C   UNL     1       8.532   7.828   4.968  1.00  0.00     0.009 A 
ATOM     42  C   UNL     1      10.560   5.918   5.138  1.00  0.00     0.001 A 
ATOM     43  C   UNL     1       9.216   7.640   6.171  1.00  0.00     0.001 A 
ATOM     44  C   UNL     1      10.229   6.686   6.254  1.00  0.00     0.000 A 
ENDBRANCH  25  39
BRANCH  26  45
ATOM     45  C   UNL     1       4.734   9.018  -5.025  1.00  0.00    -0.014 A 
ATOM     46  C   UNL     1       5.513   8.927  -6.187  1.00  0.00     0.009 A 
ATOM     47  C   UNL     1       3.366   9.310  -5.143  1.00  0.00     0.009 A 
ATOM     48  C   UNL     1       4.934   9.125  -7.442  1.00  0.00     0.001 A 
ATOM     49  C   UNL     1       2.785   9.484  -6.400  1.00  0.00     0.001 A 
ATOM     50  C   UNL     1       3.569   9.394  -7.548  1.00  0.00     0.000 A 
ENDBRANCH  26  45
BRANCH  38  51
ATOM     51  C   UNL     1       9.255  12.425  -0.919  1.00  0.00    -0.014 A 
ATOM     52  C   UNL     1       8.599  13.639  -0.670  1.00  0.00     0.009 A 
ATOM     53  C   UNL     1      10.640  12.430  -1.150  1.00  0.00     0.009 A 
ATOM     54  C   UNL     1       9.319  14.835  -0.650  1.00  0.00     0.001 A 
ATOM     55  C   UNL     1      11.360  13.624  -1.105  1.00  0.00     0.001 A 
ATOM     56  C   UNL     1      10.698  14.825  -0.856  1.00  0.00     0.000 A 
ENDBRANCH  38  51
ENDBRANCH  12  13
ENDBRANCH   5   7
ENDBRANCH   2   3
ENDBRANCH   1   2
BRANCH   1  57
ATOM     57  C   UNL     1       4.484  -3.420   1.510  1.00  0.00     0.023 C 
BRANCH  57  58
ATOM     58  C   UNL     1       4.761  -4.232   0.249  1.00  0.00     0.116 C 
BRANCH  58  59
ATOM     59  N   UNL     1       6.176  -4.404  -0.012  1.00  0.00    -0.355 N 
ATOM     60  C   UNL     1       6.830  -5.559  -0.326  1.00  0.00     0.238 C 
ATOM     61  H   UNL     1       6.730  -3.592   0.044  1.00  0.00     0.163 HD
ATOM     62  O   UNL     1       7.708  -5.461  -1.188  1.00  0.00    -0.273 OA
BRANCH  60  63
ATOM     63  C   UNL     1       6.431  -6.907   0.245  1.00  0.00     0.162 C 
ATOM     64  C   UNL     1       5.738  -6.996   1.601  1.00  0.00     0.032 C 
ATOM     65  N   UNL     1       7.487  -7.990   0.341  1.00  0.00    -0.185 NA
ATOM     66  C   UNL     1       5.621  -8.500   1.813  1.00  0.00     0.019 C 
ATOM     67  C   UNL     1       6.717  -9.133   0.953  1.00  0.00     0.103 C 
BRANCH  65  68
ATOM     68  S   UNL     1       8.965  -7.719   1.204  1.00  0.00     0.244 S 
ATOM     69  O   UNL     1       8.623  -7.056   2.448  1.00  0.00    -0.207 OA
ATOM     70  O   UNL     1       9.634  -9.003   1.270  1.00  0.00    -0.207 OA
BRANCH  68  71
ATOM     71  C   UNL     1      10.020  -6.601   0.300  1.00  0.00     0.090 A 
ATOM     72  C   UNL     1       9.828  -5.212   0.553  1.00  0.00     0.024 A 
ATOM     73  C   UNL     1      11.149  -7.042  -0.469  1.00  0.00     0.005 A 
ATOM     74  C   UNL     1      10.604  -4.217  -0.064  1.00  0.00     0.028 A 
ATOM     75  C   UNL     1      11.890  -6.025  -1.007  1.00  0.00     0.019 A 
ATOM     76  C   UNL     1      11.682  -8.333  -0.756  1.00  0.00     0.010 A 
ATOM     77  C   UNL     1      11.635  -4.680  -0.851  1.00  0.00     0.050 A 
ATOM     78  C   UNL     1      13.053  -6.148  -1.758  1.00  0.00     0.050 A 
ATOM     79  C   UNL     1      12.883  -8.498  -1.485  1.00  0.00     0.002 A 
ATOM     80  N   UNL     1      12.602  -3.983  -1.551  1.00  0.00    -0.321 N 
ATOM     81  C   UNL     1      13.592  -7.405  -2.001  1.00  0.00     0.014 A 
ATOM     82  C   UNL     1      13.535  -4.837  -2.144  1.00  0.00     0.256 C 
ATOM     83  H   UNL     1      12.630  -3.002  -1.622  1.00  0.00     0.170 HD
ATOM     84  O   UNL     1      14.499  -4.466  -2.803  1.00  0.00    -0.269 OA
ENDBRANCH  68  71
ENDBRANCH  65  68
ENDBRANCH  60  63
ENDBRANCH  58  59
ENDBRANCH  57  58
ENDBRANCH   1  57
TORSDOF 13
