REMARK SMILES C[C@@H](C(=O)NCCCCNC(=O)c1ccc(-c2c3nc(c(-c4ccccc4)c4ccc([nH]4)c(-c4ccccc4)c4nc(c(-c5ccccc5)c5ccc2[nH]5)C=C4)C=C3)cc1)c1ccc(=O)n(C(F)F)c1
REMARK SMILES IDX 7 1 6 2 5 3 3 4 4 5 2 7 1 8 61 9 62 10 70 11 63 12 66 13
REMARK SMILES IDX 64 14 65 15 67 16 68 17 69 18 8 19 9 20 10 21 11 22 12 24
REMARK SMILES IDX 13 25 14 26 60 27 15 28 59 29 16 30 17 31 18 32 53 33 19 34
REMARK SMILES IDX 58 35 52 36 54 37 20 38 57 39 51 40 50 41 21 43 43 44 28 45
REMARK SMILES IDX 42 46 29 47 32 48 41 49 55 50 30 51 31 52 40 54 56 55 33 56
REMARK SMILES IDX 22 57 23 58 27 59 24 60 26 61 25 62 44 63 45 64 49 65 46 66
REMARK SMILES IDX 48 67 47 68 34 69 35 70 39 71 36 72 38 73 37 74
REMARK H PARENT 5 6 10 23 54 42 32 53
REMARK Flexibility Score: inf
ROOT
ATOM      1  C   UNL     1       4.159   0.807  -0.733  1.00  0.00     0.023 C 
ENDROOT
BRANCH   1   2
ATOM      2  C   UNL     1       3.290   1.733   0.127  1.00  0.00     0.116 C 
BRANCH   2   3
ATOM      3  N   UNL     1       2.256   2.372  -0.664  1.00  0.00    -0.356 N 
ATOM      4  C   UNL     1       0.927   2.085  -0.792  1.00  0.00     0.227 C 
ATOM      5  O   UNL     1       0.324   2.692  -1.680  1.00  0.00    -0.274 OA
ATOM      6  H   UNL     1       2.563   3.140  -1.198  1.00  0.00     0.163 HD
BRANCH   4   7
ATOM      7  C   UNL     1       0.239   1.073   0.163  1.00  0.00     0.107 C 
ATOM      8  C   UNL     1       0.676  -0.345  -0.229  1.00  0.00     0.023 C 
BRANCH   7   9
ATOM      9  C   UNL     1      -1.291   1.254   0.211  1.00  0.00    -0.019 A 
ATOM     10  C   UNL     1      -2.164   0.092   0.304  1.00  0.00     0.012 A 
ATOM     11  C   UNL     1      -1.888   2.463   0.167  1.00  0.00     0.099 A 
ATOM     12  C   UNL     1      -3.497   0.205   0.261  1.00  0.00     0.072 A 
ATOM     13  N   UNL     1      -3.266   2.611   0.131  1.00  0.00    -0.258 N 
ATOM     14  C   UNL     1      -4.136   1.537   0.141  1.00  0.00     0.254 A 
ATOM     15  O   UNL     1      -5.359   1.595   0.071  1.00  0.00    -0.269 OA
BRANCH  13  16
ATOM     16  C   UNL     1      -3.854   3.918  -0.002  1.00  0.00     0.451 C 
ATOM     17  F   UNL     1      -4.516   4.037  -1.179  1.00  0.00    -0.185 F 
ATOM     18  F   UNL     1      -4.737   4.162   0.999  1.00  0.00    -0.185 F 
ENDBRANCH  13  16
ENDBRANCH   7   9
ENDBRANCH   4   7
ENDBRANCH   2   3
ENDBRANCH   1   2
BRANCH   1  19
ATOM     19  C   UNL     1       4.941   1.501  -1.850  1.00  0.00     0.023 C 
BRANCH  19  20
ATOM     20  C   UNL     1       5.941   2.549  -1.382  1.00  0.00     0.116 C 
BRANCH  20  21
ATOM     21  N   UNL     1       6.986   1.997  -0.532  1.00  0.00    -0.352 N 
ATOM     22  C   UNL     1       8.330   2.284  -0.540  1.00  0.00     0.251 C 
ATOM     23  H   UNL     1       6.692   1.334   0.133  1.00  0.00     0.163 HD
ATOM     24  O   UNL     1       9.111   1.651   0.162  1.00  0.00    -0.269 OA
BRANCH  22  25
ATOM     25  C   UNL     1       8.829   3.344  -1.439  1.00  0.00     0.039 A 
ATOM     26  C   UNL     1       9.880   3.055  -2.313  1.00  0.00     0.014 A 
ATOM     27  C   UNL     1       8.212   4.597  -1.455  1.00  0.00     0.014 A 
ATOM     28  C   UNL     1      10.262   4.002  -3.266  1.00  0.00     0.010 A 
ATOM     29  C   UNL     1       8.550   5.511  -2.445  1.00  0.00     0.010 A 
ATOM     30  C   UNL     1       9.570   5.219  -3.365  1.00  0.00    -0.014 A 
BRANCH  30  31
ATOM     31  C   UNL     1       9.873   6.213  -4.422  1.00  0.00     0.031 A 
ATOM     32  C   UNL     1      10.377   7.574  -4.040  1.00  0.00     0.074 A 
ATOM     33  C   UNL     1       9.569   5.941  -5.705  1.00  0.00     0.049 A 
ATOM     34  N   UNL     1      10.519   8.642  -4.782  1.00  0.00    -0.248 NA
ATOM     35  C   UNL     1      10.730   7.768  -2.625  1.00  0.00     0.031 C 
ATOM     36  C   UNL     1       9.034   4.671  -6.201  1.00  0.00     0.029 A 
ATOM     37  N   UNL     1       9.637   6.734  -6.823  1.00  0.00    -0.354 N 
ATOM     38  C   UNL     1      10.936   9.645  -3.917  1.00  0.00     0.074 A 
ATOM     39  C   UNL     1      10.995   9.066  -2.592  1.00  0.00     0.031 C 
ATOM     40  C   UNL     1       8.821   4.773  -7.523  1.00  0.00     0.029 A 
ATOM     41  C   UNL     1       9.162   6.124  -7.958  1.00  0.00     0.049 A 
ATOM     42  H   UNL     1       9.992   7.653  -6.812  1.00  0.00     0.167 HD
ATOM     43  C   UNL     1      11.247  10.932  -4.200  1.00  0.00     0.031 A 
ATOM     44  C   UNL     1       8.996   6.604  -9.204  1.00  0.00     0.031 A 
ATOM     45  C   UNL     1      11.212  11.500  -5.521  1.00  0.00     0.049 A 
ATOM     46  C   UNL     1       9.369   8.027  -9.504  1.00  0.00     0.074 A 
ATOM     47  C   UNL     1      11.583  12.771  -5.923  1.00  0.00     0.029 A 
ATOM     48  N   UNL     1      10.778  10.829  -6.654  1.00  0.00    -0.354 N 
ATOM     49  N   UNL     1       9.820   8.949  -8.688  1.00  0.00    -0.248 NA
ATOM     50  C   UNL     1       9.219   8.473 -10.896  1.00  0.00     0.031 C 
ATOM     51  C   UNL     1      11.336  12.882  -7.296  1.00  0.00     0.029 A 
ATOM     52  C   UNL     1      10.855  11.666  -7.755  1.00  0.00     0.049 A 
ATOM     53  H   UNL     1      10.463   9.897  -6.674  1.00  0.00     0.167 HD
ATOM     54  C   UNL     1      10.029  10.077  -9.470  1.00  0.00     0.074 A 
ATOM     55  C   UNL     1       9.663   9.722 -10.826  1.00  0.00     0.031 C 
ATOM     56  C   UNL     1      10.488  11.296  -9.097  1.00  0.00     0.031 A 
BRANCH  43  57
ATOM     57  C   UNL     1      11.630  11.813  -3.046  1.00  0.00    -0.014 A 
ATOM     58  C   UNL     1      12.848  11.642  -2.368  1.00  0.00     0.009 A 
ATOM     59  C   UNL     1      10.757  12.829  -2.628  1.00  0.00     0.009 A 
ATOM     60  C   UNL     1      13.160  12.438  -1.264  1.00  0.00     0.001 A 
ATOM     61  C   UNL     1      11.085  13.643  -1.542  1.00  0.00     0.001 A 
ATOM     62  C   UNL     1      12.280  13.438  -0.854  1.00  0.00     0.000 A 
ENDBRANCH  43  57
BRANCH  44  63
ATOM     63  C   UNL     1       8.452   5.717 -10.263  1.00  0.00    -0.014 A 
ATOM     64  C   UNL     1       9.300   5.177 -11.241  1.00  0.00     0.009 A 
ATOM     65  C   UNL     1       7.090   5.377 -10.279  1.00  0.00     0.009 A 
ATOM     66  C   UNL     1       8.793   4.322 -12.222  1.00  0.00     0.001 A 
ATOM     67  C   UNL     1       6.591   4.504 -11.248  1.00  0.00     0.001 A 
ATOM     68  C   UNL     1       7.441   3.982 -12.221  1.00  0.00     0.000 A 
ENDBRANCH  44  63
BRANCH  56  69
ATOM     69  C   UNL     1      10.656  12.329 -10.174  1.00  0.00    -0.014 A 
ATOM     70  C   UNL     1       9.551  13.001 -10.716  1.00  0.00     0.009 A 
ATOM     71  C   UNL     1      11.947  12.675 -10.605  1.00  0.00     0.009 A 
ATOM     72  C   UNL     1       9.735  13.989 -11.685  1.00  0.00     0.001 A 
ATOM     73  C   UNL     1      12.128  13.678 -11.557  1.00  0.00     0.001 A 
ATOM     74  C   UNL     1      11.022  14.331 -12.100  1.00  0.00     0.000 A 
ENDBRANCH  56  69
ENDBRANCH  30  31
ENDBRANCH  22  25
ENDBRANCH  20  21
ENDBRANCH  19  20
ENDBRANCH   1  19
TORSDOF 13
