REMARK SMILES Cc1ccc([C@@H]2[C@H](C(=O)NCCCCNC(=O)c3ccc(-c4c5nc(c(-c6ccccc6)c6ccc([nH]6)c(-c6ccccc6)c6nc(c(-c7ccccc7)c7ccc4[nH]7)C=C6)C=C5)cc3)c3ccccc3C(=O)N2c2ccccc2)cc1
REMARK SMILES IDX 13 1 12 2 11 3 10 4 8 5 9 6 7 8 6 9 74 10 66 11 72 12 67 13
REMARK SMILES IDX 71 14 73 15 68 16 70 17 69 18 5 19 1 20 2 21 3 22 82 23 4 24
REMARK SMILES IDX 81 25 75 26 76 27 80 28 77 29 79 30 78 31 14 32 15 33 16 34
REMARK SMILES IDX 17 36 18 37 19 38 65 39 20 40 64 41 21 42 22 43 23 44 58 45
REMARK SMILES IDX 24 46 63 47 57 48 59 49 25 50 62 51 56 52 55 53 26 55 48 56
REMARK SMILES IDX 33 57 47 58 34 59 37 60 46 61 60 62 35 63 36 64 45 66 61 67
REMARK SMILES IDX 38 68 27 69 28 70 32 71 29 72 31 73 30 74 49 75 50 76 54 77
REMARK SMILES IDX 51 78 53 79 52 80 39 81 40 82 44 83 41 84 43 85 42 86
REMARK H PARENT 10 7 15 35 59 54 37 65
REMARK Flexibility Score: inf
ROOT
ATOM      1  C   UNL     1      -4.854  -5.177   5.789  1.00  0.00     0.023 C 
ENDROOT
BRANCH   1   2
ATOM      2  C   UNL     1      -4.471  -3.748   6.176  1.00  0.00     0.023 C 
BRANCH   2   3
ATOM      3  C   UNL     1      -3.059  -3.325   5.747  1.00  0.00     0.116 C 
BRANCH   3   4
ATOM      4  N   UNL     1      -2.986  -3.031   4.325  1.00  0.00    -0.355 N 
ATOM      5  C   UNL     1      -2.205  -1.991   3.868  1.00  0.00     0.230 C 
ATOM      6  O   UNL     1      -0.985  -2.131   3.796  1.00  0.00    -0.274 OA
ATOM      7  H   UNL     1      -3.497  -3.578   3.686  1.00  0.00     0.163 HD
BRANCH   5   8
ATOM      8  C   UNL     1      -2.910  -0.718   3.378  1.00  0.00     0.137 C 
ATOM      9  C   UNL     1      -2.874  -0.585   1.821  1.00  0.00     0.138 C 
ATOM     10  N   UNL     1      -3.901  -1.465   1.236  1.00  0.00    -0.300 N 
ATOM     11  C   UNL     1      -4.361  -0.561   3.847  1.00  0.00    -0.020 A 
ATOM     12  C   UNL     1      -5.190  -0.959   1.481  1.00  0.00     0.259 C 
ATOM     13  C   UNL     1      -4.647  -0.338   5.202  1.00  0.00     0.005 A 
ATOM     14  C   UNL     1      -5.434  -0.643   2.930  1.00  0.00     0.044 A 
ATOM     15  O   UNL     1      -6.089  -0.888   0.652  1.00  0.00    -0.269 OA
ATOM     16  C   UNL     1      -5.970  -0.268   5.642  1.00  0.00     0.000 A 
ATOM     17  C   UNL     1      -6.756  -0.536   3.374  1.00  0.00     0.014 A 
ATOM     18  C   UNL     1      -7.022  -0.368   4.732  1.00  0.00     0.001 A 
BRANCH   9  19
ATOM     19  C   UNL     1      -1.538  -0.321   1.129  1.00  0.00    -0.024 A 
ATOM     20  C   UNL     1       2.462   0.383  -0.389  1.00  0.00     0.044 C 
ATOM     21  C   UNL     1       1.038   0.217   0.050  1.00  0.00    -0.051 A 
ATOM     22  C   UNL     1       0.210  -0.753  -0.518  1.00  0.00     0.004 A 
ATOM     23  C   UNL     1       0.537   0.992   1.094  1.00  0.00     0.004 A 
ATOM     24  C   UNL     1      -1.083  -0.978  -0.019  1.00  0.00     0.006 A 
ATOM     25  C   UNL     1      -0.728   0.723   1.624  1.00  0.00     0.006 A 
ENDBRANCH   9  19
BRANCH  10  26
ATOM     26  C   UNL     1      -3.787  -2.909   1.155  1.00  0.00     0.045 A 
ATOM     27  C   UNL     1      -4.954  -3.703   1.166  1.00  0.00     0.026 A 
ATOM     28  C   UNL     1      -2.567  -3.594   1.194  1.00  0.00     0.026 A 
ATOM     29  C   UNL     1      -4.906  -5.095   1.288  1.00  0.00     0.002 A 
ATOM     30  C   UNL     1      -2.513  -4.994   1.273  1.00  0.00     0.002 A 
ATOM     31  C   UNL     1      -3.681  -5.742   1.344  1.00  0.00     0.000 A 
ENDBRANCH  10  26
ENDBRANCH   5   8
ENDBRANCH   3   4
ENDBRANCH   2   3
ENDBRANCH   1   2
BRANCH   1  32
ATOM     32  C   UNL     1      -4.268  -6.240   6.713  1.00  0.00     0.116 C 
BRANCH  32  33
ATOM     33  N   UNL     1      -5.102  -6.573   7.866  1.00  0.00    -0.352 N 
ATOM     34  C   UNL     1      -4.820  -7.403   8.946  1.00  0.00     0.251 C 
ATOM     35  H   UNL     1      -5.990  -6.149   7.880  1.00  0.00     0.163 HD
ATOM     36  O   UNL     1      -5.639  -7.576   9.825  1.00  0.00    -0.269 OA
BRANCH  34  37
ATOM     37  C   UNL     1      -3.450  -7.964   9.078  1.00  0.00     0.039 A 
ATOM     38  C   UNL     1      -2.786  -7.772  10.293  1.00  0.00     0.014 A 
ATOM     39  C   UNL     1      -2.758  -8.424   7.962  1.00  0.00     0.014 A 
ATOM     40  C   UNL     1      -1.395  -7.756  10.307  1.00  0.00     0.010 A 
ATOM     41  C   UNL     1      -1.383  -8.309   7.947  1.00  0.00     0.010 A 
ATOM     42  C   UNL     1      -0.711  -7.889   9.099  1.00  0.00    -0.014 A 
BRANCH  42  43
ATOM     43  C   UNL     1       0.654  -7.409   8.915  1.00  0.00     0.031 A 
ATOM     44  C   UNL     1       1.779  -8.344   8.755  1.00  0.00     0.074 A 
ATOM     45  C   UNL     1       0.878  -6.078   8.846  1.00  0.00     0.049 A 
ATOM     46  N   UNL     1       3.001  -8.069   9.068  1.00  0.00    -0.248 NA
ATOM     47  C   UNL     1       1.598  -9.705   8.267  1.00  0.00     0.031 C 
ATOM     48  C   UNL     1       2.093  -5.393   8.416  1.00  0.00     0.029 A 
ATOM     49  N   UNL     1       0.085  -5.063   9.363  1.00  0.00    -0.354 N 
ATOM     50  C   UNL     1       3.790  -9.068   8.548  1.00  0.00     0.074 A 
ATOM     51  C   UNL     1       2.867 -10.106   8.149  1.00  0.00     0.031 C 
ATOM     52  C   UNL     1       2.070  -4.133   8.883  1.00  0.00     0.029 A 
ATOM     53  C   UNL     1       0.915  -4.010   9.758  1.00  0.00     0.049 A 
ATOM     54  H   UNL     1      -0.896  -5.082   9.439  1.00  0.00     0.167 HD
ATOM     55  C   UNL     1       5.123  -8.848   8.359  1.00  0.00     0.031 A 
ATOM     56  C   UNL     1       0.973  -3.623  11.067  1.00  0.00     0.031 A 
ATOM     57  C   UNL     1       5.540  -7.538   8.862  1.00  0.00     0.049 A 
ATOM     58  C   UNL     1       2.333  -3.827  11.704  1.00  0.00     0.074 A 
ATOM     59  C   UNL     1       5.800  -6.330   8.235  1.00  0.00     0.029 A 
ATOM     60  N   UNL     1       5.452  -7.263  10.222  1.00  0.00    -0.354 N 
ATOM     61  N   UNL     1       3.272  -4.579  11.201  1.00  0.00    -0.248 NA
ATOM     62  C   UNL     1       2.718  -3.239  12.985  1.00  0.00     0.031 C 
ATOM     63  C   UNL     1       5.790  -5.311   9.223  1.00  0.00     0.029 A 
ATOM     64  C   UNL     1       5.553  -5.903  10.450  1.00  0.00     0.049 A 
ATOM     65  H   UNL     1       5.333  -7.942  10.925  1.00  0.00     0.167 HD
ATOM     66  C   UNL     1       4.342  -4.610  12.056  1.00  0.00     0.074 A 
ATOM     67  C   UNL     1       3.956  -3.738  13.150  1.00  0.00     0.031 C 
ATOM     68  C   UNL     1       5.448  -5.369  11.801  1.00  0.00     0.031 A 
BRANCH  55  69
ATOM     69  C   UNL     1       5.961  -9.690   7.423  1.00  0.00    -0.014 A 
ATOM     70  C   UNL     1       7.046  -9.107   6.742  1.00  0.00     0.009 A 
ATOM     71  C   UNL     1       5.698 -11.035   7.113  1.00  0.00     0.009 A 
ATOM     72  C   UNL     1       7.743  -9.784   5.731  1.00  0.00     0.001 A 
ATOM     73  C   UNL     1       6.359 -11.705   6.074  1.00  0.00     0.001 A 
ATOM     74  C   UNL     1       7.374 -11.073   5.371  1.00  0.00     0.000 A 
ENDBRANCH  55  69
BRANCH  56  75
ATOM     75  C   UNL     1      -0.319  -3.769  11.796  1.00  0.00    -0.014 A 
ATOM     76  C   UNL     1      -1.403  -2.956  11.409  1.00  0.00     0.009 A 
ATOM     77  C   UNL     1      -0.578  -4.896  12.588  1.00  0.00     0.009 A 
ATOM     78  C   UNL     1      -2.718  -3.321  11.713  1.00  0.00     0.001 A 
ATOM     79  C   UNL     1      -1.897  -5.252  12.900  1.00  0.00     0.001 A 
ATOM     80  C   UNL     1      -2.965  -4.485  12.434  1.00  0.00     0.000 A 
ENDBRANCH  56  75
BRANCH  68  81
ATOM     81  C   UNL     1       6.575  -5.631  12.768  1.00  0.00    -0.014 A 
ATOM     82  C   UNL     1       6.447  -5.574  14.162  1.00  0.00     0.009 A 
ATOM     83  C   UNL     1       7.812  -6.092  12.264  1.00  0.00     0.009 A 
ATOM     84  C   UNL     1       7.515  -5.909  15.007  1.00  0.00     0.001 A 
ATOM     85  C   UNL     1       8.864  -6.470  13.102  1.00  0.00     0.001 A 
ATOM     86  C   UNL     1       8.719  -6.365  14.477  1.00  0.00     0.000 A 
ENDBRANCH  68  81
ENDBRANCH  42  43
ENDBRANCH  34  37
ENDBRANCH  32  33
ENDBRANCH   1  32
TORSDOF 13
