REMARK SMILES O=C(NCCCCNC(=O)[C@]1(NC(=O)c2nc(C3CC3)n[nH]2)CCSC1)c1ccc(-c2c3nc(c(-c4ccccc4)c4ccc([nH]4)c(-c4ccccc4)c4nc(c(-c5ccccc5)c5ccc2[nH]5)C=C4)C=C3)cc1
REMARK SMILES IDX 6 1 5 2 4 3 3 4 1 5 2 6 27 8 28 9 74 10 29 11 73 12 30 13
REMARK SMILES IDX 31 14 32 15 67 16 33 17 72 18 66 19 68 20 34 21 71 22 65 23
REMARK SMILES IDX 64 24 35 26 57 27 42 28 56 29 43 30 46 31 55 32 69 33 44 34
REMARK SMILES IDX 45 35 54 37 70 38 47 39 36 40 37 41 41 42 38 43 40 44 39 45
REMARK SMILES IDX 58 46 59 47 63 48 60 49 62 50 61 51 48 52 49 53 53 54 50 55
REMARK SMILES IDX 52 56 51 57 7 58 8 59 9 60 10 62 11 63 23 64 26 65 24 66
REMARK SMILES IDX 25 67 12 68 13 69 14 71 15 72 16 73 22 74 17 75 21 76 18 78
REMARK SMILES IDX 19 79 20 80
REMARK H PARENT 3 7 68 25 46 36 8 61 12 70 22 77
REMARK Flexibility Score: inf
ROOT
ATOM      1  C   UNL     1       4.207   3.795   0.317  1.00  0.00     0.023 C 
ENDROOT
BRANCH   1   2
ATOM      2  C   UNL     1       4.596   2.637  -0.604  1.00  0.00     0.023 C 
BRANCH   2   3
ATOM      3  C   UNL     1       4.364   1.267   0.010  1.00  0.00     0.116 C 
BRANCH   3   4
ATOM      4  N   UNL     1       2.959   1.025   0.295  1.00  0.00    -0.352 N 
ATOM      5  O   UNL     1       1.029  -0.146   0.192  1.00  0.00    -0.269 OA
ATOM      6  C   UNL     1       2.238  -0.123   0.064  1.00  0.00     0.251 C 
ATOM      7  H   UNL     1       2.465   1.772   0.703  1.00  0.00     0.163 HD
BRANCH   6   8
ATOM      8  C   UNL     1       2.979  -1.326  -0.365  1.00  0.00     0.039 A 
ATOM      9  C   UNL     1       4.117  -1.725   0.341  1.00  0.00     0.014 A 
ATOM     10  C   UNL     1       2.555  -2.022  -1.497  1.00  0.00     0.014 A 
ATOM     11  C   UNL     1       4.898  -2.758  -0.151  1.00  0.00     0.010 A 
ATOM     12  C   UNL     1       3.295  -3.119  -1.940  1.00  0.00     0.010 A 
ATOM     13  C   UNL     1       4.476  -3.487  -1.276  1.00  0.00    -0.014 A 
BRANCH  13  14
ATOM     14  C   UNL     1       5.223  -4.707  -1.654  1.00  0.00     0.031 A 
ATOM     15  C   UNL     1       5.959  -4.806  -2.957  1.00  0.00     0.074 A 
ATOM     16  C   UNL     1       5.234  -5.729  -0.777  1.00  0.00     0.049 A 
ATOM     17  N   UNL     1       6.660  -5.809  -3.424  1.00  0.00    -0.248 NA
ATOM     18  C   UNL     1       5.901  -3.643  -3.856  1.00  0.00     0.031 C 
ATOM     19  C   UNL     1       4.541  -5.737   0.517  1.00  0.00     0.029 A 
ATOM     20  N   UNL     1       5.859  -6.946  -0.824  1.00  0.00    -0.354 N 
ATOM     21  C   UNL     1       7.107  -5.410  -4.676  1.00  0.00     0.074 A 
ATOM     22  C   UNL     1       6.589  -4.077  -4.905  1.00  0.00     0.031 C 
ATOM     23  C   UNL     1       4.820  -6.879   1.159  1.00  0.00     0.029 A 
ATOM     24  C   UNL     1       5.645  -7.712   0.296  1.00  0.00     0.049 A 
ATOM     25  H   UNL     1       6.408  -7.243  -1.585  1.00  0.00     0.167 HD
ATOM     26  C   UNL     1       7.877  -6.099  -5.551  1.00  0.00     0.031 A 
ATOM     27  C   UNL     1       6.044  -8.962   0.587  1.00  0.00     0.031 A 
ATOM     28  C   UNL     1       8.390  -7.424  -5.309  1.00  0.00     0.049 A 
ATOM     29  C   UNL     1       6.870  -9.706  -0.418  1.00  0.00     0.074 A 
ATOM     30  C   UNL     1       9.214  -8.188  -6.117  1.00  0.00     0.029 A 
ATOM     31  N   UNL     1       8.122  -8.181  -4.179  1.00  0.00    -0.354 N 
ATOM     32  N   UNL     1       7.318  -9.297  -1.580  1.00  0.00    -0.248 NA
ATOM     33  C   UNL     1       7.239 -11.084  -0.074  1.00  0.00     0.031 C 
ATOM     34  C   UNL     1       9.400  -9.430  -5.501  1.00  0.00     0.029 A 
ATOM     35  C   UNL     1       8.738  -9.418  -4.284  1.00  0.00     0.049 A 
ATOM     36  H   UNL     1       7.576  -7.885  -3.416  1.00  0.00     0.167 HD
ATOM     37  C   UNL     1       8.033 -10.364  -2.102  1.00  0.00     0.074 A 
ATOM     38  C   UNL     1       7.982 -11.426  -1.117  1.00  0.00     0.031 C 
ATOM     39  C   UNL     1       8.668 -10.461  -3.295  1.00  0.00     0.031 A 
BRANCH  26  40
ATOM     40  C   UNL     1       8.197  -5.455  -6.871  1.00  0.00    -0.014 A 
ATOM     41  C   UNL     1       9.132  -4.413  -6.969  1.00  0.00     0.009 A 
ATOM     42  C   UNL     1       7.617  -5.960  -8.046  1.00  0.00     0.009 A 
ATOM     43  C   UNL     1       9.468  -3.881  -8.216  1.00  0.00     0.001 A 
ATOM     44  C   UNL     1       7.972  -5.441  -9.293  1.00  0.00     0.001 A 
ATOM     45  C   UNL     1       8.894  -4.400  -9.377  1.00  0.00     0.000 A 
ENDBRANCH  26  40
BRANCH  27  46
ATOM     46  C   UNL     1       5.633  -9.595   1.866  1.00  0.00    -0.014 A 
ATOM     47  C   UNL     1       6.577  -9.882   2.861  1.00  0.00     0.009 A 
ATOM     48  C   UNL     1       4.284  -9.915   2.095  1.00  0.00     0.009 A 
ATOM     49  C   UNL     1       6.184 -10.503   4.049  1.00  0.00     0.001 A 
ATOM     50  C   UNL     1       3.889 -10.504   3.297  1.00  0.00     0.001 A 
ATOM     51  C   UNL     1       4.840 -10.809   4.267  1.00  0.00     0.000 A 
ENDBRANCH  27  46
BRANCH  39  52
ATOM     52  C   UNL     1       9.373 -11.755  -3.579  1.00  0.00    -0.014 A 
ATOM     53  C   UNL     1       8.652 -12.923  -3.876  1.00  0.00     0.009 A 
ATOM     54  C   UNL     1      10.775 -11.802  -3.565  1.00  0.00     0.009 A 
ATOM     55  C   UNL     1       9.323 -14.123  -4.114  1.00  0.00     0.001 A 
ATOM     56  C   UNL     1      11.443 -12.996  -3.834  1.00  0.00     0.001 A 
ATOM     57  C   UNL     1      10.718 -14.157  -4.097  1.00  0.00     0.000 A 
ENDBRANCH  39  52
ENDBRANCH  13  14
ENDBRANCH   6   8
ENDBRANCH   3   4
ENDBRANCH   2   3
ENDBRANCH   1   2
BRANCH   1  58
ATOM     58  C   UNL     1       5.041   3.855   1.595  1.00  0.00     0.116 C 
BRANCH  58  59
ATOM     59  N   UNL     1       6.393   4.225   1.247  1.00  0.00    -0.354 N 
ATOM     60  C   UNL     1       6.997   5.446   1.310  1.00  0.00     0.246 C 
ATOM     61  H   UNL     1       6.960   3.491   0.918  1.00  0.00     0.163 HD
ATOM     62  O   UNL     1       7.851   5.673   0.450  1.00  0.00    -0.272 OA
BRANCH  60  63
ATOM     63  C   UNL     1       6.505   6.537   2.305  1.00  0.00     0.129 C 
ATOM     64  C   UNL     1       5.272   7.230   1.668  1.00  0.00     0.050 C 
ATOM     65  C   UNL     1       7.546   7.660   2.469  1.00  0.00     0.108 C 
ATOM     66  C   UNL     1       5.760   8.082   0.510  1.00  0.00     0.072 C 
ATOM     67  S   UNL     1       7.208   8.921   1.187  1.00  0.00    -0.159 SA
BRANCH  63  68
ATOM     68  N   UNL     1       6.102   6.004   3.635  1.00  0.00    -0.334 N 
ATOM     69  C   UNL     1       6.722   5.127   4.499  1.00  0.00     0.289 C 
ATOM     70  H   UNL     1       5.234   6.340   3.958  1.00  0.00     0.165 HD
ATOM     71  O   UNL     1       6.215   5.006   5.616  1.00  0.00    -0.266 OA
BRANCH  69  72
ATOM     72  C   UNL     1       7.771   4.249   4.050  1.00  0.00     0.214 A 
ATOM     73  N   UNL     1       8.767   4.489   3.218  1.00  0.00    -0.207 NA
ATOM     74  N   UNL     1       7.786   2.923   4.374  1.00  0.00    -0.255 N 
ATOM     75  C   UNL     1       9.235   3.227   2.922  1.00  0.00     0.154 A 
ATOM     76  N   UNL     1       8.625   2.236   3.585  1.00  0.00    -0.158 NA
ATOM     77  H   UNL     1       7.249   2.522   5.095  1.00  0.00     0.192 HD
BRANCH  75  78
ATOM     78  C   UNL     1      10.269   2.921   1.850  1.00  0.00     0.060 C 
ATOM     79  C   UNL     1      10.589   3.978   0.813  1.00  0.00     0.012 C 
ATOM     80  C   UNL     1      11.599   3.638   1.854  1.00  0.00     0.012 C 
ENDBRANCH  75  78
ENDBRANCH  69  72
ENDBRANCH  63  68
ENDBRANCH  60  63
ENDBRANCH  58  59
ENDBRANCH   1  58
TORSDOF 14
