REMARK SMILES CC[C@@H](Nc1ccc([N+](=O)[O-])c(N)n1)C(=O)NCCCCNC(=O)c1ccc(-c2c3nc(c(-c4ccccc4)c4ccc([nH]4)c(-c4ccccc4)c4nc(c(-c5ccccc5)c5ccc2[nH]5)C=C4)C=C3)cc1
REMARK SMILES IDX 19 1 18 2 17 3 15 4 16 5 3 7 2 8 1 9 4 10 5 12 6 13 14 14
REMARK SMILES IDX 7 15 12 16 8 17 13 18 9 21 10 22 11 23 20 24 21 25 22 26
REMARK SMILES IDX 23 27 24 29 25 30 26 31 72 32 27 33 71 34 28 35 29 36 30 37
REMARK SMILES IDX 65 38 31 39 70 40 64 41 66 42 32 43 69 44 63 45 62 46 33 48
REMARK SMILES IDX 55 49 40 50 54 51 41 52 44 53 53 54 67 55 42 56 43 57 52 59
REMARK SMILES IDX 68 60 45 61 34 62 35 63 39 64 36 65 38 66 37 67 56 68 57 69
REMARK SMILES IDX 61 70 58 71 60 72 59 73 46 74 47 75 51 76 48 77 50 78 49 79
REMARK H PARENT 17 6 4 11 13 19 13 20 22 28 66 47 44 58
REMARK Flexibility Score: inf
ROOT
ATOM      1  C   UNL     1      -2.782   1.172  -2.464  1.00  0.00     0.023 C 
ENDROOT
BRANCH   1   2
ATOM      2  C   UNL     1      -1.968   0.010  -3.031  1.00  0.00     0.116 C 
BRANCH   2   3
ATOM      3  N   UNL     1      -0.874   0.474  -3.862  1.00  0.00    -0.354 N 
ATOM      4  C   UNL     1       0.476   0.467  -3.658  1.00  0.00     0.242 C 
ATOM      5  O   UNL     1       1.179   0.965  -4.545  1.00  0.00    -0.273 OA
ATOM      6  H   UNL     1      -1.153   0.862  -4.723  1.00  0.00     0.163 HD
BRANCH   4   7
ATOM      7  C   UNL     1       1.123  -0.134  -2.390  1.00  0.00     0.169 C 
BRANCH   7   8
ATOM      8  C   UNL     1       0.717   0.612  -1.112  1.00  0.00     0.031 C 
ATOM      9  C   UNL     1       1.359   0.038   0.144  1.00  0.00     0.006 C 
ENDBRANCH   7   8
BRANCH   7  10
ATOM     10  N   UNL     1       0.839  -1.560  -2.295  1.00  0.00    -0.358 N 
ATOM     11  H   UNL     1      -0.090  -1.797  -2.069  1.00  0.00     0.162 HD
BRANCH  10  12
ATOM     12  C   UNL     1       1.690  -2.607  -2.478  1.00  0.00     0.129 A 
ATOM     13  C   UNL     1       3.051  -2.496  -2.712  1.00  0.00     0.054 A 
ATOM     14  N   UNL     1       1.091  -3.814  -2.382  1.00  0.00    -0.208 NA
ATOM     15  C   UNL     1       3.817  -3.652  -2.840  1.00  0.00     0.093 A 
ATOM     16  C   UNL     1       1.820  -4.947  -2.512  1.00  0.00     0.204 A 
ATOM     17  C   UNL     1       3.191  -4.896  -2.733  1.00  0.00     0.311 A 
BRANCH  16  18
ATOM     18  N   UNL     1       1.096  -6.102  -2.305  1.00  0.00    -0.378 N 
ATOM     19  H   UNL     1       1.537  -6.979  -2.377  1.00  0.00     0.158 HD
ATOM     20  H   UNL     1       0.138  -6.049  -2.084  1.00  0.00     0.158 HD
ENDBRANCH  16  18
BRANCH  17  21
ATOM     21  N   UNL     1       3.990  -6.105  -2.873  1.00  0.00     0.066 N 
ATOM     22  O   UNL     1       3.417  -7.160  -3.191  1.00  0.00    -0.258 OA
ATOM     23  O   UNL     1       5.214  -6.003  -2.700  1.00  0.00    -0.258 OA
ENDBRANCH  17  21
ENDBRANCH  10  12
ENDBRANCH   7  10
ENDBRANCH   4   7
ENDBRANCH   2   3
ENDBRANCH   1   2
BRANCH   1  24
ATOM     24  C   UNL     1      -3.570   1.972  -3.502  1.00  0.00     0.023 C 
BRANCH  24  25
ATOM     25  C   UNL     1      -4.534   1.159  -4.362  1.00  0.00     0.116 C 
BRANCH  25  26
ATOM     26  N   UNL     1      -5.523   0.430  -3.583  1.00  0.00    -0.352 N 
ATOM     27  C   UNL     1      -6.879   0.325  -3.789  1.00  0.00     0.251 C 
ATOM     28  H   UNL     1      -5.174  -0.056  -2.801  1.00  0.00     0.163 HD
ATOM     29  O   UNL     1      -7.592  -0.247  -2.971  1.00  0.00    -0.269 OA
BRANCH  27  30
ATOM     30  C   UNL     1      -7.478   0.948  -4.986  1.00  0.00     0.039 A 
ATOM     31  C   UNL     1      -8.553   1.826  -4.823  1.00  0.00     0.014 A 
ATOM     32  C   UNL     1      -6.941   0.710  -6.254  1.00  0.00     0.014 A 
ATOM     33  C   UNL     1      -9.028   2.544  -5.922  1.00  0.00     0.010 A 
ATOM     34  C   UNL     1      -7.378   1.468  -7.336  1.00  0.00     0.010 A 
ATOM     35  C   UNL     1      -8.408   2.408  -7.175  1.00  0.00    -0.014 A 
BRANCH  35  36
ATOM     36  C   UNL     1      -8.771   3.281  -8.318  1.00  0.00     0.031 A 
ATOM     37  C   UNL     1      -9.373   2.691  -9.561  1.00  0.00     0.074 A 
ATOM     38  C   UNL     1      -8.446   4.589  -8.279  1.00  0.00     0.049 A 
ATOM     39  N   UNL     1      -9.626   3.270 -10.707  1.00  0.00    -0.248 NA
ATOM     40  C   UNL     1      -9.712   1.260  -9.519  1.00  0.00     0.031 C 
ATOM     41  C   UNL     1      -7.814   5.274  -7.148  1.00  0.00     0.029 A 
ATOM     42  N   UNL     1      -8.577   5.571  -9.229  1.00  0.00    -0.354 N 
ATOM     43  C   UNL     1     -10.125   2.270 -11.531  1.00  0.00     0.074 A 
ATOM     44  C   UNL     1     -10.118   1.043 -10.763  1.00  0.00     0.031 C 
ATOM     45  C   UNL     1      -7.614   6.562  -7.471  1.00  0.00     0.029 A 
ATOM     46  C   UNL     1      -8.061   6.784  -8.841  1.00  0.00     0.049 A 
ATOM     47  H   UNL     1      -9.000   5.420 -10.106  1.00  0.00     0.167 HD
ATOM     48  C   UNL     1     -10.556   2.368 -12.810  1.00  0.00     0.031 A 
ATOM     49  C   UNL     1      -7.937   7.940  -9.520  1.00  0.00     0.031 A 
ATOM     50  C   UNL     1     -10.590   3.591 -13.565  1.00  0.00     0.049 A 
ATOM     51  C   UNL     1      -8.417   8.016 -10.942  1.00  0.00     0.074 A 
ATOM     52  C   UNL     1     -11.105   3.806 -14.832  1.00  0.00     0.029 A 
ATOM     53  N   UNL     1     -10.081   4.803 -13.127  1.00  0.00    -0.354 N 
ATOM     54  N   UNL     1      -8.972   7.082 -11.675  1.00  0.00    -0.248 NA
ATOM     55  C   UNL     1      -8.253   9.306 -11.629  1.00  0.00     0.031 C 
ATOM     56  C   UNL     1     -10.862   5.138 -15.181  1.00  0.00     0.029 A 
ATOM     57  C   UNL     1     -10.234   5.761 -14.115  1.00  0.00     0.049 A 
ATOM     58  H   UNL     1      -9.671   4.959 -12.246  1.00  0.00     0.167 HD
ATOM     59  C   UNL     1      -9.238   7.675 -12.902  1.00  0.00     0.074 A 
ATOM     60  C   UNL     1      -8.800   9.052 -12.809  1.00  0.00     0.031 C 
ATOM     61  C   UNL     1      -9.792   7.125 -14.008  1.00  0.00     0.031 A 
BRANCH  48  62
ATOM     62  C   UNL     1     -11.022   1.113 -13.488  1.00  0.00    -0.014 A 
ATOM     63  C   UNL     1     -12.258   0.530 -13.169  1.00  0.00     0.009 A 
ATOM     64  C   UNL     1     -10.243   0.545 -14.508  1.00  0.00     0.009 A 
ATOM     65  C   UNL     1     -12.694  -0.613 -13.844  1.00  0.00     0.001 A 
ATOM     66  C   UNL     1     -10.691  -0.584 -15.196  1.00  0.00     0.001 A 
ATOM     67  C   UNL     1     -11.913  -1.165 -14.860  1.00  0.00     0.000 A 
ENDBRANCH  48  62
BRANCH  49  68
ATOM     68  C   UNL     1      -7.306   9.121  -8.876  1.00  0.00    -0.014 A 
ATOM     69  C   UNL     1      -8.081  10.233  -8.514  1.00  0.00     0.009 A 
ATOM     70  C   UNL     1      -5.923   9.150  -8.640  1.00  0.00     0.009 A 
ATOM     71  C   UNL     1      -7.477  11.363  -7.955  1.00  0.00     0.001 A 
ATOM     72  C   UNL     1      -5.327  10.269  -8.057  1.00  0.00     0.001 A 
ATOM     73  C   UNL     1      -6.103  11.379  -7.725  1.00  0.00     0.000 A 
ENDBRANCH  49  68
BRANCH  61  74
ATOM     74  C   UNL     1      -9.972   8.016 -15.202  1.00  0.00    -0.014 A 
ATOM     75  C   UNL     1      -8.879   8.375 -16.005  1.00  0.00     0.009 A 
ATOM     76  C   UNL     1     -11.255   8.461 -15.554  1.00  0.00     0.009 A 
ATOM     77  C   UNL     1      -9.067   9.182 -17.129  1.00  0.00     0.001 A 
ATOM     78  C   UNL     1     -11.443   9.247 -16.691  1.00  0.00     0.001 A 
ATOM     79  C   UNL     1     -10.348   9.612 -17.474  1.00  0.00     0.000 A 
ENDBRANCH  61  74
ENDBRANCH  35  36
ENDBRANCH  27  30
ENDBRANCH  25  26
ENDBRANCH  24  25
ENDBRANCH   1  24
TORSDOF 16
