REMARK SMILES CC(C)(C[NH2+]CCc1cccnc1)C(=O)NCCCCNC(=O)c1ccc(-c2c3nc(c(-c4ccccc4)c4ccc([nH]4)c(-c4ccccc4)c4nc(c(-c5ccccc5)c5ccc2[nH]5)C=C4)C=C3)cc1
REMARK SMILES IDX 17 1 16 2 14 3 15 4 2 6 1 7 3 8 4 9 5 10 6 13 7 14 8 15 9 16
REMARK SMILES IDX 13 17 10 18 12 19 11 20 18 21 19 22 20 23 21 24 22 25 23 27
REMARK SMILES IDX 24 28 25 29 71 30 26 31 70 32 27 33 28 34 29 35 64 36 30 37
REMARK SMILES IDX 69 38 63 39 65 40 31 41 68 42 62 43 61 44 32 46 54 47 39 48
REMARK SMILES IDX 53 49 40 50 43 51 52 52 66 53 41 54 42 55 51 57 67 58 44 59
REMARK SMILES IDX 33 60 34 61 38 62 35 63 37 64 36 65 55 66 56 67 60 68 57 69
REMARK SMILES IDX 59 70 58 71 45 72 46 73 50 74 47 75 49 76 48 77
REMARK H PARENT 16 5 5 11 5 12 21 26 65 45 43 56
REMARK Flexibility Score: inf
ROOT
ATOM      1  C   UNL     1      -0.174  -3.281  -3.053  1.00  0.00     0.116 C 
ENDROOT
BRANCH   1   2
ATOM      2  N   UNL     1       0.719  -2.146  -3.159  1.00  0.00    -0.355 N 
ATOM      3  C   UNL     1       1.079  -1.173  -2.278  1.00  0.00     0.231 C 
ATOM      4  O   UNL     1       1.880  -0.338  -2.713  1.00  0.00    -0.274 OA
ATOM      5  H   UNL     1       1.149  -2.061  -4.040  1.00  0.00     0.163 HD
BRANCH   3   6
ATOM      6  C   UNL     1       0.598  -1.137  -0.811  1.00  0.00     0.092 C 
ATOM      7  C   UNL     1       1.198   0.121  -0.129  1.00  0.00     0.027 C 
ATOM      8  C   UNL     1       1.175  -2.348  -0.051  1.00  0.00     0.027 C 
BRANCH   6   9
ATOM      9  C   UNL     1      -0.946  -1.093  -0.674  1.00  0.00     0.276 C 
BRANCH   9  10
ATOM     10  N   UNL     1      -1.567   0.045  -1.356  1.00  0.00    -0.345 N 
ATOM     11  H   UNL     1      -1.249   0.051  -2.325  1.00  0.00     0.346 HD
ATOM     12  H   UNL     1      -1.288   0.883  -0.845  1.00  0.00     0.346 HD
BRANCH  10  13
ATOM     13  C   UNL     1      -3.033   0.016  -1.353  1.00  0.00     0.265 C 
BRANCH  13  14
ATOM     14  C   UNL     1      -3.719   0.064   0.024  1.00  0.00     0.098 C 
BRANCH  14  15
ATOM     15  C   UNL     1      -3.278   1.210   0.893  1.00  0.00    -0.024 A 
ATOM     16  C   UNL     1      -3.542   2.538   0.550  1.00  0.00     0.007 A 
ATOM     17  C   UNL     1      -2.571   0.983   2.071  1.00  0.00     0.114 A 
ATOM     18  C   UNL     1      -3.089   3.565   1.373  1.00  0.00     0.020 A 
ATOM     19  N   UNL     1      -2.117   1.960   2.886  1.00  0.00    -0.264 NA
ATOM     20  C   UNL     1      -2.385   3.229   2.517  1.00  0.00     0.111 A 
ENDBRANCH  14  15
ENDBRANCH  13  14
ENDBRANCH  10  13
ENDBRANCH   9  10
ENDBRANCH   6   9
ENDBRANCH   3   6
ENDBRANCH   1   2
BRANCH   1  21
ATOM     21  C   UNL     1      -1.474  -3.066  -3.824  1.00  0.00     0.023 C 
BRANCH  21  22
ATOM     22  C   UNL     1      -1.322  -3.028  -5.346  1.00  0.00     0.023 C 
BRANCH  22  23
ATOM     23  C   UNL     1      -0.610  -4.227  -5.962  1.00  0.00     0.116 C 
BRANCH  23  24
ATOM     24  N   UNL     1      -1.224  -5.503  -5.625  1.00  0.00    -0.352 N 
ATOM     25  C   UNL     1      -1.413  -6.604  -6.424  1.00  0.00     0.251 C 
ATOM     26  H   UNL     1      -1.548  -5.588  -4.699  1.00  0.00     0.163 HD
ATOM     27  O   UNL     1      -2.039  -7.574  -6.010  1.00  0.00    -0.269 OA
BRANCH  25  28
ATOM     28  C   UNL     1      -0.892  -6.595  -7.807  1.00  0.00     0.039 A 
ATOM     29  C   UNL     1      -1.750  -6.947  -8.852  1.00  0.00     0.014 A 
ATOM     30  C   UNL     1       0.422  -6.201  -8.072  1.00  0.00     0.014 A 
ATOM     31  C   UNL     1      -1.313  -6.828 -10.172  1.00  0.00     0.010 A 
ATOM     32  C   UNL     1       0.833  -6.019  -9.388  1.00  0.00     0.010 A 
ATOM     33  C   UNL     1      -0.032  -6.324 -10.450  1.00  0.00    -0.014 A 
BRANCH  33  34
ATOM     34  C   UNL     1       0.420  -6.093 -11.844  1.00  0.00     0.031 A 
ATOM     35  C   UNL     1       1.575  -6.875 -12.401  1.00  0.00     0.074 A 
ATOM     36  C   UNL     1      -0.155  -5.122 -12.580  1.00  0.00     0.049 A 
ATOM     37  N   UNL     1       2.171  -6.755 -13.561  1.00  0.00    -0.248 NA
ATOM     38  C   UNL     1       2.154  -7.912 -11.531  1.00  0.00     0.031 C 
ATOM     39  C   UNL     1      -1.258  -4.264 -12.142  1.00  0.00     0.029 A 
ATOM     40  N   UNL     1       0.119  -4.686 -13.852  1.00  0.00    -0.354 N 
ATOM     41  C   UNL     1       3.204  -7.683 -13.550  1.00  0.00     0.074 A 
ATOM     42  C   UNL     1       3.183  -8.327 -12.255  1.00  0.00     0.031 C 
ATOM     43  C   UNL     1      -1.580  -3.421 -13.136  1.00  0.00     0.029 A 
ATOM     44  C   UNL     1      -0.683  -3.650 -14.264  1.00  0.00     0.049 A 
ATOM     45  H   UNL     1       0.824  -5.079 -14.416  1.00  0.00     0.167 HD
ATOM     46  C   UNL     1       4.083  -7.983 -14.535  1.00  0.00     0.031 A 
ATOM     47  C   UNL     1      -0.691  -2.955 -15.417  1.00  0.00     0.031 A 
ATOM     48  C   UNL     1       4.097  -7.354 -15.829  1.00  0.00     0.049 A 
ATOM     49  C   UNL     1       0.301  -3.303 -16.492  1.00  0.00     0.074 A 
ATOM     50  C   UNL     1       4.910  -7.633 -16.914  1.00  0.00     0.029 A 
ATOM     51  N   UNL     1       3.258  -6.319 -16.210  1.00  0.00    -0.354 N 
ATOM     52  N   UNL     1       1.230  -4.226 -16.490  1.00  0.00    -0.248 NA
ATOM     53  C   UNL     1       0.235  -2.515 -17.732  1.00  0.00     0.031 C 
ATOM     54  C   UNL     1       4.591  -6.736 -17.939  1.00  0.00     0.029 A 
ATOM     55  C   UNL     1       3.547  -5.933 -17.508  1.00  0.00     0.049 A 
ATOM     56  H   UNL     1       2.560  -5.919 -15.643  1.00  0.00     0.167 HD
ATOM     57  C   UNL     1       1.842  -4.150 -17.735  1.00  0.00     0.074 A 
ATOM     58  C   UNL     1       1.169  -3.098 -18.469  1.00  0.00     0.031 C 
ATOM     59  C   UNL     1       2.868  -4.887 -18.225  1.00  0.00     0.031 A 
BRANCH  46  60
ATOM     60  C   UNL     1       5.110  -9.041 -14.244  1.00  0.00    -0.014 A 
ATOM     61  C   UNL     1       4.749 -10.393 -14.136  1.00  0.00     0.009 A 
ATOM     62  C   UNL     1       6.460  -8.685 -14.104  1.00  0.00     0.009 A 
ATOM     63  C   UNL     1       5.714 -11.363 -13.857  1.00  0.00     0.001 A 
ATOM     64  C   UNL     1       7.427  -9.660 -13.852  1.00  0.00     0.001 A 
ATOM     65  C   UNL     1       7.052 -10.996 -13.720  1.00  0.00     0.000 A 
ENDBRANCH  46  60
BRANCH  47  66
ATOM     66  C   UNL     1      -1.681  -1.868 -15.625  1.00  0.00    -0.014 A 
ATOM     67  C   UNL     1      -2.749  -2.043 -16.518  1.00  0.00     0.009 A 
ATOM     68  C   UNL     1      -1.563  -0.650 -14.938  1.00  0.00     0.009 A 
ATOM     69  C   UNL     1      -3.665  -1.012 -16.737  1.00  0.00     0.001 A 
ATOM     70  C   UNL     1      -2.495   0.370 -15.140  1.00  0.00     0.001 A 
ATOM     71  C   UNL     1      -3.539   0.192 -16.046  1.00  0.00     0.000 A 
ENDBRANCH  47  66
BRANCH  59  72
ATOM     72  C   UNL     1       3.302  -4.606 -19.635  1.00  0.00    -0.014 A 
ATOM     73  C   UNL     1       4.036  -3.454 -19.954  1.00  0.00     0.009 A 
ATOM     74  C   UNL     1       3.012  -5.534 -20.648  1.00  0.00     0.009 A 
ATOM     75  C   UNL     1       4.448  -3.223 -21.269  1.00  0.00     0.001 A 
ATOM     76  C   UNL     1       3.447  -5.313 -21.955  1.00  0.00     0.001 A 
ATOM     77  C   UNL     1       4.157  -4.154 -22.266  1.00  0.00     0.000 A 
ENDBRANCH  59  72
ENDBRANCH  33  34
ENDBRANCH  25  28
ENDBRANCH  23  24
ENDBRANCH  22  23
ENDBRANCH  21  22
ENDBRANCH   1  21
TORSDOF 16
