REMARK SMILES CC(C)c1ccc(NC(=O)C[C@H]2SC[C@@H](C(=O)NCCCCNC(=O)c3ccc(-c4c5nc(c(-c6ccccc6)c6ccc([nH]6)c(-c6ccccc6)c6nc(c(-c7ccccc7)c7ccc4[nH]7)C=C6)C=C5)cc3)NC2=O)cc1
REMARK SMILES IDX 19 1 18 2 16 3 17 4 15 6 12 7 13 8 75 9 14 10 74 11 76 12
REMARK SMILES IDX 11 14 9 15 8 16 10 18 7 19 4 20 5 21 78 22 6 23 77 24 2 25
REMARK SMILES IDX 1 26 3 27 20 28 21 29 22 30 23 31 24 32 25 34 26 35 27 36
REMARK SMILES IDX 73 37 28 38 72 39 29 40 30 41 31 42 66 43 32 44 71 45 65 46
REMARK SMILES IDX 67 47 33 48 70 49 64 50 63 51 34 53 56 54 41 55 55 56 42 57
REMARK SMILES IDX 45 58 54 59 68 60 43 61 44 62 53 64 69 65 46 66 35 67 36 68
REMARK SMILES IDX 40 69 37 70 39 71 38 72 57 73 58 74 62 75 59 76 61 77 60 78
REMARK SMILES IDX 47 79 48 80 52 81 49 82 51 83 50 84
REMARK H PARENT 18 5 74 13 8 17 23 33 67 52 45 63
REMARK Flexibility Score: inf
ROOT
ATOM      1  C   UNL     1       1.209   0.975   1.437  1.00  0.00     0.116 C 
ENDROOT
BRANCH   1   2
ATOM      2  N   UNL     1       0.545   1.375   2.658  1.00  0.00    -0.354 N 
ATOM      3  C   UNL     1      -0.495   2.252   2.792  1.00  0.00     0.243 C 
ATOM      4  O   UNL     1      -0.610   2.822   3.877  1.00  0.00    -0.273 OA
ATOM      5  H   UNL     1       0.882   0.969   3.489  1.00  0.00     0.163 HD
BRANCH   3   6
ATOM      6  C   UNL     1      -1.596   2.256   1.710  1.00  0.00     0.181 C 
ATOM      7  C   UNL     1      -4.207   2.540   3.276  1.00  0.00     0.145 C 
ATOM      8  S   UNL     1      -3.356   4.132   2.884  1.00  0.00    -0.145 SA
ATOM      9  C   UNL     1      -3.264   1.329   3.240  1.00  0.00     0.234 C 
ATOM     10  C   UNL     1      -2.287   3.597   1.518  1.00  0.00     0.105 C 
ATOM     11  N   UNL     1      -2.477   1.175   2.124  1.00  0.00    -0.343 N 
ATOM     12  O   UNL     1      -3.230   0.414   4.057  1.00  0.00    -0.274 OA
ATOM     13  H   UNL     1      -2.509   0.337   1.608  1.00  0.00     0.164 HD
BRANCH   7  14
ATOM     14  C   UNL     1      -5.052   2.760   4.540  1.00  0.00     0.124 C 
BRANCH  14  15
ATOM     15  C   UNL     1      -5.243   1.629   5.532  1.00  0.00     0.226 C 
ATOM     16  N   UNL     1      -5.739   0.407   5.198  1.00  0.00    -0.326 N 
ATOM     17  H   UNL     1      -5.791  -0.223   5.953  1.00  0.00     0.169 HD
ATOM     18  O   UNL     1      -4.948   1.811   6.720  1.00  0.00    -0.275 OA
BRANCH  16  19
ATOM     19  C   UNL     1      -6.188  -0.123   3.985  1.00  0.00     0.041 A 
ATOM     20  C   UNL     1      -6.830  -1.309   1.513  1.00  0.00    -0.045 A 
ATOM     21  C   UNL     1      -7.131   0.036   1.766  1.00  0.00     0.006 A 
ATOM     22  C   UNL     1      -6.254  -2.070   2.538  1.00  0.00     0.006 A 
ATOM     23  C   UNL     1      -6.821   0.621   2.997  1.00  0.00     0.026 A 
ATOM     24  C   UNL     1      -5.951  -1.484   3.767  1.00  0.00     0.026 A 
BRANCH  20  25
ATOM     25  C   UNL     1      -7.168  -1.968   0.189  1.00  0.00     0.013 C 
ATOM     26  C   UNL     1      -8.676  -2.203   0.099  1.00  0.00     0.012 C 
ATOM     27  C   UNL     1      -6.660  -1.171  -1.016  1.00  0.00     0.012 C 
ENDBRANCH  20  25
ENDBRANCH  16  19
ENDBRANCH  14  15
ENDBRANCH   7  14
ENDBRANCH   3   6
ENDBRANCH   1   2
BRANCH   1  28
ATOM     28  C   UNL     1       2.290   1.998   1.088  1.00  0.00     0.023 C 
BRANCH  28  29
ATOM     29  C   UNL     1       3.376   2.140   2.162  1.00  0.00     0.023 C 
BRANCH  29  30
ATOM     30  C   UNL     1       4.052   0.834   2.565  1.00  0.00     0.116 C 
BRANCH  30  31
ATOM     31  N   UNL     1       4.651   0.148   1.430  1.00  0.00    -0.352 N 
ATOM     32  C   UNL     1       5.914  -0.373   1.305  1.00  0.00     0.251 C 
ATOM     33  H   UNL     1       4.070   0.043   0.643  1.00  0.00     0.163 HD
ATOM     34  O   UNL     1       6.312  -0.776   0.216  1.00  0.00    -0.269 OA
BRANCH  32  35
ATOM     35  C   UNL     1       6.801  -0.416   2.483  1.00  0.00     0.039 A 
ATOM     36  C   UNL     1       8.108   0.058   2.360  1.00  0.00     0.014 A 
ATOM     37  C   UNL     1       6.333  -0.895   3.710  1.00  0.00     0.014 A 
ATOM     38  C   UNL     1       8.927   0.119   3.488  1.00  0.00     0.010 A 
ATOM     39  C   UNL     1       7.124  -0.765   4.846  1.00  0.00     0.010 A 
ATOM     40  C   UNL     1       8.427  -0.253   4.747  1.00  0.00    -0.014 A 
BRANCH  40  41
ATOM     41  C   UNL     1       9.245  -0.096   5.975  1.00  0.00     0.031 A 
ATOM     42  C   UNL     1       9.646  -1.301   6.779  1.00  0.00     0.074 A 
ATOM     43  C   UNL     1       9.570   1.140   6.403  1.00  0.00     0.049 A 
ATOM     44  N   UNL     1      10.304  -1.357   7.909  1.00  0.00    -0.248 NA
ATOM     45  C   UNL     1       9.234  -2.614   6.256  1.00  0.00     0.031 C 
ATOM     46  C   UNL     1       9.213   2.392   5.733  1.00  0.00     0.029 A 
ATOM     47  N   UNL     1      10.271   1.546   7.511  1.00  0.00    -0.354 N 
ATOM     48  C   UNL     1      10.373  -2.705   8.237  1.00  0.00     0.074 A 
ATOM     49  C   UNL     1       9.647  -3.428   7.216  1.00  0.00     0.031 C 
ATOM     50  C   UNL     1       9.721   3.423   6.427  1.00  0.00     0.029 A 
ATOM     51  C   UNL     1      10.398   2.910   7.613  1.00  0.00     0.049 A 
ATOM     52  H   UNL     1      10.648   0.918   8.170  1.00  0.00     0.167 HD
ATOM     53  C   UNL     1      11.001  -3.291   9.284  1.00  0.00     0.031 A 
ATOM     54  C   UNL     1      10.983   3.665   8.562  1.00  0.00     0.031 A 
ATOM     55  C   UNL     1      11.723  -2.572  10.300  1.00  0.00     0.049 A 
ATOM     56  C   UNL     1      11.639   2.992   9.735  1.00  0.00     0.074 A 
ATOM     57  C   UNL     1      12.434  -3.079  11.374  1.00  0.00     0.029 A 
ATOM     58  N   UNL     1      11.819  -1.191  10.372  1.00  0.00    -0.354 N 
ATOM     59  N   UNL     1      11.755   1.712   9.995  1.00  0.00    -0.248 NA
ATOM     60  C   UNL     1      12.252   3.869  10.743  1.00  0.00     0.031 C 
ATOM     61  C   UNL     1      12.911  -2.003  12.129  1.00  0.00     0.029 A 
ATOM     62  C   UNL     1      12.553  -0.827  11.489  1.00  0.00     0.049 A 
ATOM     63  H   UNL     1      11.425  -0.562   9.726  1.00  0.00     0.167 HD
ATOM     64  C   UNL     1      12.478   1.630  11.178  1.00  0.00     0.074 A 
ATOM     65  C   UNL     1      12.788   2.988  11.575  1.00  0.00     0.031 C 
ATOM     66  C   UNL     1      12.853   0.528  11.873  1.00  0.00     0.031 A 
BRANCH  53  67
ATOM     67  C   UNL     1      10.924  -4.790   9.387  1.00  0.00    -0.014 A 
ATOM     68  C   UNL     1      11.591  -5.618   8.470  1.00  0.00     0.009 A 
ATOM     69  C   UNL     1      10.205  -5.382  10.436  1.00  0.00     0.009 A 
ATOM     70  C   UNL     1      11.507  -7.008   8.579  1.00  0.00     0.001 A 
ATOM     71  C   UNL     1      10.148  -6.772  10.561  1.00  0.00     0.001 A 
ATOM     72  C   UNL     1      10.790  -7.583   9.627  1.00  0.00     0.000 A 
ENDBRANCH  53  67
BRANCH  54  73
ATOM     73  C   UNL     1      10.984   5.147   8.441  1.00  0.00    -0.014 A 
ATOM     74  C   UNL     1      12.179   5.839   8.190  1.00  0.00     0.009 A 
ATOM     75  C   UNL     1       9.795   5.879   8.585  1.00  0.00     0.009 A 
ATOM     76  C   UNL     1      12.187   7.234   8.116  1.00  0.00     0.001 A 
ATOM     77  C   UNL     1       9.801   7.271   8.479  1.00  0.00     0.001 A 
ATOM     78  C   UNL     1      10.998   7.948   8.255  1.00  0.00     0.000 A 
ENDBRANCH  54  73
BRANCH  66  79
ATOM     79  C   UNL     1      13.673   0.742  13.114  1.00  0.00    -0.014 A 
ATOM     80  C   UNL     1      13.108   1.280  14.281  1.00  0.00     0.009 A 
ATOM     81  C   UNL     1      15.022   0.354  13.129  1.00  0.00     0.009 A 
ATOM     82  C   UNL     1      13.887   1.455  15.426  1.00  0.00     0.001 A 
ATOM     83  C   UNL     1      15.790   0.500  14.285  1.00  0.00     0.001 A 
ATOM     84  C   UNL     1      15.225   1.060  15.429  1.00  0.00     0.000 A 
ENDBRANCH  66  79
ENDBRANCH  40  41
ENDBRANCH  32  35
ENDBRANCH  30  31
ENDBRANCH  29  30
ENDBRANCH  28  29
ENDBRANCH   1  28
TORSDOF 15
