REMARK SMILES CC[NH+]1CCN(c2ccc(NC(=O)C3CCCC3)c(C(=O)NCCCCNC(=O)c3ccc(-c4c5nc(c(-c6ccccc6)c6ccc([nH]6)c(-c6ccccc6)c6nc(c(-c7ccccc7)c7ccc4[nH]7)C=C6)C=C5)cc3)c2)CC1
REMARK SMILES IDX 24 1 23 2 22 3 20 4 21 5 19 7 7 8 8 9 78 10 9 11 10 12 6 13
REMARK SMILES IDX 3 14 4 15 80 16 5 18 79 19 2 20 1 21 11 22 12 23 13 25 14 26
REMARK SMILES IDX 15 27 18 28 16 29 17 30 25 31 26 32 27 33 28 34 29 36 30 37
REMARK SMILES IDX 31 38 77 39 32 40 76 41 33 42 34 43 35 44 70 45 36 46 75 47
REMARK SMILES IDX 69 48 71 49 37 50 74 51 68 52 67 53 38 55 60 56 45 57 59 58
REMARK SMILES IDX 46 59 49 60 58 61 72 62 47 63 48 64 57 66 73 67 50 68 39 69
REMARK SMILES IDX 40 70 44 71 41 72 43 73 42 74 61 75 62 76 66 77 63 78 65 79
REMARK SMILES IDX 64 80 51 81 52 82 56 83 53 84 55 85 54 86
REMARK H PARENT 22 6 3 17 11 24 27 35 71 54 49 65
REMARK Flexibility Score: inf
ROOT
ATOM      1  C   UNL     1       4.282   4.962  -4.735  1.00  0.00     0.023 C 
ENDROOT
BRANCH   1   2
ATOM      2  C   UNL     1       4.919   4.738  -3.371  1.00  0.00     0.116 C 
BRANCH   2   3
ATOM      3  N   UNL     1       5.950   5.696  -2.982  1.00  0.00    -0.352 N 
ATOM      4  C   UNL     1       6.117   6.426  -1.815  1.00  0.00     0.253 C 
ATOM      5  O   UNL     1       7.087   7.175  -1.712  1.00  0.00    -0.269 OA
ATOM      6  H   UNL     1       6.644   5.849  -3.664  1.00  0.00     0.163 HD
BRANCH   4   7
ATOM      7  C   UNL     1       5.087   6.399  -0.737  1.00  0.00     0.065 A 
ATOM      8  C   UNL     1       3.168   5.173   0.148  1.00  0.00     0.038 A 
ATOM      9  C   UNL     1       2.678   6.404   0.585  1.00  0.00     0.028 A 
ATOM     10  C   UNL     1       4.428   5.196  -0.450  1.00  0.00     0.042 A 
ATOM     11  C   UNL     1       3.426   7.578   0.476  1.00  0.00     0.029 A 
ATOM     12  C   UNL     1       4.691   7.573  -0.080  1.00  0.00     0.054 A 
BRANCH   8  13
ATOM     13  N   UNL     1       2.411   4.024   0.228  1.00  0.00    -0.360 N 
ATOM     14  N   UNL     1       0.962   1.862  -1.172  1.00  0.00    -0.332 N 
ATOM     15  C   UNL     1       0.463   3.259  -1.125  1.00  0.00     0.283 C 
ATOM     16  C   UNL     1       2.441   1.909  -1.070  1.00  0.00     0.283 C 
ATOM     17  H   UNL     1       0.718   1.403  -2.050  1.00  0.00     0.348 HD
ATOM     18  C   UNL     1       0.941   4.087   0.095  1.00  0.00     0.178 C 
ATOM     19  C   UNL     1       2.977   2.665   0.168  1.00  0.00     0.178 C 
BRANCH  14  20
ATOM     20  C   UNL     1       0.326   1.063  -0.113  1.00  0.00     0.258 C 
ATOM     21  C   UNL     1       0.714  -0.409  -0.141  1.00  0.00     0.071 C 
ENDBRANCH  14  20
ENDBRANCH   8  13
BRANCH  12  22
ATOM     22  N   UNL     1       5.558   8.675   0.011  1.00  0.00    -0.325 N 
ATOM     23  C   UNL     1       5.713   9.688   0.907  1.00  0.00     0.227 C 
ATOM     24  H   UNL     1       6.195   8.725  -0.738  1.00  0.00     0.169 HD
ATOM     25  O   UNL     1       6.578  10.533   0.624  1.00  0.00    -0.274 OA
BRANCH  23  26
ATOM     26  C   UNL     1       4.945   9.889   2.222  1.00  0.00     0.079 C 
ATOM     27  C   UNL     1       3.683  10.736   2.064  1.00  0.00     0.013 C 
ATOM     28  C   UNL     1       4.584   8.708   3.132  1.00  0.00     0.013 C 
ATOM     29  C   UNL     1       2.821  10.371   3.264  1.00  0.00     0.001 C 
ATOM     30  C   UNL     1       3.119   8.904   3.533  1.00  0.00     0.001 C 
ENDBRANCH  23  26
ENDBRANCH  12  22
ENDBRANCH   4   7
ENDBRANCH   2   3
ENDBRANCH   1   2
BRANCH   1  31
ATOM     31  C   UNL     1       5.187   4.803  -5.946  1.00  0.00     0.023 C 
BRANCH  31  32
ATOM     32  C   UNL     1       6.063   3.558  -5.970  1.00  0.00     0.116 C 
BRANCH  32  33
ATOM     33  N   UNL     1       5.331   2.304  -5.866  1.00  0.00    -0.352 N 
ATOM     34  C   UNL     1       5.424   1.169  -6.642  1.00  0.00     0.251 C 
ATOM     35  H   UNL     1       4.674   2.260  -5.134  1.00  0.00     0.163 HD
ATOM     36  O   UNL     1       4.696   0.210  -6.429  1.00  0.00    -0.269 OA
BRANCH  34  37
ATOM     37  C   UNL     1       6.376   1.137  -7.774  1.00  0.00     0.039 A 
ATOM     38  C   UNL     1       5.910   0.743  -9.031  1.00  0.00     0.014 A 
ATOM     39  C   UNL     1       7.698   1.552  -7.611  1.00  0.00     0.014 A 
ATOM     40  C   UNL     1       6.744   0.866 -10.145  1.00  0.00     0.010 A 
ATOM     41  C   UNL     1       8.497   1.756  -8.731  1.00  0.00     0.010 A 
ATOM     42  C   UNL     1       8.025   1.425 -10.011  1.00  0.00    -0.014 A 
BRANCH  42  43
ATOM     43  C   UNL     1       8.885   1.687 -11.192  1.00  0.00     0.031 A 
ATOM     44  C   UNL     1      10.210   0.990 -11.328  1.00  0.00     0.074 A 
ATOM     45  C   UNL     1       8.514   2.611 -12.100  1.00  0.00     0.049 A 
ATOM     46  N   UNL     1      11.139   1.150 -12.236  1.00  0.00    -0.248 NA
ATOM     47  C   UNL     1      10.548   0.004 -10.289  1.00  0.00     0.031 C 
ATOM     48  C   UNL     1       7.273   3.388 -12.067  1.00  0.00     0.029 A 
ATOM     49  N   UNL     1       9.154   3.059 -13.229  1.00  0.00    -0.354 N 
ATOM     50  C   UNL     1      12.175   0.303 -11.867  1.00  0.00     0.074 A 
ATOM     51  C   UNL     1      11.784  -0.329 -10.626  1.00  0.00     0.031 C 
ATOM     52  C   UNL     1       7.227   4.191 -13.143  1.00  0.00     0.029 A 
ATOM     53  C   UNL     1       8.452   4.019 -13.917  1.00  0.00     0.049 A 
ATOM     54  H   UNL     1      10.033   2.724 -13.519  1.00  0.00     0.167 HD
ATOM     55  C   UNL     1      13.339   0.053 -12.512  1.00  0.00     0.031 A 
ATOM     56  C   UNL     1       8.761   4.690 -15.043  1.00  0.00     0.031 A 
ATOM     57  C   UNL     1      13.725   0.670 -13.752  1.00  0.00     0.049 A 
ATOM     58  C   UNL     1      10.068   4.411 -15.730  1.00  0.00     0.074 A 
ATOM     59  C   UNL     1      14.861   0.445 -14.511  1.00  0.00     0.029 A 
ATOM     60  N   UNL     1      12.984   1.635 -14.416  1.00  0.00    -0.354 N 
ATOM     61  N   UNL     1      11.012   3.563 -15.399  1.00  0.00    -0.248 NA
ATOM     62  C   UNL     1      10.349   5.179 -16.952  1.00  0.00     0.031 C 
ATOM     63  C   UNL     1      14.827   1.306 -15.613  1.00  0.00     0.029 A 
ATOM     64  C   UNL     1      13.646   2.030 -15.566  1.00  0.00     0.049 A 
ATOM     65  H   UNL     1      12.115   1.987 -14.115  1.00  0.00     0.167 HD
ATOM     66  C   UNL     1      11.982   3.674 -16.386  1.00  0.00     0.074 A 
ATOM     67  C   UNL     1      11.508   4.662 -17.334  1.00  0.00     0.031 C 
ATOM     68  C   UNL     1      13.160   3.013 -16.499  1.00  0.00     0.031 A 
BRANCH  55  69
ATOM     69  C   UNL     1      14.278  -0.932 -11.875  1.00  0.00    -0.014 A 
ATOM     70  C   UNL     1      13.969  -2.301 -11.823  1.00  0.00     0.009 A 
ATOM     71  C   UNL     1      15.493  -0.489 -11.330  1.00  0.00     0.009 A 
ATOM     72  C   UNL     1      14.836  -3.199 -11.199  1.00  0.00     0.001 A 
ATOM     73  C   UNL     1      16.373  -1.395 -10.733  1.00  0.00     0.001 A 
ATOM     74  C   UNL     1      16.039  -2.746 -10.658  1.00  0.00     0.000 A 
ENDBRANCH  55  69
BRANCH  56  75
ATOM     75  C   UNL     1       7.805   5.676 -15.611  1.00  0.00    -0.014 A 
ATOM     76  C   UNL     1       7.108   5.383 -16.793  1.00  0.00     0.009 A 
ATOM     77  C   UNL     1       7.587   6.911 -14.982  1.00  0.00     0.009 A 
ATOM     78  C   UNL     1       6.230   6.317 -17.348  1.00  0.00     0.001 A 
ATOM     79  C   UNL     1       6.688   7.833 -15.526  1.00  0.00     0.001 A 
ATOM     80  C   UNL     1       6.018   7.539 -16.712  1.00  0.00     0.000 A 
ENDBRANCH  56  75
BRANCH  68  81
ATOM     81  C   UNL     1      14.000   3.308 -17.709  1.00  0.00    -0.014 A 
ATOM     82  C   UNL     1      14.706   4.514 -17.830  1.00  0.00     0.009 A 
ATOM     83  C   UNL     1      14.119   2.343 -18.722  1.00  0.00     0.009 A 
ATOM     84  C   UNL     1      15.492   4.759 -18.958  1.00  0.00     0.001 A 
ATOM     85  C   UNL     1      14.927   2.580 -19.834  1.00  0.00     0.001 A 
ATOM     86  C   UNL     1      15.606   3.791 -19.955  1.00  0.00     0.000 A 
ENDBRANCH  68  81
ENDBRANCH  42  43
ENDBRANCH  34  37
ENDBRANCH  32  33
ENDBRANCH  31  32
ENDBRANCH   1  31
TORSDOF 15
