REMARK SMILES Cc1cc(N2CCCC2)nc2sc3c(=O)n(CC(=O)NCCCCNC(=O)c4ccc(-c5c6nc(c(-c7ccccc7)c7ccc([nH]7)c(-c7ccccc7)c7nc(c(-c8ccccc8)c8ccc5[nH]8)C=C7)C=C6)cc4)cnc3c12
REMARK SMILES IDX 22 1 21 2 20 3 18 4 19 5 17 7 16 8 1 9 2 10 3 11 79 12 4 13
REMARK SMILES IDX 11 14 78 15 10 16 12 17 13 18 77 19 14 20 76 21 15 22 5 23
REMARK SMILES IDX 6 24 9 25 7 26 8 27 23 28 24 29 25 30 26 31 27 33 28 34
REMARK SMILES IDX 29 35 75 36 30 37 74 38 31 39 32 40 33 41 68 42 34 43 73 44
REMARK SMILES IDX 67 45 69 46 35 47 72 48 66 49 65 50 36 52 58 53 43 54 57 55
REMARK SMILES IDX 44 56 47 57 56 58 70 59 45 60 46 61 55 63 71 64 48 65 37 66
REMARK SMILES IDX 38 67 42 68 39 69 41 70 40 71 59 72 60 73 64 74 61 75 63 76
REMARK SMILES IDX 62 77 49 78 50 79 54 80 51 81 53 82 52 83
REMARK H PARENT 20 6 25 32 69 51 47 62
REMARK Flexibility Score: inf
ROOT
ATOM      1  C   UNL     1      -2.774  -5.651   0.473  1.00  0.00     0.023 C 
ENDROOT
BRANCH   1   2
ATOM      2  C   UNL     1      -1.929  -6.898   0.738  1.00  0.00     0.116 C 
BRANCH   2   3
ATOM      3  N   UNL     1      -1.073  -7.209  -0.392  1.00  0.00    -0.355 N 
ATOM      4  C   UNL     1       0.281  -7.152  -0.518  1.00  0.00     0.240 C 
ATOM      5  O   UNL     1       0.769  -7.492  -1.600  1.00  0.00    -0.273 OA
ATOM      6  H   UNL     1      -1.550  -7.510  -1.199  1.00  0.00     0.163 HD
BRANCH   4   7
ATOM      7  C   UNL     1       1.193  -6.726   0.634  1.00  0.00     0.226 C 
BRANCH   7   8
ATOM      8  N   UNL     1       0.983  -5.346   1.042  1.00  0.00    -0.288 N 
ATOM      9  C   UNL     1       0.837   0.078  -0.007  1.00  0.00     0.045 C 
ATOM     10  C   UNL     1       0.382  -0.134   1.408  1.00  0.00    -0.035 A 
ATOM     11  C   UNL     1      -0.028   0.966   2.176  1.00  0.00     0.051 A 
ATOM     12  C   UNL     1       0.374  -1.391   2.054  1.00  0.00     0.041 A 
ATOM     13  C   UNL     1      -0.383   0.833   3.517  1.00  0.00     0.130 A 
ATOM     14  C   UNL     1      -0.002  -1.407   3.397  1.00  0.00     0.128 A 
ATOM     15  C   UNL     1       0.684  -2.718   1.632  1.00  0.00     0.098 A 
ATOM     16  N   UNL     1      -0.339  -0.346   4.156  1.00  0.00    -0.220 NA
ATOM     17  S   UNL     1      -0.015  -2.983   4.067  1.00  0.00    -0.108 S 
ATOM     18  C   UNL     1       0.472  -3.663   2.597  1.00  0.00     0.121 A 
ATOM     19  N   UNL     1       1.139  -3.055   0.347  1.00  0.00    -0.236 NA
ATOM     20  C   UNL     1       0.640  -5.064   2.360  1.00  0.00     0.271 A 
ATOM     21  C   UNL     1       1.264  -4.329   0.144  1.00  0.00     0.203 A 
ATOM     22  O   UNL     1       0.500  -5.942   3.216  1.00  0.00    -0.268 OA
BRANCH  13  23
ATOM     23  N   UNL     1      -0.736   1.938   4.242  1.00  0.00    -0.357 N 
ATOM     24  C   UNL     1      -1.640   2.981   3.806  1.00  0.00     0.118 C 
ATOM     25  C   UNL     1      -0.006   2.284   5.448  1.00  0.00     0.118 C 
ATOM     26  C   UNL     1      -1.037   4.226   4.443  1.00  0.00     0.023 C 
ATOM     27  C   UNL     1      -0.483   3.706   5.766  1.00  0.00     0.023 C 
ENDBRANCH  13  23
ENDBRANCH   7   8
ENDBRANCH   4   7
ENDBRANCH   2   3
ENDBRANCH   1   2
BRANCH   1  28
ATOM     28  C   UNL     1      -3.915  -5.844  -0.549  1.00  0.00     0.023 C 
BRANCH  28  29
ATOM     29  C   UNL     1      -5.054  -6.789  -0.122  1.00  0.00     0.116 C 
BRANCH  29  30
ATOM     30  N   UNL     1      -5.695  -6.318   1.091  1.00  0.00    -0.352 N 
ATOM     31  C   UNL     1      -7.009  -6.137   1.421  1.00  0.00     0.251 C 
ATOM     32  H   UNL     1      -5.066  -6.086   1.812  1.00  0.00     0.163 HD
ATOM     33  O   UNL     1      -7.268  -5.443   2.404  1.00  0.00    -0.269 OA
BRANCH  31  34
ATOM     34  C   UNL     1      -8.132  -6.756   0.682  1.00  0.00     0.039 A 
ATOM     35  C   UNL     1      -9.316  -6.015   0.574  1.00  0.00     0.014 A 
ATOM     36  C   UNL     1      -8.123  -8.097   0.293  1.00  0.00     0.014 A 
ATOM     37  C   UNL     1     -10.483  -6.605   0.083  1.00  0.00     0.010 A 
ATOM     38  C   UNL     1      -9.298  -8.689  -0.194  1.00  0.00     0.010 A 
ATOM     39  C   UNL     1     -10.491  -7.953  -0.297  1.00  0.00    -0.014 A 
BRANCH  39  40
ATOM     40  C   UNL     1     -11.737  -8.518  -0.872  1.00  0.00     0.031 A 
ATOM     41  C   UNL     1     -11.566  -9.447  -2.027  1.00  0.00     0.074 A 
ATOM     42  C   UNL     1     -12.894  -8.604  -0.176  1.00  0.00     0.049 A 
ATOM     43  N   UNL     1     -11.270 -10.705  -1.870  1.00  0.00    -0.248 NA
ATOM     44  C   UNL     1     -11.483  -8.988  -3.412  1.00  0.00     0.031 C 
ATOM     45  C   UNL     1     -12.956  -8.731   1.286  1.00  0.00     0.029 A 
ATOM     46  N   UNL     1     -14.189  -8.834  -0.587  1.00  0.00    -0.354 N 
ATOM     47  C   UNL     1     -10.907 -11.199  -3.109  1.00  0.00     0.074 A 
ATOM     48  C   UNL     1     -11.075 -10.103  -4.040  1.00  0.00     0.031 C 
ATOM     49  C   UNL     1     -14.175  -9.196   1.630  1.00  0.00     0.029 A 
ATOM     50  C   UNL     1     -15.032  -9.243   0.448  1.00  0.00     0.049 A 
ATOM     51  H   UNL     1     -14.490  -8.721  -1.517  1.00  0.00     0.167 HD
ATOM     52  C   UNL     1     -10.470 -12.472  -3.296  1.00  0.00     0.031 A 
ATOM     53  C   UNL     1     -16.101 -10.076   0.311  1.00  0.00     0.031 A 
ATOM     54  C   UNL     1     -10.415 -13.289  -2.122  1.00  0.00     0.049 A 
ATOM     55  C   UNL     1     -15.417 -11.370  -0.059  1.00  0.00     0.074 A 
ATOM     56  C   UNL     1      -9.476 -13.647  -1.177  1.00  0.00     0.029 A 
ATOM     57  N   UNL     1     -11.581 -13.868  -1.682  1.00  0.00    -0.354 N 
ATOM     58  N   UNL     1     -14.800 -12.191   0.746  1.00  0.00    -0.248 NA
ATOM     59  C   UNL     1     -15.139 -11.581  -1.482  1.00  0.00     0.031 C 
ATOM     60  C   UNL     1     -10.227 -13.995  -0.009  1.00  0.00     0.029 A 
ATOM     61  C   UNL     1     -11.571 -13.785  -0.313  1.00  0.00     0.049 A 
ATOM     62  H   UNL     1     -12.286 -14.265  -2.241  1.00  0.00     0.167 HD
ATOM     63  C   UNL     1     -13.832 -12.818  -0.039  1.00  0.00     0.074 A 
ATOM     64  C   UNL     1     -14.107 -12.408  -1.402  1.00  0.00     0.031 C 
ATOM     65  C   UNL     1     -12.751 -13.481   0.466  1.00  0.00     0.031 A 
BRANCH  52  66
ATOM     66  C   UNL     1     -10.182 -13.070  -4.614  1.00  0.00    -0.014 A 
ATOM     67  C   UNL     1     -11.190 -13.824  -5.235  1.00  0.00     0.009 A 
ATOM     68  C   UNL     1      -8.890 -13.079  -5.149  1.00  0.00     0.009 A 
ATOM     69  C   UNL     1     -10.902 -14.607  -6.351  1.00  0.00     0.001 A 
ATOM     70  C   UNL     1      -8.607 -13.858  -6.275  1.00  0.00     0.001 A 
ATOM     71  C   UNL     1      -9.608 -14.630  -6.866  1.00  0.00     0.000 A 
ENDBRANCH  52  66
BRANCH  53  72
ATOM     72  C   UNL     1     -17.269  -9.566  -0.486  1.00  0.00    -0.014 A 
ATOM     73  C   UNL     1     -17.699  -8.236  -0.303  1.00  0.00     0.009 A 
ATOM     74  C   UNL     1     -18.001 -10.352  -1.392  1.00  0.00     0.009 A 
ATOM     75  C   UNL     1     -18.728  -7.686  -1.075  1.00  0.00     0.001 A 
ATOM     76  C   UNL     1     -19.011  -9.796  -2.188  1.00  0.00     0.001 A 
ATOM     77  C   UNL     1     -19.363  -8.459  -2.041  1.00  0.00     0.000 A 
ENDBRANCH  53  72
BRANCH  65  78
ATOM     78  C   UNL     1     -12.703 -13.670   1.946  1.00  0.00    -0.014 A 
ATOM     79  C   UNL     1     -13.513 -14.632   2.560  1.00  0.00     0.009 A 
ATOM     80  C   UNL     1     -11.779 -12.958   2.729  1.00  0.00     0.009 A 
ATOM     81  C   UNL     1     -13.373 -14.907   3.922  1.00  0.00     0.001 A 
ATOM     82  C   UNL     1     -11.630 -13.243   4.088  1.00  0.00     0.001 A 
ATOM     83  C   UNL     1     -12.422 -14.224   4.681  1.00  0.00     0.000 A 
ENDBRANCH  65  78
ENDBRANCH  39  40
ENDBRANCH  31  34
ENDBRANCH  29  30
ENDBRANCH  28  29
ENDBRANCH   1  28
TORSDOF 13
