REMARK SMILES C[C@@H](C(=O)NCCCCNC(=O)c1ccc(-c2c3nc(c(-c4ccccc4)c4ccc([nH]4)c(-c4ccccc4)c4nc(c(-c5ccccc5)c5ccc2[nH]5)C=C4)C=C3)cc1)c1ccc(Cc2ccoc2)cc1F
REMARK SMILES IDX 7 1 6 2 5 3 3 4 4 5 2 7 1 8 61 9 62 10 72 11 63 12 71 13
REMARK SMILES IDX 73 14 64 15 65 16 66 17 67 18 70 19 68 20 69 21 8 22 9 23
REMARK SMILES IDX 10 24 11 25 12 27 13 28 14 29 60 30 15 31 59 32 16 33 17 34
REMARK SMILES IDX 18 35 53 36 19 37 58 38 52 39 54 40 20 41 57 42 51 43 50 44
REMARK SMILES IDX 21 46 43 47 28 48 42 49 29 50 32 51 41 52 55 53 30 54 31 55
REMARK SMILES IDX 40 57 56 58 33 59 22 60 23 61 27 62 24 63 26 64 25 65 44 66
REMARK SMILES IDX 45 67 49 68 46 69 48 70 47 71 34 72 35 73 39 74 36 75 38 76
REMARK SMILES IDX 37 77
REMARK H PARENT 5 6 10 26 54 45 32 56
REMARK Flexibility Score: inf
ROOT
ATOM      1  C   UNL     1       4.271  -1.002   0.596  1.00  0.00     0.023 C 
ENDROOT
BRANCH   1   2
ATOM      2  C   UNL     1       3.400  -1.812  -0.373  1.00  0.00     0.116 C 
BRANCH   2   3
ATOM      3  N   UNL     1       2.326  -2.476   0.342  1.00  0.00    -0.356 N 
ATOM      4  C   UNL     1       1.030  -2.075   0.531  1.00  0.00     0.227 C 
ATOM      5  O   UNL     1       0.421  -2.593   1.468  1.00  0.00    -0.274 OA
ATOM      6  H   UNL     1       2.564  -3.340   0.750  1.00  0.00     0.163 HD
BRANCH   4   7
ATOM      7  C   UNL     1       0.417  -1.009  -0.399  1.00  0.00     0.108 C 
ATOM      8  C   UNL     1       0.914   0.369   0.069  1.00  0.00     0.023 C 
BRANCH   7   9
ATOM      9  C   UNL     1      -1.111  -1.068  -0.497  1.00  0.00    -0.000 A 
ATOM     10  C   UNL     1      -1.886   0.097  -0.610  1.00  0.00     0.008 A 
ATOM     11  C   UNL     1      -1.802  -2.287  -0.531  1.00  0.00     0.127 A 
ATOM     12  C   UNL     1      -3.281   0.045  -0.654  1.00  0.00     0.004 A 
ATOM     13  C   UNL     1      -3.201  -2.345  -0.524  1.00  0.00     0.043 A 
ATOM     14  F   UNL     1      -1.127  -3.444  -0.597  1.00  0.00    -0.207 F 
ATOM     15  C   UNL     1      -3.964  -1.171  -0.552  1.00  0.00    -0.041 A 
BRANCH  15  16
ATOM     16  C   UNL     1      -5.474  -1.210  -0.538  1.00  0.00     0.074 C 
BRANCH  16  17
ATOM     17  C   UNL     1      -5.939  -0.673   0.780  1.00  0.00    -0.005 A 
ATOM     18  C   UNL     1      -5.886   0.670   1.268  1.00  0.00     0.046 A 
ATOM     19  C   UNL     1      -6.596  -1.378   1.772  1.00  0.00     0.198 A 
ATOM     20  C   UNL     1      -6.476   0.669   2.508  1.00  0.00     0.195 A 
ATOM     21  O   UNL     1      -6.919  -0.573   2.816  1.00  0.00    -0.472 OA
ENDBRANCH  16  17
ENDBRANCH  15  16
ENDBRANCH   7   9
ENDBRANCH   4   7
ENDBRANCH   2   3
ENDBRANCH   1   2
BRANCH   1  22
ATOM     22  C   UNL     1       5.084  -1.839   1.586  1.00  0.00     0.023 C 
BRANCH  22  23
ATOM     23  C   UNL     1       6.077  -2.805   0.954  1.00  0.00     0.116 C 
BRANCH  23  24
ATOM     24  N   UNL     1       7.034  -2.141   0.085  1.00  0.00    -0.352 N 
ATOM     25  C   UNL     1       8.377  -2.363  -0.064  1.00  0.00     0.251 C 
ATOM     26  H   UNL     1       6.662  -1.425  -0.480  1.00  0.00     0.163 HD
ATOM     27  O   UNL     1       9.046  -1.600  -0.764  1.00  0.00    -0.269 OA
BRANCH  25  28
ATOM     28  C   UNL     1       9.038  -3.486   0.634  1.00  0.00     0.039 A 
ATOM     29  C   UNL     1      10.286  -3.260   1.219  1.00  0.00     0.014 A 
ATOM     30  C   UNL     1       8.450  -4.752   0.707  1.00  0.00     0.014 A 
ATOM     31  C   UNL     1      10.918  -4.286   1.923  1.00  0.00     0.010 A 
ATOM     32  C   UNL     1       9.047  -5.755   1.469  1.00  0.00     0.010 A 
ATOM     33  C   UNL     1      10.288  -5.532   2.082  1.00  0.00    -0.014 A 
BRANCH  33  34
ATOM     34  C   UNL     1      10.921  -6.593   2.903  1.00  0.00     0.031 A 
ATOM     35  C   UNL     1      11.395  -7.874   2.274  1.00  0.00     0.074 A 
ATOM     36  C   UNL     1      11.050  -6.406   4.231  1.00  0.00     0.049 A 
ATOM     37  N   UNL     1      12.002  -8.890   2.835  1.00  0.00    -0.248 NA
ATOM     38  C   UNL     1      11.137  -8.047   0.836  1.00  0.00     0.031 C 
ATOM     39  C   UNL     1      10.579  -5.234   4.972  1.00  0.00     0.029 A 
ATOM     40  N   UNL     1      11.623  -7.199   5.194  1.00  0.00    -0.354 N 
ATOM     41  C   UNL     1      12.199  -9.818   1.821  1.00  0.00     0.074 A 
ATOM     42  C   UNL     1      11.597  -9.272   0.624  1.00  0.00     0.031 C 
ATOM     43  C   UNL     1      10.913  -5.368   6.266  1.00  0.00     0.029 A 
ATOM     44  C   UNL     1      11.595  -6.644   6.450  1.00  0.00     0.049 A 
ATOM     45  H   UNL     1      12.016  -8.081   5.002  1.00  0.00     0.167 HD
ATOM     46  C   UNL     1      12.845 -11.008   1.873  1.00  0.00     0.031 A 
ATOM     47  C   UNL     1      12.073  -7.107   7.620  1.00  0.00     0.031 A 
ATOM     48  C   UNL     1      13.443 -11.556   3.061  1.00  0.00     0.049 A 
ATOM     49  C   UNL     1      12.792  -8.425   7.648  1.00  0.00     0.074 A 
ATOM     50  C   UNL     1      14.151 -12.737   3.206  1.00  0.00     0.029 A 
ATOM     51  N   UNL     1      13.403 -10.958   4.311  1.00  0.00    -0.354 N 
ATOM     52  N   UNL     1      13.033  -9.257   6.663  1.00  0.00    -0.248 NA
ATOM     53  C   UNL     1      13.323  -8.858   8.948  1.00  0.00     0.031 C 
ATOM     54  C   UNL     1      14.504 -12.873   4.553  1.00  0.00     0.029 A 
ATOM     55  C   UNL     1      14.060 -11.753   5.236  1.00  0.00     0.049 A 
ATOM     56  H   UNL     1      12.971 -10.097   4.512  1.00  0.00     0.167 HD
ATOM     57  C   UNL     1      13.758 -10.301   7.221  1.00  0.00     0.074 A 
ATOM     58  C   UNL     1      13.943  -9.983   8.622  1.00  0.00     0.031 C 
ATOM     59  C   UNL     1      14.224 -11.428   6.628  1.00  0.00     0.031 A 
BRANCH  46  60
ATOM     60  C   UNL     1      12.945 -11.796   0.597  1.00  0.00    -0.014 A 
ATOM     61  C   UNL     1      13.781 -11.372  -0.449  1.00  0.00     0.009 A 
ATOM     62  C   UNL     1      12.233 -12.996   0.452  1.00  0.00     0.009 A 
ATOM     63  C   UNL     1      13.878 -12.118  -1.625  1.00  0.00     0.001 A 
ATOM     64  C   UNL     1      12.353 -13.755  -0.714  1.00  0.00     0.001 A 
ATOM     65  C   UNL     1      13.169 -13.312  -1.755  1.00  0.00     0.000 A 
ENDBRANCH  46  60
BRANCH  47  66
ATOM     66  C   UNL     1      11.905  -6.309   8.862  1.00  0.00    -0.014 A 
ATOM     67  C   UNL     1      13.010  -5.692   9.471  1.00  0.00     0.009 A 
ATOM     68  C   UNL     1      10.640  -6.172   9.453  1.00  0.00     0.009 A 
ATOM     69  C   UNL     1      12.855  -4.985  10.665  1.00  0.00     0.001 A 
ATOM     70  C   UNL     1      10.484  -5.439  10.631  1.00  0.00     0.001 A 
ATOM     71  C   UNL     1      11.593  -4.855  11.242  1.00  0.00     0.000 A 
ENDBRANCH  47  66
BRANCH  59  72
ATOM     72  C   UNL     1      14.992 -12.383   7.498  1.00  0.00    -0.014 A 
ATOM     73  C   UNL     1      14.348 -13.150   8.480  1.00  0.00     0.009 A 
ATOM     74  C   UNL     1      16.378 -12.521   7.326  1.00  0.00     0.009 A 
ATOM     75  C   UNL     1      15.083 -14.003   9.305  1.00  0.00     0.001 A 
ATOM     76  C   UNL     1      17.107 -13.396   8.132  1.00  0.00     0.001 A 
ATOM     77  C   UNL     1      16.461 -14.127   9.129  1.00  0.00     0.000 A 
ENDBRANCH  59  72
ENDBRANCH  33  34
ENDBRANCH  25  28
ENDBRANCH  23  24
ENDBRANCH  22  23
ENDBRANCH   1  22
TORSDOF 14
