REMARK SMILES COc1ccc2[nH]cc([C@H](C(=O)NCCCCNC(=O)c3ccc(-c4c5nc(c(-c6ccccc6)c6ccc([nH]6)c(-c6ccccc6)c6nc(c(-c7ccccc7)c7ccc4[nH]7)C=C6)C=C5)cc3)[NH+]3CC[NH+](Cc4cccc5ccccc45)CC3)c2c1
REMARK SMILES IDX 15 1 14 2 13 3 11 4 12 5 10 7 9 8 3 9 4 10 87 11 5 12 86 13
REMARK SMILES IDX 6 14 7 15 8 16 2 18 1 19 69 20 70 21 85 22 71 24 84 25 72 26
REMARK SMILES IDX 73 28 74 29 75 30 83 31 76 32 78 33 82 34 77 35 79 36 81 37
REMARK SMILES IDX 80 38 16 39 17 40 18 41 19 42 20 44 21 45 22 46 68 47 23 48
REMARK SMILES IDX 67 49 24 50 25 51 26 52 61 53 27 54 66 55 60 56 62 57 28 58
REMARK SMILES IDX 65 59 59 60 58 61 29 63 51 64 36 65 50 66 37 67 40 68 49 69
REMARK SMILES IDX 63 70 38 71 39 72 48 74 64 75 41 76 30 77 31 78 35 79 32 80
REMARK SMILES IDX 34 81 33 82 52 83 53 84 57 85 54 86 56 87 55 88 42 89 43 90
REMARK SMILES IDX 47 91 44 92 46 93 45 94
REMARK H PARENT 13 6 7 17 69 23 72 27 18 43 62 62 40 73
REMARK Flexibility Score: inf
ROOT
ATOM      1  C   UNL     1       0.053  -5.061  -2.224  1.00  0.00     0.023 C 
ENDROOT
BRANCH   1   2
ATOM      2  C   UNL     1      -0.452  -3.614  -2.450  1.00  0.00     0.116 C 
BRANCH   2   3
ATOM      3  N   UNL     1       0.021  -2.901  -3.639  1.00  0.00    -0.351 N 
ATOM      4  C   UNL     1      -0.582  -2.374  -4.770  1.00  0.00     0.283 C 
ATOM      5  O   UNL     1       0.071  -1.444  -5.255  1.00  0.00    -0.268 OA
ATOM      6  H   UNL     1       0.996  -2.764  -3.634  1.00  0.00     0.163 HD
BRANCH   4   7
ATOM      7  C   UNL     1      -1.948  -2.882  -5.365  1.00  0.00     0.308 C 
BRANCH   7   8
ATOM      8  C   UNL     1      -2.705  -1.988  -6.334  1.00  0.00     0.045 A 
ATOM      9  C   UNL     1      -0.841  -0.061  -9.093  1.00  0.00     0.119 A 
ATOM     10  C   UNL     1      -1.970   0.323  -9.805  1.00  0.00     0.048 A 
ATOM     11  C   UNL     1      -0.955  -0.847  -7.945  1.00  0.00     0.057 A 
ATOM     12  C   UNL     1      -3.245  -0.029  -9.357  1.00  0.00     0.030 A 
ATOM     13  C   UNL     1      -2.227  -1.186  -7.436  1.00  0.00     0.013 A 
ATOM     14  C   UNL     1      -3.342  -0.767  -8.169  1.00  0.00     0.046 A 
ATOM     15  N   UNL     1      -4.456  -1.259  -7.536  1.00  0.00    -0.361 N 
ATOM     16  C   UNL     1      -4.093  -1.977  -6.433  1.00  0.00     0.094 A 
ATOM     17  H   UNL     1      -5.383  -1.115  -7.834  1.00  0.00     0.166 HD
BRANCH   9  18
ATOM     18  O   UNL     1       0.430   0.233  -9.514  1.00  0.00    -0.497 OA
ATOM     19  C   UNL     1       0.632   1.638  -9.646  1.00  0.00     0.278 C 
ENDBRANCH   9  18
ENDBRANCH   7   8
BRANCH   7  20
ATOM     20  N   UNL     1      -1.922  -4.235  -5.955  1.00  0.00    -0.312 N 
ATOM     21  C   UNL     1      -1.763  -4.581  -7.368  1.00  0.00     0.325 C 
ATOM     22  C   UNL     1      -1.324  -5.229  -5.124  1.00  0.00     0.325 C 
ATOM     23  H   UNL     1      -2.941  -4.202  -5.987  1.00  0.00     0.349 HD
ATOM     24  C   UNL     1      -0.503  -5.425  -7.804  1.00  0.00     0.324 C 
ATOM     25  C   UNL     1       0.147  -5.489  -5.506  1.00  0.00     0.324 C 
ATOM     26  N   UNL     1       0.274  -6.162  -6.792  1.00  0.00    -0.322 N 
ATOM     27  H   UNL     1       1.229  -6.117  -7.145  1.00  0.00     0.348 HD
BRANCH  26  28
ATOM     28  C   UNL     1       0.165  -7.636  -6.705  1.00  0.00     0.300 C 
BRANCH  28  29
ATOM     29  C   UNL     1      -1.036  -8.204  -5.948  1.00  0.00     0.014 A 
ATOM     30  C   UNL     1      -0.910  -8.440  -4.558  1.00  0.00     0.010 A 
ATOM     31  C   UNL     1      -2.322  -8.246  -6.544  1.00  0.00    -0.010 A 
ATOM     32  C   UNL     1      -2.041  -8.548  -3.748  1.00  0.00     0.001 A 
ATOM     33  C   UNL     1      -3.462  -8.252  -5.700  1.00  0.00    -0.018 A 
ATOM     34  C   UNL     1      -2.523  -8.207  -7.936  1.00  0.00     0.009 A 
ATOM     35  C   UNL     1      -3.307  -8.399  -4.311  1.00  0.00     0.009 A 
ATOM     36  C   UNL     1      -4.733  -8.056  -6.263  1.00  0.00     0.009 A 
ATOM     37  C   UNL     1      -3.797  -8.077  -8.483  1.00  0.00     0.001 A 
ATOM     38  C   UNL     1      -4.897  -7.959  -7.645  1.00  0.00     0.001 A 
ENDBRANCH  28  29
ENDBRANCH  26  28
ENDBRANCH   7  20
ENDBRANCH   4   7
ENDBRANCH   2   3
ENDBRANCH   1   2
BRANCH   1  39
ATOM     39  C   UNL     1       1.540  -5.325  -2.456  1.00  0.00     0.023 C 
BRANCH  39  40
ATOM     40  C   UNL     1       2.378  -5.137  -1.214  1.00  0.00     0.116 C 
BRANCH  40  41
ATOM     41  N   UNL     1       1.990  -6.069  -0.156  1.00  0.00    -0.352 N 
ATOM     42  C   UNL     1       2.771  -6.912   0.589  1.00  0.00     0.251 C 
ATOM     43  H   UNL     1       1.028  -6.093   0.051  1.00  0.00     0.163 HD
ATOM     44  O   UNL     1       2.259  -7.780   1.292  1.00  0.00    -0.269 OA
BRANCH  42  45
ATOM     45  C   UNL     1       4.234  -6.773   0.516  1.00  0.00     0.039 A 
ATOM     46  C   UNL     1       5.031  -7.915   0.424  1.00  0.00     0.014 A 
ATOM     47  C   UNL     1       4.801  -5.498   0.479  1.00  0.00     0.014 A 
ATOM     48  C   UNL     1       6.401  -7.770   0.218  1.00  0.00     0.010 A 
ATOM     49  C   UNL     1       6.136  -5.358   0.150  1.00  0.00     0.010 A 
ATOM     50  C   UNL     1       6.951  -6.492   0.036  1.00  0.00    -0.014 A 
BRANCH  50  51
ATOM     51  C   UNL     1       8.386  -6.292  -0.253  1.00  0.00     0.031 A 
ATOM     52  C   UNL     1       9.223  -5.490   0.704  1.00  0.00     0.074 A 
ATOM     53  C   UNL     1       8.899  -6.744  -1.412  1.00  0.00     0.049 A 
ATOM     54  N   UNL     1      10.464  -5.100   0.587  1.00  0.00    -0.248 NA
ATOM     55  C   UNL     1       8.562  -5.030   1.939  1.00  0.00     0.031 C 
ATOM     56  C   UNL     1       8.162  -7.491  -2.435  1.00  0.00     0.029 A 
ATOM     57  N   UNL     1      10.163  -6.630  -1.930  1.00  0.00    -0.354 N 
ATOM     58  C   UNL     1      10.721  -4.333   1.716  1.00  0.00     0.074 A 
ATOM     59  C   UNL     1       9.492  -4.254   2.470  1.00  0.00     0.031 C 
ATOM     60  C   UNL     1       8.997  -7.800  -3.439  1.00  0.00     0.029 A 
ATOM     61  C   UNL     1      10.309  -7.228  -3.158  1.00  0.00     0.049 A 
ATOM     62  H   UNL     1      10.896  -6.164  -1.466  1.00  0.00     0.167 HD
ATOM     63  C   UNL     1      11.887  -3.768   2.103  1.00  0.00     0.031 A 
ATOM     64  C   UNL     1      11.381  -7.296  -3.967  1.00  0.00     0.031 A 
ATOM     65  C   UNL     1      13.106  -3.864   1.348  1.00  0.00     0.049 A 
ATOM     66  C   UNL     1      12.658  -6.636  -3.529  1.00  0.00     0.074 A 
ATOM     67  C   UNL     1      14.361  -3.385   1.672  1.00  0.00     0.029 A 
ATOM     68  N   UNL     1      13.215  -4.482   0.111  1.00  0.00    -0.354 N 
ATOM     69  N   UNL     1      12.911  -5.981  -2.421  1.00  0.00    -0.248 NA
ATOM     70  C   UNL     1      13.799  -6.728  -4.449  1.00  0.00     0.031 C 
ATOM     71  C   UNL     1      15.217  -3.660   0.601  1.00  0.00     0.029 A 
ATOM     72  C   UNL     1      14.510  -4.367  -0.359  1.00  0.00     0.049 A 
ATOM     73  H   UNL     1      12.480  -4.936  -0.361  1.00  0.00     0.167 HD
ATOM     74  C   UNL     1      14.244  -5.601  -2.500  1.00  0.00     0.074 A 
ATOM     75  C   UNL     1      14.750  -6.118  -3.756  1.00  0.00     0.031 C 
ATOM     76  C   UNL     1      14.984  -4.888  -1.616  1.00  0.00     0.031 A 
BRANCH  63  77
ATOM     77  C   UNL     1      11.886  -2.994   3.393  1.00  0.00    -0.014 A 
ATOM     78  C   UNL     1      11.700  -3.636   4.629  1.00  0.00     0.009 A 
ATOM     79  C   UNL     1      12.085  -1.606   3.375  1.00  0.00     0.009 A 
ATOM     80  C   UNL     1      11.667  -2.897   5.814  1.00  0.00     0.001 A 
ATOM     81  C   UNL     1      12.086  -0.874   4.564  1.00  0.00     0.001 A 
ATOM     82  C   UNL     1      11.865  -1.518   5.780  1.00  0.00     0.000 A 
ENDBRANCH  63  77
BRANCH  64  83
ATOM     83  C   UNL     1      11.294  -8.023  -5.261  1.00  0.00    -0.014 A 
ATOM     84  C   UNL     1      11.987  -9.230  -5.444  1.00  0.00     0.009 A 
ATOM     85  C   UNL     1      10.513  -7.524  -6.315  1.00  0.00     0.009 A 
ATOM     86  C   UNL     1      11.918  -9.909  -6.663  1.00  0.00     0.001 A 
ATOM     87  C   UNL     1      10.421  -8.221  -7.522  1.00  0.00     0.001 A 
ATOM     88  C   UNL     1      11.131  -9.407  -7.699  1.00  0.00     0.000 A 
ENDBRANCH  64  83
BRANCH  76  89
ATOM     89  C   UNL     1      16.424  -4.646  -1.966  1.00  0.00    -0.014 A 
ATOM     90  C   UNL     1      16.784  -3.741  -2.976  1.00  0.00     0.009 A 
ATOM     91  C   UNL     1      17.434  -5.286  -1.230  1.00  0.00     0.009 A 
ATOM     92  C   UNL     1      18.130  -3.501  -3.259  1.00  0.00     0.001 A 
ATOM     93  C   UNL     1      18.777  -5.020  -1.493  1.00  0.00     0.001 A 
ATOM     94  C   UNL     1      19.124  -4.134  -2.512  1.00  0.00     0.000 A 
ENDBRANCH  76  89
ENDBRANCH  50  51
ENDBRANCH  42  45
ENDBRANCH  40  41
ENDBRANCH  39  40
ENDBRANCH   1  39
TORSDOF 16
