REMARK SMILES Cc1cccc(S(=O)(=O)Nc2cc(C(=O)NCCCCNC(=O)c3ccc(-c4c5nc(c(-c6ccccc6)c6ccc([nH]6)c(-c6ccccc6)c6nc(c(-c7ccccc7)c7ccc4[nH]7)C=C6)C=C5)cc3)ccc2N2CCC[C@H](C[NH+]3CCCC3)C2)c1
REMARK SMILES IDX 18 1 17 2 16 3 14 4 15 5 13 7 11 8 12 9 74 10 73 11 72 12
REMARK SMILES IDX 10 13 7 15 8 16 9 17 6 18 1 19 2 20 3 21 87 22 4 23 5 24
REMARK SMILES IDX 75 25 76 26 86 27 77 28 79 29 78 30 80 31 81 32 82 33 85 34
REMARK SMILES IDX 83 36 84 37 19 38 20 39 21 40 22 41 23 43 24 44 25 45 71 46
REMARK SMILES IDX 26 47 70 48 27 49 28 50 29 51 64 52 30 53 69 54 63 55 65 56
REMARK SMILES IDX 31 57 68 58 62 59 61 60 32 62 54 63 39 64 53 65 40 66 43 67
REMARK SMILES IDX 52 68 66 69 41 70 42 71 51 73 67 74 44 75 33 76 34 77 38 78
REMARK SMILES IDX 35 79 37 80 36 81 55 82 56 83 60 84 57 85 59 86 58 87 45 88
REMARK SMILES IDX 46 89 50 90 47 91 49 92 48 93
REMARK H PARENT 16 6 10 14 81 35 21 42 65 61 43 72
REMARK Flexibility Score: inf
ROOT
ATOM      1  C   UNL     1       0.314   1.774  -4.237  1.00  0.00     0.023 C 
ENDROOT
BRANCH   1   2
ATOM      2  C   UNL     1       1.006   0.991  -3.113  1.00  0.00     0.116 C 
BRANCH   2   3
ATOM      3  N   UNL     1       2.425   1.299  -3.029  1.00  0.00    -0.352 N 
ATOM      4  C   UNL     1       3.147   2.219  -2.310  1.00  0.00     0.251 C 
ATOM      5  O   UNL     1       4.373   2.194  -2.438  1.00  0.00    -0.269 OA
ATOM      6  H   UNL     1       2.983   0.730  -3.607  1.00  0.00     0.163 HD
BRANCH   4   7
ATOM      7  C   UNL     1       2.547   3.188  -1.348  1.00  0.00     0.042 A 
ATOM      8  C   UNL     1       0.681   4.293  -0.271  1.00  0.00     0.073 A 
ATOM      9  C   UNL     1       1.207   3.554  -1.332  1.00  0.00     0.042 A 
ATOM     10  C   UNL     1       1.510   4.845   0.723  1.00  0.00     0.061 A 
ATOM     11  C   UNL     1       2.880   4.567   0.638  1.00  0.00     0.029 A 
ATOM     12  C   UNL     1       3.388   3.726  -0.361  1.00  0.00     0.016 A 
BRANCH   8  13
ATOM     13  N   UNL     1      -0.742   4.414  -0.191  1.00  0.00    -0.277 N 
ATOM     14  H   UNL     1      -1.180   5.260  -0.440  1.00  0.00     0.180 HD
BRANCH  13  15
ATOM     15  S   UNL     1      -1.679   3.088   0.338  1.00  0.00     0.261 S 
ATOM     16  O   UNL     1      -2.682   2.912  -0.698  1.00  0.00    -0.201 OA
ATOM     17  O   UNL     1      -2.096   3.383   1.692  1.00  0.00    -0.201 OA
BRANCH  15  18
ATOM     18  C   UNL     1      -0.739   1.570   0.409  1.00  0.00     0.088 A 
ATOM     19  C   UNL     1       2.753   0.222   1.163  1.00  0.00     0.044 C 
ATOM     20  C   UNL     1       1.299   0.293   0.800  1.00  0.00    -0.050 A 
ATOM     21  C   UNL     1       0.700  -0.825   0.222  1.00  0.00     0.003 A 
ATOM     22  C   UNL     1       0.545   1.470   0.961  1.00  0.00     0.025 A 
ATOM     23  C   UNL     1      -0.607  -0.750  -0.237  1.00  0.00     0.002 A 
ATOM     24  C   UNL     1      -1.327   0.437  -0.159  1.00  0.00     0.022 A 
ENDBRANCH  15  18
ENDBRANCH  13  15
ENDBRANCH   8  13
BRANCH  10  25
ATOM     25  N   UNL     1       1.048   5.641   1.754  1.00  0.00    -0.369 N 
ATOM     26  C   UNL     1       1.279   7.079   1.662  1.00  0.00     0.116 C 
ATOM     27  C   UNL     1       0.102   5.160   2.758  1.00  0.00     0.126 C 
ATOM     28  C   UNL     1       1.684   7.613   3.033  1.00  0.00     0.022 C 
ATOM     29  C   UNL     1       0.503   5.650   4.160  1.00  0.00     0.064 C 
ATOM     30  C   UNL     1       0.691   7.177   4.110  1.00  0.00     0.013 C 
BRANCH  29  31
ATOM     31  C   UNL     1       1.720   4.825   4.654  1.00  0.00     0.267 C 
BRANCH  31  32
ATOM     32  N   UNL     1       2.126   4.881   6.060  1.00  0.00    -0.335 N 
ATOM     33  C   UNL     1       1.078   4.581   7.033  1.00  0.00     0.262 C 
ATOM     34  C   UNL     1       2.803   6.102   6.486  1.00  0.00     0.262 C 
ATOM     35  H   UNL     1       2.805   4.121   6.064  1.00  0.00     0.348 HD
ATOM     36  C   UNL     1       0.650   5.927   7.582  1.00  0.00     0.067 C 
ATOM     37  C   UNL     1       1.923   6.753   7.546  1.00  0.00     0.067 C 
ENDBRANCH  31  32
ENDBRANCH  29  31
ENDBRANCH  10  25
ENDBRANCH   4   7
ENDBRANCH   2   3
ENDBRANCH   1   2
BRANCH   1  38
ATOM     38  C   UNL     1       0.729   1.324  -5.636  1.00  0.00     0.023 C 
BRANCH  38  39
ATOM     39  C   UNL     1       0.093   0.005  -6.047  1.00  0.00     0.116 C 
BRANCH  39  40
ATOM     40  N   UNL     1      -1.160   0.144  -6.775  1.00  0.00    -0.352 N 
ATOM     41  C   UNL     1      -2.067  -0.827  -7.174  1.00  0.00     0.251 C 
ATOM     42  H   UNL     1      -1.401   1.067  -7.021  1.00  0.00     0.163 HD
ATOM     43  O   UNL     1      -3.038  -0.520  -7.836  1.00  0.00    -0.269 OA
BRANCH  41  44
ATOM     44  C   UNL     1      -1.931  -2.217  -6.658  1.00  0.00     0.039 A 
ATOM     45  C   UNL     1      -3.096  -2.849  -6.204  1.00  0.00     0.014 A 
ATOM     46  C   UNL     1      -0.687  -2.785  -6.405  1.00  0.00     0.014 A 
ATOM     47  C   UNL     1      -2.997  -3.875  -5.270  1.00  0.00     0.010 A 
ATOM     48  C   UNL     1      -0.581  -3.714  -5.393  1.00  0.00     0.010 A 
ATOM     49  C   UNL     1      -1.736  -4.197  -4.773  1.00  0.00    -0.014 A 
BRANCH  49  50
ATOM     50  C   UNL     1      -1.531  -4.900  -3.517  1.00  0.00     0.031 A 
ATOM     51  C   UNL     1      -1.045  -6.288  -3.504  1.00  0.00     0.074 A 
ATOM     52  C   UNL     1      -1.692  -4.230  -2.355  1.00  0.00     0.049 A 
ATOM     53  N   UNL     1      -1.197  -7.099  -2.513  1.00  0.00    -0.248 NA
ATOM     54  C   UNL     1      -0.395  -6.898  -4.656  1.00  0.00     0.031 C 
ATOM     55  C   UNL     1      -1.255  -4.644  -1.025  1.00  0.00     0.029 A 
ATOM     56  N   UNL     1      -2.499  -3.119  -2.116  1.00  0.00    -0.354 N 
ATOM     57  C   UNL     1      -0.389  -8.185  -2.751  1.00  0.00     0.074 A 
ATOM     58  C   UNL     1      -0.018  -8.072  -4.143  1.00  0.00     0.031 C 
ATOM     59  C   UNL     1      -2.027  -4.032  -0.113  1.00  0.00     0.029 A 
ATOM     60  C   UNL     1      -3.052  -3.298  -0.842  1.00  0.00     0.049 A 
ATOM     61  H   UNL     1      -2.652  -2.359  -2.724  1.00  0.00     0.167 HD
ATOM     62  C   UNL     1       0.010  -8.957  -1.700  1.00  0.00     0.031 A 
ATOM     63  C   UNL     1      -4.388  -3.331  -0.585  1.00  0.00     0.031 A 
ATOM     64  C   UNL     1      -0.665  -8.569  -0.456  1.00  0.00     0.049 A 
ATOM     65  C   UNL     1      -4.768  -4.625   0.089  1.00  0.00     0.074 A 
ATOM     66  C   UNL     1      -0.254  -7.870   0.668  1.00  0.00     0.029 A 
ATOM     67  N   UNL     1      -2.056  -8.643  -0.380  1.00  0.00    -0.354 N 
ATOM     68  N   UNL     1      -4.035  -5.705   0.014  1.00  0.00    -0.248 NA
ATOM     69  C   UNL     1      -5.965  -4.816   0.899  1.00  0.00     0.031 C 
ATOM     70  C   UNL     1      -1.413  -7.452   1.376  1.00  0.00     0.029 A 
ATOM     71  C   UNL     1      -2.527  -7.928   0.704  1.00  0.00     0.049 A 
ATOM     72  H   UNL     1      -2.625  -9.138  -1.013  1.00  0.00     0.167 HD
ATOM     73  C   UNL     1      -4.575  -6.676   0.806  1.00  0.00     0.074 A 
ATOM     74  C   UNL     1      -5.806  -6.088   1.310  1.00  0.00     0.031 C 
ATOM     75  C   UNL     1      -3.954  -7.875   1.008  1.00  0.00     0.031 A 
BRANCH  62  76
ATOM     76  C   UNL     1       1.243  -9.840  -1.754  1.00  0.00    -0.014 A 
ATOM     77  C   UNL     1       1.936 -10.152  -0.570  1.00  0.00     0.009 A 
ATOM     78  C   UNL     1       1.822 -10.333  -2.937  1.00  0.00     0.009 A 
ATOM     79  C   UNL     1       3.169 -10.823  -0.578  1.00  0.00     0.001 A 
ATOM     80  C   UNL     1       3.070 -10.972  -2.961  1.00  0.00     0.001 A 
ATOM     81  C   UNL     1       3.751 -11.208  -1.779  1.00  0.00     0.000 A 
ENDBRANCH  62  76
BRANCH  63  82
ATOM     82  C   UNL     1      -5.209  -2.546  -1.544  1.00  0.00    -0.014 A 
ATOM     83  C   UNL     1      -5.082  -1.141  -1.500  1.00  0.00     0.009 A 
ATOM     84  C   UNL     1      -5.720  -3.134  -2.709  1.00  0.00     0.009 A 
ATOM     85  C   UNL     1      -5.326  -0.361  -2.634  1.00  0.00     0.001 A 
ATOM     86  C   UNL     1      -5.976  -2.345  -3.841  1.00  0.00     0.001 A 
ATOM     87  C   UNL     1      -5.742  -0.969  -3.815  1.00  0.00     0.000 A 
ENDBRANCH  63  82
BRANCH  75  88
ATOM     88  C   UNL     1      -4.602  -9.094   1.607  1.00  0.00    -0.014 A 
ATOM     89  C   UNL     1      -5.985  -9.317   1.612  1.00  0.00     0.009 A 
ATOM     90  C   UNL     1      -3.784 -10.158   2.045  1.00  0.00     0.009 A 
ATOM     91  C   UNL     1      -6.525 -10.525   2.072  1.00  0.00     0.001 A 
ATOM     92  C   UNL     1      -4.315 -11.380   2.460  1.00  0.00     0.001 A 
ATOM     93  C   UNL     1      -5.691 -11.559   2.483  1.00  0.00     0.000 A 
ENDBRANCH  75  88
ENDBRANCH  49  50
ENDBRANCH  41  44
ENDBRANCH  39  40
ENDBRANCH  38  39
ENDBRANCH   1  38
TORSDOF 17
