REMARK SMILES CC1=C(C(=O)OCC(C)C)[C@@H](c2ccc(C(=O)NCCCCNC(=O)c3ccc(-c4c5nc(c(-c6ccccc6)c6ccc([nH]6)c(-c6ccccc6)c6nc(c(-c7ccccc7)c7ccc4[nH]7)C=C6)C=C5)cc3)cc2)c2c(n(C)c(=O)n(C)c2=O)N1
REMARK SMILES IDX 19 1 18 2 16 3 17 4 15 6 12 7 13 8 75 9 14 10 74 11 11 12
REMARK SMILES IDX 1 13 2 14 3 15 86 16 77 17 76 19 78 20 84 21 79 22 80 23
REMARK SMILES IDX 82 24 85 25 81 26 83 27 4 28 5 29 6 30 7 31 8 32 9 33 10 34
REMARK SMILES IDX 20 35 21 36 22 37 23 38 24 39 25 41 26 42 27 43 73 44 28 45
REMARK SMILES IDX 72 46 29 47 30 48 31 49 66 50 32 51 71 52 65 53 67 54 33 55
REMARK SMILES IDX 70 56 64 57 63 58 34 60 56 61 41 62 55 63 42 64 45 65 54 66
REMARK SMILES IDX 68 67 43 68 44 69 53 71 69 72 46 73 35 74 36 75 40 76 37 77
REMARK SMILES IDX 39 78 38 79 57 80 58 81 62 82 59 83 61 84 60 85 47 86 48 87
REMARK SMILES IDX 52 88 49 89 51 90 50 91
REMARK H PARENT 18 5 86 18 23 40 67 59 45 70
REMARK Flexibility Score: inf
ROOT
ATOM      1  C   UNL     1      -7.361  -4.423   1.541  1.00  0.00     0.116 C 
ENDROOT
BRANCH   1   2
ATOM      2  N   UNL     1      -7.245  -3.996   0.163  1.00  0.00    -0.352 N 
ATOM      3  C   UNL     1      -6.204  -3.448  -0.540  1.00  0.00     0.251 C 
ATOM      4  O   UNL     1      -6.410  -3.173  -1.724  1.00  0.00    -0.269 OA
ATOM      5  H   UNL     1      -8.065  -4.122  -0.367  1.00  0.00     0.163 HD
BRANCH   3   6
ATOM      6  C   UNL     1      -4.843  -3.223   0.033  1.00  0.00     0.039 A 
ATOM      7  C   UNL     1      -2.179  -2.917   0.932  1.00  0.00    -0.035 A 
ATOM      8  C   UNL     1      -2.465  -2.989  -0.440  1.00  0.00     0.005 A 
ATOM      9  C   UNL     1      -3.240  -2.938   1.840  1.00  0.00     0.005 A 
ATOM     10  C   UNL     1      -3.781  -3.152  -0.879  1.00  0.00     0.014 A 
ATOM     11  C   UNL     1      -4.557  -3.059   1.390  1.00  0.00     0.014 A 
BRANCH   7  12
ATOM     12  C   UNL     1      -0.746  -2.792   1.455  1.00  0.00     0.098 C 
ATOM     13  C   UNL     1       1.461   0.083  -0.047  1.00  0.00     0.065 C 
ATOM     14  C   UNL     1       0.841  -1.244   0.307  1.00  0.00     0.025 C 
ATOM     15  C   UNL     1      -0.203  -1.403   1.148  1.00  0.00     0.068 C 
ATOM     16  N   UNL     1       1.447  -2.365  -0.248  1.00  0.00    -0.344 N 
ATOM     17  C   UNL     1       1.156  -3.684   0.074  1.00  0.00     0.123 A 
ATOM     18  H   UNL     1       2.143  -2.211  -0.928  1.00  0.00     0.168 HD
ATOM     19  C   UNL     1       0.126  -3.911   0.909  1.00  0.00     0.071 A 
ATOM     20  N   UNL     1       1.880  -4.757  -0.422  1.00  0.00    -0.282 N 
ATOM     21  C   UNL     1      -0.194  -5.286   1.342  1.00  0.00     0.262 A 
ATOM     22  C   UNL     1       3.038  -4.513  -1.274  1.00  0.00     0.157 C 
ATOM     23  C   UNL     1       1.548  -6.086  -0.161  1.00  0.00     0.332 A 
ATOM     24  N   UNL     1       0.469  -6.295   0.681  1.00  0.00    -0.263 N 
ATOM     25  O   UNL     1      -1.000  -5.477   2.250  1.00  0.00    -0.269 OA
ATOM     26  O   UNL     1       2.183  -7.030  -0.637  1.00  0.00    -0.247 OA
ATOM     27  C   UNL     1       0.104  -7.670   0.966  1.00  0.00     0.158 C 
BRANCH  15  28
ATOM     28  C   UNL     1      -0.885  -0.309   1.884  1.00  0.00     0.336 C 
ATOM     29  O   UNL     1      -1.221  -0.413   3.052  1.00  0.00    -0.246 OA
BRANCH  28  30
ATOM     30  O   UNL     1      -1.133   0.748   1.071  1.00  0.00    -0.462 OA
BRANCH  30  31
ATOM     31  C   UNL     1      -1.782   1.879   1.679  1.00  0.00     0.236 C 
BRANCH  31  32
ATOM     32  C   UNL     1      -3.227   2.012   1.180  1.00  0.00     0.021 C 
ATOM     33  C   UNL     1      -4.079   0.805   1.573  1.00  0.00     0.011 C 
ATOM     34  C   UNL     1      -3.858   3.295   1.717  1.00  0.00     0.011 C 
ENDBRANCH  31  32
ENDBRANCH  30  31
ENDBRANCH  28  30
ENDBRANCH  15  28
ENDBRANCH   7  12
ENDBRANCH   3   6
ENDBRANCH   1   2
BRANCH   1  35
ATOM     35  C   UNL     1      -7.910  -3.284   2.404  1.00  0.00     0.023 C 
BRANCH  35  36
ATOM     36  C   UNL     1      -9.421  -3.091   2.286  1.00  0.00     0.023 C 
BRANCH  36  37
ATOM     37  C   UNL     1     -10.246  -4.298   2.706  1.00  0.00     0.116 C 
BRANCH  37  38
ATOM     38  N   UNL     1      -9.960  -4.749   4.061  1.00  0.00    -0.352 N 
ATOM     39  C   UNL     1     -10.837  -5.290   4.969  1.00  0.00     0.251 C 
ATOM     40  H   UNL     1      -9.028  -4.655   4.361  1.00  0.00     0.163 HD
ATOM     41  O   UNL     1     -10.491  -5.534   6.119  1.00  0.00    -0.269 OA
BRANCH  39  42
ATOM     42  C   UNL     1     -12.225  -5.529   4.537  1.00  0.00     0.039 A 
ATOM     43  C   UNL     1     -13.265  -4.950   5.263  1.00  0.00     0.014 A 
ATOM     44  C   UNL     1     -12.476  -6.245   3.363  1.00  0.00     0.014 A 
ATOM     45  C   UNL     1     -14.566  -5.039   4.773  1.00  0.00     0.010 A 
ATOM     46  C   UNL     1     -13.761  -6.263   2.837  1.00  0.00     0.010 A 
ATOM     47  C   UNL     1     -14.818  -5.666   3.541  1.00  0.00    -0.014 A 
BRANCH  47  48
ATOM     48  C   UNL     1     -16.189  -5.722   2.984  1.00  0.00     0.031 A 
ATOM     49  C   UNL     1     -16.880  -7.047   2.836  1.00  0.00     0.074 A 
ATOM     50  C   UNL     1     -16.797  -4.587   2.588  1.00  0.00     0.049 A 
ATOM     51  N   UNL     1     -18.076  -7.304   2.374  1.00  0.00    -0.248 NA
ATOM     52  C   UNL     1     -16.123  -8.243   3.243  1.00  0.00     0.031 C 
ATOM     53  C   UNL     1     -16.214  -3.245   2.652  1.00  0.00     0.029 A 
ATOM     54  N   UNL     1     -18.048  -4.381   2.062  1.00  0.00    -0.354 N 
ATOM     55  C   UNL     1     -18.212  -8.684   2.434  1.00  0.00     0.074 A 
ATOM     56  C   UNL     1     -16.957  -9.217   2.913  1.00  0.00     0.031 C 
ATOM     57  C   UNL     1     -17.123  -2.352   2.229  1.00  0.00     0.029 A 
ATOM     58  C   UNL     1     -18.335  -3.058   1.828  1.00  0.00     0.049 A 
ATOM     59  H   UNL     1     -18.679  -5.112   1.871  1.00  0.00     0.167 HD
ATOM     60  C   UNL     1     -19.298  -9.439   2.149  1.00  0.00     0.031 A 
ATOM     61  C   UNL     1     -19.454  -2.480   1.350  1.00  0.00     0.031 A 
ATOM     62  C   UNL     1     -20.547  -8.907   1.681  1.00  0.00     0.049 A 
ATOM     63  C   UNL     1     -20.632  -3.346   0.999  1.00  0.00     0.074 A 
ATOM     64  C   UNL     1     -21.719  -9.585   1.400  1.00  0.00     0.029 A 
ATOM     65  N   UNL     1     -20.786  -7.565   1.427  1.00  0.00    -0.354 N 
ATOM     66  N   UNL     1     -20.766  -4.644   1.119  1.00  0.00    -0.248 NA
ATOM     67  C   UNL     1     -21.816  -2.666   0.454  1.00  0.00     0.031 C 
ATOM     68  C   UNL     1     -22.652  -8.661   0.923  1.00  0.00     0.029 A 
ATOM     69  C   UNL     1     -22.080  -7.399   0.965  1.00  0.00     0.049 A 
ATOM     70  H   UNL     1     -20.134  -6.840   1.555  1.00  0.00     0.167 HD
ATOM     71  C   UNL     1     -22.054  -4.935   0.686  1.00  0.00     0.074 A 
ATOM     72  C   UNL     1     -22.666  -3.675   0.318  1.00  0.00     0.031 C 
ATOM     73  C   UNL     1     -22.672  -6.138   0.601  1.00  0.00     0.031 A 
BRANCH  60  74
ATOM     74  C   UNL     1     -19.182 -10.924   2.348  1.00  0.00    -0.014 A 
ATOM     75  C   UNL     1     -19.104 -11.475   3.637  1.00  0.00     0.009 A 
ATOM     76  C   UNL     1     -19.203 -11.784   1.240  1.00  0.00     0.009 A 
ATOM     77  C   UNL     1     -19.021 -12.857   3.811  1.00  0.00     0.001 A 
ATOM     78  C   UNL     1     -19.151 -13.168   1.419  1.00  0.00     0.001 A 
ATOM     79  C   UNL     1     -19.052 -13.703   2.703  1.00  0.00     0.000 A 
ENDBRANCH  60  74
BRANCH  61  80
ATOM     80  C   UNL     1     -19.524  -1.002   1.210  1.00  0.00    -0.014 A 
ATOM     81  C   UNL     1     -20.343  -0.247   2.064  1.00  0.00     0.009 A 
ATOM     82  C   UNL     1     -18.763  -0.335   0.237  1.00  0.00     0.009 A 
ATOM     83  C   UNL     1     -20.412   1.143   1.935  1.00  0.00     0.001 A 
ATOM     84  C   UNL     1     -18.812   1.057   0.129  1.00  0.00     0.001 A 
ATOM     85  C   UNL     1     -19.642   1.794   0.973  1.00  0.00     0.000 A 
ENDBRANCH  61  80
BRANCH  73  86
ATOM     86  C   UNL     1     -24.089  -6.160   0.104  1.00  0.00    -0.014 A 
ATOM     87  C   UNL     1     -24.383  -5.953  -1.252  1.00  0.00     0.009 A 
ATOM     88  C   UNL     1     -25.132  -6.484   0.986  1.00  0.00     0.009 A 
ATOM     89  C   UNL     1     -25.697  -6.054  -1.712  1.00  0.00     0.001 A 
ATOM     90  C   UNL     1     -26.440  -6.614   0.519  1.00  0.00     0.001 A 
ATOM     91  C   UNL     1     -26.722  -6.394  -0.828  1.00  0.00     0.000 A 
ENDBRANCH  73  86
ENDBRANCH  47  48
ENDBRANCH  39  42
ENDBRANCH  37  38
ENDBRANCH  36  37
ENDBRANCH  35  36
ENDBRANCH   1  35
TORSDOF 16
