REMARK SMILES CCc1cc(N2CCC(O)(C(=O)NCCCCNC(=O)c3ccc(-c4c5nc(c(-c6ccccc6)c6ccc([nH]6)c(-c6ccccc6)c6nc(c(-c7ccccc7)c7ccc4[nH]7)C=C6)C=C5)cc3)CC2)nc(N2CCOCC2)n1
REMARK SMILES IDX 15 1 14 2 13 3 11 4 12 5 9 7 6 8 7 9 70 10 8 11 69 12 5 13
REMARK SMILES IDX 3 14 4 15 79 16 72 17 71 18 2 19 1 20 73 21 74 22 78 23
REMARK SMILES IDX 75 24 77 25 76 26 10 27 16 29 17 30 18 31 19 32 20 34 21 35
REMARK SMILES IDX 22 36 68 37 23 38 67 39 24 40 25 41 26 42 61 43 27 44 66 45
REMARK SMILES IDX 60 46 62 47 28 48 65 49 59 50 58 51 29 53 51 54 36 55 50 56
REMARK SMILES IDX 37 57 40 58 49 59 63 60 38 61 39 62 48 64 64 65 41 66 30 67
REMARK SMILES IDX 31 68 35 69 32 70 34 71 33 72 52 73 53 74 57 75 54 76 56 77
REMARK SMILES IDX 55 78 42 79 43 80 47 81 44 82 46 83 45 84
REMARK H PARENT 13 6 10 28 18 33 62 52 40 63
REMARK Flexibility Score: inf
ROOT
ATOM      1  C   UNL     1       3.288  10.866  -0.811  1.00  0.00     0.023 C 
ENDROOT
BRANCH   1   2
ATOM      2  C   UNL     1       1.898  11.018  -1.431  1.00  0.00     0.116 C 
BRANCH   2   3
ATOM      3  N   UNL     1       1.888  10.622  -2.823  1.00  0.00    -0.354 N 
ATOM      4  C   UNL     1       1.386   9.503  -3.418  1.00  0.00     0.252 C 
ATOM      5  O   UNL     1       1.496   9.444  -4.647  1.00  0.00    -0.272 OA
ATOM      6  H   UNL     1       2.311  11.264  -3.438  1.00  0.00     0.163 HD
BRANCH   4   7
ATOM      7  C   UNL     1       0.699   8.371  -2.594  1.00  0.00     0.146 C 
ATOM      8  N   UNL     1       0.533   5.611  -1.911  1.00  0.00    -0.356 N 
ATOM      9  C   UNL     1       1.050   6.519  -0.914  1.00  0.00     0.121 C 
ATOM     10  C   UNL     1      -0.407   6.094  -2.900  1.00  0.00     0.121 C 
ATOM     11  C   UNL     1       1.691   7.705  -1.628  1.00  0.00     0.067 C 
ATOM     12  C   UNL     1       0.164   7.320  -3.593  1.00  0.00     0.067 C 
BRANCH   8  13
ATOM     13  C   UNL     1       0.863   4.280  -1.899  1.00  0.00     0.134 A 
ATOM     14  C   UNL     1       0.814   2.151  -0.916  1.00  0.00     0.048 A 
ATOM     15  C   UNL     1       0.528   3.492  -0.820  1.00  0.00     0.071 A 
ATOM     16  N   UNL     1       1.404   1.632  -2.008  1.00  0.00    -0.218 NA
ATOM     17  C   UNL     1       1.777   2.476  -2.982  1.00  0.00     0.227 A 
ATOM     18  N   UNL     1       1.502   3.785  -2.970  1.00  0.00    -0.196 NA
BRANCH  14  19
ATOM     19  C   UNL     1       0.440   1.232   0.221  1.00  0.00     0.053 C 
ATOM     20  C   UNL     1       0.987  -0.182   0.093  1.00  0.00     0.011 C 
ENDBRANCH  14  19
BRANCH  17  21
ATOM     21  N   UNL     1       2.520   1.957  -4.006  1.00  0.00    -0.336 N 
ATOM     22  C   UNL     1       3.635   2.713  -4.559  1.00  0.00     0.148 C 
ATOM     23  C   UNL     1       1.884   0.981  -4.878  1.00  0.00     0.148 C 
ATOM     24  C   UNL     1       3.313   3.229  -5.966  1.00  0.00     0.181 C 
ATOM     25  C   UNL     1       1.626   1.608  -6.261  1.00  0.00     0.181 C 
ATOM     26  O   UNL     1       2.825   2.175  -6.817  1.00  0.00    -0.378 OA
ENDBRANCH  17  21
ENDBRANCH   8  13
BRANCH   7  27
ATOM     27  O   UNL     1      -0.393   8.885  -1.819  1.00  0.00    -0.380 OA
ATOM     28  H   UNL     1      -0.062   9.545  -1.190  1.00  0.00     0.212 HD
ENDBRANCH   7  27
ENDBRANCH   4   7
ENDBRANCH   2   3
ENDBRANCH   1   2
BRANCH   1  29
ATOM     29  C   UNL     1       4.357  11.795  -1.387  1.00  0.00     0.023 C 
BRANCH  29  30
ATOM     30  C   UNL     1       4.037  13.280  -1.301  1.00  0.00     0.116 C 
BRANCH  30  31
ATOM     31  N   UNL     1       3.827  13.745   0.062  1.00  0.00    -0.352 N 
ATOM     32  C   UNL     1       4.217  14.939   0.619  1.00  0.00     0.251 C 
ATOM     33  H   UNL     1       3.347  13.127   0.660  1.00  0.00     0.163 HD
ATOM     34  O   UNL     1       4.067  15.156   1.817  1.00  0.00    -0.269 OA
BRANCH  32  35
ATOM     35  C   UNL     1       4.857  15.949  -0.245  1.00  0.00     0.039 A 
ATOM     36  C   UNL     1       6.100  16.470   0.122  1.00  0.00     0.014 A 
ATOM     37  C   UNL     1       4.253  16.325  -1.448  1.00  0.00     0.014 A 
ATOM     38  C   UNL     1       6.777  17.317  -0.757  1.00  0.00     0.010 A 
ATOM     39  C   UNL     1       4.956  17.115  -2.348  1.00  0.00     0.010 A 
ATOM     40  C   UNL     1       6.225  17.615  -2.013  1.00  0.00    -0.014 A 
BRANCH  40  41
ATOM     41  C   UNL     1       6.938  18.454  -3.006  1.00  0.00     0.031 A 
ATOM     42  C   UNL     1       6.343  19.770  -3.422  1.00  0.00     0.074 A 
ATOM     43  C   UNL     1       8.049  17.991  -3.609  1.00  0.00     0.049 A 
ATOM     44  N   UNL     1       6.699  20.567  -4.395  1.00  0.00    -0.248 NA
ATOM     45  C   UNL     1       5.171  20.231  -2.660  1.00  0.00     0.031 C 
ATOM     46  C   UNL     1       8.714  16.721  -3.311  1.00  0.00     0.029 A 
ATOM     47  N   UNL     1       8.803  18.532  -4.621  1.00  0.00    -0.354 N 
ATOM     48  C   UNL     1       5.774  21.603  -4.386  1.00  0.00     0.074 A 
ATOM     49  C   UNL     1       4.824  21.318  -3.333  1.00  0.00     0.031 C 
ATOM     50  C   UNL     1       9.781  16.586  -4.116  1.00  0.00     0.029 A 
ATOM     51  C   UNL     1       9.848  17.733  -5.016  1.00  0.00     0.049 A 
ATOM     52  H   UNL     1       8.612  19.409  -5.025  1.00  0.00     0.167 HD
ATOM     53  C   UNL     1       5.726  22.699  -5.178  1.00  0.00     0.031 A 
ATOM     54  C   UNL     1      10.745  17.896  -6.006  1.00  0.00     0.031 A 
ATOM     55  C   UNL     1       6.686  22.995  -6.206  1.00  0.00     0.049 A 
ATOM     56  C   UNL     1      10.669  19.120  -6.876  1.00  0.00     0.074 A 
ATOM     57  C   UNL     1       6.755  24.109  -7.025  1.00  0.00     0.029 A 
ATOM     58  N   UNL     1       7.748  22.175  -6.550  1.00  0.00    -0.354 N 
ATOM     59  N   UNL     1       9.813  20.112  -6.830  1.00  0.00    -0.248 NA
ATOM     60  C   UNL     1      11.685  19.250  -7.931  1.00  0.00     0.031 C 
ATOM     61  C   UNL     1       7.841  23.945  -7.891  1.00  0.00     0.029 A 
ATOM     62  C   UNL     1       8.472  22.751  -7.579  1.00  0.00     0.049 A 
ATOM     63  H   UNL     1       7.956  21.311  -6.126  1.00  0.00     0.167 HD
ATOM     64  C   UNL     1      10.206  20.997  -7.825  1.00  0.00     0.074 A 
ATOM     65  C   UNL     1      11.378  20.428  -8.457  1.00  0.00     0.031 C 
ATOM     66  C   UNL     1       9.647  22.178  -8.181  1.00  0.00     0.031 A 
BRANCH  53  67
ATOM     67  C   UNL     1       4.587  23.654  -4.965  1.00  0.00    -0.014 A 
ATOM     68  C   UNL     1       4.528  24.472  -3.826  1.00  0.00     0.009 A 
ATOM     69  C   UNL     1       3.572  23.754  -5.929  1.00  0.00     0.009 A 
ATOM     70  C   UNL     1       3.454  25.346  -3.640  1.00  0.00     0.001 A 
ATOM     71  C   UNL     1       2.515  24.648  -5.753  1.00  0.00     0.001 A 
ATOM     72  C   UNL     1       2.452  25.435  -4.604  1.00  0.00     0.000 A 
ENDBRANCH  53  67
BRANCH  54  73
ATOM     73  C   UNL     1      11.802  16.876  -6.229  1.00  0.00    -0.014 A 
ATOM     74  C   UNL     1      13.134  17.151  -5.885  1.00  0.00     0.009 A 
ATOM     75  C   UNL     1      11.488  15.627  -6.786  1.00  0.00     0.009 A 
ATOM     76  C   UNL     1      14.135  16.204  -6.117  1.00  0.00     0.001 A 
ATOM     77  C   UNL     1      12.487  14.673  -6.993  1.00  0.00     0.001 A 
ATOM     78  C   UNL     1      13.810  14.965  -6.667  1.00  0.00     0.000 A 
ENDBRANCH  54  73
BRANCH  66  79
ATOM     79  C   UNL     1      10.321  22.966  -9.265  1.00  0.00    -0.014 A 
ATOM     80  C   UNL     1      10.187  22.610 -10.615  1.00  0.00     0.009 A 
ATOM     81  C   UNL     1      11.038  24.126  -8.931  1.00  0.00     0.009 A 
ATOM     82  C   UNL     1      10.773  23.394 -11.610  1.00  0.00     0.001 A 
ATOM     83  C   UNL     1      11.603  24.920  -9.929  1.00  0.00     0.001 A 
ATOM     84  C   UNL     1      11.474  24.551 -11.267  1.00  0.00     0.000 A 
ENDBRANCH  66  79
ENDBRANCH  40  41
ENDBRANCH  32  35
ENDBRANCH  30  31
ENDBRANCH  29  30
ENDBRANCH   1  29
TORSDOF 15
