REMARK SMILES Cc1cscc1CNC(=O)CC(C)(C)C(=O)NCCCCNC(=O)c1ccc(-c2c3nc(c(-c4ccccc4)c4ccc([nH]4)c(-c4ccccc4)c4nc(c(-c5ccccc5)c5ccc2[nH]5)C=C4)C=C3)cc1
REMARK SMILES IDX 18 1 17 2 15 3 16 4 12 6 13 7 14 8 11 9 9 10 8 11 10 13 7 14
REMARK SMILES IDX 6 15 1 16 2 17 3 18 4 19 5 20 19 21 20 22 21 23 22 24 23 25
REMARK SMILES IDX 24 27 25 28 26 29 72 30 27 31 71 32 28 33 29 34 30 35 65 36
REMARK SMILES IDX 31 37 70 38 64 39 66 40 32 41 69 42 63 43 62 44 33 46 55 47
REMARK SMILES IDX 40 48 54 49 41 50 44 51 53 52 67 53 42 54 43 55 52 57 68 58
REMARK SMILES IDX 45 59 34 60 35 61 39 62 36 63 38 64 37 65 56 66 57 67 61 68
REMARK SMILES IDX 58 69 60 70 59 71 46 72 47 73 51 74 48 75 50 76 49 77
REMARK H PARENT 17 5 8 12 22 26 66 45 44 56
REMARK Flexibility Score: inf
ROOT
ATOM      1  C   UNL     1      -3.071   2.932   2.572  1.00  0.00     0.116 C 
ENDROOT
BRANCH   1   2
ATOM      2  N   UNL     1      -2.914   3.551   1.274  1.00  0.00    -0.356 N 
ATOM      3  C   UNL     1      -1.881   4.197   0.673  1.00  0.00     0.226 C 
ATOM      4  O   UNL     1      -2.133   4.616  -0.458  1.00  0.00    -0.274 OA
ATOM      5  H   UNL     1      -3.720   3.493   0.712  1.00  0.00     0.163 HD
BRANCH   3   6
ATOM      6  C   UNL     1      -0.530   4.476   1.369  1.00  0.00     0.052 C 
ATOM      7  C   UNL     1       0.061   3.241   2.071  1.00  0.00     0.022 C 
ATOM      8  C   UNL     1      -0.780   5.565   2.438  1.00  0.00     0.022 C 
BRANCH   6   9
ATOM      9  C   UNL     1       0.526   5.048   0.363  1.00  0.00     0.116 C 
BRANCH   9  10
ATOM     10  C   UNL     1       0.526   4.593  -1.093  1.00  0.00     0.221 C 
ATOM     11  N   UNL     1       0.953   3.363  -1.468  1.00  0.00    -0.352 N 
ATOM     12  H   UNL     1       0.742   3.128  -2.401  1.00  0.00     0.163 HD
ATOM     13  O   UNL     1       0.211   5.374  -1.995  1.00  0.00    -0.275 OA
BRANCH  11  14
ATOM     14  C   UNL     1       1.661   2.337  -0.745  1.00  0.00     0.152 C 
BRANCH  14  15
ATOM     15  C   UNL     1       0.843   1.078  -0.651  1.00  0.00    -0.015 A 
ATOM     16  C   UNL     1       2.831  -0.479   0.024  1.00  0.00     0.045 C 
ATOM     17  C   UNL     1       1.390  -0.214  -0.279  1.00  0.00    -0.035 A 
ATOM     18  C   UNL     1       0.407  -1.186  -0.231  1.00  0.00     0.068 A 
ATOM     19  S   UNL     1      -1.138  -0.589  -0.628  1.00  0.00    -0.152 S 
ATOM     20  C   UNL     1      -0.520   0.979  -0.882  1.00  0.00     0.070 A 
ENDBRANCH  14  15
ENDBRANCH  11  14
ENDBRANCH   9  10
ENDBRANCH   6   9
ENDBRANCH   3   6
ENDBRANCH   1   2
BRANCH   1  21
ATOM     21  C   UNL     1      -4.246   3.509   3.354  1.00  0.00     0.023 C 
BRANCH  21  22
ATOM     22  C   UNL     1      -5.624   3.267   2.740  1.00  0.00     0.023 C 
BRANCH  22  23
ATOM     23  C   UNL     1      -5.936   1.820   2.375  1.00  0.00     0.116 C 
BRANCH  23  24
ATOM     24  N   UNL     1      -5.783   0.898   3.492  1.00  0.00    -0.352 N 
ATOM     25  C   UNL     1      -6.662  -0.035   3.983  1.00  0.00     0.251 C 
ATOM     26  H   UNL     1      -4.921   0.952   3.965  1.00  0.00     0.163 HD
ATOM     27  O   UNL     1      -6.400  -0.653   5.011  1.00  0.00    -0.269 OA
BRANCH  25  28
ATOM     28  C   UNL     1      -7.946  -0.266   3.291  1.00  0.00     0.039 A 
ATOM     29  C   UNL     1      -9.124  -0.282   4.042  1.00  0.00     0.014 A 
ATOM     30  C   UNL     1      -7.991  -0.434   1.905  1.00  0.00     0.014 A 
ATOM     31  C   UNL     1     -10.355  -0.382   3.393  1.00  0.00     0.010 A 
ATOM     32  C   UNL     1      -9.220  -0.457   1.253  1.00  0.00     0.010 A 
ATOM     33  C   UNL     1     -10.414  -0.425   1.990  1.00  0.00    -0.014 A 
BRANCH  33  34
ATOM     34  C   UNL     1     -11.713  -0.435   1.273  1.00  0.00     0.031 A 
ATOM     35  C   UNL     1     -12.101  -1.619   0.432  1.00  0.00     0.074 A 
ATOM     36  C   UNL     1     -12.513   0.649   1.323  1.00  0.00     0.049 A 
ATOM     37  N   UNL     1     -13.151  -1.782  -0.331  1.00  0.00    -0.248 NA
ATOM     38  C   UNL     1     -11.173  -2.763   0.430  1.00  0.00     0.031 C 
ATOM     39  C   UNL     1     -12.236   1.878   2.070  1.00  0.00     0.029 A 
ATOM     40  N   UNL     1     -13.723   0.892   0.723  1.00  0.00    -0.354 N 
ATOM     41  C   UNL     1     -13.004  -3.035  -0.911  1.00  0.00     0.074 A 
ATOM     42  C   UNL     1     -11.739  -3.568  -0.456  1.00  0.00     0.031 C 
ATOM     43  C   UNL     1     -13.257   2.734   1.903  1.00  0.00     0.029 A 
ATOM     44  C   UNL     1     -14.240   2.134   1.007  1.00  0.00     0.049 A 
ATOM     45  H   UNL     1     -14.178   0.240   0.143  1.00  0.00     0.167 HD
ATOM     46  C   UNL     1     -13.856  -3.696  -1.731  1.00  0.00     0.031 A 
ATOM     47  C   UNL     1     -15.374   2.724   0.587  1.00  0.00     0.031 A 
ATOM     48  C   UNL     1     -15.118  -3.174  -2.179  1.00  0.00     0.049 A 
ATOM     49  C   UNL     1     -16.293   1.976  -0.339  1.00  0.00     0.074 A 
ATOM     50  C   UNL     1     -16.066  -3.780  -2.985  1.00  0.00     0.029 A 
ATOM     51  N   UNL     1     -15.610  -1.919  -1.856  1.00  0.00    -0.354 N 
ATOM     52  N   UNL     1     -16.163   0.770  -0.835  1.00  0.00    -0.248 NA
ATOM     53  C   UNL     1     -17.521   2.669  -0.753  1.00  0.00     0.031 C 
ATOM     54  C   UNL     1     -17.116  -2.877  -3.179  1.00  0.00     0.029 A 
ATOM     55  C   UNL     1     -16.843  -1.728  -2.455  1.00  0.00     0.049 A 
ATOM     56  H   UNL     1     -15.150  -1.261  -1.286  1.00  0.00     0.167 HD
ATOM     57  C   UNL     1     -17.305   0.549  -1.594  1.00  0.00     0.074 A 
ATOM     58  C   UNL     1     -18.123   1.738  -1.479  1.00  0.00     0.031 C 
ATOM     59  C   UNL     1     -17.646  -0.542  -2.322  1.00  0.00     0.031 A 
BRANCH  46  60
ATOM     60  C   UNL     1     -13.446  -5.068  -2.186  1.00  0.00    -0.014 A 
ATOM     61  C   UNL     1     -13.435  -6.151  -1.293  1.00  0.00     0.009 A 
ATOM     62  C   UNL     1     -13.098  -5.289  -3.527  1.00  0.00     0.009 A 
ATOM     63  C   UNL     1     -13.049  -7.421  -1.725  1.00  0.00     0.001 A 
ATOM     64  C   UNL     1     -12.739  -6.566  -3.963  1.00  0.00     0.001 A 
ATOM     65  C   UNL     1     -12.706  -7.629  -3.060  1.00  0.00     0.000 A 
ENDBRANCH  46  60
BRANCH  47  66
ATOM     66  C   UNL     1     -15.720   4.097   1.042  1.00  0.00    -0.014 A 
ATOM     67  C   UNL     1     -16.789   4.304   1.927  1.00  0.00     0.009 A 
ATOM     68  C   UNL     1     -15.002   5.207   0.573  1.00  0.00     0.009 A 
ATOM     69  C   UNL     1     -17.155   5.598   2.304  1.00  0.00     0.001 A 
ATOM     70  C   UNL     1     -15.352   6.498   0.976  1.00  0.00     0.001 A 
ATOM     71  C   UNL     1     -16.435   6.694   1.831  1.00  0.00     0.000 A 
ENDBRANCH  47  66
BRANCH  59  72
ATOM     72  C   UNL     1     -18.979  -0.514  -3.013  1.00  0.00    -0.014 A 
ATOM     73  C   UNL     1     -19.192   0.275  -4.154  1.00  0.00     0.009 A 
ATOM     74  C   UNL     1     -20.024  -1.320  -2.534  1.00  0.00     0.009 A 
ATOM     75  C   UNL     1     -20.439   0.281  -4.782  1.00  0.00     0.001 A 
ATOM     76  C   UNL     1     -21.261  -1.332  -3.181  1.00  0.00     0.001 A 
ATOM     77  C   UNL     1     -21.470  -0.526  -4.299  1.00  0.00     0.000 A 
ENDBRANCH  59  72
ENDBRANCH  33  34
ENDBRANCH  25  28
ENDBRANCH  23  24
ENDBRANCH  22  23
ENDBRANCH  21  22
ENDBRANCH   1  21
TORSDOF 15
