REMARK SMILES Cc1ccc(Cl)c(Nc2ccccc2C(=O)N[C@@H](C)C(=O)NCCCCNC(=O)c2ccc(-c3c4nc(c(-c5ccccc5)c5ccc([nH]5)c(-c5ccccc5)c5nc(c(-c6ccccc6)c6ccc3[nH]6)C=C5)C=C4)cc2)c1Cl
REMARK SMILES IDX 23 1 22 2 20 3 21 4 18 6 19 7 17 8 15 9 16 10 14 12 9 13
REMARK SMILES IDX 10 14 11 15 13 16 12 17 8 18 7 20 1 21 2 22 3 23 78 24 4 25
REMARK SMILES IDX 79 26 5 27 6 28 24 29 25 30 26 31 27 32 28 33 29 35 30 36
REMARK SMILES IDX 31 37 77 38 32 39 76 40 33 41 34 42 35 43 70 44 36 45 75 46
REMARK SMILES IDX 69 47 71 48 37 49 74 50 68 51 67 52 38 54 60 55 45 56 59 57
REMARK SMILES IDX 46 58 49 59 58 60 72 61 47 62 48 63 57 65 73 66 50 67 39 68
REMARK SMILES IDX 40 69 44 70 41 71 43 72 42 73 61 74 62 75 66 76 63 77 65 78
REMARK SMILES IDX 64 79 51 80 52 81 56 82 53 83 55 84 54 85
REMARK H PARENT 22 5 17 11 8 19 27 34 71 53 49 64
REMARK Flexibility Score: inf
ROOT
ATOM      1  C   UNL     1      -1.554   1.595   3.363  1.00  0.00     0.116 C 
ENDROOT
BRANCH   1   2
ATOM      2  N   UNL     1      -1.586   1.123   1.994  1.00  0.00    -0.354 N 
ATOM      3  C   UNL     1      -0.673   0.169   1.651  1.00  0.00     0.242 C 
ATOM      4  O   UNL     1       0.435   0.568   1.298  1.00  0.00    -0.273 OA
ATOM      5  H   UNL     1      -2.236   1.474   1.342  1.00  0.00     0.163 HD
BRANCH   3   6
ATOM      6  C   UNL     1      -1.041  -1.329   1.774  1.00  0.00     0.168 C 
ATOM      7  C   UNL     1      -2.352  -1.641   2.479  1.00  0.00     0.041 C 
BRANCH   6   8
ATOM      8  N   UNL     1       0.109  -1.916   2.438  1.00  0.00    -0.340 N 
ATOM      9  C   UNL     1       1.304  -2.278   1.853  1.00  0.00     0.254 C 
ATOM     10  O   UNL     1       2.321  -2.016   2.503  1.00  0.00    -0.269 OA
ATOM     11  H   UNL     1       0.027  -2.071   3.407  1.00  0.00     0.164 HD
BRANCH   9  12
ATOM     12  C   UNL     1       1.414  -3.209   0.683  1.00  0.00     0.063 A 
ATOM     13  C   UNL     1       0.779  -3.200  -0.577  1.00  0.00     0.051 A 
ATOM     14  C   UNL     1       0.996  -4.305  -1.439  1.00  0.00     0.027 A 
ATOM     15  C   UNL     1       1.867  -5.346  -1.120  1.00  0.00     0.002 A 
ATOM     16  C   UNL     1       2.313  -4.270   0.972  1.00  0.00     0.016 A 
ATOM     17  C   UNL     1       2.549  -5.315   0.082  1.00  0.00     0.001 A 
BRANCH  13  18
ATOM     18  N   UNL     1       0.021  -2.168  -1.167  1.00  0.00    -0.352 N 
ATOM     19  H   UNL     1      -0.864  -2.471  -1.472  1.00  0.00     0.167 HD
BRANCH  18  20
ATOM     20  C   UNL     1       0.251  -0.789  -1.419  1.00  0.00     0.077 A 
ATOM     21  C   UNL     1       2.830   2.006  -0.929  1.00  0.00     0.046 C 
ATOM     22  C   UNL     1       1.562   1.287  -1.310  1.00  0.00    -0.030 A 
ATOM     23  C   UNL     1       0.407   2.043  -1.563  1.00  0.00     0.006 A 
ATOM     24  C   UNL     1       1.492  -0.129  -1.301  1.00  0.00     0.069 A 
ATOM     25  C   UNL     1      -0.809   1.410  -1.782  1.00  0.00     0.023 A 
ATOM     26  Cl  UNL     1       2.983  -1.016  -1.215  1.00  0.00    -0.082 Cl
ATOM     27  C   UNL     1      -0.885   0.019  -1.693  1.00  0.00     0.066 A 
ATOM     28  Cl  UNL     1      -2.460  -0.697  -1.867  1.00  0.00    -0.082 Cl
ENDBRANCH  18  20
ENDBRANCH  13  18
ENDBRANCH   9  12
ENDBRANCH   6   8
ENDBRANCH   3   6
ENDBRANCH   1   2
BRANCH   1  29
ATOM     29  C   UNL     1      -0.307   2.435   3.682  1.00  0.00     0.023 C 
BRANCH  29  30
ATOM     30  C   UNL     1      -0.141   3.707   2.847  1.00  0.00     0.023 C 
BRANCH  30  31
ATOM     31  C   UNL     1      -1.389   4.576   2.756  1.00  0.00     0.116 C 
BRANCH  31  32
ATOM     32  N   UNL     1      -2.009   4.797   4.053  1.00  0.00    -0.352 N 
ATOM     33  C   UNL     1      -2.447   5.957   4.635  1.00  0.00     0.251 C 
ATOM     34  H   UNL     1      -2.133   3.986   4.598  1.00  0.00     0.163 HD
ATOM     35  O   UNL     1      -2.824   5.964   5.795  1.00  0.00    -0.269 OA
BRANCH  33  36
ATOM     36  C   UNL     1      -2.432   7.201   3.848  1.00  0.00     0.039 A 
ATOM     37  C   UNL     1      -1.875   8.345   4.423  1.00  0.00     0.014 A 
ATOM     38  C   UNL     1      -2.947   7.227   2.550  1.00  0.00     0.014 A 
ATOM     39  C   UNL     1      -1.786   9.512   3.670  1.00  0.00     0.010 A 
ATOM     40  C   UNL     1      -2.788   8.368   1.776  1.00  0.00     0.010 A 
ATOM     41  C   UNL     1      -2.213   9.521   2.333  1.00  0.00    -0.014 A 
BRANCH  41  42
ATOM     42  C   UNL     1      -2.082  10.734   1.495  1.00  0.00     0.031 A 
ATOM     43  C   UNL     1      -3.315  11.417   0.978  1.00  0.00     0.074 A 
ATOM     44  C   UNL     1      -0.857  11.171   1.147  1.00  0.00     0.049 A 
ATOM     45  N   UNL     1      -3.413  12.431   0.158  1.00  0.00    -0.248 NA
ATOM     46  C   UNL     1      -4.609  10.869   1.417  1.00  0.00     0.031 C 
ATOM     47  C   UNL     1       0.411  10.570   1.567  1.00  0.00     0.029 A 
ATOM     48  N   UNL     1      -0.480  12.220   0.349  1.00  0.00    -0.354 N 
ATOM     49  C   UNL     1      -4.775  12.629  -0.031  1.00  0.00     0.074 A 
ATOM     50  C   UNL     1      -5.463  11.599   0.716  1.00  0.00     0.031 C 
ATOM     51  C   UNL     1       1.425  11.276   1.043  1.00  0.00     0.029 A 
ATOM     52  C   UNL     1       0.881  12.345   0.213  1.00  0.00     0.049 A 
ATOM     53  H   UNL     1      -1.123  12.827  -0.084  1.00  0.00     0.167 HD
ATOM     54  C   UNL     1      -5.396  13.594  -0.749  1.00  0.00     0.031 A 
ATOM     55  C   UNL     1       1.606  13.218  -0.510  1.00  0.00     0.031 A 
ATOM     56  C   UNL     1      -4.704  14.618  -1.482  1.00  0.00     0.049 A 
ATOM     57  C   UNL     1       0.892  14.264  -1.319  1.00  0.00     0.074 A 
ATOM     58  C   UNL     1      -5.238  15.672  -2.203  1.00  0.00     0.029 A 
ATOM     59  N   UNL     1      -3.325  14.715  -1.589  1.00  0.00    -0.354 N 
ATOM     60  N   UNL     1      -0.396  14.475  -1.444  1.00  0.00    -0.248 NA
ATOM     61  C   UNL     1       1.732  15.199  -2.079  1.00  0.00     0.031 C 
ATOM     62  C   UNL     1      -4.182  16.374  -2.792  1.00  0.00     0.029 A 
ATOM     63  C   UNL     1      -2.990  15.797  -2.384  1.00  0.00     0.049 A 
ATOM     64  H   UNL     1      -2.680  14.105  -1.163  1.00  0.00     0.167 HD
ATOM     65  C   UNL     1      -0.520  15.588  -2.265  1.00  0.00     0.074 A 
ATOM     66  C   UNL     1       0.824  16.012  -2.601  1.00  0.00     0.031 C 
ATOM     67  C   UNL     1      -1.645  16.206  -2.700  1.00  0.00     0.031 A 
BRANCH  54  68
ATOM     68  C   UNL     1      -6.899  13.573  -0.782  1.00  0.00    -0.014 A 
ATOM     69  C   UNL     1      -7.660  13.868   0.361  1.00  0.00     0.009 A 
ATOM     70  C   UNL     1      -7.565  13.282  -1.983  1.00  0.00     0.009 A 
ATOM     71  C   UNL     1      -9.055  13.834   0.311  1.00  0.00     0.001 A 
ATOM     72  C   UNL     1      -8.960  13.280  -2.037  1.00  0.00     0.001 A 
ATOM     73  C   UNL     1      -9.703  13.545  -0.888  1.00  0.00     0.000 A 
ENDBRANCH  54  68
BRANCH  55  74
ATOM     74  C   UNL     1       3.091  13.147  -0.494  1.00  0.00    -0.014 A 
ATOM     75  C   UNL     1       3.846  14.153   0.127  1.00  0.00     0.009 A 
ATOM     76  C   UNL     1       3.763  12.075  -1.103  1.00  0.00     0.009 A 
ATOM     77  C   UNL     1       5.242  14.104   0.112  1.00  0.00     0.001 A 
ATOM     78  C   UNL     1       5.158  12.011  -1.089  1.00  0.00     0.001 A 
ATOM     79  C   UNL     1       5.896  13.031  -0.491  1.00  0.00     0.000 A 
ENDBRANCH  55  74
BRANCH  67  80
ATOM     80  C   UNL     1      -1.472  17.438  -3.543  1.00  0.00    -0.014 A 
ATOM     81  C   UNL     1      -1.018  17.363  -4.869  1.00  0.00     0.009 A 
ATOM     82  C   UNL     1      -1.822  18.690  -3.013  1.00  0.00     0.009 A 
ATOM     83  C   UNL     1      -0.889  18.523  -5.635  1.00  0.00     0.001 A 
ATOM     84  C   UNL     1      -1.723  19.843  -3.791  1.00  0.00     0.001 A 
ATOM     85  C   UNL     1      -1.248  19.760  -5.099  1.00  0.00     0.000 A 
ENDBRANCH  67  80
ENDBRANCH  41  42
ENDBRANCH  33  36
ENDBRANCH  31  32
ENDBRANCH  30  31
ENDBRANCH  29  30
ENDBRANCH   1  29
TORSDOF 15
