REMARK SMILES N#CCC[NH+]1CC[NH+]([C@@H](C(=O)NCCCCNC(=O)c2ccc(-c3c4nc(c(-c5ccccc5)c5ccc([nH]5)c(-c5ccccc5)c5nc(c(-c6ccccc6)c6ccc3[nH]6)C=C5)C=C4)cc2)c2c[nH]c3cc(Cl)ccc23)CC1
REMARK SMILES IDX 13 1 12 2 10 3 11 4 9 6 8 7 5 8 6 9 79 10 7 12 78 13 4 15
REMARK SMILES IDX 3 16 2 17 1 18 68 19 69 20 77 21 70 22 71 23 76 24 72 26
REMARK SMILES IDX 75 27 73 28 74 29 14 30 15 31 16 32 17 33 18 34 19 36 20 37
REMARK SMILES IDX 21 38 67 39 22 40 66 41 23 42 24 43 25 44 60 45 26 46 65 47
REMARK SMILES IDX 59 48 61 49 27 50 64 51 58 52 57 53 28 55 50 56 35 57 49 58
REMARK SMILES IDX 36 59 39 60 48 61 62 62 37 63 38 64 47 66 63 67 40 68 29 69
REMARK SMILES IDX 30 70 34 71 31 72 33 73 32 74 51 75 52 76 56 77 53 78 55 79
REMARK SMILES IDX 54 80 41 81 42 82 46 83 43 84 45 85 44 86
REMARK H PARENT 12 5 5 11 8 14 70 25 17 35 61 54 39 65
REMARK Flexibility Score: inf
ROOT
ATOM      1  C   UNL     1       5.560   0.813   6.168  1.00  0.00     0.116 C 
ENDROOT
BRANCH   1   2
ATOM      2  N   UNL     1       4.291  -0.002   5.983  1.00  0.00    -0.351 N 
ATOM      3  C   UNL     1       3.724  -1.163   5.445  1.00  0.00     0.283 C 
ATOM      4  O   UNL     1       2.536  -1.290   5.798  1.00  0.00    -0.268 OA
ATOM      5  H   UNL     1       3.566   0.492   6.428  1.00  0.00     0.163 HD
BRANCH   3   6
ATOM      6  C   UNL     1       4.371  -2.331   4.525  1.00  0.00     0.308 C 
BRANCH   6   7
ATOM      7  N   UNL     1       5.300  -1.937   3.386  1.00  0.00    -0.312 N 
ATOM      8  N   UNL     1       3.730   0.351   2.235  1.00  0.00    -0.325 N 
ATOM      9  C   UNL     1       3.374  -1.071   2.220  1.00  0.00     0.324 C 
ATOM     10  C   UNL     1       4.761   0.545   3.214  1.00  0.00     0.324 C 
ATOM     11  H   UNL     1       2.840   0.815   2.417  1.00  0.00     0.348 HD
ATOM     12  C   UNL     1       4.655  -1.893   2.090  1.00  0.00     0.325 C 
ATOM     13  C   UNL     1       5.822  -0.576   3.470  1.00  0.00     0.325 C 
ATOM     14  H   UNL     1       6.016  -2.659   3.477  1.00  0.00     0.349 HD
BRANCH   8  15
ATOM     15  C   UNL     1       4.250   0.925   1.022  1.00  0.00     0.278 C 
BRANCH  15  16
ATOM     16  C   UNL     1       3.737   0.082  -0.037  1.00  0.00     0.181 C 
BRANCH  16  17
ATOM     17  C   UNL     1       2.217   0.082  -0.037  1.00  0.00     0.068 C 
ATOM     18  N   UNL     1       0.956   0.082  -0.037  1.00  0.00    -0.198 NA
ENDBRANCH  16  17
ENDBRANCH  15  16
ENDBRANCH   8  15
ENDBRANCH   6   7
BRANCH   6  19
ATOM     19  C   UNL     1       3.349  -3.625   4.046  1.00  0.00     0.044 A 
ATOM     20  C   UNL     1       3.945  -4.884   3.830  1.00  0.00     0.094 A 
ATOM     21  C   UNL     1       2.281  -3.760   3.000  1.00  0.00     0.009 A 
ATOM     22  N   UNL     1       4.093  -4.868   2.435  1.00  0.00    -0.361 N 
ATOM     23  C   UNL     1       2.929  -4.353   1.900  1.00  0.00     0.047 A 
ATOM     24  C   UNL     1       0.902  -3.479   2.794  1.00  0.00     0.012 A 
ATOM     25  H   UNL     1       4.882  -5.169   1.930  1.00  0.00     0.166 HD
ATOM     26  C   UNL     1       2.470  -4.254   0.572  1.00  0.00     0.047 A 
ATOM     27  C   UNL     1       0.345  -3.575   1.489  1.00  0.00     0.021 A 
ATOM     28  C   UNL     1       1.153  -3.841   0.388  1.00  0.00     0.043 A 
ATOM     29  Cl  UNL     1       0.535  -3.679  -1.215  1.00  0.00    -0.084 Cl
ENDBRANCH   6  19
ENDBRANCH   3   6
ENDBRANCH   1   2
BRANCH   1  30
ATOM     30  C   UNL     1       6.003   2.013   5.224  1.00  0.00     0.023 C 
BRANCH  30  31
ATOM     31  C   UNL     1       4.960   3.028   4.685  1.00  0.00     0.023 C 
BRANCH  31  32
ATOM     32  C   UNL     1       4.899   4.297   5.481  1.00  0.00     0.116 C 
BRANCH  32  33
ATOM     33  N   UNL     1       6.123   5.067   5.319  1.00  0.00    -0.352 N 
ATOM     34  C   UNL     1       6.263   6.428   5.196  1.00  0.00     0.251 C 
ATOM     35  H   UNL     1       6.957   4.546   5.293  1.00  0.00     0.163 HD
ATOM     36  O   UNL     1       7.314   6.911   4.819  1.00  0.00    -0.269 OA
BRANCH  34  37
ATOM     37  C   UNL     1       5.100   7.282   5.508  1.00  0.00     0.039 A 
ATOM     38  C   UNL     1       4.874   8.426   4.744  1.00  0.00     0.014 A 
ATOM     39  C   UNL     1       4.224   6.927   6.537  1.00  0.00     0.014 A 
ATOM     40  C   UNL     1       3.746   9.197   5.004  1.00  0.00     0.010 A 
ATOM     41  C   UNL     1       3.030   7.602   6.688  1.00  0.00     0.010 A 
ATOM     42  C   UNL     1       2.806   8.770   5.957  1.00  0.00    -0.014 A 
BRANCH  42  43
ATOM     43  C   UNL     1       1.596   9.560   6.245  1.00  0.00     0.031 A 
ATOM     44  C   UNL     1       1.383  10.111   7.626  1.00  0.00     0.074 A 
ATOM     45  C   UNL     1       0.685   9.732   5.272  1.00  0.00     0.049 A 
ATOM     46  N   UNL     1       0.384  10.820   8.082  1.00  0.00    -0.248 NA
ATOM     47  C   UNL     1       2.408   9.801   8.640  1.00  0.00     0.031 C 
ATOM     48  C   UNL     1       0.780   9.187   3.915  1.00  0.00     0.029 A 
ATOM     49  N   UNL     1      -0.495  10.423   5.274  1.00  0.00    -0.354 N 
ATOM     50  C   UNL     1       0.656  11.025   9.428  1.00  0.00     0.074 A 
ATOM     51  C   UNL     1       1.867  10.304   9.738  1.00  0.00     0.031 C 
ATOM     52  C   UNL     1      -0.270   9.614   3.198  1.00  0.00     0.029 A 
ATOM     53  C   UNL     1      -1.136  10.409   4.060  1.00  0.00     0.049 A 
ATOM     54  H   UNL     1      -0.851  10.885   6.067  1.00  0.00     0.167 HD
ATOM     55  C   UNL     1      -0.031  11.774  10.319  1.00  0.00     0.031 A 
ATOM     56  C   UNL     1      -2.299  10.974   3.692  1.00  0.00     0.031 A 
ATOM     57  C   UNL     1      -1.238  12.482   9.993  1.00  0.00     0.049 A 
ATOM     58  C   UNL     1      -3.060  11.773   4.711  1.00  0.00     0.074 A 
ATOM     59  C   UNL     1      -1.995  13.311  10.799  1.00  0.00     0.029 A 
ATOM     60  N   UNL     1      -1.869  12.431   8.758  1.00  0.00    -0.354 N 
ATOM     61  N   UNL     1      -2.751  12.030   5.960  1.00  0.00    -0.248 NA
ATOM     62  C   UNL     1      -4.324  12.369   4.266  1.00  0.00     0.031 C 
ATOM     63  C   UNL     1      -3.126  13.698  10.075  1.00  0.00     0.029 A 
ATOM     64  C   UNL     1      -3.029  13.183   8.791  1.00  0.00     0.049 A 
ATOM     65  H   UNL     1      -1.540  11.933   7.975  1.00  0.00     0.167 HD
ATOM     66  C   UNL     1      -3.768  12.842   6.442  1.00  0.00     0.074 A 
ATOM     67  C   UNL     1      -4.687  13.053   5.341  1.00  0.00     0.031 C 
ATOM     68  C   UNL     1      -3.930  13.368   7.682  1.00  0.00     0.031 A 
BRANCH  55  69
ATOM     69  C   UNL     1       0.501  11.842  11.725  1.00  0.00    -0.014 A 
ATOM     70  C   UNL     1       1.730  12.457  12.018  1.00  0.00     0.009 A 
ATOM     71  C   UNL     1      -0.248  11.296  12.778  1.00  0.00     0.009 A 
ATOM     72  C   UNL     1       2.217  12.483  13.327  1.00  0.00     0.001 A 
ATOM     73  C   UNL     1       0.223  11.357  14.091  1.00  0.00     0.001 A 
ATOM     74  C   UNL     1       1.460  11.940  14.363  1.00  0.00     0.000 A 
ENDBRANCH  55  69
BRANCH  56  75
ATOM     75  C   UNL     1      -2.800  10.809   2.303  1.00  0.00    -0.014 A 
ATOM     76  C   UNL     1      -2.880  11.908   1.435  1.00  0.00     0.009 A 
ATOM     77  C   UNL     1      -3.196   9.546   1.835  1.00  0.00     0.009 A 
ATOM     78  C   UNL     1      -3.380  11.752   0.140  1.00  0.00     0.001 A 
ATOM     79  C   UNL     1      -3.660   9.386   0.528  1.00  0.00     0.001 A 
ATOM     80  C   UNL     1      -3.765  10.491  -0.314  1.00  0.00     0.000 A 
ENDBRANCH  56  75
BRANCH  68  81
ATOM     81  C   UNL     1      -5.127  14.252   7.897  1.00  0.00    -0.014 A 
ATOM     82  C   UNL     1      -6.432  13.736   7.892  1.00  0.00     0.009 A 
ATOM     83  C   UNL     1      -4.938  15.620   8.148  1.00  0.00     0.009 A 
ATOM     84  C   UNL     1      -7.525  14.582   8.088  1.00  0.00     0.001 A 
ATOM     85  C   UNL     1      -6.028  16.455   8.386  1.00  0.00     0.001 A 
ATOM     86  C   UNL     1      -7.322  15.938   8.341  1.00  0.00     0.000 A 
ENDBRANCH  68  81
ENDBRANCH  42  43
ENDBRANCH  34  37
ENDBRANCH  32  33
ENDBRANCH  31  32
ENDBRANCH  30  31
ENDBRANCH   1  30
TORSDOF 16
