REMARK SMILES O=C(NCCCCNC(=O)c1ccc(-c2c3nc(c(-c4ccccc4)c4ccc([nH]4)c(-c4ccccc4)c4nc(c(-c5ccccc5)c5ccc2[nH]5)C=C4)C=C3)cc1)C1=Cc2cc(Cl)cc(-c3ccc(O)cc3)c2O[C@@H]1C(F)(F)F
REMARK SMILES IDX 5 1 4 2 3 3 1 4 2 5 59 7 60 8 76 9 61 10 75 11 62 12 74 13
REMARK SMILES IDX 63 14 66 15 64 16 65 17 77 18 78 19 79 20 80 21 67 22 68 23
REMARK SMILES IDX 73 24 69 25 72 26 70 27 71 28 6 30 7 31 8 32 9 33 10 35
REMARK SMILES IDX 11 36 12 37 58 38 13 39 57 40 14 41 15 42 16 43 51 44 17 45
REMARK SMILES IDX 56 46 50 47 52 48 18 49 55 50 49 51 48 52 19 54 41 55 26 56
REMARK SMILES IDX 40 57 27 58 30 59 39 60 53 61 28 62 29 63 38 65 54 66 31 67
REMARK SMILES IDX 20 68 21 69 25 70 22 71 24 72 23 73 42 74 43 75 47 76 44 77
REMARK SMILES IDX 46 78 45 79 32 80 33 81 37 82 34 83 36 84 35 85
REMARK H PARENT 3 6 71 29 8 34 52 53 30 64
REMARK Flexibility Score: inf
ROOT
ATOM      1  C   UNL     1       4.275  -0.026   3.330  1.00  0.00     0.023 C 
ENDROOT
BRANCH   1   2
ATOM      2  C   UNL     1       3.732  -0.489   1.981  1.00  0.00     0.116 C 
BRANCH   2   3
ATOM      3  N   UNL     1       2.542   0.228   1.541  1.00  0.00    -0.352 N 
ATOM      4  O   UNL     1       1.053   1.117   0.113  1.00  0.00    -0.270 OA
ATOM      5  C   UNL     1       2.212   0.768   0.324  1.00  0.00     0.251 C 
ATOM      6  H   UNL     1       1.856   0.345   2.238  1.00  0.00     0.163 HD
BRANCH   5   7
ATOM      7  C   UNL     1       3.192   0.796  -0.796  1.00  0.00     0.067 C 
ATOM      8  C   UNL     1       4.428   1.290  -0.658  1.00  0.00     0.025 C 
ATOM      9  C   UNL     1       2.992  -0.291  -1.807  1.00  0.00     0.314 C 
ATOM     10  C   UNL     1       5.508   0.306  -0.800  1.00  0.00     0.019 A 
ATOM     11  O   UNL     1       3.929  -1.375  -1.597  1.00  0.00    -0.475 OA
ATOM     12  C   UNL     1       6.744   0.630  -0.232  1.00  0.00     0.032 A 
ATOM     13  C   UNL     1       5.166  -1.044  -1.078  1.00  0.00     0.135 A 
ATOM     14  C   UNL     1       7.613  -0.393   0.118  1.00  0.00     0.042 A 
ATOM     15  C   UNL     1       6.005  -2.093  -0.635  1.00  0.00     0.026 A 
ATOM     16  Cl  UNL     1       9.065  -0.022   0.964  1.00  0.00    -0.084 Cl
ATOM     17  C   UNL     1       7.251  -1.727  -0.074  1.00  0.00     0.033 A 
BRANCH   9  18
ATOM     18  C   UNL     1       3.051   0.310  -3.231  1.00  0.00     0.429 C 
ATOM     19  F   UNL     1       2.716  -0.604  -4.171  1.00  0.00    -0.167 F 
ATOM     20  F   UNL     1       2.186   1.347  -3.368  1.00  0.00    -0.167 F 
ATOM     21  F   UNL     1       4.279   0.784  -3.554  1.00  0.00    -0.167 F 
ENDBRANCH   9  18
BRANCH  15  22
ATOM     22  C   UNL     1       5.566  -3.514  -0.527  1.00  0.00    -0.014 A 
ATOM     23  C   UNL     1       5.839  -4.240   0.654  1.00  0.00     0.012 A 
ATOM     24  C   UNL     1       4.866  -4.191  -1.538  1.00  0.00     0.012 A 
ATOM     25  C   UNL     1       5.467  -5.577   0.806  1.00  0.00     0.047 A 
ATOM     26  C   UNL     1       4.468  -5.530  -1.381  1.00  0.00     0.047 A 
ATOM     27  C   UNL     1       4.778  -6.212  -0.210  1.00  0.00     0.115 A 
BRANCH  27  28
ATOM     28  O   UNL     1       4.426  -7.513  -0.011  1.00  0.00    -0.508 OA
ATOM     29  H   UNL     1       4.652  -7.941   0.791  1.00  0.00     0.293 HD
ENDBRANCH  27  28
ENDBRANCH  15  22
ENDBRANCH   5   7
ENDBRANCH   2   3
ENDBRANCH   1   2
BRANCH   1  30
ATOM     30  C   UNL     1       4.040  -1.001   4.482  1.00  0.00     0.023 C 
BRANCH  30  31
ATOM     31  C   UNL     1       4.594  -2.410   4.285  1.00  0.00     0.116 C 
BRANCH  31  32
ATOM     32  N   UNL     1       6.028  -2.480   4.052  1.00  0.00    -0.352 N 
ATOM     33  C   UNL     1       6.883  -3.522   4.333  1.00  0.00     0.251 C 
ATOM     34  H   UNL     1       6.438  -1.684   3.643  1.00  0.00     0.163 HD
ATOM     35  O   UNL     1       8.086  -3.413   4.094  1.00  0.00    -0.269 OA
BRANCH  33  36
ATOM     36  C   UNL     1       6.366  -4.764   4.951  1.00  0.00     0.039 A 
ATOM     37  C   UNL     1       7.063  -5.323   6.026  1.00  0.00     0.014 A 
ATOM     38  C   UNL     1       5.191  -5.367   4.494  1.00  0.00     0.014 A 
ATOM     39  C   UNL     1       6.536  -6.433   6.691  1.00  0.00     0.010 A 
ATOM     40  C   UNL     1       4.638  -6.436   5.187  1.00  0.00     0.010 A 
ATOM     41  C   UNL     1       5.301  -6.971   6.296  1.00  0.00    -0.014 A 
BRANCH  41  42
ATOM     42  C   UNL     1       4.661  -8.066   7.057  1.00  0.00     0.031 A 
ATOM     43  C   UNL     1       4.524  -9.431   6.449  1.00  0.00     0.074 A 
ATOM     44  C   UNL     1       4.132  -7.793   8.265  1.00  0.00     0.049 A 
ATOM     45  N   UNL     1       3.992 -10.510   6.962  1.00  0.00    -0.248 NA
ATOM     46  C   UNL     1       5.033  -9.603   5.078  1.00  0.00     0.031 C 
ATOM     47  C   UNL     1       4.142  -6.480   8.917  1.00  0.00     0.029 A 
ATOM     48  N   UNL     1       3.469  -8.599   9.153  1.00  0.00    -0.354 N 
ATOM     49  C   UNL     1       4.119 -11.492   5.988  1.00  0.00     0.074 A 
ATOM     50  C   UNL     1       4.715 -10.865   4.829  1.00  0.00     0.031 C 
ATOM     51  C   UNL     1       3.527  -6.575  10.107  1.00  0.00     0.029 A 
ATOM     52  C   UNL     1       3.063  -7.945  10.291  1.00  0.00     0.049 A 
ATOM     53  H   UNL     1       3.301  -9.555   8.992  1.00  0.00     0.167 HD
ATOM     54  C   UNL     1       3.793 -12.803   6.066  1.00  0.00     0.031 A 
ATOM     55  C   UNL     1       2.393  -8.405  11.364  1.00  0.00     0.031 A 
ATOM     56  C   UNL     1       3.170 -13.409   7.214  1.00  0.00     0.049 A 
ATOM     57  C   UNL     1       2.030  -9.864  11.417  1.00  0.00     0.074 A 
ATOM     58  C   UNL     1       2.815 -14.732   7.408  1.00  0.00     0.029 A 
ATOM     59  N   UNL     1       2.803 -12.723   8.362  1.00  0.00    -0.354 N 
ATOM     60  N   UNL     1       2.239 -10.802  10.524  1.00  0.00    -0.248 NA
ATOM     61  C   UNL     1       1.371 -10.334  12.642  1.00  0.00     0.031 C 
ATOM     62  C   UNL     1       2.194 -14.838   8.657  1.00  0.00     0.029 A 
ATOM     63  C   UNL     1       2.221 -13.594   9.267  1.00  0.00     0.049 A 
ATOM     64  H   UNL     1       2.937 -11.759   8.512  1.00  0.00     0.167 HD
ATOM     65  C   UNL     1       1.778 -11.979  11.098  1.00  0.00     0.074 A 
ATOM     66  C   UNL     1       1.297 -11.638  12.421  1.00  0.00     0.031 C 
ATOM     67  C   UNL     1       1.758 -13.233  10.581  1.00  0.00     0.031 A 
BRANCH  54  68
ATOM     68  C   UNL     1       4.122 -13.673   4.884  1.00  0.00    -0.014 A 
ATOM     69  C   UNL     1       5.457 -13.971   4.562  1.00  0.00     0.009 A 
ATOM     70  C   UNL     1       3.097 -14.246   4.117  1.00  0.00     0.009 A 
ATOM     71  C   UNL     1       5.758 -14.803   3.482  1.00  0.00     0.001 A 
ATOM     72  C   UNL     1       3.400 -15.101   3.054  1.00  0.00     0.001 A 
ATOM     73  C   UNL     1       4.729 -15.373   2.734  1.00  0.00     0.000 A 
ENDBRANCH  54  68
BRANCH  55  74
ATOM     74  C   UNL     1       2.047  -7.493  12.487  1.00  0.00    -0.014 A 
ATOM     75  C   UNL     1       2.654  -7.642  13.744  1.00  0.00     0.009 A 
ATOM     76  C   UNL     1       1.084  -6.487  12.317  1.00  0.00     0.009 A 
ATOM     77  C   UNL     1       2.268  -6.837  14.818  1.00  0.00     0.001 A 
ATOM     78  C   UNL     1       0.725  -5.660  13.384  1.00  0.00     0.001 A 
ATOM     79  C   UNL     1       1.305  -5.846  14.637  1.00  0.00     0.000 A 
ENDBRANCH  55  74
BRANCH  67  80
ATOM     80  C   UNL     1       1.257 -14.330  11.479  1.00  0.00    -0.014 A 
ATOM     81  C   UNL     1      -0.093 -14.424  11.850  1.00  0.00     0.009 A 
ATOM     82  C   UNL     1       2.161 -15.295  11.953  1.00  0.00     0.009 A 
ATOM     83  C   UNL     1      -0.517 -15.429  12.721  1.00  0.00     0.001 A 
ATOM     84  C   UNL     1       1.728 -16.320  12.793  1.00  0.00     0.001 A 
ATOM     85  C   UNL     1       0.393 -16.377  13.189  1.00  0.00     0.000 A 
ENDBRANCH  67  80
ENDBRANCH  41  42
ENDBRANCH  33  36
ENDBRANCH  31  32
ENDBRANCH  30  31
ENDBRANCH   1  30
TORSDOF 14
