REMARK SMILES CCN(C=O)[C@](C)(C(=O)NCCCCNC(=O)c1ccc(-c2c3nc(c(-c4ccccc4)c4ccc([nH]4)c(-c4ccccc4)c4nc(c(-c5ccccc5)c5ccc2[nH]5)C=C4)C=C3)cc1)c1cc(F)c(C)cc1F
REMARK SMILES IDX 12 1 11 2 10 3 8 4 9 5 6 7 7 8 3 9 2 10 1 11 4 12 5 13 66 14
REMARK SMILES IDX 67 15 73 16 68 17 72 18 74 19 69 20 70 21 71 22 13 23 14 24
REMARK SMILES IDX 15 25 16 26 17 28 18 29 19 30 65 31 20 32 64 33 21 34 22 35
REMARK SMILES IDX 23 36 58 37 24 38 63 39 57 40 59 41 25 42 62 43 56 44 55 45
REMARK SMILES IDX 26 47 48 48 33 49 47 50 34 51 37 52 46 53 60 54 35 55 36 56
REMARK SMILES IDX 45 58 61 59 38 60 27 61 28 62 32 63 29 64 31 65 30 66 49 67
REMARK SMILES IDX 50 68 54 69 51 70 53 71 52 72 39 73 40 74 44 75 41 76 43 77
REMARK SMILES IDX 42 78
REMARK H PARENT 10 6 15 27 59 46 37 57
REMARK Flexibility Score: inf
ROOT
ATOM      1  C   UNL     1       0.448  -0.259  -1.287  1.00  0.00     0.023 C 
ENDROOT
BRANCH   1   2
ATOM      2  C   UNL     1       1.498  -0.829  -0.341  1.00  0.00     0.116 C 
BRANCH   2   3
ATOM      3  N   UNL     1       2.324   0.205   0.254  1.00  0.00    -0.354 N 
ATOM      4  C   UNL     1       2.817   0.323   1.526  1.00  0.00     0.250 C 
ATOM      5  O   UNL     1       3.837   1.018   1.625  1.00  0.00    -0.272 OA
ATOM      6  H   UNL     1       2.568   0.940  -0.354  1.00  0.00     0.163 HD
BRANCH   4   7
ATOM      7  C   UNL     1       2.232  -0.506   2.739  1.00  0.00     0.147 C 
ATOM      8  C   UNL     1       0.677  -0.430   2.718  1.00  0.00     0.051 C 
BRANCH   7   9
ATOM      9  N   UNL     1       2.799  -1.902   2.623  1.00  0.00    -0.327 N 
BRANCH   9  10
ATOM     10  C   UNL     1       4.205  -2.096   2.233  1.00  0.00     0.117 C 
ATOM     11  C   UNL     1       4.370  -2.525   0.780  1.00  0.00     0.027 C 
ENDBRANCH   9  10
BRANCH   9  12
ATOM     12  C   UNL     1       2.113  -3.021   3.067  1.00  0.00     0.341 C 
ATOM     13  O   UNL     1       1.010  -3.048   3.593  1.00  0.00    -0.279 OA
ENDBRANCH   9  12
ENDBRANCH   7   9
BRANCH   7  14
ATOM     14  C   UNL     1       2.596   0.154   4.099  1.00  0.00     0.026 A 
ATOM     15  C   UNL     1       2.859  -0.606   5.254  1.00  0.00     0.049 A 
ATOM     16  C   UNL     1       2.458   1.544   4.273  1.00  0.00     0.129 A 
ATOM     17  C   UNL     1       2.959   0.004   6.506  1.00  0.00     0.126 A 
ATOM     18  C   UNL     1       2.583   2.155   5.523  1.00  0.00     0.046 A 
ATOM     19  F   UNL     1       2.101   2.322   3.241  1.00  0.00    -0.207 F 
ATOM     20  F   UNL     1       3.140  -0.770   7.585  1.00  0.00    -0.207 F 
ATOM     21  C   UNL     1       2.823   1.384   6.661  1.00  0.00    -0.012 A 
ATOM     22  C   UNL     1       2.824   1.997   8.027  1.00  0.00     0.047 C 
ENDBRANCH   7  14
ENDBRANCH   4   7
ENDBRANCH   2   3
ENDBRANCH   1   2
BRANCH   1  23
ATOM     23  C   UNL     1       1.020   0.460  -2.511  1.00  0.00     0.023 C 
BRANCH  23  24
ATOM     24  C   UNL     1       2.096  -0.306  -3.275  1.00  0.00     0.116 C 
BRANCH  24  25
ATOM     25  N   UNL     1       1.637  -1.595  -3.774  1.00  0.00    -0.352 N 
ATOM     26  C   UNL     1       1.745  -2.108  -5.045  1.00  0.00     0.251 C 
ATOM     27  H   UNL     1       1.190  -2.175  -3.115  1.00  0.00     0.163 HD
ATOM     28  O   UNL     1       1.219  -3.175  -5.343  1.00  0.00    -0.269 OA
BRANCH  26  29
ATOM     29  C   UNL     1       2.478  -1.331  -6.061  1.00  0.00     0.039 A 
ATOM     30  C   UNL     1       1.826  -0.974  -7.243  1.00  0.00     0.014 A 
ATOM     31  C   UNL     1       3.778  -0.891  -5.800  1.00  0.00     0.014 A 
ATOM     32  C   UNL     1       2.449  -0.098  -8.133  1.00  0.00     0.010 A 
ATOM     33  C   UNL     1       4.368   0.032  -6.655  1.00  0.00     0.010 A 
ATOM     34  C   UNL     1       3.705   0.446  -7.822  1.00  0.00    -0.014 A 
BRANCH  34  35
ATOM     35  C   UNL     1       4.361   1.454  -8.690  1.00  0.00     0.031 A 
ATOM     36  C   UNL     1       5.671   1.125  -9.348  1.00  0.00     0.074 A 
ATOM     37  C   UNL     1       3.843   2.693  -8.798  1.00  0.00     0.049 A 
ATOM     38  N   UNL     1       6.498   1.913  -9.985  1.00  0.00    -0.248 NA
ATOM     39  C   UNL     1       6.123  -0.272  -9.246  1.00  0.00     0.031 C 
ATOM     40  C   UNL     1       2.589   3.149  -8.195  1.00  0.00     0.029 A 
ATOM     41  N   UNL     1       4.327   3.807  -9.439  1.00  0.00    -0.354 N 
ATOM     42  C   UNL     1       7.583   1.117 -10.327  1.00  0.00     0.074 A 
ATOM     43  C   UNL     1       7.324  -0.206  -9.801  1.00  0.00     0.031 C 
ATOM     44  C   UNL     1       2.397   4.442  -8.504  1.00  0.00     0.029 A 
ATOM     45  C   UNL     1       3.536   4.919  -9.283  1.00  0.00     0.049 A 
ATOM     46  H   UNL     1       5.161   3.808  -9.962  1.00  0.00     0.167 HD
ATOM     47  C   UNL     1       8.692   1.454 -11.026  1.00  0.00     0.031 A 
ATOM     48  C   UNL     1       3.718   6.186  -9.702  1.00  0.00     0.031 A 
ATOM     49  C   UNL     1       8.939   2.761 -11.570  1.00  0.00     0.049 A 
ATOM     50  C   UNL     1       4.962   6.538 -10.470  1.00  0.00     0.074 A 
ATOM     51  C   UNL     1      10.013   3.189 -12.331  1.00  0.00     0.029 A 
ATOM     52  N   UNL     1       8.096   3.849 -11.416  1.00  0.00    -0.354 N 
ATOM     53  N   UNL     1       5.965   5.767 -10.813  1.00  0.00    -0.248 NA
ATOM     54  C   UNL     1       5.095   7.934 -10.912  1.00  0.00     0.031 C 
ATOM     55  C   UNL     1       9.835   4.548 -12.610  1.00  0.00     0.029 A 
ATOM     56  C   UNL     1       8.629   4.952 -12.060  1.00  0.00     0.049 A 
ATOM     57  H   UNL     1       7.245   3.840 -10.922  1.00  0.00     0.167 HD
ATOM     58  C   UNL     1       6.830   6.575 -11.540  1.00  0.00     0.074 A 
ATOM     59  C   UNL     1       6.234   7.893 -11.590  1.00  0.00     0.031 C 
ATOM     60  C   UNL     1       8.012   6.250 -12.117  1.00  0.00     0.031 A 
BRANCH  47  61
ATOM     61  C   UNL     1       9.727   0.385 -11.231  1.00  0.00    -0.014 A 
ATOM     62  C   UNL     1       9.499  -0.690 -12.104  1.00  0.00     0.009 A 
ATOM     63  C   UNL     1      10.956   0.467 -10.558  1.00  0.00     0.009 A 
ATOM     64  C   UNL     1      10.466  -1.683 -12.269  1.00  0.00     0.001 A 
ATOM     65  C   UNL     1      11.932  -0.512 -10.747  1.00  0.00     0.001 A 
ATOM     66  C   UNL     1      11.683  -1.591 -11.594  1.00  0.00     0.000 A 
ENDBRANCH  47  61
BRANCH  48  67
ATOM     67  C   UNL     1       2.693   7.222  -9.411  1.00  0.00    -0.014 A 
ATOM     68  C   UNL     1       1.877   7.718 -10.440  1.00  0.00     0.009 A 
ATOM     69  C   UNL     1       2.532   7.728  -8.113  1.00  0.00     0.009 A 
ATOM     70  C   UNL     1       0.938   8.717 -10.179  1.00  0.00     0.001 A 
ATOM     71  C   UNL     1       1.574   8.710  -7.850  1.00  0.00     0.001 A 
ATOM     72  C   UNL     1       0.784   9.210  -8.884  1.00  0.00     0.000 A 
ENDBRANCH  48  67
BRANCH  60  73
ATOM     73  C   UNL     1       8.713   7.318 -12.905  1.00  0.00    -0.014 A 
ATOM     74  C   UNL     1       9.407   8.358 -12.270  1.00  0.00     0.009 A 
ATOM     75  C   UNL     1       8.731   7.240 -14.307  1.00  0.00     0.009 A 
ATOM     76  C   UNL     1      10.091   9.311 -13.026  1.00  0.00     0.001 A 
ATOM     77  C   UNL     1       9.434   8.181 -15.059  1.00  0.00     0.001 A 
ATOM     78  C   UNL     1      10.109   9.219 -14.418  1.00  0.00     0.000 A 
ENDBRANCH  60  73
ENDBRANCH  34  35
ENDBRANCH  26  29
ENDBRANCH  24  25
ENDBRANCH  23  24
ENDBRANCH   1  23
TORSDOF 15
