REMARK SMILES CCc1ccc(OCC(=O)Nc2cc(C)c(O)c(C(=O)NCCCCNC(=O)c3ccc(-c4c5nc(c(-c6ccccc6)c6ccc([nH]6)c(-c6ccccc6)c6nc(c(-c7ccccc7)c7ccc4[nH]7)C=C6)C=C5)cc3)c2)cc1
REMARK SMILES IDX 22 1 21 2 19 3 20 4 18 6 12 7 13 8 77 9 14 10 15 11 16 12
REMARK SMILES IDX 11 13 9 14 10 15 8 17 7 18 6 19 3 20 4 21 79 22 5 23 78 24
REMARK SMILES IDX 2 25 1 26 17 27 23 29 24 30 25 31 26 32 27 33 28 35 29 36
REMARK SMILES IDX 30 37 76 38 31 39 75 40 32 41 33 42 34 43 69 44 35 45 74 46
REMARK SMILES IDX 68 47 70 48 36 49 73 50 67 51 66 52 37 54 59 55 44 56 58 57
REMARK SMILES IDX 45 58 48 59 57 60 71 61 46 62 47 63 56 65 72 66 49 67 38 68
REMARK SMILES IDX 39 69 43 70 40 71 42 72 41 73 60 74 61 75 65 76 62 77 64 78
REMARK SMILES IDX 63 79 50 80 51 81 55 82 52 83 54 84 53 85
REMARK H PARENT 21 5 11 16 17 28 26 34 70 53 48 64
REMARK Flexibility Score: inf
ROOT
ATOM      1  C   UNL     1       3.340   3.435   4.812  1.00  0.00     0.116 C 
ENDROOT
BRANCH   1   2
ATOM      2  N   UNL     1       4.208   4.051   5.772  1.00  0.00    -0.352 N 
ATOM      3  C   UNL     1       5.003   5.164   5.613  1.00  0.00     0.255 C 
ATOM      4  O   UNL     1       5.669   5.530   6.586  1.00  0.00    -0.269 OA
ATOM      5  H   UNL     1       4.241   3.623   6.658  1.00  0.00     0.163 HD
BRANCH   3   6
ATOM      6  C   UNL     1       5.204   5.888   4.307  1.00  0.00     0.083 A 
ATOM      7  C   UNL     1       4.521   6.669   2.090  1.00  0.00     0.042 A 
ATOM      8  C   UNL     1       5.841   7.101   1.875  1.00  0.00     0.033 A 
ATOM      9  C   UNL     1       4.193   6.107   3.333  1.00  0.00     0.043 A 
ATOM     10  C   UNL     1       6.836   6.989   2.852  1.00  0.00    -0.006 A 
ATOM     11  C   UNL     1       8.198   7.553   2.559  1.00  0.00     0.048 C 
ATOM     12  C   UNL     1       6.510   6.372   4.060  1.00  0.00     0.131 A 
BRANCH   7  13
ATOM     13  N   UNL     1       3.694   6.795   0.957  1.00  0.00    -0.323 N 
ATOM     14  C   UNL     1       2.370   6.724   0.660  1.00  0.00     0.262 C 
ATOM     15  O   UNL     1       2.067   6.766  -0.540  1.00  0.00    -0.271 OA
ATOM     16  H   UNL     1       4.226   6.988   0.152  1.00  0.00     0.170 HD
BRANCH  14  17
ATOM     17  C   UNL     1       1.274   6.716   1.711  1.00  0.00     0.329 C 
BRANCH  17  18
ATOM     18  O   UNL     1       0.919   5.499   2.320  1.00  0.00    -0.484 OA
BRANCH  18  19
ATOM     19  C   UNL     1       0.790   4.392   1.537  1.00  0.00     0.120 A 
ATOM     20  C   UNL     1       0.342   1.788   0.564  1.00  0.00    -0.048 A 
ATOM     21  C   UNL     1       1.181   1.992   1.645  1.00  0.00     0.007 A 
ATOM     22  C   UNL     1      -0.179   2.913  -0.100  1.00  0.00     0.007 A 
ATOM     23  C   UNL     1       1.382   3.280   2.103  1.00  0.00     0.047 A 
ATOM     24  C   UNL     1       0.039   4.222   0.389  1.00  0.00     0.047 A 
BRANCH  20  25
ATOM     25  C   UNL     1      -0.023   0.368   0.223  1.00  0.00     0.032 C 
ATOM     26  C   UNL     1       0.902  -0.241  -0.813  1.00  0.00     0.009 C 
ENDBRANCH  20  25
ENDBRANCH  18  19
ENDBRANCH  17  18
ENDBRANCH  14  17
ENDBRANCH   7  13
BRANCH  12  27
ATOM     27  O   UNL     1       7.525   6.255   4.980  1.00  0.00    -0.507 OA
ATOM     28  H   UNL     1       8.378   6.588   4.781  1.00  0.00     0.293 HD
ENDBRANCH  12  27
ENDBRANCH   3   6
ENDBRANCH   1   2
BRANCH   1  29
ATOM     29  C   UNL     1       3.273   1.910   4.811  1.00  0.00     0.023 C 
BRANCH  29  30
ATOM     30  C   UNL     1       2.084   1.190   5.465  1.00  0.00     0.023 C 
BRANCH  30  31
ATOM     31  C   UNL     1       0.764   1.910   5.752  1.00  0.00     0.116 C 
BRANCH  31  32
ATOM     32  N   UNL     1      -0.159   2.070   4.631  1.00  0.00    -0.352 N 
ATOM     33  C   UNL     1      -1.392   1.519   4.350  1.00  0.00     0.251 C 
ATOM     34  H   UNL     1       0.162   2.693   3.940  1.00  0.00     0.163 HD
ATOM     35  O   UNL     1      -1.935   1.718   3.271  1.00  0.00    -0.269 OA
BRANCH  33  36
ATOM     36  C   UNL     1      -2.091   0.696   5.351  1.00  0.00     0.039 A 
ATOM     37  C   UNL     1      -2.846  -0.409   4.944  1.00  0.00     0.014 A 
ATOM     38  C   UNL     1      -2.031   1.044   6.697  1.00  0.00     0.014 A 
ATOM     39  C   UNL     1      -3.459  -1.212   5.906  1.00  0.00     0.010 A 
ATOM     40  C   UNL     1      -2.507   0.170   7.654  1.00  0.00     0.010 A 
ATOM     41  C   UNL     1      -3.250  -0.951   7.269  1.00  0.00    -0.014 A 
BRANCH  41  42
ATOM     42  C   UNL     1      -3.825  -1.806   8.329  1.00  0.00     0.031 A 
ATOM     43  C   UNL     1      -4.773  -1.206   9.331  1.00  0.00     0.074 A 
ATOM     44  C   UNL     1      -3.419  -3.084   8.435  1.00  0.00     0.049 A 
ATOM     45  N   UNL     1      -5.331  -1.761  10.376  1.00  0.00    -0.248 NA
ATOM     46  C   UNL     1      -5.105   0.221   9.164  1.00  0.00     0.031 C 
ATOM     47  C   UNL     1      -2.455  -3.746   7.550  1.00  0.00     0.029 A 
ATOM     48  N   UNL     1      -3.769  -4.057   9.331  1.00  0.00    -0.354 N 
ATOM     49  C   UNL     1      -6.054  -0.748  10.995  1.00  0.00     0.074 A 
ATOM     50  C   UNL     1      -5.797   0.470  10.263  1.00  0.00     0.031 C 
ATOM     51  C   UNL     1      -2.338  -5.033   7.913  1.00  0.00     0.029 A 
ATOM     52  C   UNL     1      -3.179  -5.271   9.079  1.00  0.00     0.049 A 
ATOM     53  H   UNL     1      -4.385  -3.902  10.084  1.00  0.00     0.167 HD
ATOM     54  C   UNL     1      -6.889  -0.832  12.056  1.00  0.00     0.031 A 
ATOM     55  C   UNL     1      -3.318  -6.447   9.716  1.00  0.00     0.031 A 
ATOM     56  C   UNL     1      -7.141  -2.055  12.768  1.00  0.00     0.049 A 
ATOM     57  C   UNL     1      -4.250  -6.518  10.892  1.00  0.00     0.074 A 
ATOM     58  C   UNL     1      -7.995  -2.278  13.832  1.00  0.00     0.029 A 
ATOM     59  N   UNL     1      -6.535  -3.268  12.475  1.00  0.00    -0.354 N 
ATOM     60  N   UNL     1      -4.979  -5.568  11.431  1.00  0.00    -0.248 NA
ATOM     61  C   UNL     1      -4.396  -7.830  11.534  1.00  0.00     0.031 C 
ATOM     62  C   UNL     1      -7.866  -3.618  14.216  1.00  0.00     0.029 A 
ATOM     63  C   UNL     1      -6.985  -4.244  13.347  1.00  0.00     0.049 A 
ATOM     64  H   UNL     1      -5.880  -3.413  11.754  1.00  0.00     0.167 HD
ATOM     65  C   UNL     1      -5.701  -6.176  12.448  1.00  0.00     0.074 A 
ATOM     66  C   UNL     1      -5.331  -7.578  12.438  1.00  0.00     0.031 C 
ATOM     67  C   UNL     1      -6.595  -5.631  13.311  1.00  0.00     0.031 A 
BRANCH  54  68
ATOM     68  C   UNL     1      -7.574   0.436  12.494  1.00  0.00    -0.014 A 
ATOM     69  C   UNL     1      -8.512   1.081  11.668  1.00  0.00     0.009 A 
ATOM     70  C   UNL     1      -7.269   1.006  13.739  1.00  0.00     0.009 A 
ATOM     71  C   UNL     1      -9.084   2.295  12.055  1.00  0.00     0.001 A 
ATOM     72  C   UNL     1      -7.871   2.201  14.140  1.00  0.00     0.001 A 
ATOM     73  C   UNL     1      -8.766   2.852  13.292  1.00  0.00     0.000 A 
ENDBRANCH  54  68
BRANCH  55  74
ATOM     74  C   UNL     1      -2.612  -7.657   9.217  1.00  0.00    -0.014 A 
ATOM     75  C   UNL     1      -3.336  -8.702   8.622  1.00  0.00     0.009 A 
ATOM     76  C   UNL     1      -1.217  -7.774   9.321  1.00  0.00     0.009 A 
ATOM     77  C   UNL     1      -2.683  -9.852   8.171  1.00  0.00     0.001 A 
ATOM     78  C   UNL     1      -0.564  -8.911   8.841  1.00  0.00     0.001 A 
ATOM     79  C   UNL     1      -1.298  -9.954   8.277  1.00  0.00     0.000 A 
ENDBRANCH  55  74
BRANCH  67  80
ATOM     80  C   UNL     1      -7.269  -6.571  14.270  1.00  0.00    -0.014 A 
ATOM     81  C   UNL     1      -6.567  -7.178  15.323  1.00  0.00     0.009 A 
ATOM     82  C   UNL     1      -8.638  -6.840  14.120  1.00  0.00     0.009 A 
ATOM     83  C   UNL     1      -7.213  -8.077  16.173  1.00  0.00     0.001 A 
ATOM     84  C   UNL     1      -9.290  -7.710  14.993  1.00  0.00     0.001 A 
ATOM     85  C   UNL     1      -8.573  -8.339  16.010  1.00  0.00     0.000 A 
ENDBRANCH  67  80
ENDBRANCH  41  42
ENDBRANCH  33  36
ENDBRANCH  31  32
ENDBRANCH  30  31
ENDBRANCH  29  30
ENDBRANCH   1  29
TORSDOF 17
