REMARK SMILES CCOC(=O)c1ccc(NC(=O)[C@H]2CC=CC[C@@]2(C)C(=O)NCCCCNC(=O)c2ccc(-c3c4nc(c(-c5ccccc5)c5ccc([nH]5)c(-c5ccccc5)c5nc(c(-c6ccccc6)c6ccc3[nH]6)C=C5)C=C4)cc2)cc1
REMARK SMILES IDX 23 1 22 2 20 3 21 4 18 6 13 7 14 8 15 9 17 10 19 11 16 12
REMARK SMILES IDX 11 13 10 14 12 16 9 17 6 18 7 19 79 20 8 21 78 22 4 23 5 24
REMARK SMILES IDX 3 25 2 26 1 27 24 28 25 29 26 30 27 31 28 32 29 34 30 35
REMARK SMILES IDX 31 36 77 37 32 38 76 39 33 40 34 41 35 42 70 43 36 44 75 45
REMARK SMILES IDX 69 46 71 47 37 48 74 49 68 50 67 51 38 53 60 54 45 55 59 56
REMARK SMILES IDX 46 57 49 58 58 59 72 60 47 61 48 62 57 64 73 65 50 66 39 67
REMARK SMILES IDX 40 68 44 69 41 70 43 71 42 72 61 73 62 74 66 75 63 76 65 77
REMARK SMILES IDX 64 78 51 79 52 80 56 81 53 82 55 83 54 84
REMARK H PARENT 22 5 10 15 27 33 71 52 49 63
REMARK Flexibility Score: inf
ROOT
ATOM      1  C   UNL     1       3.170   4.655  -4.397  1.00  0.00     0.116 C 
ENDROOT
BRANCH   1   2
ATOM      2  N   UNL     1       3.397   5.901  -5.097  1.00  0.00    -0.356 N 
ATOM      3  C   UNL     1       4.526   6.567  -5.453  1.00  0.00     0.227 C 
ATOM      4  O   UNL     1       4.330   7.562  -6.160  1.00  0.00    -0.274 OA
ATOM      5  H   UNL     1       2.568   6.357  -5.369  1.00  0.00     0.163 HD
BRANCH   3   6
ATOM      6  C   UNL     1       5.962   6.156  -5.017  1.00  0.00     0.062 C 
ATOM      7  C   UNL     1       6.333   6.649  -3.562  1.00  0.00     0.098 C 
ATOM      8  C   UNL     1       7.296   5.783  -2.737  1.00  0.00     0.041 C 
ATOM      9  C   UNL     1       7.335   4.333  -3.096  1.00  0.00    -0.030 C 
ATOM     10  C   UNL     1       6.240   4.655  -5.325  1.00  0.00     0.044 C 
ATOM     11  C   UNL     1       6.915   6.932  -5.995  1.00  0.00     0.023 C 
ATOM     12  C   UNL     1       6.835   3.831  -4.229  1.00  0.00    -0.030 C 
BRANCH   7  13
ATOM     13  C   UNL     1       5.282   7.489  -2.817  1.00  0.00     0.228 C 
ATOM     14  N   UNL     1       4.479   7.176  -1.777  1.00  0.00    -0.326 N 
ATOM     15  H   UNL     1       3.986   7.974  -1.479  1.00  0.00     0.169 HD
ATOM     16  O   UNL     1       5.129   8.663  -3.202  1.00  0.00    -0.274 OA
BRANCH  14  17
ATOM     17  C   UNL     1       4.126   6.072  -0.988  1.00  0.00     0.041 A 
ATOM     18  C   UNL     1       3.057   3.918   0.478  1.00  0.00     0.060 A 
ATOM     19  C   UNL     1       4.120   3.713  -0.396  1.00  0.00     0.018 A 
ATOM     20  C   UNL     1       2.530   5.196   0.654  1.00  0.00     0.018 A 
ATOM     21  C   UNL     1       4.621   4.786  -1.139  1.00  0.00     0.027 A 
ATOM     22  C   UNL     1       3.083   6.269  -0.060  1.00  0.00     0.027 A 
BRANCH  18  23
ATOM     23  C   UNL     1       2.490   2.744   1.159  1.00  0.00     0.338 C 
ATOM     24  O   UNL     1       3.092   2.083   1.978  1.00  0.00    -0.246 OA
BRANCH  23  25
ATOM     25  O   UNL     1       1.281   2.488   0.600  1.00  0.00    -0.462 OA
BRANCH  25  26
ATOM     26  C   UNL     1       0.660   1.260   1.014  1.00  0.00     0.230 C 
ATOM     27  C   UNL     1       1.319   0.056   0.364  1.00  0.00     0.049 C 
ENDBRANCH  25  26
ENDBRANCH  23  25
ENDBRANCH  18  23
ENDBRANCH  14  17
ENDBRANCH   7  13
ENDBRANCH   3   6
ENDBRANCH   1   2
BRANCH   1  28
ATOM     28  C   UNL     1       2.173   4.817  -3.262  1.00  0.00     0.023 C 
BRANCH  28  29
ATOM     29  C   UNL     1       0.705   4.888  -3.615  1.00  0.00     0.023 C 
BRANCH  29  30
ATOM     30  C   UNL     1       0.164   3.661  -4.318  1.00  0.00     0.116 C 
BRANCH  30  31
ATOM     31  N   UNL     1       0.362   2.410  -3.590  1.00  0.00    -0.352 N 
ATOM     32  C   UNL     1      -0.568   1.482  -3.178  1.00  0.00     0.251 C 
ATOM     33  H   UNL     1       1.296   2.200  -3.360  1.00  0.00     0.163 HD
ATOM     34  O   UNL     1      -0.237   0.481  -2.554  1.00  0.00    -0.269 OA
BRANCH  32  35
ATOM     35  C   UNL     1      -1.992   1.730  -3.458  1.00  0.00     0.039 A 
ATOM     36  C   UNL     1      -2.913   1.677  -2.410  1.00  0.00     0.014 A 
ATOM     37  C   UNL     1      -2.385   2.118  -4.737  1.00  0.00     0.014 A 
ATOM     38  C   UNL     1      -4.217   2.121  -2.627  1.00  0.00     0.010 A 
ATOM     39  C   UNL     1      -3.636   2.682  -4.913  1.00  0.00     0.010 A 
ATOM     40  C   UNL     1      -4.570   2.679  -3.865  1.00  0.00    -0.014 A 
BRANCH  40  41
ATOM     41  C   UNL     1      -5.921   3.225  -4.133  1.00  0.00     0.031 A 
ATOM     42  C   UNL     1      -6.726   2.637  -5.261  1.00  0.00     0.074 A 
ATOM     43  C   UNL     1      -6.374   4.294  -3.451  1.00  0.00     0.049 A 
ATOM     44  N   UNL     1      -7.834   3.072  -5.802  1.00  0.00    -0.248 NA
ATOM     45  C   UNL     1      -6.181   1.425  -5.899  1.00  0.00     0.031 C 
ATOM     46  C   UNL     1      -5.670   4.978  -2.362  1.00  0.00     0.029 A 
ATOM     47  N   UNL     1      -7.540   5.004  -3.586  1.00  0.00    -0.354 N 
ATOM     48  C   UNL     1      -8.086   2.217  -6.867  1.00  0.00     0.074 A 
ATOM     49  C   UNL     1      -6.989   1.280  -6.936  1.00  0.00     0.031 C 
ATOM     50  C   UNL     1      -6.435   5.985  -1.908  1.00  0.00     0.029 A 
ATOM     51  C   UNL     1      -7.655   6.051  -2.703  1.00  0.00     0.049 A 
ATOM     52  H   UNL     1      -8.230   4.784  -4.252  1.00  0.00     0.167 HD
ATOM     53  C   UNL     1      -9.153   2.194  -7.698  1.00  0.00     0.031 A 
ATOM     54  C   UNL     1      -8.634   6.965  -2.563  1.00  0.00     0.031 A 
ATOM     55  C   UNL     1     -10.266   3.093  -7.591  1.00  0.00     0.049 A 
ATOM     56  C   UNL     1      -9.821   6.904  -3.485  1.00  0.00     0.074 A 
ATOM     57  C   UNL     1     -11.427   3.123  -8.341  1.00  0.00     0.029 A 
ATOM     58  N   UNL     1     -10.362   4.110  -6.654  1.00  0.00    -0.354 N 
ATOM     59  N   UNL     1     -10.065   6.066  -4.464  1.00  0.00    -0.248 NA
ATOM     60  C   UNL     1     -10.873   7.909  -3.276  1.00  0.00     0.031 C 
ATOM     61  C   UNL     1     -12.215   4.180  -7.875  1.00  0.00     0.029 A 
ATOM     62  C   UNL     1     -11.563   4.777  -6.808  1.00  0.00     0.049 A 
ATOM     63  H   UNL     1      -9.677   4.326  -5.981  1.00  0.00     0.167 HD
ATOM     64  C   UNL     1     -11.309   6.423  -4.966  1.00  0.00     0.074 A 
ATOM     65  C   UNL     1     -11.775   7.543  -4.175  1.00  0.00     0.031 C 
ATOM     66  C   UNL     1     -12.006   5.875  -5.991  1.00  0.00     0.031 A 
BRANCH  53  67
ATOM     67  C   UNL     1      -9.162   1.151  -8.780  1.00  0.00    -0.014 A 
ATOM     68  C   UNL     1      -9.315  -0.211  -8.473  1.00  0.00     0.009 A 
ATOM     69  C   UNL     1      -9.029   1.533 -10.123  1.00  0.00     0.009 A 
ATOM     70  C   UNL     1      -9.292  -1.172  -9.485  1.00  0.00     0.001 A 
ATOM     71  C   UNL     1      -9.039   0.573 -11.136  1.00  0.00     0.001 A 
ATOM     72  C   UNL     1      -9.159  -0.779 -10.816  1.00  0.00     0.000 A 
ENDBRANCH  53  67
BRANCH  54  73
ATOM     73  C   UNL     1      -8.553   8.002  -1.500  1.00  0.00    -0.014 A 
ATOM     74  C   UNL     1      -9.419   7.951  -0.396  1.00  0.00     0.009 A 
ATOM     75  C   UNL     1      -7.633   9.057  -1.590  1.00  0.00     0.009 A 
ATOM     76  C   UNL     1      -9.387   8.953   0.578  1.00  0.00     0.001 A 
ATOM     77  C   UNL     1      -7.584  10.042  -0.600  1.00  0.00     0.001 A 
ATOM     78  C   UNL     1      -8.469   9.995   0.476  1.00  0.00     0.000 A 
ENDBRANCH  54  73
BRANCH  66  79
ATOM     79  C   UNL     1     -13.365   6.445  -6.278  1.00  0.00    -0.014 A 
ATOM     80  C   UNL     1     -13.514   7.688  -6.909  1.00  0.00     0.009 A 
ATOM     81  C   UNL     1     -14.508   5.694  -5.961  1.00  0.00     0.009 A 
ATOM     82  C   UNL     1     -14.788   8.183  -7.192  1.00  0.00     0.001 A 
ATOM     83  C   UNL     1     -15.778   6.179  -6.270  1.00  0.00     0.001 A 
ATOM     84  C   UNL     1     -15.918   7.426  -6.878  1.00  0.00     0.000 A 
ENDBRANCH  66  79
ENDBRANCH  40  41
ENDBRANCH  32  35
ENDBRANCH  30  31
ENDBRANCH  29  30
ENDBRANCH  28  29
ENDBRANCH   1  28
TORSDOF 16
