REMARK SMILES O=C(NCCCCNC(=O)c1cccc(OCC(F)F)c1)c1ccc(-c2c3nc(c(-c4ccccc4)c4ccc([nH]4)c(-c4ccccc4)c4nc(c(-c5ccccc5)c5ccc2[nH]5)C=C4)C=C3)cc1
REMARK SMILES IDX 6 1 5 2 4 3 3 4 1 5 2 6 22 8 23 9 69 10 24 11 68 12 25 13
REMARK SMILES IDX 26 14 27 15 62 16 28 17 67 18 61 19 63 20 29 21 66 22 60 23
REMARK SMILES IDX 59 24 30 26 52 27 37 28 51 29 38 30 41 31 50 32 64 33 39 34
REMARK SMILES IDX 40 35 49 37 65 38 42 39 31 40 32 41 36 42 33 43 35 44 34 45
REMARK SMILES IDX 53 46 54 47 58 48 55 49 57 50 56 51 43 52 44 53 48 54 45 55
REMARK SMILES IDX 47 56 46 57 7 58 8 59 9 60 10 62 11 63 12 64 21 65 13 66
REMARK SMILES IDX 15 67 14 68 16 69 17 70 18 71 19 72 20 73
REMARK H PARENT 3 7 63 25 41 36 8 61
REMARK Flexibility Score: inf
ROOT
ATOM      1  C   UNL     1       4.633  -2.947   2.332  1.00  0.00     0.023 C 
ENDROOT
BRANCH   1   2
ATOM      2  C   UNL     1       5.072  -1.546   1.915  1.00  0.00     0.023 C 
BRANCH   2   3
ATOM      3  C   UNL     1       4.722  -1.156   0.484  1.00  0.00     0.116 C 
BRANCH   3   4
ATOM      4  N   UNL     1       3.287  -1.071   0.252  1.00  0.00    -0.352 N 
ATOM      5  O   UNL     1       1.287  -0.079  -0.075  1.00  0.00    -0.269 OA
ATOM      6  C   UNL     1       2.511   0.017  -0.071  1.00  0.00     0.251 C 
ATOM      7  H   UNL     1       2.799  -1.921   0.341  1.00  0.00     0.163 HD
BRANCH   6   8
ATOM      8  C   UNL     1       3.145   1.315  -0.386  1.00  0.00     0.039 A 
ATOM      9  C   UNL     1       4.255   1.385  -1.231  1.00  0.00     0.014 A 
ATOM     10  C   UNL     1       2.615   2.485   0.168  1.00  0.00     0.014 A 
ATOM     11  C   UNL     1       4.930   2.591  -1.387  1.00  0.00     0.010 A 
ATOM     12  C   UNL     1       3.243   3.712  -0.064  1.00  0.00     0.010 A 
ATOM     13  C   UNL     1       4.430   3.769  -0.811  1.00  0.00    -0.014 A 
BRANCH  13  14
ATOM     14  C   UNL     1       5.141   5.053  -1.039  1.00  0.00     0.031 A 
ATOM     15  C   UNL     1       5.781   5.801   0.098  1.00  0.00     0.074 A 
ATOM     16  C   UNL     1       5.233   5.531  -2.295  1.00  0.00     0.049 A 
ATOM     17  N   UNL     1       6.454   6.925   0.066  1.00  0.00    -0.248 NA
ATOM     18  C   UNL     1       5.646   5.221   1.443  1.00  0.00     0.031 C 
ATOM     19  C   UNL     1       4.655   4.898  -3.483  1.00  0.00     0.029 A 
ATOM     20  N   UNL     1       5.863   6.646  -2.785  1.00  0.00    -0.354 N 
ATOM     21  C   UNL     1       6.803   7.197   1.383  1.00  0.00     0.074 A 
ATOM     22  C   UNL     1       6.250   6.133   2.193  1.00  0.00     0.031 C 
ATOM     23  C   UNL     1       4.996   5.608  -4.568  1.00  0.00     0.029 A 
ATOM     24  C   UNL     1       5.763   6.775  -4.148  1.00  0.00     0.049 A 
ATOM     25  H   UNL     1       6.340   7.291  -2.214  1.00  0.00     0.167 HD
ATOM     26  C   UNL     1       7.522   8.236   1.873  1.00  0.00     0.031 A 
ATOM     27  C   UNL     1       6.224   7.732  -4.973  1.00  0.00     0.031 A 
ATOM     28  C   UNL     1       8.077   9.293   1.068  1.00  0.00     0.049 A 
ATOM     29  C   UNL     1       6.991   8.887  -4.401  1.00  0.00     0.074 A 
ATOM     30  C   UNL     1       8.847  10.372   1.472  1.00  0.00     0.029 A 
ATOM     31  N   UNL     1       7.920   9.407  -0.305  1.00  0.00    -0.354 N 
ATOM     32  N   UNL     1       7.333   9.113  -3.156  1.00  0.00    -0.248 NA
ATOM     33  C   UNL     1       7.433   9.918  -5.349  1.00  0.00     0.031 C 
ATOM     34  C   UNL     1       9.116  11.162   0.349  1.00  0.00     0.029 A 
ATOM     35  C   UNL     1       8.557  10.550  -0.760  1.00  0.00     0.049 A 
ATOM     36  H   UNL     1       7.428   8.770  -0.872  1.00  0.00     0.167 HD
ATOM     37  C   UNL     1       8.042  10.305  -3.172  1.00  0.00     0.074 A 
ATOM     38  C   UNL     1       8.099  10.743  -4.552  1.00  0.00     0.031 C 
ATOM     39  C   UNL     1       8.596  10.977  -2.134  1.00  0.00     0.031 A 
BRANCH  26  40
ATOM     40  C   UNL     1       7.728   8.298   3.361  1.00  0.00    -0.014 A 
ATOM     41  C   UNL     1       8.614   7.426   4.012  1.00  0.00     0.009 A 
ATOM     42  C   UNL     1       7.058   9.275   4.115  1.00  0.00     0.009 A 
ATOM     43  C   UNL     1       8.802   7.512   5.394  1.00  0.00     0.001 A 
ATOM     44  C   UNL     1       7.266   9.374   5.492  1.00  0.00     0.001 A 
ATOM     45  C   UNL     1       8.132   8.488   6.132  1.00  0.00     0.000 A 
ENDBRANCH  26  40
BRANCH  27  46
ATOM     46  C   UNL     1       5.955   7.637  -6.430  1.00  0.00    -0.014 A 
ATOM     47  C   UNL     1       6.989   7.335  -7.327  1.00  0.00     0.009 A 
ATOM     48  C   UNL     1       4.655   7.824  -6.925  1.00  0.00     0.009 A 
ATOM     49  C   UNL     1       6.728   7.237  -8.696  1.00  0.00     0.001 A 
ATOM     50  C   UNL     1       4.393   7.699  -8.290  1.00  0.00     0.001 A 
ATOM     51  C   UNL     1       5.430   7.412  -9.175  1.00  0.00     0.000 A 
ENDBRANCH  27  46
BRANCH  39  52
ATOM     52  C   UNL     1       9.330  12.246  -2.460  1.00  0.00    -0.014 A 
ATOM     53  C   UNL     1       8.636  13.418  -2.799  1.00  0.00     0.009 A 
ATOM     54  C   UNL     1      10.732  12.273  -2.403  1.00  0.00     0.009 A 
ATOM     55  C   UNL     1       9.336  14.586  -3.106  1.00  0.00     0.001 A 
ATOM     56  C   UNL     1      11.427  13.449  -2.687  1.00  0.00     0.001 A 
ATOM     57  C   UNL     1      10.730  14.602  -3.046  1.00  0.00     0.000 A 
ENDBRANCH  39  52
ENDBRANCH  13  14
ENDBRANCH   6   8
ENDBRANCH   3   4
ENDBRANCH   2   3
ENDBRANCH   1   2
BRANCH   1  58
ATOM     58  C   UNL     1       5.084  -4.074   1.411  1.00  0.00     0.116 C 
BRANCH  58  59
ATOM     59  N   UNL     1       6.530  -4.183   1.291  1.00  0.00    -0.352 N 
ATOM     60  C   UNL     1       7.295  -5.325   1.267  1.00  0.00     0.251 C 
ATOM     61  H   UNL     1       7.021  -3.333   1.218  1.00  0.00     0.163 HD
ATOM     62  O   UNL     1       8.518  -5.260   1.228  1.00  0.00    -0.269 OA
BRANCH  60  63
ATOM     63  C   UNL     1       6.624  -6.640   1.325  1.00  0.00     0.043 A 
ATOM     64  C   UNL     1       6.965  -7.518   2.355  1.00  0.00     0.014 A 
ATOM     65  C   UNL     1       5.635  -6.974   0.390  1.00  0.00     0.060 A 
ATOM     66  C   UNL     1       6.267  -8.715   2.484  1.00  0.00     0.005 A 
ATOM     67  C   UNL     1       4.912  -8.154   0.539  1.00  0.00     0.120 A 
ATOM     68  C   UNL     1       5.239  -9.021   1.588  1.00  0.00     0.046 A 
BRANCH  67  69
ATOM     69  O   UNL     1       3.869  -8.567  -0.241  1.00  0.00    -0.488 OA
BRANCH  69  70
ATOM     70  C   UNL     1       3.384  -7.694  -1.268  1.00  0.00     0.302 C 
BRANCH  70  71
ATOM     71  C   UNL     1       2.381  -6.675  -0.745  1.00  0.00     0.379 C 
ATOM     72  F   UNL     1       3.022  -5.647  -0.130  1.00  0.00    -0.207 F 
ATOM     73  F   UNL     1       1.713  -6.122  -1.791  1.00  0.00    -0.207 F 
ENDBRANCH  70  71
ENDBRANCH  69  70
ENDBRANCH  67  69
ENDBRANCH  60  63
ENDBRANCH  58  59
ENDBRANCH   1  58
TORSDOF 14
