REMARK SMILES CC(=O)N[C@H]1[C@@H](Oc2ccc(C)c(C)c2)O[C@H]2CO[C@H](c3ccco3)O[C@@H]2[C@H]1OCC(=O)NCCCCNC(=O)c1ccc(-c2c3nc(c(-c4ccccc4)c4ccc([nH]4)c(-c4ccccc4)c4nc(c(-c5ccccc5)c5ccc2[nH]5)C=C4)C=C3)cc1
REMARK SMILES IDX 34 1 33 2 31 3 32 4 30 6 29 7 28 8 5 9 6 10 16 11 27 12
REMARK SMILES IDX 17 13 26 14 18 15 20 16 19 17 4 18 1 19 2 20 3 21 7 23 8 24
REMARK SMILES IDX 9 25 15 26 10 27 13 28 11 29 14 30 12 31 21 32 22 33 25 34
REMARK SMILES IDX 23 35 24 36 35 37 36 38 37 39 38 40 39 41 40 43 41 44 42 45
REMARK SMILES IDX 88 46 43 47 87 48 44 49 45 50 46 51 81 52 47 53 86 54 80 55
REMARK SMILES IDX 82 56 48 57 85 58 79 59 78 60 49 62 71 63 56 64 70 65 57 66
REMARK SMILES IDX 60 67 69 68 83 69 58 70 59 71 68 73 84 74 61 75 50 76 51 77
REMARK SMILES IDX 55 78 52 79 54 80 53 81 72 82 73 83 77 84 74 85 76 86 75 87
REMARK SMILES IDX 62 88 63 89 67 90 64 91 66 92 65 93
REMARK H PARENT 33 5 4 22 38 42 82 61 60 72
REMARK Flexibility Score: inf
ROOT
ATOM      1  C   UNL     1       4.523  -2.935  -0.137  1.00  0.00     0.116 C 
ENDROOT
BRANCH   1   2
ATOM      2  N   UNL     1       5.113  -2.409  -1.357  1.00  0.00    -0.354 N 
ATOM      3  C   UNL     1       5.116  -1.136  -1.845  1.00  0.00     0.246 C 
ATOM      4  O   UNL     1       5.654  -0.932  -2.936  1.00  0.00    -0.272 OA
ATOM      5  H   UNL     1       5.581  -3.072  -1.915  1.00  0.00     0.163 HD
BRANCH   3   6
ATOM      6  C   UNL     1       4.469   0.005  -1.051  1.00  0.00     0.260 C 
BRANCH   6   7
ATOM      7  O   UNL     1       3.075  -0.064  -0.820  1.00  0.00    -0.363 OA
BRANCH   7   8
ATOM      8  C   UNL     1       2.253  -0.064  -1.990  1.00  0.00     0.179 C 
ATOM      9  C   UNL     1       1.557  -1.431  -2.116  1.00  0.00     0.182 C 
ATOM     10  C   UNL     1       0.536  -1.412  -3.319  1.00  0.00     0.333 C 
ATOM     11  O   UNL     1      -0.343  -0.286  -3.340  1.00  0.00    -0.332 OA
ATOM     12  C   UNL     1       1.154   1.003  -1.940  1.00  0.00     0.184 C 
ATOM     13  C   UNL     1       0.341   0.958  -3.236  1.00  0.00     0.180 C 
ATOM     14  O   UNL     1       1.653   2.312  -1.706  1.00  0.00    -0.337 OA
ATOM     15  C   UNL     1      -0.694   2.088  -3.227  1.00  0.00     0.199 C 
ATOM     16  C   UNL     1       0.528   3.180  -1.562  1.00  0.00     0.319 C 
ATOM     17  O   UNL     1      -0.130   3.332  -2.819  1.00  0.00    -0.343 OA
BRANCH   9  18
ATOM     18  N   UNL     1       1.030  -2.048  -0.855  1.00  0.00    -0.345 N 
ATOM     19  C   UNL     1       0.889  -0.439   1.102  1.00  0.00     0.114 C 
ATOM     20  C   UNL     1       0.859  -1.796   0.463  1.00  0.00     0.217 C 
ATOM     21  O   UNL     1       0.598  -2.777   1.170  1.00  0.00    -0.275 OA
ATOM     22  H   UNL     1       0.692  -2.950  -1.056  1.00  0.00     0.164 HD
ENDBRANCH   9  18
BRANCH  10  23
ATOM     23  O   UNL     1      -0.158  -2.653  -3.538  1.00  0.00    -0.463 OA
BRANCH  23  24
ATOM     24  C   UNL     1      -1.177  -3.041  -2.714  1.00  0.00     0.123 A 
ATOM     25  C   UNL     1      -1.703  -2.309  -1.657  1.00  0.00     0.047 A 
ATOM     26  C   UNL     1      -1.669  -4.328  -2.940  1.00  0.00     0.050 A 
ATOM     27  C   UNL     1      -2.525  -2.925  -0.715  1.00  0.00     0.007 A 
ATOM     28  C   UNL     1      -2.573  -4.936  -2.047  1.00  0.00    -0.045 A 
ATOM     29  C   UNL     1      -2.920  -4.259  -0.866  1.00  0.00    -0.048 A 
ATOM     30  C   UNL     1      -3.147  -6.274  -2.423  1.00  0.00     0.045 C 
ATOM     31  C   UNL     1      -3.707  -4.898   0.243  1.00  0.00     0.044 C 
ENDBRANCH  23  24
ENDBRANCH  10  23
BRANCH  16  32
ATOM     32  C   UNL     1       0.959   4.518  -1.083  1.00  0.00     0.159 A 
ATOM     33  C   UNL     1       0.251   5.685  -0.862  1.00  0.00     0.051 A 
ATOM     34  O   UNL     1       2.246   4.673  -0.651  1.00  0.00    -0.464 OA
ATOM     35  C   UNL     1       1.153   6.596  -0.266  1.00  0.00     0.042 A 
ATOM     36  C   UNL     1       2.354   5.936  -0.167  1.00  0.00     0.195 A 
ENDBRANCH  16  32
ENDBRANCH   7   8
ENDBRANCH   6   7
ENDBRANCH   3   6
ENDBRANCH   1   2
BRANCH   1  37
ATOM     37  C   UNL     1       3.539  -4.074  -0.415  1.00  0.00     0.023 C 
BRANCH  37  38
ATOM     38  C   UNL     1       4.064  -5.242  -1.237  1.00  0.00     0.023 C 
BRANCH  38  39
ATOM     39  C   UNL     1       5.184  -6.007  -0.568  1.00  0.00     0.116 C 
BRANCH  39  40
ATOM     40  N   UNL     1       4.731  -6.712   0.622  1.00  0.00    -0.352 N 
ATOM     41  C   UNL     1       4.807  -8.053   0.911  1.00  0.00     0.251 C 
ATOM     42  H   UNL     1       4.313  -6.152   1.315  1.00  0.00     0.163 HD
ATOM     43  O   UNL     1       4.223  -8.517   1.885  1.00  0.00    -0.269 OA
BRANCH  41  44
ATOM     44  C   UNL     1       5.580  -8.942   0.020  1.00  0.00     0.039 A 
ATOM     45  C   UNL     1       5.030 -10.166  -0.369  1.00  0.00     0.014 A 
ATOM     46  C   UNL     1       6.833  -8.549  -0.455  1.00  0.00     0.014 A 
ATOM     47  C   UNL     1       5.711 -10.967  -1.287  1.00  0.00     0.010 A 
ATOM     48  C   UNL     1       7.459  -9.296  -1.442  1.00  0.00     0.010 A 
ATOM     49  C   UNL     1       6.914 -10.521  -1.857  1.00  0.00    -0.014 A 
BRANCH  49  50
ATOM     50  C   UNL     1       7.662 -11.326  -2.852  1.00  0.00     0.031 A 
ATOM     51  C   UNL     1       9.056 -11.790  -2.524  1.00  0.00     0.074 A 
ATOM     52  C   UNL     1       7.137 -11.560  -4.070  1.00  0.00     0.049 A 
ATOM     53  N   UNL     1       9.940 -12.366  -3.297  1.00  0.00    -0.248 NA
ATOM     54  C   UNL     1       9.531 -11.534  -1.153  1.00  0.00     0.031 C 
ATOM     55  C   UNL     1       5.811 -11.137  -4.523  1.00  0.00     0.029 A 
ATOM     56  N   UNL     1       7.672 -12.200  -5.160  1.00  0.00    -0.354 N 
ATOM     57  C   UNL     1      11.082 -12.504  -2.519  1.00  0.00     0.074 A 
ATOM     58  C   UNL     1      10.798 -11.912  -1.232  1.00  0.00     0.031 C 
ATOM     59  C   UNL     1       5.628 -11.547  -5.790  1.00  0.00     0.029 A 
ATOM     60  C   UNL     1       6.838 -12.220  -6.251  1.00  0.00     0.049 A 
ATOM     61  H   UNL     1       8.568 -12.608  -5.159  1.00  0.00     0.167 HD
ATOM     62  C   UNL     1      12.259 -13.090  -2.841  1.00  0.00     0.031 A 
ATOM     63  C   UNL     1       7.034 -12.713  -7.489  1.00  0.00     0.031 A 
ATOM     64  C   UNL     1      12.528 -13.713  -4.107  1.00  0.00     0.049 A 
ATOM     65  C   UNL     1       8.346 -13.371  -7.818  1.00  0.00     0.074 A 
ATOM     66  C   UNL     1      13.666 -14.387  -4.511  1.00  0.00     0.029 A 
ATOM     67  N   UNL     1      11.640 -13.745  -5.170  1.00  0.00    -0.354 N 
ATOM     68  N   UNL     1       9.400 -13.537  -7.056  1.00  0.00    -0.248 NA
ATOM     69  C   UNL     1       8.490 -13.917  -9.175  1.00  0.00     0.031 C 
ATOM     70  C   UNL     1      13.480 -14.797  -5.835  1.00  0.00     0.029 A 
ATOM     71  C   UNL     1      12.209 -14.420  -6.236  1.00  0.00     0.049 A 
ATOM     72  H   UNL     1      10.739 -13.347  -5.168  1.00  0.00     0.167 HD
ATOM     73  C   UNL     1      10.317 -14.239  -7.828  1.00  0.00     0.074 A 
ATOM     74  C   UNL     1       9.693 -14.472  -9.114  1.00  0.00     0.031 C 
ATOM     75  C   UNL     1      11.563 -14.658  -7.499  1.00  0.00     0.031 A 
BRANCH  62  76
ATOM     76  C   UNL     1      13.343 -13.083  -1.800  1.00  0.00    -0.014 A 
ATOM     77  C   UNL     1      13.243 -13.866  -0.639  1.00  0.00     0.009 A 
ATOM     78  C   UNL     1      14.492 -12.303  -1.996  1.00  0.00     0.009 A 
ATOM     79  C   UNL     1      14.255 -13.839   0.322  1.00  0.00     0.001 A 
ATOM     80  C   UNL     1      15.517 -12.300  -1.047  1.00  0.00     0.001 A 
ATOM     81  C   UNL     1      15.393 -13.060   0.115  1.00  0.00     0.000 A 
ENDBRANCH  62  76
BRANCH  63  82
ATOM     82  C   UNL     1       5.956 -12.623  -8.508  1.00  0.00    -0.014 A 
ATOM     83  C   UNL     1       5.264 -13.775  -8.912  1.00  0.00     0.009 A 
ATOM     84  C   UNL     1       5.621 -11.392  -9.091  1.00  0.00     0.009 A 
ATOM     85  C   UNL     1       4.279 -13.701  -9.900  1.00  0.00     0.001 A 
ATOM     86  C   UNL     1       4.617 -11.316 -10.059  1.00  0.00     0.001 A 
ATOM     87  C   UNL     1       3.954 -12.471 -10.470  1.00  0.00     0.000 A 
ENDBRANCH  63  82
BRANCH  75  88
ATOM     88  C   UNL     1      12.314 -15.461  -8.520  1.00  0.00    -0.014 A 
ATOM     89  C   UNL     1      12.882 -14.858  -9.652  1.00  0.00     0.009 A 
ATOM     90  C   UNL     1      12.509 -16.835  -8.307  1.00  0.00     0.009 A 
ATOM     91  C   UNL     1      13.613 -15.623 -10.563  1.00  0.00     0.001 A 
ATOM     92  C   UNL     1      13.261 -17.591  -9.206  1.00  0.00     0.001 A 
ATOM     93  C   UNL     1      13.807 -16.986 -10.336  1.00  0.00     0.000 A 
ENDBRANCH  75  88
ENDBRANCH  49  50
ENDBRANCH  41  44
ENDBRANCH  39  40
ENDBRANCH  38  39
ENDBRANCH  37  38
ENDBRANCH   1  37
TORSDOF 17
