REMARK SMILES Cc1ccc(NC(=O)NC[C@@H]2CC[C@@H](C(=O)NCCCCNC(=O)c3ccc(-c4c5nc(c(-c6ccccc6)c6ccc([nH]6)c(-c6ccccc6)c6nc(c(-c7ccccc7)c7ccc4[nH]7)C=C6)C=C5)cc3)O2)c(F)c1
REMARK SMILES IDX 19 1 18 2 17 3 15 4 16 5 14 7 11 8 12 9 73 10 13 11 10 12
REMARK SMILES IDX 9 13 6 14 7 15 8 17 5 19 1 20 2 21 3 22 76 23 4 24 74 25
REMARK SMILES IDX 75 26 20 27 21 28 22 29 23 30 24 32 25 33 26 34 72 35 27 36
REMARK SMILES IDX 71 37 28 38 29 39 30 40 65 41 31 42 70 43 64 44 66 45 32 46
REMARK SMILES IDX 69 47 63 48 62 49 33 51 55 52 40 53 54 54 41 55 44 56 53 57
REMARK SMILES IDX 67 58 42 59 43 60 52 62 68 63 45 64 34 65 35 66 39 67 36 68
REMARK SMILES IDX 38 69 37 70 56 71 57 72 61 73 58 74 60 75 59 76 46 77 47 78
REMARK SMILES IDX 51 79 48 80 50 81 49 82
REMARK H PARENT 17 6 6 16 9 18 22 31 66 50 44 61
REMARK Flexibility Score: inf
ROOT
ATOM      1  C   UNL     1      -6.477   6.242  -0.306  1.00  0.00     0.023 C 
ENDROOT
BRANCH   1   2
ATOM      2  C   UNL     1      -6.186   4.843  -0.832  1.00  0.00     0.116 C 
BRANCH   2   3
ATOM      3  N   UNL     1      -5.682   4.891  -2.191  1.00  0.00    -0.354 N 
ATOM      4  C   UNL     1      -4.388   4.704  -2.596  1.00  0.00     0.249 C 
ATOM      5  O   UNL     1      -4.097   4.900  -3.775  1.00  0.00    -0.272 OA
ATOM      6  H   UNL     1      -6.341   5.078  -2.898  1.00  0.00     0.163 HD
BRANCH   4   7
ATOM      7  C   UNL     1      -3.373   4.305  -1.523  1.00  0.00     0.207 C 
ATOM      8  C   UNL     1      -2.752   2.114  -0.978  1.00  0.00     0.138 C 
ATOM      9  C   UNL     1      -1.497   2.950  -1.151  1.00  0.00     0.037 C 
ATOM     10  O   UNL     1      -3.796   3.092  -0.859  1.00  0.00    -0.363 OA
ATOM     11  C   UNL     1      -1.981   4.048  -2.062  1.00  0.00     0.045 C 
BRANCH   8  12
ATOM     12  C   UNL     1      -2.768   1.177   0.246  1.00  0.00     0.149 C 
BRANCH  12  13
ATOM     13  N   UNL     1      -3.463  -0.077  -0.050  1.00  0.00    -0.335 N 
ATOM     14  N   UNL     1      -1.893  -1.880   0.070  1.00  0.00    -0.305 N 
ATOM     15  C   UNL     1      -3.135  -1.377  -0.063  1.00  0.00     0.319 C 
ATOM     16  H   UNL     1      -1.896  -2.824   0.350  1.00  0.00     0.171 HD
ATOM     17  O   UNL     1      -4.071  -2.185  -0.100  1.00  0.00    -0.249 OA
ATOM     18  H   UNL     1      -4.404   0.070  -0.301  1.00  0.00     0.165 HD
BRANCH  14  19
ATOM     19  C   UNL     1      -0.597  -1.372  -0.099  1.00  0.00     0.078 A 
ATOM     20  C   UNL     1       3.238   0.559   0.202  1.00  0.00     0.044 C 
ATOM     21  C   UNL     1       1.967  -0.203  -0.021  1.00  0.00    -0.048 A 
ATOM     22  C   UNL     1       1.724  -1.421   0.621  1.00  0.00     0.006 A 
ATOM     23  C   UNL     1       0.966   0.331  -0.829  1.00  0.00     0.045 A 
ATOM     24  C   UNL     1       0.451  -2.007   0.575  1.00  0.00     0.029 A 
ATOM     25  C   UNL     1      -0.277  -0.293  -0.908  1.00  0.00     0.147 A 
ATOM     26  F   UNL     1      -1.157   0.152  -1.812  1.00  0.00    -0.205 F 
ENDBRANCH  14  19
ENDBRANCH  12  13
ENDBRANCH   8  12
ENDBRANCH   4   7
ENDBRANCH   2   3
ENDBRANCH   1   2
BRANCH   1  27
ATOM     27  C   UNL     1      -7.570   6.971  -1.082  1.00  0.00     0.023 C 
BRANCH  27  28
ATOM     28  C   UNL     1      -8.850   6.167  -1.261  1.00  0.00     0.116 C 
BRANCH  28  29
ATOM     29  N   UNL     1      -9.433   5.754   0.006  1.00  0.00    -0.352 N 
ATOM     30  C   UNL     1     -10.747   5.813   0.403  1.00  0.00     0.251 C 
ATOM     31  H   UNL     1      -8.804   5.384   0.666  1.00  0.00     0.163 HD
ATOM     32  O   UNL     1     -11.061   5.579   1.560  1.00  0.00    -0.269 OA
BRANCH  30  33
ATOM     33  C   UNL     1     -11.772   6.200  -0.588  1.00  0.00     0.039 A 
ATOM     34  C   UNL     1     -12.714   7.167  -0.236  1.00  0.00     0.014 A 
ATOM     35  C   UNL     1     -11.774   5.638  -1.868  1.00  0.00     0.014 A 
ATOM     36  C   UNL     1     -13.628   7.609  -1.190  1.00  0.00     0.010 A 
ATOM     37  C   UNL     1     -12.623   6.148  -2.842  1.00  0.00     0.010 A 
ATOM     38  C   UNL     1     -13.569   7.128  -2.510  1.00  0.00    -0.014 A 
BRANCH  38  39
ATOM     39  C   UNL     1     -14.499   7.643  -3.545  1.00  0.00     0.031 A 
ATOM     40  C   UNL     1     -15.483   6.721  -4.210  1.00  0.00     0.074 A 
ATOM     41  C   UNL     1     -14.432   8.938  -3.913  1.00  0.00     0.049 A 
ATOM     42  N   UNL     1     -16.390   6.997  -5.113  1.00  0.00    -0.248 NA
ATOM     43  C   UNL     1     -15.424   5.298  -3.836  1.00  0.00     0.031 C 
ATOM     44  C   UNL     1     -13.479   9.920  -3.389  1.00  0.00     0.029 A 
ATOM     45  N   UNL     1     -15.184   9.651  -4.811  1.00  0.00    -0.354 N 
ATOM     46  C   UNL     1     -16.995   5.785  -5.422  1.00  0.00     0.074 A 
ATOM     47  C   UNL     1     -16.314   4.764  -4.659  1.00  0.00     0.031 C 
ATOM     48  C   UNL     1     -13.732  11.116  -3.944  1.00  0.00     0.029 A 
ATOM     49  C   UNL     1     -14.836  10.978  -4.888  1.00  0.00     0.049 A 
ATOM     50  H   UNL     1     -15.904   9.251  -5.350  1.00  0.00     0.167 HD
ATOM     51  C   UNL     1     -18.039   5.545  -6.250  1.00  0.00     0.031 A 
ATOM     52  C   UNL     1     -15.351  11.975  -5.633  1.00  0.00     0.031 A 
ATOM     53  C   UNL     1     -18.720   6.564  -7.004  1.00  0.00     0.049 A 
ATOM     54  C   UNL     1     -16.515  11.687  -6.538  1.00  0.00     0.074 A 
ATOM     55  C   UNL     1     -19.833   6.435  -7.816  1.00  0.00     0.029 A 
ATOM     56  N   UNL     1     -18.343   7.897  -7.047  1.00  0.00    -0.354 N 
ATOM     57  N   UNL     1     -17.141  10.553  -6.745  1.00  0.00    -0.248 NA
ATOM     58  C   UNL     1     -17.057  12.821  -7.299  1.00  0.00     0.031 C 
ATOM     59  C   UNL     1     -20.091   7.678  -8.401  1.00  0.00     0.029 A 
ATOM     60  C   UNL     1     -19.184   8.597  -7.897  1.00  0.00     0.049 A 
ATOM     61  H   UNL     1     -17.591   8.289  -6.548  1.00  0.00     0.167 HD
ATOM     62  C   UNL     1     -18.167  10.843  -7.635  1.00  0.00     0.074 A 
ATOM     63  C   UNL     1     -18.089  12.262  -7.914  1.00  0.00     0.031 C 
ATOM     64  C   UNL     1     -19.092  10.008  -8.170  1.00  0.00     0.031 A 
BRANCH  51  65
ATOM     65  C   UNL     1     -18.498   4.119  -6.391  1.00  0.00    -0.014 A 
ATOM     66  C   UNL     1     -19.106   3.435  -5.325  1.00  0.00     0.009 A 
ATOM     67  C   UNL     1     -18.343   3.457  -7.619  1.00  0.00     0.009 A 
ATOM     68  C   UNL     1     -19.508   2.106  -5.473  1.00  0.00     0.001 A 
ATOM     69  C   UNL     1     -18.778   2.139  -7.775  1.00  0.00     0.001 A 
ATOM     70  C   UNL     1     -19.349   1.461  -6.699  1.00  0.00     0.000 A 
ENDBRANCH  51  65
BRANCH  52  71
ATOM     71  C   UNL     1     -14.780  13.344  -5.532  1.00  0.00    -0.014 A 
ATOM     72  C   UNL     1     -15.509  14.383  -4.933  1.00  0.00     0.009 A 
ATOM     73  C   UNL     1     -13.497  13.618  -6.031  1.00  0.00     0.009 A 
ATOM     74  C   UNL     1     -14.976  15.672  -4.859  1.00  0.00     0.001 A 
ATOM     75  C   UNL     1     -12.953  14.900  -5.927  1.00  0.00     0.001 A 
ATOM     76  C   UNL     1     -13.697  15.928  -5.350  1.00  0.00     0.000 A 
ENDBRANCH  52  71
BRANCH  64  77
ATOM     77  C   UNL     1     -20.122  10.616  -9.082  1.00  0.00    -0.014 A 
ATOM     78  C   UNL     1     -19.786  11.086 -10.361  1.00  0.00     0.009 A 
ATOM     79  C   UNL     1     -21.462  10.679  -8.666  1.00  0.00     0.009 A 
ATOM     80  C   UNL     1     -20.764  11.642 -11.188  1.00  0.00     0.001 A 
ATOM     81  C   UNL     1     -22.443  11.204  -9.508  1.00  0.00     0.001 A 
ATOM     82  C   UNL     1     -22.091  11.695 -10.763  1.00  0.00     0.000 A 
ENDBRANCH  64  77
ENDBRANCH  38  39
ENDBRANCH  30  33
ENDBRANCH  28  29
ENDBRANCH  27  28
ENDBRANCH   1  27
TORSDOF 14
