REMARK SMILES C/C(=N\NC(N)=S)c1nnn(-c2ccc(C(=O)NCCCCNC(=O)c3ccc(-c4c5nc(c(-c6ccccc6)c6ccc([nH]6)c(-c6ccccc6)c6nc(c(-c7ccccc7)c7ccc4[nH]7)C=C6)C=C5)cc3)cc2)c1C
REMARK SMILES IDX 19 1 18 2 16 3 17 4 15 6 12 7 13 8 75 9 14 10 74 11 11 12
REMARK SMILES IDX 8 13 9 14 76 15 10 16 77 17 2 18 1 19 3 20 4 21 5 23 7 24
REMARK SMILES IDX 6 25 20 28 21 29 22 30 23 31 24 32 25 34 26 35 27 36 73 37
REMARK SMILES IDX 28 38 72 39 29 40 30 41 31 42 66 43 32 44 71 45 65 46 67 47
REMARK SMILES IDX 33 48 70 49 64 50 63 51 34 53 56 54 41 55 55 56 42 57 45 58
REMARK SMILES IDX 54 59 68 60 43 61 44 62 53 64 69 65 46 66 35 67 36 68 40 69
REMARK SMILES IDX 37 70 39 71 38 72 57 73 58 74 62 75 59 76 61 77 60 78 47 79
REMARK SMILES IDX 48 80 52 81 49 82 51 83 50 84
REMARK H PARENT 18 5 4 22 6 26 6 27 23 33 67 52 45 63
REMARK Flexibility Score: inf
ROOT
ATOM      1  C   UNL     1       8.275  -5.920   2.139  1.00  0.00     0.116 C 
ENDROOT
BRANCH   1   2
ATOM      2  N   UNL     1       7.880  -6.973   1.218  1.00  0.00    -0.352 N 
ATOM      3  C   UNL     1       6.682  -7.311   0.634  1.00  0.00     0.251 C 
ATOM      4  O   UNL     1       6.696  -8.234  -0.182  1.00  0.00    -0.269 OA
ATOM      5  H   UNL     1       8.623  -7.567   0.961  1.00  0.00     0.163 HD
BRANCH   3   6
ATOM      6  C   UNL     1       5.400  -6.585   0.882  1.00  0.00     0.039 A 
ATOM      7  C   UNL     1       3.070  -5.051   1.074  1.00  0.00     0.067 A 
ATOM      8  C   UNL     1       3.203  -5.946   0.012  1.00  0.00     0.029 A 
ATOM      9  C   UNL     1       4.017  -5.005   2.094  1.00  0.00     0.029 A 
ATOM     10  C   UNL     1       4.386  -6.689  -0.092  1.00  0.00     0.016 A 
ATOM     11  C   UNL     1       5.151  -5.807   2.014  1.00  0.00     0.016 A 
BRANCH   7  12
ATOM     12  N   UNL     1       2.037  -4.101   1.075  1.00  0.00    -0.217 N 
ATOM     13  C   UNL     1       0.877  -2.267   1.037  1.00  0.00     0.132 A 
ATOM     14  N   UNL     1       0.017  -3.337   1.032  1.00  0.00    -0.128 NA
ATOM     15  C   UNL     1       2.179  -2.726   1.033  1.00  0.00     0.071 A 
ATOM     16  N   UNL     1       0.739  -4.448   0.977  1.00  0.00    -0.061 NA
ATOM     17  C   UNL     1       3.466  -2.019   0.835  1.00  0.00     0.069 C 
BRANCH  13  18
ATOM     18  C   UNL     1       0.417  -0.910   0.808  1.00  0.00     0.087 C 
ATOM     19  C   UNL     1       0.399  -0.470  -0.631  1.00  0.00     0.071 C 
ATOM     20  N   UNL     1       0.038  -0.252   1.864  1.00  0.00    -0.176 NA
BRANCH  20  21
ATOM     21  N   UNL     1      -0.507   0.998   1.781  1.00  0.00    -0.254 N 
ATOM     22  H   UNL     1      -1.436   1.075   2.098  1.00  0.00     0.193 HD
BRANCH  21  23
ATOM     23  C   UNL     1       0.059   2.167   1.316  1.00  0.00     0.184 C 
ATOM     24  S   UNL     1       1.569   2.436   0.675  1.00  0.00    -0.040 S 
BRANCH  23  25
ATOM     25  N   UNL     1      -0.797   3.230   1.428  1.00  0.00    -0.375 N 
ATOM     26  H   UNL     1      -1.698   3.099   1.804  1.00  0.00     0.159 HD
ATOM     27  H   UNL     1      -0.513   4.125   1.132  1.00  0.00     0.159 HD
ENDBRANCH  23  25
ENDBRANCH  21  23
ENDBRANCH  20  21
ENDBRANCH  13  18
ENDBRANCH   7  12
ENDBRANCH   3   6
ENDBRANCH   1   2
BRANCH   1  28
ATOM     28  C   UNL     1       8.268  -6.400   3.597  1.00  0.00     0.023 C 
BRANCH  28  29
ATOM     29  C   UNL     1       9.448  -7.292   4.008  1.00  0.00     0.023 C 
BRANCH  29  30
ATOM     30  C   UNL     1      10.800  -6.591   4.059  1.00  0.00     0.116 C 
BRANCH  30  31
ATOM     31  N   UNL     1      10.846  -5.492   5.026  1.00  0.00    -0.352 N 
ATOM     32  C   UNL     1      11.796  -4.489   5.136  1.00  0.00     0.251 C 
ATOM     33  H   UNL     1      10.109  -5.462   5.678  1.00  0.00     0.163 HD
ATOM     34  O   UNL     1      11.960  -3.877   6.176  1.00  0.00    -0.269 OA
BRANCH  32  35
ATOM     35  C   UNL     1      12.597  -4.165   3.943  1.00  0.00     0.039 A 
ATOM     36  C   UNL     1      13.977  -3.959   4.010  1.00  0.00     0.014 A 
ATOM     37  C   UNL     1      11.924  -4.129   2.727  1.00  0.00     0.014 A 
ATOM     38  C   UNL     1      14.688  -3.810   2.819  1.00  0.00     0.010 A 
ATOM     39  C   UNL     1      12.640  -4.157   1.561  1.00  0.00     0.010 A 
ATOM     40  C   UNL     1      14.012  -3.934   1.595  1.00  0.00    -0.014 A 
BRANCH  40  41
ATOM     41  C   UNL     1      14.726  -3.914   0.326  1.00  0.00     0.031 A 
ATOM     42  C   UNL     1      15.819  -4.912   0.184  1.00  0.00     0.074 A 
ATOM     43  C   UNL     1      14.291  -3.205  -0.738  1.00  0.00     0.049 A 
ATOM     44  N   UNL     1      17.082  -4.670   0.075  1.00  0.00    -0.248 NA
ATOM     45  C   UNL     1      15.491  -6.343   0.265  1.00  0.00     0.031 C 
ATOM     46  C   UNL     1      13.059  -2.418  -0.876  1.00  0.00     0.029 A 
ATOM     47  N   UNL     1      14.814  -3.154  -1.991  1.00  0.00    -0.354 N 
ATOM     48  C   UNL     1      17.704  -5.902  -0.100  1.00  0.00     0.074 A 
ATOM     49  C   UNL     1      16.700  -6.902   0.172  1.00  0.00     0.031 C 
ATOM     50  C   UNL     1      12.806  -2.199  -2.185  1.00  0.00     0.029 A 
ATOM     51  C   UNL     1      13.946  -2.659  -2.955  1.00  0.00     0.049 A 
ATOM     52  H   UNL     1      15.732  -3.443  -2.198  1.00  0.00     0.167 HD
ATOM     53  C   UNL     1      18.940  -6.002  -0.663  1.00  0.00     0.031 A 
ATOM     54  C   UNL     1      14.141  -2.661  -4.295  1.00  0.00     0.031 A 
ATOM     55  C   UNL     1      19.582  -4.717  -0.773  1.00  0.00     0.049 A 
ATOM     56  C   UNL     1      15.598  -2.799  -4.525  1.00  0.00     0.074 A 
ATOM     57  C   UNL     1      19.973  -3.746   0.127  1.00  0.00     0.029 A 
ATOM     58  N   UNL     1      19.531  -4.097  -1.999  1.00  0.00    -0.354 N 
ATOM     59  N   UNL     1      16.460  -1.880  -4.196  1.00  0.00    -0.248 NA
ATOM     60  C   UNL     1      16.145  -4.136  -4.688  1.00  0.00     0.031 C 
ATOM     61  C   UNL     1      19.643  -2.511  -0.507  1.00  0.00     0.029 A 
ATOM     62  C   UNL     1      19.148  -2.798  -1.781  1.00  0.00     0.049 A 
ATOM     63  H   UNL     1      19.732  -4.508  -2.871  1.00  0.00     0.167 HD
ATOM     64  C   UNL     1      17.534  -2.580  -3.665  1.00  0.00     0.074 A 
ATOM     65  C   UNL     1      17.331  -3.963  -4.097  1.00  0.00     0.031 C 
ATOM     66  C   UNL     1      18.320  -2.035  -2.689  1.00  0.00     0.031 A 
BRANCH  53  67
ATOM     67  C   UNL     1      19.419  -7.184  -1.462  1.00  0.00    -0.014 A 
ATOM     68  C   UNL     1      20.762  -7.223  -1.878  1.00  0.00     0.009 A 
ATOM     69  C   UNL     1      18.542  -8.110  -2.057  1.00  0.00     0.009 A 
ATOM     70  C   UNL     1      21.189  -8.098  -2.883  1.00  0.00     0.001 A 
ATOM     71  C   UNL     1      18.974  -9.013  -3.032  1.00  0.00     0.001 A 
ATOM     72  C   UNL     1      20.292  -8.988  -3.465  1.00  0.00     0.000 A 
ENDBRANCH  53  67
BRANCH  54  73
ATOM     73  C   UNL     1      13.144  -2.829  -5.372  1.00  0.00    -0.014 A 
ATOM     74  C   UNL     1      13.470  -2.523  -6.703  1.00  0.00     0.009 A 
ATOM     75  C   UNL     1      11.964  -3.560  -5.138  1.00  0.00     0.009 A 
ATOM     76  C   UNL     1      12.671  -2.978  -7.762  1.00  0.00     0.001 A 
ATOM     77  C   UNL     1      11.165  -4.010  -6.194  1.00  0.00     0.001 A 
ATOM     78  C   UNL     1      11.530  -3.735  -7.508  1.00  0.00     0.000 A 
ENDBRANCH  54  73
BRANCH  66  79
ATOM     79  C   UNL     1      18.124  -0.574  -2.356  1.00  0.00    -0.014 A 
ATOM     80  C   UNL     1      16.905  -0.044  -1.892  1.00  0.00     0.009 A 
ATOM     81  C   UNL     1      19.247   0.266  -2.367  1.00  0.00     0.009 A 
ATOM     82  C   UNL     1      16.808   1.293  -1.490  1.00  0.00     0.001 A 
ATOM     83  C   UNL     1      19.155   1.595  -1.944  1.00  0.00     0.001 A 
ATOM     84  C   UNL     1      17.935   2.110  -1.514  1.00  0.00     0.000 A 
ENDBRANCH  66  79
ENDBRANCH  40  41
ENDBRANCH  32  35
ENDBRANCH  30  31
ENDBRANCH  29  30
ENDBRANCH  28  29
ENDBRANCH   1  28
TORSDOF 16
