REMARK SMILES CC[C@H]1CC[C@](C(=O)NCCCCNC(=O)c2ccc(-c3c4nc(c(-c5ccccc5)c5ccc([nH]5)c(-c5ccccc5)c5nc(c(-c6ccccc6)c6ccc3[nH]6)C=C5)C=C4)cc2)([C@H]2CCC[C@@H](S(C)(=O)=O)C2)CC1
REMARK SMILES IDX 11 1 10 2 9 3 7 4 8 5 6 7 3 8 76 9 4 10 75 11 5 12 2 13 1 14
REMARK SMILES IDX 65 15 66 16 74 17 67 18 69 19 68 20 70 21 71 22 72 23 73 24
REMARK SMILES IDX 12 25 13 26 14 27 15 28 16 30 17 31 18 32 64 33 19 34 63 35
REMARK SMILES IDX 20 36 21 37 22 38 57 39 23 40 62 41 56 42 58 43 24 44 61 45
REMARK SMILES IDX 55 46 54 47 25 49 47 50 32 51 46 52 33 53 36 54 45 55 59 56
REMARK SMILES IDX 34 57 35 58 44 60 60 61 37 62 26 63 27 64 31 65 28 66 30 67
REMARK SMILES IDX 29 68 48 69 49 70 53 71 50 72 52 73 51 74 38 75 39 76 43 77
REMARK SMILES IDX 40 78 42 79 41 80
REMARK H PARENT 9 6 14 29 58 48 36 59
REMARK Flexibility Score: inf
ROOT
ATOM      1  C   UNL     1      -2.688  -3.205   9.995  1.00  0.00     0.023 C 
ENDROOT
BRANCH   1   2
ATOM      2  C   UNL     1      -1.514  -2.326   9.595  1.00  0.00     0.116 C 
BRANCH   2   3
ATOM      3  N   UNL     1      -0.330  -3.054   9.265  1.00  0.00    -0.356 N 
ATOM      4  C   UNL     1       0.289  -3.338   8.103  1.00  0.00     0.226 C 
ATOM      5  O   UNL     1       1.352  -3.937   8.295  1.00  0.00    -0.274 OA
ATOM      6  H   UNL     1       0.130  -3.426  10.052  1.00  0.00     0.163 HD
BRANCH   4   7
ATOM      7  C   UNL     1      -0.127  -2.925   6.663  1.00  0.00     0.052 C 
ATOM      8  C   UNL     1      -2.033  -0.465   6.571  1.00  0.00    -0.011 C 
ATOM      9  C   UNL     1      -0.560  -0.378   6.993  1.00  0.00     0.005 C 
ATOM     10  C   UNL     1      -2.601  -1.894   6.499  1.00  0.00     0.005 C 
ATOM     11  C   UNL     1       0.326  -1.467   6.397  1.00  0.00     0.017 C 
ATOM     12  C   UNL     1      -1.634  -3.066   6.311  1.00  0.00     0.017 C 
BRANCH   8  13
ATOM     13  C   UNL     1      -2.967   0.387   7.473  1.00  0.00    -0.000 C 
ATOM     14  C   UNL     1      -2.536   1.827   7.691  1.00  0.00     0.004 C 
ENDBRANCH   8  13
BRANCH   7  15
ATOM     15  C   UNL     1       0.668  -3.892   5.615  1.00  0.00     0.006 C 
ATOM     16  C   UNL     1       2.212  -3.832   5.545  1.00  0.00     0.005 C 
ATOM     17  C   UNL     1       0.192  -5.359   5.495  1.00  0.00     0.024 C 
ATOM     18  C   UNL     1       3.011  -4.872   6.332  1.00  0.00     0.002 C 
ATOM     19  C   UNL     1       0.906  -6.425   6.332  1.00  0.00     0.108 C 
ATOM     20  C   UNL     1       2.424  -6.279   6.403  1.00  0.00     0.020 C 
BRANCH  19  21
ATOM     21  S   UNL     1       0.019  -6.886   7.844  1.00  0.00     0.150 S 
ATOM     22  C   UNL     1       1.141  -6.869   9.224  1.00  0.00     0.158 C 
ATOM     23  O   UNL     1      -1.013  -5.902   8.116  1.00  0.00    -0.229 OA
ATOM     24  O   UNL     1      -0.384  -8.276   7.687  1.00  0.00    -0.229 OA
ENDBRANCH  19  21
ENDBRANCH   7  15
ENDBRANCH   4   7
ENDBRANCH   2   3
ENDBRANCH   1   2
BRANCH   1  25
ATOM     25  C   UNL     1      -2.659  -3.683  11.443  1.00  0.00     0.023 C 
BRANCH  25  26
ATOM     26  C   UNL     1      -2.363  -2.605  12.480  1.00  0.00     0.116 C 
BRANCH  26  27
ATOM     27  N   UNL     1      -3.109  -1.364  12.304  1.00  0.00    -0.352 N 
ATOM     28  C   UNL     1      -3.417  -0.424  13.258  1.00  0.00     0.251 C 
ATOM     29  H   UNL     1      -3.431  -1.178  11.392  1.00  0.00     0.163 HD
ATOM     30  O   UNL     1      -4.050   0.587  12.978  1.00  0.00    -0.269 OA
BRANCH  28  31
ATOM     31  C   UNL     1      -3.025  -0.701  14.651  1.00  0.00     0.039 A 
ATOM     32  C   UNL     1      -4.030  -0.807  15.613  1.00  0.00     0.014 A 
ATOM     33  C   UNL     1      -1.695  -0.997  14.960  1.00  0.00     0.014 A 
ATOM     34  C   UNL     1      -3.714  -1.312  16.873  1.00  0.00     0.010 A 
ATOM     35  C   UNL     1      -1.398  -1.569  16.190  1.00  0.00     0.010 A 
ATOM     36  C   UNL     1      -2.408  -1.747  17.149  1.00  0.00    -0.014 A 
BRANCH  36  37
ATOM     37  C   UNL     1      -2.079  -2.420  18.427  1.00  0.00     0.031 A 
ATOM     38  C   UNL     1      -1.112  -1.782  19.381  1.00  0.00     0.074 A 
ATOM     39  C   UNL     1      -2.584  -3.642  18.686  1.00  0.00     0.049 A 
ATOM     40  N   UNL     1      -0.635  -2.249  20.506  1.00  0.00    -0.248 NA
ATOM     41  C   UNL     1      -0.587  -0.460  19.004  1.00  0.00     0.031 C 
ATOM     42  C   UNL     1      -3.492  -4.391  17.814  1.00  0.00     0.029 A 
ATOM     43  N   UNL     1      -2.398  -4.472  19.762  1.00  0.00    -0.354 N 
ATOM     44  C   UNL     1       0.269  -1.295  20.952  1.00  0.00     0.074 A 
ATOM     45  C   UNL     1       0.304  -0.244  19.959  1.00  0.00     0.031 C 
ATOM     46  C   UNL     1      -3.811  -5.554  18.406  1.00  0.00     0.029 A 
ATOM     47  C   UNL     1      -3.105  -5.646  19.680  1.00  0.00     0.049 A 
ATOM     48  H   UNL     1      -1.812  -4.247  20.521  1.00  0.00     0.167 HD
ATOM     49  C   UNL     1       0.994  -1.286  22.096  1.00  0.00     0.031 A 
ATOM     50  C   UNL     1      -3.179  -6.680  20.538  1.00  0.00     0.031 A 
ATOM     51  C   UNL     1       0.933  -2.312  23.099  1.00  0.00     0.049 A 
ATOM     52  C   UNL     1      -2.390  -6.631  21.815  1.00  0.00     0.074 A 
ATOM     53  C   UNL     1       1.571  -2.358  24.326  1.00  0.00     0.029 A 
ATOM     54  N   UNL     1       0.182  -3.472  22.991  1.00  0.00    -0.354 N 
ATOM     55  N   UNL     1      -1.587  -5.692  22.253  1.00  0.00    -0.248 NA
ATOM     56  C   UNL     1      -2.525  -7.783  22.718  1.00  0.00     0.031 C 
ATOM     57  C   UNL     1       1.226  -3.563  24.951  1.00  0.00     0.029 A 
ATOM     58  C   UNL     1       0.348  -4.247  24.125  1.00  0.00     0.049 A 
ATOM     59  H   UNL     1      -0.386  -3.709  22.223  1.00  0.00     0.167 HD
ATOM     60  C   UNL     1      -1.142  -6.127  23.494  1.00  0.00     0.074 A 
ATOM     61  C   UNL     1      -1.770  -7.409  23.742  1.00  0.00     0.031 C 
ATOM     62  C   UNL     1      -0.289  -5.517  24.353  1.00  0.00     0.031 A 
BRANCH  49  63
ATOM     63  C   UNL     1       1.915  -0.120  22.309  1.00  0.00    -0.014 A 
ATOM     64  C   UNL     1       1.413   1.155  22.613  1.00  0.00     0.009 A 
ATOM     65  C   UNL     1       3.302  -0.299  22.202  1.00  0.00     0.009 A 
ATOM     66  C   UNL     1       2.280   2.238  22.765  1.00  0.00     0.001 A 
ATOM     67  C   UNL     1       4.169   0.781  22.379  1.00  0.00     0.001 A 
ATOM     68  C   UNL     1       3.657   2.050  22.649  1.00  0.00     0.000 A 
ENDBRANCH  49  63
BRANCH  50  69
ATOM     69  C   UNL     1      -4.063  -7.834  20.240  1.00  0.00    -0.014 A 
ATOM     70  C   UNL     1      -5.276  -7.987  20.929  1.00  0.00     0.009 A 
ATOM     71  C   UNL     1      -3.703  -8.787  19.274  1.00  0.00     0.009 A 
ATOM     72  C   UNL     1      -6.101  -9.083  20.674  1.00  0.00     0.001 A 
ATOM     73  C   UNL     1      -4.542  -9.871  19.007  1.00  0.00     0.001 A 
ATOM     74  C   UNL     1      -5.736 -10.023  19.711  1.00  0.00     0.000 A 
ENDBRANCH  50  69
BRANCH  62  75
ATOM     75  C   UNL     1      -0.016  -6.215  25.652  1.00  0.00    -0.014 A 
ATOM     76  C   UNL     1       0.844  -7.321  25.712  1.00  0.00     0.009 A 
ATOM     77  C   UNL     1      -0.597  -5.732  26.834  1.00  0.00     0.009 A 
ATOM     78  C   UNL     1       1.097  -7.948  26.933  1.00  0.00     0.001 A 
ATOM     79  C   UNL     1      -0.325  -6.348  28.056  1.00  0.00     0.001 A 
ATOM     80  C   UNL     1       0.516  -7.459  28.104  1.00  0.00     0.000 A 
ENDBRANCH  62  75
ENDBRANCH  36  37
ENDBRANCH  28  31
ENDBRANCH  26  27
ENDBRANCH  25  26
ENDBRANCH   1  25
TORSDOF 14
