REMARK SMILES O=C(Cn1c(=O)[nH]c2ccccc2c1=O)NC[C@H]1CC[C@@H](C(=O)N2CCC(C(=O)NCCCCNC(=O)c3ccc(-c4c5nc(c(-c6ccccc6)c6ccc([nH]6)c(-c6ccccc6)c6nc(c(-c7ccccc7)c7ccc4[nH]7)C=C6)C=C5)cc3)CC2)CC1
REMARK SMILES IDX 31 1 30 2 28 3 29 4 27 6 22 7 23 8 24 9 25 10 87 11 26 12
REMARK SMILES IDX 86 13 21 14 18 15 19 16 89 17 20 18 88 19 17 20 16 21 1 22
REMARK SMILES IDX 2 23 3 25 4 26 5 27 14 28 6 29 7 30 13 31 15 32 8 33 12 35
REMARK SMILES IDX 9 36 11 37 10 38 32 39 33 40 34 41 35 42 36 43 37 45 38 46
REMARK SMILES IDX 39 47 85 48 40 49 84 50 41 51 42 52 43 53 78 54 44 55 83 56
REMARK SMILES IDX 77 57 79 58 45 59 82 60 76 61 75 62 46 64 68 65 53 66 67 67
REMARK SMILES IDX 54 68 57 69 66 70 80 71 55 72 56 73 65 75 81 76 58 77 47 78
REMARK SMILES IDX 48 79 52 80 49 81 51 82 50 83 69 84 70 85 74 86 71 87 73 88
REMARK SMILES IDX 72 89 59 90 60 91 64 92 61 93 63 94 62 95
REMARK H PARENT 30 5 16 24 7 34 35 44 79 63 57 74
REMARK Flexibility Score: inf
ROOT
ATOM      1  C   UNL     1      -4.142   5.891  -0.548  1.00  0.00     0.116 C 
ENDROOT
BRANCH   1   2
ATOM      2  N   UNL     1      -4.582   4.883  -1.503  1.00  0.00    -0.356 N 
ATOM      3  C   UNL     1      -3.856   4.000  -2.249  1.00  0.00     0.223 C 
ATOM      4  O   UNL     1      -4.458   3.232  -3.001  1.00  0.00    -0.275 OA
ATOM      5  H   UNL     1      -5.557   4.829  -1.630  1.00  0.00     0.163 HD
BRANCH   3   6
ATOM      6  C   UNL     1      -2.339   3.958  -2.141  1.00  0.00     0.082 C 
ATOM      7  C   UNL     1       0.316   6.274   0.105  1.00  0.00     0.225 C 
ATOM      8  O   UNL     1      -0.038   7.450  -0.048  1.00  0.00    -0.275 OA
ATOM      9  N   UNL     1      -0.218   5.291  -0.703  1.00  0.00    -0.342 N 
ATOM     10  C   UNL     1      -0.351   5.562  -2.125  1.00  0.00     0.120 C 
ATOM     11  C   UNL     1      -0.561   3.952  -0.281  1.00  0.00     0.120 C 
ATOM     12  C   UNL     1      -1.738   5.273  -2.652  1.00  0.00     0.035 C 
ATOM     13  C   UNL     1      -1.940   3.506  -0.730  1.00  0.00     0.035 C 
BRANCH   7  14
ATOM     14  C   UNL     1       1.560   5.986   0.978  1.00  0.00     0.078 C 
ATOM     15  C   UNL     1       3.089   3.479   0.272  1.00  0.00     0.008 C 
ATOM     16  C   UNL     1       3.015   4.703  -0.645  1.00  0.00     0.006 C 
ATOM     17  C   UNL     1       2.091   3.469   1.443  1.00  0.00     0.006 C 
ATOM     18  C   UNL     1       2.818   6.006   0.108  1.00  0.00     0.014 C 
ATOM     19  C   UNL     1       1.605   4.824   1.966  1.00  0.00     0.014 C 
BRANCH  15  20
ATOM     20  C   UNL     1       2.921   2.216  -0.591  1.00  0.00     0.119 C 
BRANCH  20  21
ATOM     21  N   UNL     1       3.317   1.021   0.110  1.00  0.00    -0.354 N 
ATOM     22  O   UNL     1       1.408  -0.204  -0.277  1.00  0.00    -0.273 OA
ATOM     23  C   UNL     1       2.558  -0.134   0.148  1.00  0.00     0.240 C 
ATOM     24  H   UNL     1       4.178   1.027   0.588  1.00  0.00     0.163 HD
BRANCH  23  25
ATOM     25  C   UNL     1       3.360  -1.353   0.619  1.00  0.00     0.230 C 
BRANCH  25  26
ATOM     26  N   UNL     1       4.037  -1.916  -0.544  1.00  0.00    -0.250 N 
ATOM     27  C   UNL     1       3.733  -3.206  -0.938  1.00  0.00     0.329 A 
ATOM     28  C   UNL     1       5.058  -1.164  -1.119  1.00  0.00     0.264 A 
ATOM     29  O   UNL     1       2.984  -3.959  -0.320  1.00  0.00    -0.248 OA
ATOM     30  N   UNL     1       4.353  -3.662  -2.071  1.00  0.00    -0.307 N 
ATOM     31  C   UNL     1       5.530  -1.602  -2.440  1.00  0.00     0.064 A 
ATOM     32  O   UNL     1       5.563  -0.172  -0.595  1.00  0.00    -0.268 OA
ATOM     33  C   UNL     1       5.190  -2.880  -2.863  1.00  0.00     0.055 A 
ATOM     34  H   UNL     1       4.198  -4.596  -2.340  1.00  0.00     0.171 HD
ATOM     35  C   UNL     1       6.288  -0.757  -3.255  1.00  0.00     0.016 A 
ATOM     36  C   UNL     1       5.665  -3.358  -4.082  1.00  0.00     0.027 A 
ATOM     37  C   UNL     1       6.730  -1.218  -4.494  1.00  0.00     0.001 A 
ATOM     38  C   UNL     1       6.433  -2.522  -4.898  1.00  0.00     0.002 A 
ENDBRANCH  25  26
ENDBRANCH  23  25
ENDBRANCH  20  21
ENDBRANCH  15  20
ENDBRANCH   7  14
ENDBRANCH   3   6
ENDBRANCH   1   2
BRANCH   1  39
ATOM     39  C   UNL     1      -4.469   7.308  -1.011  1.00  0.00     0.023 C 
BRANCH  39  40
ATOM     40  C   UNL     1      -5.958   7.605  -1.122  1.00  0.00     0.023 C 
BRANCH  40  41
ATOM     41  C   UNL     1      -6.760   7.302   0.134  1.00  0.00     0.116 C 
BRANCH  41  42
ATOM     42  N   UNL     1      -6.310   8.041   1.306  1.00  0.00    -0.352 N 
ATOM     43  C   UNL     1      -7.084   8.658   2.265  1.00  0.00     0.251 C 
ATOM     44  H   UNL     1      -5.336   8.108   1.427  1.00  0.00     0.163 HD
ATOM     45  O   UNL     1      -6.584   9.324   3.158  1.00  0.00    -0.269 OA
BRANCH  43  46
ATOM     46  C   UNL     1      -8.550   8.534   2.149  1.00  0.00     0.039 A 
ATOM     47  C   UNL     1      -9.127   7.272   1.998  1.00  0.00     0.014 A 
ATOM     48  C   UNL     1      -9.323   9.693   2.051  1.00  0.00     0.014 A 
ATOM     49  C   UNL     1     -10.441   7.177   1.563  1.00  0.00     0.010 A 
ATOM     50  C   UNL     1     -10.670   9.587   1.702  1.00  0.00     0.010 A 
ATOM     51  C   UNL     1     -11.224   8.333   1.398  1.00  0.00    -0.014 A 
BRANCH  51  52
ATOM     52  C   UNL     1     -12.615   8.202   0.897  1.00  0.00     0.031 A 
ATOM     53  C   UNL     1     -13.017   8.781  -0.433  1.00  0.00     0.074 A 
ATOM     54  C   UNL     1     -13.504   7.497   1.623  1.00  0.00     0.049 A 
ATOM     55  N   UNL     1     -14.188   8.752  -1.019  1.00  0.00    -0.248 NA
ATOM     56  C   UNL     1     -11.980   9.484  -1.209  1.00  0.00     0.031 C 
ATOM     57  C   UNL     1     -13.224   6.869   2.916  1.00  0.00     0.029 A 
ATOM     58  N   UNL     1     -14.809   7.166   1.367  1.00  0.00    -0.354 N 
ATOM     59  C   UNL     1     -14.035   9.445  -2.213  1.00  0.00     0.074 A 
ATOM     60  C   UNL     1     -12.665   9.903  -2.266  1.00  0.00     0.031 C 
ATOM     61  C   UNL     1     -14.305   6.184   3.313  1.00  0.00     0.029 A 
ATOM     62  C   UNL     1     -15.375   6.382   2.342  1.00  0.00     0.049 A 
ATOM     63  H   UNL     1     -15.294   7.461   0.563  1.00  0.00     0.167 HD
ATOM     64  C   UNL     1     -14.955   9.672  -3.181  1.00  0.00     0.031 A 
ATOM     65  C   UNL     1     -16.622   5.889   2.459  1.00  0.00     0.031 A 
ATOM     66  C   UNL     1     -16.313   9.197  -3.137  1.00  0.00     0.049 A 
ATOM     67  C   UNL     1     -17.628   6.180   1.385  1.00  0.00     0.074 A 
ATOM     68  C   UNL     1     -17.313   9.375  -4.077  1.00  0.00     0.029 A 
ATOM     69  N   UNL     1     -16.856   8.444  -2.109  1.00  0.00    -0.354 N 
ATOM     70  N   UNL     1     -17.467   6.849   0.270  1.00  0.00    -0.248 NA
ATOM     71  C   UNL     1     -18.985   5.654   1.584  1.00  0.00     0.031 C 
ATOM     72  C   UNL     1     -18.476   8.768  -3.597  1.00  0.00     0.029 A 
ATOM     73  C   UNL     1     -18.183   8.165  -2.385  1.00  0.00     0.049 A 
ATOM     74  H   UNL     1     -16.372   8.152  -1.303  1.00  0.00     0.167 HD
ATOM     75  C   UNL     1     -18.699   6.821  -0.368  1.00  0.00     0.074 A 
ATOM     76  C   UNL     1     -19.590   6.047   0.471  1.00  0.00     0.031 C 
ATOM     77  C   UNL     1     -19.058   7.394  -1.541  1.00  0.00     0.031 A 
BRANCH  64  78
ATOM     78  C   UNL     1     -14.545  10.475  -4.383  1.00  0.00    -0.014 A 
ATOM     79  C   UNL     1     -15.054  11.772  -4.559  1.00  0.00     0.009 A 
ATOM     80  C   UNL     1     -13.762   9.908  -5.399  1.00  0.00     0.009 A 
ATOM     81  C   UNL     1     -14.805  12.477  -5.737  1.00  0.00     0.001 A 
ATOM     82  C   UNL     1     -13.496  10.625  -6.568  1.00  0.00     0.001 A 
ATOM     83  C   UNL     1     -14.027  11.903  -6.741  1.00  0.00     0.000 A 
ENDBRANCH  64  78
BRANCH  65  84
ATOM     84  C   UNL     1     -16.977   5.085   3.656  1.00  0.00    -0.014 A 
ATOM     85  C   UNL     1     -17.038   5.690   4.923  1.00  0.00     0.009 A 
ATOM     86  C   UNL     1     -17.206   3.706   3.551  1.00  0.00     0.009 A 
ATOM     87  C   UNL     1     -17.296   4.928   6.063  1.00  0.00     0.001 A 
ATOM     88  C   UNL     1     -17.495   2.951   4.691  1.00  0.00     0.001 A 
ATOM     89  C   UNL     1     -17.530   3.559   5.945  1.00  0.00     0.000 A 
ENDBRANCH  65  84
BRANCH  77  90
ATOM     90  C   UNL     1     -20.474   7.208  -2.004  1.00  0.00    -0.014 A 
ATOM     91  C   UNL     1     -20.744   6.389  -3.112  1.00  0.00     0.009 A 
ATOM     92  C   UNL     1     -21.525   7.922  -1.409  1.00  0.00     0.009 A 
ATOM     93  C   UNL     1     -22.038   6.298  -3.624  1.00  0.00     0.001 A 
ATOM     94  C   UNL     1     -22.823   7.808  -1.908  1.00  0.00     0.001 A 
ATOM     95  C   UNL     1     -23.077   7.004  -3.019  1.00  0.00     0.000 A 
ENDBRANCH  77  90
ENDBRANCH  51  52
ENDBRANCH  43  46
ENDBRANCH  41  42
ENDBRANCH  40  41
ENDBRANCH  39  40
ENDBRANCH   1  39
TORSDOF 16
