REMARK SMILES CC(C)(C)c1cc(Nc2ccccc2C(=O)NCCCCNC(=O)c2ccc(-c3c4nc(c(-c5ccccc5)c5ccc([nH]5)c(-c5ccccc5)c5nc(c(-c6ccccc6)c6ccc3[nH]6)C=C5)C=C4)cc2)cc2c1OCC2(C)C
REMARK SMILES IDX 19 1 18 2 17 3 15 4 16 5 14 7 9 8 10 9 11 10 13 11 12 12
REMARK SMILES IDX 8 13 7 15 5 16 6 17 75 18 74 19 76 20 73 21 78 22 77 23
REMARK SMILES IDX 79 24 80 25 2 26 1 27 3 28 4 29 20 30 21 31 22 32 23 33
REMARK SMILES IDX 24 35 25 36 26 37 72 38 27 39 71 40 28 41 29 42 30 43 65 44
REMARK SMILES IDX 31 45 70 46 64 47 66 48 32 49 69 50 63 51 62 52 33 54 55 55
REMARK SMILES IDX 40 56 54 57 41 58 44 59 53 60 67 61 42 62 43 63 52 65 68 66
REMARK SMILES IDX 45 67 34 68 35 69 39 70 36 71 38 72 37 73 56 74 57 75 61 76
REMARK SMILES IDX 58 77 60 78 59 79 46 80 47 81 51 82 48 83 50 84 49 85
REMARK H PARENT 17 6 8 14 22 34 66 53 44 64
REMARK Flexibility Score: inf
ROOT
ATOM      1  C   UNL     1      -0.042  -0.692   5.356  1.00  0.00     0.023 C 
ENDROOT
BRANCH   1   2
ATOM      2  C   UNL     1       1.221  -1.492   5.612  1.00  0.00     0.116 C 
BRANCH   2   3
ATOM      3  N   UNL     1       1.712  -1.571   6.955  1.00  0.00    -0.352 N 
ATOM      4  C   UNL     1       2.690  -2.406   7.442  1.00  0.00     0.253 C 
ATOM      5  O   UNL     1       3.056  -2.201   8.604  1.00  0.00    -0.269 OA
ATOM      6  H   UNL     1       1.302  -0.956   7.605  1.00  0.00     0.163 HD
BRANCH   4   7
ATOM      7  C   UNL     1       3.267  -3.588   6.713  1.00  0.00     0.063 A 
ATOM      8  C   UNL     1       3.680  -3.715   5.364  1.00  0.00     0.051 A 
ATOM      9  C   UNL     1       4.316  -4.919   4.970  1.00  0.00     0.027 A 
ATOM     10  C   UNL     1       4.453  -6.008   5.828  1.00  0.00     0.002 A 
ATOM     11  C   UNL     1       3.429  -4.709   7.567  1.00  0.00     0.016 A 
ATOM     12  C   UNL     1       3.991  -5.910   7.129  1.00  0.00     0.001 A 
BRANCH   8  13
ATOM     13  N   UNL     1       3.481  -2.756   4.340  1.00  0.00    -0.355 N 
ATOM     14  H   UNL     1       3.992  -1.917   4.411  1.00  0.00     0.167 HD
BRANCH  13  15
ATOM     15  C   UNL     1       2.613  -2.890   3.218  1.00  0.00     0.039 A 
ATOM     16  C   UNL     1       1.138  -1.797   1.522  1.00  0.00     0.002 A 
ATOM     17  C   UNL     1       2.201  -1.752   2.470  1.00  0.00     0.034 A 
ATOM     18  C   UNL     1       0.602  -3.059   1.282  1.00  0.00     0.127 A 
ATOM     19  C   UNL     1       1.001  -4.180   1.981  1.00  0.00     0.006 A 
ATOM     20  O   UNL     1      -0.378  -3.327   0.365  1.00  0.00    -0.492 OA
ATOM     21  C   UNL     1       1.975  -4.105   2.959  1.00  0.00     0.034 A 
ATOM     22  C   UNL     1       0.227  -5.377   1.555  1.00  0.00     0.028 C 
ATOM     23  C   UNL     1      -0.616  -4.750   0.430  1.00  0.00     0.240 C 
ATOM     24  C   UNL     1       1.163  -6.466   1.026  1.00  0.00     0.020 C 
ATOM     25  C   UNL     1      -0.654  -5.914   2.687  1.00  0.00     0.020 C 
BRANCH  16  26
ATOM     26  C   UNL     1       0.556  -0.554   0.822  1.00  0.00    -0.009 C 
ATOM     27  C   UNL     1       0.991  -0.529  -0.653  1.00  0.00     0.016 C 
ATOM     28  C   UNL     1       1.015   0.763   1.458  1.00  0.00     0.016 C 
ATOM     29  C   UNL     1      -0.994  -0.512   0.907  1.00  0.00     0.016 C 
ENDBRANCH  16  26
ENDBRANCH  13  15
ENDBRANCH   8  13
ENDBRANCH   4   7
ENDBRANCH   2   3
ENDBRANCH   1   2
BRANCH   1  30
ATOM     30  C   UNL     1      -0.011   0.808   5.663  1.00  0.00     0.023 C 
BRANCH  30  31
ATOM     31  C   UNL     1       1.348   1.504   5.751  1.00  0.00     0.116 C 
BRANCH  31  32
ATOM     32  N   UNL     1       1.974   1.858   4.484  1.00  0.00    -0.352 N 
ATOM     33  C   UNL     1       1.813   2.964   3.673  1.00  0.00     0.251 C 
ATOM     34  H   UNL     1       2.621   1.196   4.148  1.00  0.00     0.163 HD
ATOM     35  O   UNL     1       2.476   3.103   2.658  1.00  0.00    -0.269 OA
BRANCH  33  36
ATOM     36  C   UNL     1       0.803   3.977   4.020  1.00  0.00     0.039 A 
ATOM     37  C   UNL     1       0.826   4.532   5.292  1.00  0.00     0.014 A 
ATOM     38  C   UNL     1      -0.142   4.398   3.076  1.00  0.00     0.014 A 
ATOM     39  C   UNL     1      -0.200   5.365   5.687  1.00  0.00     0.010 A 
ATOM     40  C   UNL     1      -1.103   5.350   3.436  1.00  0.00     0.010 A 
ATOM     41  C   UNL     1      -1.148   5.822   4.754  1.00  0.00    -0.014 A 
BRANCH  41  42
ATOM     42  C   UNL     1      -2.057   6.899   5.215  1.00  0.00     0.031 A 
ATOM     43  C   UNL     1      -3.520   6.662   5.412  1.00  0.00     0.074 A 
ATOM     44  C   UNL     1      -1.474   8.043   5.628  1.00  0.00     0.049 A 
ATOM     45  N   UNL     1      -4.376   7.393   6.079  1.00  0.00    -0.248 NA
ATOM     46  C   UNL     1      -4.104   5.466   4.788  1.00  0.00     0.031 C 
ATOM     47  C   UNL     1      -0.048   8.352   5.468  1.00  0.00     0.029 A 
ATOM     48  N   UNL     1      -1.963   9.098   6.352  1.00  0.00    -0.354 N 
ATOM     49  C   UNL     1      -5.599   6.748   5.958  1.00  0.00     0.074 A 
ATOM     50  C   UNL     1      -5.383   5.585   5.125  1.00  0.00     0.031 C 
ATOM     51  C   UNL     1       0.247   9.439   6.190  1.00  0.00     0.029 A 
ATOM     52  C   UNL     1      -0.978   9.955   6.787  1.00  0.00     0.049 A 
ATOM     53  H   UNL     1      -2.920   9.229   6.542  1.00  0.00     0.167 HD
ATOM     54  C   UNL     1      -6.786   7.103   6.503  1.00  0.00     0.031 A 
ATOM     55  C   UNL     1      -1.044  11.031   7.592  1.00  0.00     0.031 A 
ATOM     56  C   UNL     1      -6.975   8.274   7.321  1.00  0.00     0.049 A 
ATOM     57  C   UNL     1      -2.377  11.408   8.164  1.00  0.00     0.074 A 
ATOM     58  C   UNL     1      -8.136   8.718   7.930  1.00  0.00     0.029 A 
ATOM     59  N   UNL     1      -5.981   9.189   7.641  1.00  0.00    -0.354 N 
ATOM     60  N   UNL     1      -3.520  10.771   8.071  1.00  0.00    -0.248 NA
ATOM     61  C   UNL     1      -2.437  12.649   8.945  1.00  0.00     0.031 C 
ATOM     62  C   UNL     1      -7.861   9.937   8.554  1.00  0.00     0.029 A 
ATOM     63  C   UNL     1      -6.511  10.215   8.406  1.00  0.00     0.049 A 
ATOM     64  H   UNL     1      -5.038   9.119   7.365  1.00  0.00     0.167 HD
ATOM     65  C   UNL     1      -4.439  11.539   8.769  1.00  0.00     0.074 A 
ATOM     66  C   UNL     1      -3.708  12.662   9.322  1.00  0.00     0.031 C 
ATOM     67  C   UNL     1      -5.771  11.339   8.924  1.00  0.00     0.031 A 
BRANCH  54  68
ATOM     68  C   UNL     1      -7.985   6.236   6.226  1.00  0.00    -0.014 A 
ATOM     69  C   UNL     1      -9.050   6.743   5.463  1.00  0.00     0.009 A 
ATOM     70  C   UNL     1      -8.113   4.962   6.800  1.00  0.00     0.009 A 
ATOM     71  C   UNL     1     -10.223   6.004   5.297  1.00  0.00     0.001 A 
ATOM     72  C   UNL     1      -9.277   4.211   6.608  1.00  0.00     0.001 A 
ATOM     73  C   UNL     1     -10.334   4.737   5.867  1.00  0.00     0.000 A 
ENDBRANCH  54  68
BRANCH  55  74
ATOM     74  C   UNL     1       0.195  11.801   7.889  1.00  0.00    -0.014 A 
ATOM     75  C   UNL     1       0.893  12.444   6.852  1.00  0.00     0.009 A 
ATOM     76  C   UNL     1       0.731  11.839   9.184  1.00  0.00     0.009 A 
ATOM     77  C   UNL     1       2.119  13.066   7.093  1.00  0.00     0.001 A 
ATOM     78  C   UNL     1       1.938  12.499   9.431  1.00  0.00     0.001 A 
ATOM     79  C   UNL     1       2.638  13.098   8.384  1.00  0.00     0.000 A 
ENDBRANCH  55  74
BRANCH  67  80
ATOM     80  C   UNL     1      -6.535  12.375   9.701  1.00  0.00    -0.014 A 
ATOM     81  C   UNL     1      -7.111  12.042  10.938  1.00  0.00     0.009 A 
ATOM     82  C   UNL     1      -6.756  13.656   9.171  1.00  0.00     0.009 A 
ATOM     83  C   UNL     1      -7.902  12.966  11.621  1.00  0.00     0.001 A 
ATOM     84  C   UNL     1      -7.518  14.590   9.874  1.00  0.00     0.001 A 
ATOM     85  C   UNL     1      -8.098  14.241  11.093  1.00  0.00     0.000 A 
ENDBRANCH  67  80
ENDBRANCH  41  42
ENDBRANCH  33  36
ENDBRANCH  31  32
ENDBRANCH  30  31
ENDBRANCH   1  30
TORSDOF 14
