REMARK SMILES C[C@@H](CCO)SCc1cccc(/C=C/C(=O)NCCCCNC(=O)c2ccc(-c3c4nc(c(-c5ccccc5)c5ccc([nH]5)c(-c5ccccc5)c5nc(c(-c6ccccc6)c6ccc3[nH]6)C=C5)C=C4)cc2)c1
REMARK SMILES IDX 15 1 16 2 17 3 14 5 13 6 12 7 8 8 9 9 73 10 10 11 11 12 7 13
REMARK SMILES IDX 6 14 2 15 1 16 3 17 4 18 5 19 18 21 19 22 20 23 21 24 22 25
REMARK SMILES IDX 23 26 24 28 25 29 26 30 72 31 27 32 71 33 28 34 29 35 30 36
REMARK SMILES IDX 65 37 31 38 70 39 64 40 66 41 32 42 69 43 63 44 62 45 33 47
REMARK SMILES IDX 55 48 40 49 54 50 41 51 44 52 53 53 67 54 42 55 43 56 52 58
REMARK SMILES IDX 68 59 45 60 34 61 35 62 39 63 36 64 38 65 37 66 56 67 57 68
REMARK SMILES IDX 61 69 58 70 60 71 59 72 46 73 47 74 51 75 48 76 50 77 49 78
REMARK H PARENT 17 4 5 20 22 27 66 46 44 57
REMARK Flexibility Score: inf
ROOT
ATOM      1  C   UNL     1      -0.434  -1.284   8.502  1.00  0.00     0.243 C 
ATOM      2  O   UNL     1      -0.191  -2.013   9.464  1.00  0.00    -0.270 OA
ATOM      3  N   UNL     1      -0.080   0.027   8.566  1.00  0.00    -0.353 N 
ATOM      4  H   UNL     1       0.412   0.270   9.383  1.00  0.00     0.163 HD
ENDROOT
BRANCH   1   5
ATOM      5  C   UNL     1      -1.175  -1.850   7.349  1.00  0.00     0.072 C 
ATOM      6  C   UNL     1      -0.897  -1.595   6.065  1.00  0.00     0.014 C 
BRANCH   6   7
ATOM      7  C   UNL     1      -1.564  -2.191   4.903  1.00  0.00    -0.025 A 
ATOM      8  C   UNL     1      -2.114  -1.906   2.535  1.00  0.00    -0.037 A 
ATOM      9  C   UNL     1      -2.348  -3.284   2.448  1.00  0.00     0.004 A 
ATOM     10  C   UNL     1      -1.814  -1.364   3.797  1.00  0.00     0.012 A 
ATOM     11  C   UNL     1      -2.164  -4.109   3.561  1.00  0.00     0.001 A 
ATOM     12  C   UNL     1      -1.743  -3.569   4.777  1.00  0.00     0.008 A 
BRANCH   8  13
ATOM     13  C   UNL     1      -2.148  -0.990   1.332  1.00  0.00     0.105 C 
BRANCH  13  14
ATOM     14  S   UNL     1      -1.413  -1.682  -0.193  1.00  0.00    -0.154 SA
BRANCH  14  15
ATOM     15  C   UNL     1       0.385  -1.242  -0.108  1.00  0.00     0.046 C 
ATOM     16  C   UNL     1       0.657   0.244   0.089  1.00  0.00     0.019 C 
BRANCH  15  17
ATOM     17  C   UNL     1       1.256  -2.216   0.716  1.00  0.00     0.042 C 
BRANCH  17  18
ATOM     18  C   UNL     1       1.914  -1.684   1.984  1.00  0.00     0.157 C 
BRANCH  18  19
ATOM     19  O   UNL     1       0.958  -1.249   2.923  1.00  0.00    -0.396 OA
ATOM     20  H   UNL     1       0.434  -0.527   2.541  1.00  0.00     0.210 HD
ENDBRANCH  18  19
ENDBRANCH  17  18
ENDBRANCH  15  17
ENDBRANCH  14  15
ENDBRANCH  13  14
ENDBRANCH   8  13
ENDBRANCH   6   7
ENDBRANCH   1   5
BRANCH   3  21
ATOM     21  C   UNL     1      -0.291   1.137   7.654  1.00  0.00     0.116 C 
BRANCH  21  22
ATOM     22  C   UNL     1      -1.622   1.848   7.876  1.00  0.00     0.023 C 
BRANCH  22  23
ATOM     23  C   UNL     1      -1.639   2.813   9.062  1.00  0.00     0.023 C 
BRANCH  23  24
ATOM     24  C   UNL     1      -0.526   3.857   9.076  1.00  0.00     0.116 C 
BRANCH  24  25
ATOM     25  N   UNL     1      -0.427   4.626   7.844  1.00  0.00    -0.352 N 
ATOM     26  C   UNL     1      -0.085   5.946   7.682  1.00  0.00     0.251 C 
ATOM     27  H   UNL     1      -0.632   4.134   7.016  1.00  0.00     0.163 HD
ATOM     28  O   UNL     1      -0.144   6.471   6.573  1.00  0.00    -0.269 OA
BRANCH  26  29
ATOM     29  C   UNL     1       0.321   6.743   8.857  1.00  0.00     0.039 A 
ATOM     30  C   UNL     1      -0.236   8.011   9.035  1.00  0.00     0.014 A 
ATOM     31  C   UNL     1       1.231   6.236   9.788  1.00  0.00     0.014 A 
ATOM     32  C   UNL     1       0.082   8.748  10.176  1.00  0.00     0.010 A 
ATOM     33  C   UNL     1       1.477   6.933  10.966  1.00  0.00     0.010 A 
ATOM     34  C   UNL     1       0.919   8.204  11.165  1.00  0.00    -0.014 A 
BRANCH  34  35
ATOM     35  C   UNL     1       1.237   8.971  12.395  1.00  0.00     0.031 A 
ATOM     36  C   UNL     1       2.652   9.396  12.679  1.00  0.00     0.074 A 
ATOM     37  C   UNL     1       0.255   9.264  13.270  1.00  0.00     0.049 A 
ATOM     38  N   UNL     1       3.118  10.099  13.681  1.00  0.00    -0.248 NA
ATOM     39  C   UNL     1       3.685   8.956  11.727  1.00  0.00     0.031 C 
ATOM     40  C   UNL     1      -1.147   8.863  13.139  1.00  0.00     0.029 A 
ATOM     41  N   UNL     1       0.288   9.979  14.441  1.00  0.00    -0.354 N 
ATOM     42  C   UNL     1       4.491  10.174  13.483  1.00  0.00     0.074 A 
ATOM     43  C   UNL     1       4.793   9.392  12.306  1.00  0.00     0.031 C 
ATOM     44  C   UNL     1      -1.849   9.378  14.162  1.00  0.00     0.029 A 
ATOM     45  C   UNL     1      -0.942  10.112  15.038  1.00  0.00     0.049 A 
ATOM     46  H   UNL     1       1.114  10.359  14.818  1.00  0.00     0.167 HD
ATOM     47  C   UNL     1       5.417  10.856  14.198  1.00  0.00     0.031 A 
ATOM     48  C   UNL     1      -1.301  10.763  16.160  1.00  0.00     0.031 A 
ATOM     49  C   UNL     1       5.117  11.637  15.368  1.00  0.00     0.049 A 
ATOM     50  C   UNL     1      -0.254  11.511  16.939  1.00  0.00     0.074 A 
ATOM     51  C   UNL     1       5.975  12.405  16.137  1.00  0.00     0.029 A 
ATOM     52  N   UNL     1       3.859  11.747  15.941  1.00  0.00    -0.354 N 
ATOM     53  N   UNL     1       1.028  11.638  16.694  1.00  0.00    -0.248 NA
ATOM     54  C   UNL     1      -0.712  12.225  18.138  1.00  0.00     0.031 C 
ATOM     55  C   UNL     1       5.246  12.934  17.207  1.00  0.00     0.029 A 
ATOM     56  C   UNL     1       3.921  12.553  17.065  1.00  0.00     0.049 A 
ATOM     57  H   UNL     1       3.043  11.316  15.598  1.00  0.00     0.167 HD
ATOM     58  C   UNL     1       1.522  12.473  17.687  1.00  0.00     0.074 A 
ATOM     59  C   UNL     1       0.397  12.839  18.522  1.00  0.00     0.031 C 
ATOM     60  C   UNL     1       2.793  12.902  17.890  1.00  0.00     0.031 A 
BRANCH  47  61
ATOM     61  C   UNL     1       6.846  10.777  13.731  1.00  0.00    -0.014 A 
ATOM     62  C   UNL     1       7.252  11.368  12.522  1.00  0.00     0.009 A 
ATOM     63  C   UNL     1       7.804  10.121  14.518  1.00  0.00     0.009 A 
ATOM     64  C   UNL     1       8.576  11.266  12.092  1.00  0.00     0.001 A 
ATOM     65  C   UNL     1       9.136  10.050  14.102  1.00  0.00     0.001 A 
ATOM     66  C   UNL     1       9.518  10.612  12.885  1.00  0.00     0.000 A 
ENDBRANCH  47  61
BRANCH  48  67
ATOM     67  C   UNL     1      -2.722  10.769  16.602  1.00  0.00    -0.014 A 
ATOM     68  C   UNL     1      -3.480  11.950  16.556  1.00  0.00     0.009 A 
ATOM     69  C   UNL     1      -3.322   9.598  17.088  1.00  0.00     0.009 A 
ATOM     70  C   UNL     1      -4.796  11.966  17.022  1.00  0.00     0.001 A 
ATOM     71  C   UNL     1      -4.650   9.609  17.522  1.00  0.00     0.001 A 
ATOM     72  C   UNL     1      -5.381  10.795  17.501  1.00  0.00     0.000 A 
ENDBRANCH  48  67
BRANCH  60  73
ATOM     73  C   UNL     1       3.018  13.852  19.035  1.00  0.00    -0.014 A 
ATOM     74  C   UNL     1       2.894  13.437  20.371  1.00  0.00     0.009 A 
ATOM     75  C   UNL     1       3.367  15.185  18.769  1.00  0.00     0.009 A 
ATOM     76  C   UNL     1       3.061  14.352  21.413  1.00  0.00     0.001 A 
ATOM     77  C   UNL     1       3.570  16.088  19.813  1.00  0.00     0.001 A 
ATOM     78  C   UNL     1       3.401  15.675  21.133  1.00  0.00     0.000 A 
ENDBRANCH  60  73
ENDBRANCH  34  35
ENDBRANCH  26  29
ENDBRANCH  24  25
ENDBRANCH  23  24
ENDBRANCH  22  23
ENDBRANCH  21  22
ENDBRANCH   3  21
TORSDOF 18
