REMARK SMILES CCC(=O)Nc1ccc(I)cc1C(=O)NCCCCNC(=O)c1ccc(-c2c3nc(c(-c4ccccc4)c4ccc([nH]4)c(-c4ccccc4)c4nc(c(-c5ccccc5)c5ccc2[nH]5)C=C4)C=C3)cc1
REMARK SMILES IDX 17 1 16 2 15 3 13 4 14 5 12 7 6 8 7 9 8 10 11 11 9 12 10 13
REMARK SMILES IDX 5 14 3 15 4 16 2 18 1 19 18 20 19 21 20 22 21 23 22 25 23 26
REMARK SMILES IDX 24 27 70 28 25 29 69 30 26 31 27 32 28 33 63 34 29 35 68 36
REMARK SMILES IDX 62 37 64 38 30 39 67 40 61 41 60 42 31 44 53 45 38 46 52 47
REMARK SMILES IDX 39 48 42 49 51 50 65 51 40 52 41 53 50 55 66 56 43 57 32 58
REMARK SMILES IDX 33 59 37 60 34 61 36 62 35 63 54 64 55 65 59 66 56 67 58 68
REMARK SMILES IDX 57 69 44 70 45 71 49 72 46 73 48 74 47 75
REMARK H PARENT 15 6 5 17 20 24 64 43 42 54
REMARK Flexibility Score: inf
ROOT
ATOM      1  C   UNL     1       1.399  -0.198   5.449  1.00  0.00     0.023 C 
ENDROOT
BRANCH   1   2
ATOM      2  C   UNL     1       2.279   0.239   4.286  1.00  0.00     0.116 C 
BRANCH   2   3
ATOM      3  N   UNL     1       3.703   0.241   4.521  1.00  0.00    -0.352 N 
ATOM      4  C   UNL     1       4.754   0.136   3.639  1.00  0.00     0.253 C 
ATOM      5  O   UNL     1       5.890   0.234   4.106  1.00  0.00    -0.269 OA
ATOM      6  H   UNL     1       3.965   0.331   5.466  1.00  0.00     0.163 HD
BRANCH   4   7
ATOM      7  C   UNL     1       4.618  -0.161   2.179  1.00  0.00     0.064 A 
ATOM      8  C   UNL     1       3.676   0.366   1.280  1.00  0.00     0.054 A 
ATOM      9  C   UNL     1       3.739   0.017  -0.080  1.00  0.00     0.028 A 
ATOM     10  C   UNL     1       4.695  -0.877  -0.556  1.00  0.00     0.017 A 
ATOM     11  C   UNL     1       5.582  -1.066   1.681  1.00  0.00     0.030 A 
ATOM     12  C   UNL     1       5.612  -1.422   0.331  1.00  0.00     0.014 A 
ATOM     13  I   UNL     1       7.052  -2.744  -0.371  1.00  0.00    -0.044 I 
BRANCH   8  14
ATOM     14  N   UNL     1       2.741   1.349   1.628  1.00  0.00    -0.325 N 
ATOM     15  C   UNL     1       1.387   1.330   1.391  1.00  0.00     0.224 C 
ATOM     16  O   UNL     1       0.723   2.338   1.638  1.00  0.00    -0.275 OA
ATOM     17  H   UNL     1       3.093   2.142   2.094  1.00  0.00     0.169 HD
BRANCH  15  18
ATOM     18  C   UNL     1       0.705   0.015   1.027  1.00  0.00     0.097 C 
ATOM     19  C   UNL     1       0.402  -0.154  -0.446  1.00  0.00     0.014 C 
ENDBRANCH  15  18
ENDBRANCH   8  14
ENDBRANCH   4   7
ENDBRANCH   2   3
ENDBRANCH   1   2
BRANCH   1  20
ATOM     20  C   UNL     1       1.527   0.598   6.744  1.00  0.00     0.023 C 
BRANCH  20  21
ATOM     21  C   UNL     1       1.579   2.118   6.619  1.00  0.00     0.116 C 
BRANCH  21  22
ATOM     22  N   UNL     1       0.383   2.717   6.045  1.00  0.00    -0.352 N 
ATOM     23  C   UNL     1      -0.549   3.566   6.598  1.00  0.00     0.251 C 
ATOM     24  H   UNL     1       0.212   2.475   5.106  1.00  0.00     0.163 HD
ATOM     25  O   UNL     1      -1.540   3.893   5.948  1.00  0.00    -0.269 OA
BRANCH  23  26
ATOM     26  C   UNL     1      -0.405   4.054   7.988  1.00  0.00     0.039 A 
ATOM     27  C   UNL     1      -1.530   4.052   8.819  1.00  0.00     0.014 A 
ATOM     28  C   UNL     1       0.818   4.508   8.482  1.00  0.00     0.014 A 
ATOM     29  C   UNL     1      -1.402   4.403  10.166  1.00  0.00     0.010 A 
ATOM     30  C   UNL     1       0.966   4.762   9.844  1.00  0.00     0.010 A 
ATOM     31  C   UNL     1      -0.141   4.707  10.705  1.00  0.00    -0.014 A 
BRANCH  31  32
ATOM     32  C   UNL     1       0.039   4.953  12.160  1.00  0.00     0.031 A 
ATOM     33  C   UNL     1       0.566   6.275  12.652  1.00  0.00     0.074 A 
ATOM     34  C   UNL     1      -0.200   3.960  13.041  1.00  0.00     0.049 A 
ATOM     35  N   UNL     1       0.841   6.650  13.877  1.00  0.00    -0.248 NA
ATOM     36  C   UNL     1       0.851   7.299  11.634  1.00  0.00     0.031 C 
ATOM     37  C   UNL     1      -0.654   2.610  12.698  1.00  0.00     0.029 A 
ATOM     38  N   UNL     1      -0.085   3.931  14.409  1.00  0.00    -0.354 N 
ATOM     39  C   UNL     1       1.356   7.936  13.772  1.00  0.00     0.074 A 
ATOM     40  C   UNL     1       1.401   8.259  12.363  1.00  0.00     0.031 C 
ATOM     41  C   UNL     1      -0.810   1.897  13.825  1.00  0.00     0.029 A 
ATOM     42  C   UNL     1      -0.432   2.724  14.967  1.00  0.00     0.049 A 
ATOM     43  H   UNL     1       0.216   4.703  14.941  1.00  0.00     0.167 HD
ATOM     44  C   UNL     1       1.738   8.783  14.757  1.00  0.00     0.031 A 
ATOM     45  C   UNL     1      -0.445   2.323  16.252  1.00  0.00     0.031 A 
ATOM     46  C   UNL     1       1.668   8.478  16.161  1.00  0.00     0.049 A 
ATOM     47  C   UNL     1      -0.041   3.291  17.329  1.00  0.00     0.074 A 
ATOM     48  C   UNL     1       1.959   9.300  17.237  1.00  0.00     0.029 A 
ATOM     49  N   UNL     1       1.280   7.256  16.684  1.00  0.00    -0.354 N 
ATOM     50  N   UNL     1       0.363   4.533  17.216  1.00  0.00    -0.248 NA
ATOM     51  C   UNL     1      -0.111   2.804  18.715  1.00  0.00     0.031 C 
ATOM     52  C   UNL     1       1.790   8.558  18.411  1.00  0.00     0.029 A 
ATOM     53  C   UNL     1       1.343   7.293  18.067  1.00  0.00     0.049 A 
ATOM     54  H   UNL     1       1.000   6.476  16.152  1.00  0.00     0.167 HD
ATOM     55  C   UNL     1       0.567   4.984  18.513  1.00  0.00     0.074 A 
ATOM     56  C   UNL     1       0.226   3.889  19.397  1.00  0.00     0.031 C 
ATOM     57  C   UNL     1       1.000   6.197  18.934  1.00  0.00     0.031 A 
BRANCH  44  58
ATOM     58  C   UNL     1       2.268  10.129  14.346  1.00  0.00    -0.014 A 
ATOM     59  C   UNL     1       1.424  11.108  13.797  1.00  0.00     0.009 A 
ATOM     60  C   UNL     1       3.624  10.434  14.542  1.00  0.00     0.009 A 
ATOM     61  C   UNL     1       1.936  12.351  13.416  1.00  0.00     0.001 A 
ATOM     62  C   UNL     1       4.126  11.688  14.188  1.00  0.00     0.001 A 
ATOM     63  C   UNL     1       3.284  12.641  13.616  1.00  0.00     0.000 A 
ENDBRANCH  44  58
BRANCH  45  64
ATOM     64  C   UNL     1      -0.877   0.944  16.602  1.00  0.00    -0.014 A 
ATOM     65  C   UNL     1      -2.100   0.727  17.255  1.00  0.00     0.009 A 
ATOM     66  C   UNL     1      -0.062  -0.158  16.302  1.00  0.00     0.009 A 
ATOM     67  C   UNL     1      -2.485  -0.563  17.628  1.00  0.00     0.001 A 
ATOM     68  C   UNL     1      -0.463  -1.450  16.651  1.00  0.00     0.001 A 
ATOM     69  C   UNL     1      -1.667  -1.651  17.323  1.00  0.00     0.000 A 
ENDBRANCH  45  64
BRANCH  57  70
ATOM     70  C   UNL     1       1.092   6.414  20.418  1.00  0.00    -0.014 A 
ATOM     71  C   UNL     1       2.093   5.799  21.186  1.00  0.00     0.009 A 
ATOM     72  C   UNL     1       0.179   7.271  21.052  1.00  0.00     0.009 A 
ATOM     73  C   UNL     1       2.153   6.008  22.565  1.00  0.00     0.001 A 
ATOM     74  C   UNL     1       0.259   7.502  22.426  1.00  0.00     0.001 A 
ATOM     75  C   UNL     1       1.240   6.862  23.183  1.00  0.00     0.000 A 
ENDBRANCH  57  70
ENDBRANCH  31  32
ENDBRANCH  23  26
ENDBRANCH  21  22
ENDBRANCH  20  21
ENDBRANCH   1  20
TORSDOF 13
