REMARK SMILES Nc1nonc1C(=O)N1[C@@H]2CC[C@H]1C[C@H](CC(=O)NCCCCNC(=O)c1ccc(-c3c4nc(c(-c5ccccc5)c5ccc([nH]5)c(-c5ccccc5)c5nc(c(-c6ccccc6)c6ccc3[nH]6)C=C5)C=C4)cc1)C2
REMARK SMILES IDX 20 1 19 2 17 3 18 4 16 6 15 7 9 8 10 9 13 10 11 11 75 12
REMARK SMILES IDX 12 13 14 14 7 15 8 16 6 17 2 18 3 19 4 20 5 21 1 22 21 25
REMARK SMILES IDX 22 26 23 27 24 28 25 29 26 31 27 32 28 33 74 34 29 35 73 36
REMARK SMILES IDX 30 37 31 38 32 39 67 40 33 41 72 42 66 43 68 44 34 45 71 46
REMARK SMILES IDX 65 47 64 48 35 50 57 51 42 52 56 53 43 54 46 55 55 56 69 57
REMARK SMILES IDX 44 58 45 59 54 61 70 62 47 63 36 64 37 65 41 66 38 67 40 68
REMARK SMILES IDX 39 69 58 70 59 71 63 72 60 73 62 74 61 75 48 76 49 77 53 78
REMARK SMILES IDX 50 79 52 80 51 81
REMARK H PARENT 19 5 1 23 1 24 24 30 68 49 46 60
REMARK Flexibility Score: inf
ROOT
ATOM      1  C   UNL     1       5.434   0.361   0.417  1.00  0.00     0.116 C 
ENDROOT
BRANCH   1   2
ATOM      2  N   UNL     1       6.388  -0.328  -0.438  1.00  0.00    -0.356 N 
ATOM      3  C   UNL     1       6.210  -1.156  -1.509  1.00  0.00     0.220 C 
ATOM      4  O   UNL     1       7.209  -1.684  -2.000  1.00  0.00    -0.275 OA
ATOM      5  H   UNL     1       7.331  -0.169  -0.203  1.00  0.00     0.163 HD
BRANCH   3   6
ATOM      6  C   UNL     1       4.830  -1.430  -2.090  1.00  0.00     0.103 C 
BRANCH   6   7
ATOM      7  C   UNL     1       4.183  -2.751  -1.601  1.00  0.00     0.002 C 
ATOM      8  N   UNL     1       1.551  -3.012  -0.495  1.00  0.00    -0.331 N 
ATOM      9  C   UNL     1       1.844  -3.831  -1.665  1.00  0.00     0.086 C 
ATOM     10  C   UNL     1       2.615  -3.338   0.429  1.00  0.00     0.086 C 
ATOM     11  C   UNL     1       2.364  -5.167  -1.092  1.00  0.00     0.027 C 
ATOM     12  C   UNL     1       2.930  -3.083  -2.452  1.00  0.00     0.029 C 
ATOM     13  C   UNL     1       2.740  -4.853   0.355  1.00  0.00     0.027 C 
ATOM     14  C   UNL     1       3.883  -2.666  -0.093  1.00  0.00     0.029 C 
BRANCH   8  15
ATOM     15  C   UNL     1       0.232  -2.962  -0.041  1.00  0.00     0.280 C 
ATOM     16  O   UNL     1      -0.372  -3.995   0.248  1.00  0.00    -0.267 OA
BRANCH  15  17
ATOM     17  C   UNL     1      -0.394  -1.638  -0.030  1.00  0.00     0.216 A 
ATOM     18  C   UNL     1       0.139  -0.325   0.081  1.00  0.00     0.201 A 
ATOM     19  N   UNL     1      -0.844   0.567  -0.009  1.00  0.00    -0.032 NA
ATOM     20  O   UNL     1      -2.002  -0.177  -0.142  1.00  0.00    -0.242 OA
ATOM     21  N   UNL     1      -1.728  -1.533  -0.145  1.00  0.00    -0.042 NA
BRANCH  18  22
ATOM     22  N   UNL     1       1.416   0.040   0.282  1.00  0.00    -0.379 N 
ATOM     23  H   UNL     1       1.652   0.994   0.340  1.00  0.00     0.158 HD
ATOM     24  H   UNL     1       2.116  -0.646   0.370  1.00  0.00     0.158 HD
ENDBRANCH  18  22
ENDBRANCH  15  17
ENDBRANCH   8  15
ENDBRANCH   6   7
ENDBRANCH   3   6
ENDBRANCH   1   2
BRANCH   1  25
ATOM     25  C   UNL     1       5.179  -0.426   1.709  1.00  0.00     0.023 C 
BRANCH  25  26
ATOM     26  C   UNL     1       6.023  -0.043   2.907  1.00  0.00     0.023 C 
BRANCH  26  27
ATOM     27  C   UNL     1       5.642   1.287   3.522  1.00  0.00     0.116 C 
BRANCH  27  28
ATOM     28  N   UNL     1       4.301   1.315   4.094  1.00  0.00    -0.352 N 
ATOM     29  C   UNL     1       3.893   1.909   5.271  1.00  0.00     0.251 C 
ATOM     30  H   UNL     1       3.602   0.854   3.578  1.00  0.00     0.163 HD
ATOM     31  O   UNL     1       2.745   1.795   5.668  1.00  0.00    -0.269 OA
BRANCH  29  32
ATOM     32  C   UNL     1       4.899   2.639   6.070  1.00  0.00     0.039 A 
ATOM     33  C   UNL     1       5.045   2.331   7.424  1.00  0.00     0.014 A 
ATOM     34  C   UNL     1       5.774   3.528   5.443  1.00  0.00     0.014 A 
ATOM     35  C   UNL     1       6.133   2.849   8.127  1.00  0.00     0.010 A 
ATOM     36  C   UNL     1       6.916   3.941   6.110  1.00  0.00     0.010 A 
ATOM     37  C   UNL     1       7.103   3.617   7.462  1.00  0.00    -0.014 A 
BRANCH  37  38
ATOM     38  C   UNL     1       8.305   4.134   8.159  1.00  0.00     0.031 A 
ATOM     39  C   UNL     1       8.528   5.620   8.235  1.00  0.00     0.074 A 
ATOM     40  C   UNL     1       9.226   3.281   8.649  1.00  0.00     0.049 A 
ATOM     41  N   UNL     1       9.556   6.279   8.706  1.00  0.00    -0.248 NA
ATOM     42  C   UNL     1       7.475   6.479   7.665  1.00  0.00     0.031 C 
ATOM     43  C   UNL     1       9.154   1.819   8.590  1.00  0.00     0.029 A 
ATOM     44  N   UNL     1      10.412   3.529   9.292  1.00  0.00    -0.354 N 
ATOM     45  C   UNL     1       9.284   7.619   8.460  1.00  0.00     0.074 A 
ATOM     46  C   UNL     1       8.032   7.677   7.740  1.00  0.00     0.031 C 
ATOM     47  C   UNL     1      10.228   1.301   9.210  1.00  0.00     0.029 A 
ATOM     48  C   UNL     1      11.080   2.390   9.675  1.00  0.00     0.049 A 
ATOM     49  H   UNL     1      10.752   4.436   9.464  1.00  0.00     0.167 HD
ATOM     50  C   UNL     1       9.993   8.710   8.829  1.00  0.00     0.031 A 
ATOM     51  C   UNL     1      12.245   2.246  10.332  1.00  0.00     0.031 A 
ATOM     52  C   UNL     1      11.214   8.657   9.581  1.00  0.00     0.049 A 
ATOM     53  C   UNL     1      13.002   3.474  10.757  1.00  0.00     0.074 A 
ATOM     54  C   UNL     1      11.983   9.704  10.056  1.00  0.00     0.029 A 
ATOM     55  N   UNL     1      11.836   7.484   9.981  1.00  0.00    -0.354 N 
ATOM     56  N   UNL     1      12.703   4.736  10.565  1.00  0.00    -0.248 NA
ATOM     57  C   UNL     1      14.251   3.256  11.501  1.00  0.00     0.031 C 
ATOM     58  C   UNL     1      13.089   9.163  10.720  1.00  0.00     0.029 A 
ATOM     59  C   UNL     1      12.983   7.781  10.694  1.00  0.00     0.049 A 
ATOM     60  H   UNL     1      11.510   6.576   9.786  1.00  0.00     0.167 HD
ATOM     61  C   UNL     1      13.707   5.462  11.194  1.00  0.00     0.074 A 
ATOM     62  C   UNL     1      14.616   4.499  11.781  1.00  0.00     0.031 C 
ATOM     63  C   UNL     1      13.864   6.805  11.279  1.00  0.00     0.031 A 
BRANCH  50  64
ATOM     64  C   UNL     1       9.444  10.051   8.429  1.00  0.00    -0.014 A 
ATOM     65  C   UNL     1       8.274  10.559   9.018  1.00  0.00     0.009 A 
ATOM     66  C   UNL     1      10.102  10.817   7.456  1.00  0.00     0.009 A 
ATOM     67  C   UNL     1       7.750  11.786   8.608  1.00  0.00     0.001 A 
ATOM     68  C   UNL     1       9.594  12.058   7.071  1.00  0.00     0.001 A 
ATOM     69  C   UNL     1       8.413  12.536   7.638  1.00  0.00     0.000 A 
ENDBRANCH  50  64
BRANCH  51  70
ATOM     70  C   UNL     1      12.754   0.891  10.671  1.00  0.00    -0.014 A 
ATOM     71  C   UNL     1      12.733   0.440  12.001  1.00  0.00     0.009 A 
ATOM     72  C   UNL     1      13.277   0.050   9.678  1.00  0.00     0.009 A 
ATOM     73  C   UNL     1      13.255  -0.812  12.333  1.00  0.00     0.001 A 
ATOM     74  C   UNL     1      13.775  -1.213  10.010  1.00  0.00     0.001 A 
ATOM     75  C   UNL     1      13.773  -1.638  11.337  1.00  0.00     0.000 A 
ENDBRANCH  51  70
BRANCH  63  76
ATOM     76  C   UNL     1      15.033   7.308  12.074  1.00  0.00    -0.014 A 
ATOM     77  C   UNL     1      16.341   7.231  11.574  1.00  0.00     0.009 A 
ATOM     78  C   UNL     1      14.812   7.907  13.324  1.00  0.00     0.009 A 
ATOM     79  C   UNL     1      17.411   7.717  12.328  1.00  0.00     0.001 A 
ATOM     80  C   UNL     1      15.880   8.415  14.063  1.00  0.00     0.001 A 
ATOM     81  C   UNL     1      17.179   8.312  13.568  1.00  0.00     0.000 A 
ENDBRANCH  63  76
ENDBRANCH  37  38
ENDBRANCH  29  32
ENDBRANCH  27  28
ENDBRANCH  26  27
ENDBRANCH  25  26
ENDBRANCH   1  25
TORSDOF 15
