REMARK SMILES Cc1ccc(N2C(=O)/C(=C\c3ccccc3O[C@H](C)C(=O)NCCCCNC(=O)c3ccc(-c4c5nc(c(-c6ccccc6)c6ccc([nH]6)c(-c6ccccc6)c6nc(c(-c7ccccc7)c7ccc4[nH]7)C=C6)C=C5)cc3)SC2=S)c(C)c1
REMARK SMILES IDX 23 1 22 2 20 3 21 4 18 6 19 7 17 8 16 9 11 10 12 11 13 12
REMARK SMILES IDX 15 13 14 14 10 15 6 16 7 17 79 18 8 19 9 20 78 21 80 22 5 23
REMARK SMILES IDX 1 24 2 25 3 26 83 27 4 28 81 29 82 30 24 31 25 32 26 33
REMARK SMILES IDX 27 34 28 35 29 37 30 38 31 39 77 40 32 41 76 42 33 43 34 44
REMARK SMILES IDX 35 45 70 46 36 47 75 48 69 49 71 50 37 51 74 52 68 53 67 54
REMARK SMILES IDX 38 56 60 57 45 58 59 59 46 60 49 61 58 62 72 63 47 64 48 65
REMARK SMILES IDX 57 67 73 68 50 69 39 70 40 71 44 72 41 73 43 74 42 75 61 76
REMARK SMILES IDX 62 77 66 78 63 79 65 80 64 81 51 82 52 83 56 84 53 85 55 86
REMARK SMILES IDX 54 87
REMARK H PARENT 22 5 27 36 71 55 49 66
REMARK Flexibility Score: inf
ROOT
ATOM      1  C   UNL     1      -6.237  -2.109  -2.318  1.00  0.00     0.116 C 
ENDROOT
BRANCH   1   2
ATOM      2  N   UNL     1      -5.850  -3.492  -2.092  1.00  0.00    -0.353 N 
ATOM      3  C   UNL     1      -4.598  -4.058  -2.110  1.00  0.00     0.260 C 
ATOM      4  O   UNL     1      -4.501  -5.253  -1.821  1.00  0.00    -0.271 OA
ATOM      5  H   UNL     1      -6.590  -4.112  -1.898  1.00  0.00     0.163 HD
BRANCH   3   6
ATOM      6  C   UNL     1      -3.370  -3.224  -2.522  1.00  0.00     0.258 C 
ATOM      7  C   UNL     1      -3.505  -2.881  -4.002  1.00  0.00     0.064 C 
BRANCH   6   8
ATOM      8  O   UNL     1      -3.385  -2.155  -1.582  1.00  0.00    -0.480 OA
BRANCH   8   9
ATOM      9  C   UNL     1      -2.588  -1.056  -1.601  1.00  0.00     0.127 A 
ATOM     10  C   UNL     1      -2.725  -0.218  -0.470  1.00  0.00     0.018 A 
ATOM     11  C   UNL     1      -2.069   1.017  -0.429  1.00  0.00     0.012 A 
ATOM     12  C   UNL     1      -1.240   1.399  -1.481  1.00  0.00     0.001 A 
ATOM     13  C   UNL     1      -1.712  -0.691  -2.616  1.00  0.00     0.047 A 
ATOM     14  C   UNL     1      -1.048   0.539  -2.561  1.00  0.00     0.004 A 
BRANCH  10  15
ATOM     15  C   UNL     1      -3.538  -0.620   0.692  1.00  0.00     0.033 C 
ATOM     16  N   UNL     1      -2.318  -3.708   2.250  1.00  0.00    -0.261 N 
ATOM     17  C   UNL     1      -2.168  -2.672   1.331  1.00  0.00     0.270 C 
ATOM     18  C   UNL     1      -3.405  -3.627   3.104  1.00  0.00     0.152 C 
ATOM     19  O   UNL     1      -1.259  -2.550   0.519  1.00  0.00    -0.268 OA
ATOM     20  C   UNL     1      -3.299  -1.700   1.455  1.00  0.00     0.081 C 
ATOM     21  S   UNL     1      -4.344  -2.177   2.739  1.00  0.00    -0.054 SA
ATOM     22  S   UNL     1      -3.830  -4.610   4.391  1.00  0.00    -0.051 S 
BRANCH  16  23
ATOM     23  C   UNL     1      -1.399  -4.803   2.217  1.00  0.00     0.054 A 
ATOM     24  C   UNL     1       1.278  -8.159   1.678  1.00  0.00     0.044 C 
ATOM     25  C   UNL     1       0.338  -7.010   1.890  1.00  0.00    -0.051 A 
ATOM     26  C   UNL     1      -1.044  -7.189   1.845  1.00  0.00     0.005 A 
ATOM     27  C   UNL     1       0.847  -5.727   2.120  1.00  0.00     0.009 A 
ATOM     28  C   UNL     1      -1.902  -6.098   2.002  1.00  0.00     0.027 A 
ATOM     29  C   UNL     1      -0.003  -4.619   2.303  1.00  0.00    -0.027 A 
ATOM     30  C   UNL     1       0.653  -3.292   2.580  1.00  0.00     0.046 C 
ENDBRANCH  16  23
ENDBRANCH  10  15
ENDBRANCH   8   9
ENDBRANCH   6   8
ENDBRANCH   3   6
ENDBRANCH   1   2
BRANCH   1  31
ATOM     31  C   UNL     1      -6.942  -1.906  -3.655  1.00  0.00     0.023 C 
BRANCH  31  32
ATOM     32  C   UNL     1      -8.343  -2.506  -3.739  1.00  0.00     0.023 C 
BRANCH  32  33
ATOM     33  C   UNL     1      -9.310  -2.057  -2.649  1.00  0.00     0.116 C 
BRANCH  33  34
ATOM     34  N   UNL     1      -9.471  -0.612  -2.573  1.00  0.00    -0.352 N 
ATOM     35  C   UNL     1     -10.624   0.122  -2.429  1.00  0.00     0.251 C 
ATOM     36  H   UNL     1      -8.639  -0.089  -2.633  1.00  0.00     0.163 HD
ATOM     37  O   UNL     1     -10.594   1.347  -2.480  1.00  0.00    -0.269 OA
BRANCH  35  38
ATOM     38  C   UNL     1     -11.912  -0.580  -2.256  1.00  0.00     0.039 A 
ATOM     39  C   UNL     1     -12.986  -0.232  -3.080  1.00  0.00     0.014 A 
ATOM     40  C   UNL     1     -12.043  -1.608  -1.319  1.00  0.00     0.014 A 
ATOM     41  C   UNL     1     -14.165  -0.977  -3.026  1.00  0.00     0.010 A 
ATOM     42  C   UNL     1     -13.192  -2.391  -1.314  1.00  0.00     0.010 A 
ATOM     43  C   UNL     1     -14.258  -2.091  -2.177  1.00  0.00    -0.014 A 
BRANCH  43  44
ATOM     44  C   UNL     1     -15.448  -2.977  -2.189  1.00  0.00     0.031 A 
ATOM     45  C   UNL     1     -16.314  -3.093  -0.968  1.00  0.00     0.074 A 
ATOM     46  C   UNL     1     -15.694  -3.745  -3.268  1.00  0.00     0.049 A 
ATOM     47  N   UNL     1     -17.324  -3.896  -0.747  1.00  0.00    -0.248 NA
ATOM     48  C   UNL     1     -15.988  -2.208   0.161  1.00  0.00     0.031 C 
ATOM     49  C   UNL     1     -14.910  -3.751  -4.505  1.00  0.00     0.029 A 
ATOM     50  N   UNL     1     -16.670  -4.684  -3.490  1.00  0.00    -0.354 N 
ATOM     51  C   UNL     1     -17.740  -3.628   0.550  1.00  0.00     0.074 A 
ATOM     52  C   UNL     1     -16.850  -2.617   1.081  1.00  0.00     0.031 C 
ATOM     53  C   UNL     1     -15.445  -4.637  -5.361  1.00  0.00     0.029 A 
ATOM     54  C   UNL     1     -16.581  -5.291  -4.720  1.00  0.00     0.049 A 
ATOM     55  H   UNL     1     -17.369  -4.902  -2.831  1.00  0.00     0.167 HD
ATOM     56  C   UNL     1     -18.778  -4.164   1.235  1.00  0.00     0.031 A 
ATOM     57  C   UNL     1     -17.319  -6.276  -5.264  1.00  0.00     0.031 A 
ATOM     58  C   UNL     1     -19.671  -5.159   0.706  1.00  0.00     0.049 A 
ATOM     59  C   UNL     1     -18.448  -6.873  -4.473  1.00  0.00     0.074 A 
ATOM     60  C   UNL     1     -20.788  -5.718   1.302  1.00  0.00     0.029 A 
ATOM     61  N   UNL     1     -19.546  -5.746  -0.543  1.00  0.00    -0.354 N 
ATOM     62  N   UNL     1     -18.864  -6.567  -3.268  1.00  0.00    -0.248 NA
ATOM     63  C   UNL     1     -19.209  -7.953  -5.119  1.00  0.00     0.031 C 
ATOM     64  C   UNL     1     -21.313  -6.678   0.430  1.00  0.00     0.029 A 
ATOM     65  C   UNL     1     -20.549  -6.682  -0.726  1.00  0.00     0.049 A 
ATOM     66  H   UNL     1     -18.847  -5.530  -1.202  1.00  0.00     0.167 HD
ATOM     67  C   UNL     1     -19.946  -7.401  -3.019  1.00  0.00     0.074 A 
ATOM     68  C   UNL     1     -20.133  -8.214  -4.204  1.00  0.00     0.031 C 
ATOM     69  C   UNL     1     -20.716  -7.486  -1.908  1.00  0.00     0.031 A 
BRANCH  56  70
ATOM     70  C   UNL     1     -18.997  -3.684   2.641  1.00  0.00    -0.014 A 
ATOM     71  C   UNL     1     -19.492  -2.397   2.900  1.00  0.00     0.009 A 
ATOM     72  C   UNL     1     -18.734  -4.542   3.720  1.00  0.00     0.009 A 
ATOM     73  C   UNL     1     -19.688  -1.966   4.213  1.00  0.00     0.001 A 
ATOM     74  C   UNL     1     -18.955  -4.117   5.032  1.00  0.00     0.001 A 
ATOM     75  C   UNL     1     -19.424  -2.827   5.277  1.00  0.00     0.000 A 
ENDBRANCH  56  70
BRANCH  57  76
ATOM     76  C   UNL     1     -17.015  -6.766  -6.633  1.00  0.00    -0.014 A 
ATOM     77  C   UNL     1     -17.875  -6.466  -7.700  1.00  0.00     0.009 A 
ATOM     78  C   UNL     1     -15.871  -7.541  -6.878  1.00  0.00     0.009 A 
ATOM     79  C   UNL     1     -17.608  -6.953  -8.981  1.00  0.00     0.001 A 
ATOM     80  C   UNL     1     -15.593  -8.004  -8.166  1.00  0.00     0.001 A 
ATOM     81  C   UNL     1     -16.466  -7.717  -9.214  1.00  0.00     0.000 A 
ENDBRANCH  57  76
BRANCH  69  82
ATOM     82  C   UNL     1     -21.843  -8.479  -1.929  1.00  0.00    -0.014 A 
ATOM     83  C   UNL     1     -21.597  -9.855  -1.807  1.00  0.00     0.009 A 
ATOM     84  C   UNL     1     -23.167  -8.028  -2.032  1.00  0.00     0.009 A 
ATOM     85  C   UNL     1     -22.658 -10.763  -1.814  1.00  0.00     0.001 A 
ATOM     86  C   UNL     1     -24.227  -8.936  -2.014  1.00  0.00     0.001 A 
ATOM     87  C   UNL     1     -23.971 -10.302  -1.912  1.00  0.00     0.000 A 
ENDBRANCH  69  82
ENDBRANCH  43  44
ENDBRANCH  35  38
ENDBRANCH  33  34
ENDBRANCH  32  33
ENDBRANCH  31  32
ENDBRANCH   1  31
TORSDOF 15
