REMARK SMILES CCN(CC(C)(C)O)C(=O)Nc1ccc(C(=O)NCCCCNC(=O)c2ccc(-c3c4nc(c(-c5ccccc5)c5ccc([nH]5)c(-c5ccccc5)c5nc(c(-c6ccccc6)c6ccc3[nH]6)C=C5)C=C4)cc2)c(O)c1
REMARK SMILES IDX 19 1 18 2 16 3 17 4 15 6 12 7 13 8 76 9 14 10 74 11 11 12
REMARK SMILES IDX 9 13 10 14 3 16 2 17 1 18 4 19 5 20 6 21 7 22 8 23 75 25
REMARK SMILES IDX 20 27 21 28 22 29 23 30 24 31 25 33 26 34 27 35 73 36 28 37
REMARK SMILES IDX 72 38 29 39 30 40 31 41 66 42 32 43 71 44 65 45 67 46 33 47
REMARK SMILES IDX 70 48 64 49 63 50 34 52 56 53 41 54 55 55 42 56 45 57 54 58
REMARK SMILES IDX 68 59 43 60 44 61 53 63 69 64 46 65 35 66 36 67 40 68 37 69
REMARK SMILES IDX 39 70 38 71 57 72 58 73 62 74 59 75 61 76 60 77 47 78 48 79
REMARK SMILES IDX 52 80 49 81 51 82 50 83
REMARK H PARENT 18 5 11 15 8 24 75 26 23 32 67 51 45 62
REMARK Flexibility Score: inf
ROOT
ATOM      1  C   UNL     1       0.311   0.531   9.319  1.00  0.00     0.116 C 
ENDROOT
BRANCH   1   2
ATOM      2  N   UNL     1      -0.141  -0.830   9.529  1.00  0.00    -0.352 N 
ATOM      3  C   UNL     1       0.352  -1.965   8.948  1.00  0.00     0.255 C 
ATOM      4  O   UNL     1       0.008  -3.071   9.350  1.00  0.00    -0.269 OA
ATOM      5  H   UNL     1      -0.886  -0.950  10.160  1.00  0.00     0.163 HD
BRANCH   3   6
ATOM      6  C   UNL     1       1.138  -1.838   7.712  1.00  0.00     0.081 A 
ATOM      7  C   UNL     1       2.119  -1.369   5.109  1.00  0.00     0.046 A 
ATOM      8  C   UNL     1       1.057  -2.202   5.364  1.00  0.00     0.027 A 
ATOM      9  C   UNL     1       2.783  -0.846   6.227  1.00  0.00     0.073 A 
ATOM     10  C   UNL     1       0.533  -2.428   6.623  1.00  0.00     0.020 A 
ATOM     11  C   UNL     1       2.313  -1.110   7.525  1.00  0.00     0.130 A 
BRANCH   7  12
ATOM     12  N   UNL     1       2.609  -1.093   3.826  1.00  0.00    -0.308 N 
ATOM     13  C   UNL     1       2.337  -1.264   2.516  1.00  0.00     0.321 C 
ATOM     14  O   UNL     1       3.302  -0.942   1.801  1.00  0.00    -0.248 OA
ATOM     15  H   UNL     1       3.455  -0.597   3.911  1.00  0.00     0.171 HD
BRANCH  13  16
ATOM     16  N   UNL     1       1.163  -1.661   1.930  1.00  0.00    -0.322 N 
BRANCH  16  17
ATOM     17  C   UNL     1       1.126  -1.546   0.460  1.00  0.00     0.118 C 
ATOM     18  C   UNL     1       1.050  -0.090   0.000  1.00  0.00     0.027 C 
ENDBRANCH  16  17
BRANCH  16  19
ATOM     19  C   UNL     1      -0.125  -2.094   2.497  1.00  0.00     0.155 C 
BRANCH  19  20
ATOM     20  C   UNL     1      -0.337  -3.661   2.595  1.00  0.00     0.077 C 
ATOM     21  C   UNL     1       0.913  -4.509   2.924  1.00  0.00     0.043 C 
ATOM     22  C   UNL     1      -1.481  -3.970   3.586  1.00  0.00     0.043 C 
BRANCH  20  23
ATOM     23  O   UNL     1      -0.785  -4.128   1.307  1.00  0.00    -0.389 OA
ATOM     24  H   UNL     1      -0.098  -3.956   0.644  1.00  0.00     0.211 HD
ENDBRANCH  20  23
ENDBRANCH  19  20
ENDBRANCH  16  19
ENDBRANCH  13  16
ENDBRANCH   7  12
BRANCH  11  25
ATOM     25  O   UNL     1       3.058  -0.624   8.562  1.00  0.00    -0.507 OA
ATOM     26  H   UNL     1       2.785  -0.774   9.445  1.00  0.00     0.293 HD
ENDBRANCH  11  25
ENDBRANCH   3   6
ENDBRANCH   1   2
BRANCH   1  27
ATOM     27  C   UNL     1      -0.637   1.605   9.824  1.00  0.00     0.023 C 
BRANCH  27  28
ATOM     28  C   UNL     1      -1.227   1.390  11.213  1.00  0.00     0.023 C 
BRANCH  28  29
ATOM     29  C   UNL     1      -0.309   0.776  12.261  1.00  0.00     0.116 C 
BRANCH  29  30
ATOM     30  N   UNL     1       0.923   1.514  12.481  1.00  0.00    -0.352 N 
ATOM     31  C   UNL     1       1.408   2.069  13.639  1.00  0.00     0.251 C 
ATOM     32  H   UNL     1       1.491   1.634  11.686  1.00  0.00     0.163 HD
ATOM     33  O   UNL     1       2.454   2.712  13.635  1.00  0.00    -0.269 OA
BRANCH  31  34
ATOM     34  C   UNL     1       0.624   1.933  14.879  1.00  0.00     0.039 A 
ATOM     35  C   UNL     1       0.288   3.088  15.584  1.00  0.00     0.014 A 
ATOM     36  C   UNL     1       0.145   0.684  15.282  1.00  0.00     0.014 A 
ATOM     37  C   UNL     1      -0.608   3.002  16.647  1.00  0.00     0.010 A 
ATOM     38  C   UNL     1      -0.827   0.617  16.271  1.00  0.00     0.010 A 
ATOM     39  C   UNL     1      -1.212   1.775  16.965  1.00  0.00    -0.014 A 
BRANCH  39  40
ATOM     40  C   UNL     1      -2.244   1.678  18.024  1.00  0.00     0.031 A 
ATOM     41  C   UNL     1      -1.997   0.819  19.232  1.00  0.00     0.074 A 
ATOM     42  C   UNL     1      -3.424   2.312  17.873  1.00  0.00     0.049 A 
ATOM     43  N   UNL     1      -2.789   0.566  20.242  1.00  0.00    -0.248 NA
ATOM     44  C   UNL     1      -0.699   0.128  19.299  1.00  0.00     0.031 C 
ATOM     45  C   UNL     1      -3.803   3.143  16.727  1.00  0.00     0.029 A 
ATOM     46  N   UNL     1      -4.523   2.357  18.693  1.00  0.00    -0.354 N 
ATOM     47  C   UNL     1      -2.093  -0.324  21.050  1.00  0.00     0.074 A 
ATOM     48  C   UNL     1      -0.847  -0.620  20.380  1.00  0.00     0.031 C 
ATOM     49  C   UNL     1      -5.027   3.653  16.940  1.00  0.00     0.029 A 
ATOM     50  C   UNL     1      -5.536   3.151  18.212  1.00  0.00     0.049 A 
ATOM     51  H   UNL     1      -4.580   1.867  19.545  1.00  0.00     0.167 HD
ATOM     52  C   UNL     1      -2.443  -0.829  22.256  1.00  0.00     0.031 A 
ATOM     53  C   UNL     1      -6.739   3.443  18.740  1.00  0.00     0.031 A 
ATOM     54  C   UNL     1      -3.679  -0.528  22.925  1.00  0.00     0.049 A 
ATOM     55  C   UNL     1      -7.119   2.849  20.067  1.00  0.00     0.074 A 
ATOM     56  C   UNL     1      -4.112  -0.948  24.170  1.00  0.00     0.029 A 
ATOM     57  N   UNL     1      -4.684   0.271  22.399  1.00  0.00    -0.354 N 
ATOM     58  N   UNL     1      -6.424   2.059  20.849  1.00  0.00    -0.248 NA
ATOM     59  C   UNL     1      -8.449   3.196  20.588  1.00  0.00     0.031 C 
ATOM     60  C   UNL     1      -5.401  -0.444  24.375  1.00  0.00     0.029 A 
ATOM     61  C   UNL     1      -5.746   0.338  23.284  1.00  0.00     0.049 A 
ATOM     62  H   UNL     1      -4.647   0.723  21.525  1.00  0.00     0.167 HD
ATOM     63  C   UNL     1      -7.217   1.840  21.968  1.00  0.00     0.074 A 
ATOM     64  C   UNL     1      -8.440   2.591  21.767  1.00  0.00     0.031 C 
ATOM     65  C   UNL     1      -6.956   1.088  23.065  1.00  0.00     0.031 A 
BRANCH  52  66
ATOM     66  C   UNL     1      -1.467  -1.764  22.915  1.00  0.00    -0.014 A 
ATOM     67  C   UNL     1      -0.225  -1.305  23.386  1.00  0.00     0.009 A 
ATOM     68  C   UNL     1      -1.788  -3.121  23.062  1.00  0.00     0.009 A 
ATOM     69  C   UNL     1       0.695  -2.196  23.942  1.00  0.00     0.001 A 
ATOM     70  C   UNL     1      -0.879  -4.004  23.650  1.00  0.00     0.001 A 
ATOM     71  C   UNL     1       0.366  -3.543  24.076  1.00  0.00     0.000 A 
ENDBRANCH  52  66
BRANCH  53  72
ATOM     72  C   UNL     1      -7.658   4.373  18.032  1.00  0.00    -0.014 A 
ATOM     73  C   UNL     1      -7.896   5.657  18.546  1.00  0.00     0.009 A 
ATOM     74  C   UNL     1      -8.301   3.987  16.846  1.00  0.00     0.009 A 
ATOM     75  C   UNL     1      -8.776   6.528  17.899  1.00  0.00     0.001 A 
ATOM     76  C   UNL     1      -9.160   4.870  16.187  1.00  0.00     0.001 A 
ATOM     77  C   UNL     1      -9.403   6.135  16.718  1.00  0.00     0.000 A 
ENDBRANCH  53  72
BRANCH  65  78
ATOM     78  C   UNL     1      -7.997   1.070  24.148  1.00  0.00    -0.014 A 
ATOM     79  C   UNL     1      -9.212   0.389  23.983  1.00  0.00     0.009 A 
ATOM     80  C   UNL     1      -7.737   1.714  25.369  1.00  0.00     0.009 A 
ATOM     81  C   UNL     1     -10.161   0.382  25.008  1.00  0.00     0.001 A 
ATOM     82  C   UNL     1      -8.674   1.679  26.402  1.00  0.00     0.001 A 
ATOM     83  C   UNL     1      -9.889   1.021  26.217  1.00  0.00     0.000 A 
ENDBRANCH  65  78
ENDBRANCH  39  40
ENDBRANCH  31  34
ENDBRANCH  29  30
ENDBRANCH  28  29
ENDBRANCH  27  28
ENDBRANCH   1  27
TORSDOF 18
