REMARK SMILES O=C(C[N@H+]1CCCC[C@H]1C(=O)NCCCCNC(=O)c1ccc(-c2c3nc(c(-c4ccccc4)c4ccc([nH]4)c(-c4ccccc4)c4nc(c(-c5ccccc5)c5ccc2[nH]5)C=C4)C=C3)cc1)NC1CCCCC1
REMARK SMILES IDX 14 1 13 2 12 3 10 4 11 5 9 7 4 8 5 9 6 11 8 12 7 13 3 14
REMARK SMILES IDX 2 15 1 16 68 17 69 19 70 20 74 21 71 22 73 23 72 24 15 25
REMARK SMILES IDX 16 26 17 27 18 28 19 30 20 31 21 32 67 33 22 34 66 35 23 36
REMARK SMILES IDX 24 37 25 38 60 39 26 40 65 41 59 42 61 43 27 44 64 45 58 46
REMARK SMILES IDX 57 47 28 49 50 50 35 51 49 52 36 53 39 54 48 55 62 56 37 57
REMARK SMILES IDX 38 58 47 60 63 61 40 62 29 63 30 64 34 65 31 66 33 67 32 68
REMARK SMILES IDX 51 69 52 70 56 71 53 72 55 73 54 74 41 75 42 76 46 77 43 78
REMARK SMILES IDX 45 79 44 80
REMARK H PARENT 12 6 4 10 68 18 17 29 61 48 39 59
REMARK Flexibility Score: inf
ROOT
ATOM      1  C   UNL     1       9.328   0.745   1.478  1.00  0.00     0.023 C 
ENDROOT
BRANCH   1   2
ATOM      2  C   UNL     1       8.129   1.639   1.156  1.00  0.00     0.116 C 
BRANCH   2   3
ATOM      3  N   UNL     1       7.248   0.993   0.205  1.00  0.00    -0.351 N 
ATOM      4  C   UNL     1       6.054   0.364   0.407  1.00  0.00     0.278 C 
ATOM      5  O   UNL     1       5.547  -0.184  -0.579  1.00  0.00    -0.268 OA
ATOM      6  H   UNL     1       7.558   1.010  -0.730  1.00  0.00     0.163 HD
BRANCH   4   7
ATOM      7  C   UNL     1       5.354   0.452   1.798  1.00  0.00     0.274 C 
ATOM      8  N   UNL     1       3.940   0.002   1.747  1.00  0.00    -0.317 N 
ATOM      9  C   UNL     1       3.787  -1.452   1.621  1.00  0.00     0.263 C 
ATOM     10  H   UNL     1       3.534   0.176   2.667  1.00  0.00     0.349 HD
ATOM     11  C   UNL     1       4.542  -2.226   2.700  1.00  0.00     0.062 C 
ATOM     12  C   UNL     1       6.092  -0.305   2.914  1.00  0.00     0.076 C 
ATOM     13  C   UNL     1       6.003  -1.814   2.744  1.00  0.00     0.012 C 
BRANCH   8  14
ATOM     14  C   UNL     1       3.115   0.836   0.834  1.00  0.00     0.364 C 
BRANCH  14  15
ATOM     15  C   UNL     1       2.109   0.049  -0.014  1.00  0.00     0.275 C 
ATOM     16  O   UNL     1       0.919   0.009   0.284  1.00  0.00    -0.268 OA
ATOM     17  N   UNL     1       2.682  -0.599  -1.094  1.00  0.00    -0.348 N 
ATOM     18  H   UNL     1       3.594  -0.323  -1.341  1.00  0.00     0.163 HD
BRANCH  17  19
ATOM     19  C   UNL     1       2.072  -1.653  -1.907  1.00  0.00     0.082 C 
ATOM     20  C   UNL     1       2.571  -3.030  -1.438  1.00  0.00     0.025 C 
ATOM     21  C   UNL     1       0.540  -1.629  -1.986  1.00  0.00     0.025 C 
ATOM     22  C   UNL     1       2.002  -4.173  -2.276  1.00  0.00     0.002 C 
ATOM     23  C   UNL     1      -0.007  -2.767  -2.844  1.00  0.00     0.002 C 
ATOM     24  C   UNL     1       0.480  -4.121  -2.334  1.00  0.00     0.000 C 
ENDBRANCH  17  19
ENDBRANCH  14  15
ENDBRANCH   8  14
ENDBRANCH   4   7
ENDBRANCH   2   3
ENDBRANCH   1   2
BRANCH   1  25
ATOM     25  C   UNL     1      10.231   0.444   0.280  1.00  0.00     0.023 C 
BRANCH  25  26
ATOM     26  C   UNL     1      10.770   1.671  -0.441  1.00  0.00     0.116 C 
BRANCH  26  27
ATOM     27  N   UNL     1      11.547   2.535   0.432  1.00  0.00    -0.352 N 
ATOM     28  C   UNL     1      12.769   3.117   0.205  1.00  0.00     0.251 C 
ATOM     29  H   UNL     1      11.141   2.730   1.308  1.00  0.00     0.163 HD
ATOM     30  O   UNL     1      13.357   3.695   1.115  1.00  0.00    -0.269 OA
BRANCH  28  31
ATOM     31  C   UNL     1      13.389   3.016  -1.132  1.00  0.00     0.039 A 
ATOM     32  C   UNL     1      14.739   2.670  -1.223  1.00  0.00     0.014 A 
ATOM     33  C   UNL     1      12.640   3.245  -2.290  1.00  0.00     0.014 A 
ATOM     34  C   UNL     1      15.322   2.493  -2.478  1.00  0.00     0.010 A 
ATOM     35  C   UNL     1      13.201   2.989  -3.538  1.00  0.00     0.010 A 
ATOM     36  C   UNL     1      14.549   2.615  -3.645  1.00  0.00    -0.014 A 
BRANCH  36  37
ATOM     37  C   UNL     1      15.138   2.353  -4.982  1.00  0.00     0.031 A 
ATOM     38  C   UNL     1      15.229   3.454  -6.002  1.00  0.00     0.074 A 
ATOM     39  C   UNL     1      15.548   1.108  -5.295  1.00  0.00     0.049 A 
ATOM     40  N   UNL     1      15.693   3.408  -7.226  1.00  0.00    -0.248 NA
ATOM     41  C   UNL     1      14.711   4.773  -5.606  1.00  0.00     0.031 C 
ATOM     42  C   UNL     1      15.476  -0.057  -4.410  1.00  0.00     0.029 A 
ATOM     43  N   UNL     1      16.111   0.615  -6.446  1.00  0.00    -0.354 N 
ATOM     44  C   UNL     1      15.512   4.683  -7.746  1.00  0.00     0.074 A 
ATOM     45  C   UNL     1      14.845   5.465  -6.728  1.00  0.00     0.031 C 
ATOM     46  C   UNL     1      16.007  -1.119  -5.037  1.00  0.00     0.029 A 
ATOM     47  C   UNL     1      16.417  -0.722  -6.380  1.00  0.00     0.049 A 
ATOM     48  H   UNL     1      16.278   1.168  -7.243  1.00  0.00     0.167 HD
ATOM     49  C   UNL     1      15.888   5.169  -8.953  1.00  0.00     0.031 A 
ATOM     50  C   UNL     1      16.964  -1.540  -7.299  1.00  0.00     0.031 A 
ATOM     51  C   UNL     1      16.554   4.393  -9.965  1.00  0.00     0.049 A 
ATOM     52  C   UNL     1      17.348  -0.983  -8.642  1.00  0.00     0.074 A 
ATOM     53  C   UNL     1      17.023   4.808 -11.199  1.00  0.00     0.029 A 
ATOM     54  N   UNL     1      16.839   3.040  -9.862  1.00  0.00    -0.354 N 
ATOM     55  N   UNL     1      17.241   0.245  -9.089  1.00  0.00    -0.248 NA
ATOM     56  C   UNL     1      17.940  -1.924  -9.603  1.00  0.00     0.031 C 
ATOM     57  C   UNL     1      17.537   3.692 -11.868  1.00  0.00     0.029 A 
ATOM     58  C   UNL     1      17.449   2.597 -11.024  1.00  0.00     0.049 A 
ATOM     59  H   UNL     1      16.638   2.478  -9.080  1.00  0.00     0.167 HD
ATOM     60  C   UNL     1      17.777   0.230 -10.370  1.00  0.00     0.074 A 
ATOM     61  C   UNL     1      18.227  -1.124 -10.620  1.00  0.00     0.031 C 
ATOM     62  C   UNL     1      17.887   1.246 -11.261  1.00  0.00     0.031 A 
BRANCH  49  63
ATOM     63  C   UNL     1      15.575   6.611  -9.248  1.00  0.00    -0.014 A 
ATOM     64  C   UNL     1      16.230   7.653  -8.572  1.00  0.00     0.009 A 
ATOM     65  C   UNL     1      14.636   6.933 -10.241  1.00  0.00     0.009 A 
ATOM     66  C   UNL     1      15.924   8.985  -8.856  1.00  0.00     0.001 A 
ATOM     67  C   UNL     1      14.356   8.266 -10.546  1.00  0.00     0.001 A 
ATOM     68  C   UNL     1      14.991   9.291  -9.846  1.00  0.00     0.000 A 
ENDBRANCH  49  63
BRANCH  50  69
ATOM     69  C   UNL     1      17.195  -2.974  -6.980  1.00  0.00    -0.014 A 
ATOM     70  C   UNL     1      18.499  -3.474  -6.842  1.00  0.00     0.009 A 
ATOM     71  C   UNL     1      16.113  -3.855  -6.825  1.00  0.00     0.009 A 
ATOM     72  C   UNL     1      18.715  -4.831  -6.587  1.00  0.00     0.001 A 
ATOM     73  C   UNL     1      16.330  -5.204  -6.537  1.00  0.00     0.001 A 
ATOM     74  C   UNL     1      17.631  -5.693  -6.430  1.00  0.00     0.000 A 
ENDBRANCH  50  69
BRANCH  62  75
ATOM     75  C   UNL     1      18.549   0.939 -12.576  1.00  0.00    -0.014 A 
ATOM     76  C   UNL     1      17.921   0.140 -13.543  1.00  0.00     0.009 A 
ATOM     77  C   UNL     1      19.808   1.491 -12.864  1.00  0.00     0.009 A 
ATOM     78  C   UNL     1      18.557  -0.131 -14.757  1.00  0.00     0.001 A 
ATOM     79  C   UNL     1      20.426   1.246 -14.091  1.00  0.00     0.001 A 
ATOM     80  C   UNL     1      19.805   0.427 -15.031  1.00  0.00     0.000 A 
ENDBRANCH  62  75
ENDBRANCH  36  37
ENDBRANCH  28  31
ENDBRANCH  26  27
ENDBRANCH  25  26
ENDBRANCH   1  25
TORSDOF 14
