REMARK SMILES CCN(CCC(=O)NCCCCNC(=O)c1ccc(-c2c3nc(c(-c4ccccc4)c4ccc([nH]4)c(-c4ccccc4)c4nc(c(-c5ccccc5)c5ccc2[nH]5)C=C4)C=C3)cc1)C(=O)N(C)CCc1cccs1
REMARK SMILES IDX 6 1 7 2 8 3 5 5 4 6 3 7 2 8 1 9 64 10 65 11 66 12 67 13
REMARK SMILES IDX 68 14 69 15 70 16 71 17 74 18 72 19 73 20 9 21 10 22 11 23
REMARK SMILES IDX 12 24 13 25 14 26 15 28 16 29 17 30 63 31 18 32 62 33 19 34
REMARK SMILES IDX 20 35 21 36 56 37 22 38 61 39 55 40 57 41 23 42 60 43 54 44
REMARK SMILES IDX 53 45 24 47 46 48 31 49 45 50 32 51 35 52 44 53 58 54 33 55
REMARK SMILES IDX 34 56 43 58 59 59 36 60 25 61 26 62 30 63 27 64 29 65 28 66
REMARK SMILES IDX 47 67 48 68 52 69 49 70 51 71 50 72 37 73 38 74 42 75 39 76
REMARK SMILES IDX 41 77 40 78
REMARK H PARENT 8 4 13 27 57 46 35 57
REMARK Flexibility Score: inf
ROOT
ATOM      1  C   UNL     1       0.856  -4.408   1.892  1.00  0.00     0.221 C 
ATOM      2  O   UNL     1       1.093  -5.484   2.451  1.00  0.00    -0.275 OA
ATOM      3  N   UNL     1       1.837  -3.842   1.136  1.00  0.00    -0.356 N 
ATOM      4  H   UNL     1       2.641  -4.409   1.115  1.00  0.00     0.163 HD
ENDROOT
BRANCH   1   5
ATOM      5  C   UNL     1      -0.474  -3.757   2.045  1.00  0.00     0.121 C 
BRANCH   5   6
ATOM      6  C   UNL     1      -0.427  -2.682   3.105  1.00  0.00     0.131 C 
BRANCH   6   7
ATOM      7  N   UNL     1       0.437  -1.554   2.757  1.00  0.00    -0.324 N 
BRANCH   7   8
ATOM      8  C   UNL     1      -0.257  -0.569   1.875  1.00  0.00     0.118 C 
ATOM      9  C   UNL     1       0.439   0.621   1.232  1.00  0.00     0.027 C 
ENDBRANCH   7   8
BRANCH   7  10
ATOM     10  C   UNL     1       1.788  -1.475   3.184  1.00  0.00     0.319 C 
ATOM     11  O   UNL     1       2.375  -0.401   3.311  1.00  0.00    -0.248 OA
BRANCH  10  12
ATOM     12  N   UNL     1       2.425  -2.727   3.514  1.00  0.00    -0.327 N 
ATOM     13  C   UNL     1       2.311  -2.865   4.970  1.00  0.00     0.148 C 
BRANCH  12  14
ATOM     14  C   UNL     1       3.839  -3.192   3.011  1.00  0.00     0.126 C 
BRANCH  14  15
ATOM     15  C   UNL     1       4.560  -4.139   1.754  1.00  0.00     0.068 C 
BRANCH  15  16
ATOM     16  C   UNL     1       4.352  -4.497   0.162  1.00  0.00     0.006 A 
ATOM     17  C   UNL     1       4.231  -5.769  -0.420  1.00  0.00     0.015 A 
ATOM     18  S   UNL     1       4.480  -3.454  -1.198  1.00  0.00    -0.149 S 
ATOM     19  C   UNL     1       3.957  -5.775  -1.845  1.00  0.00     0.012 A 
ATOM     20  C   UNL     1       3.910  -4.511  -2.363  1.00  0.00     0.065 A 
ENDBRANCH  15  16
ENDBRANCH  14  15
ENDBRANCH  12  14
ENDBRANCH  10  12
ENDBRANCH   7  10
ENDBRANCH   6   7
ENDBRANCH   5   6
ENDBRANCH   1   5
BRANCH   3  21
ATOM     21  C   UNL     1       2.030  -2.603   0.331  1.00  0.00     0.116 C 
BRANCH  21  22
ATOM     22  C   UNL     1       3.185  -1.401   0.475  1.00  0.00     0.023 C 
BRANCH  22  23
ATOM     23  C   UNL     1       4.701  -1.053   0.884  1.00  0.00     0.023 C 
BRANCH  23  24
ATOM     24  C   UNL     1       6.030  -1.319   0.136  1.00  0.00     0.116 C 
BRANCH  24  25
ATOM     25  N   UNL     1       6.003  -0.977  -1.276  1.00  0.00    -0.352 N 
ATOM     26  C   UNL     1       6.862  -1.387  -2.269  1.00  0.00     0.251 C 
ATOM     27  H   UNL     1       5.277  -0.376  -1.558  1.00  0.00     0.163 HD
ATOM     28  O   UNL     1       6.585  -1.211  -3.457  1.00  0.00    -0.269 OA
BRANCH  26  29
ATOM     29  C   UNL     1       8.179  -1.938  -1.907  1.00  0.00     0.039 A 
ATOM     30  C   UNL     1       9.284  -1.152  -2.234  1.00  0.00     0.014 A 
ATOM     31  C   UNL     1       8.338  -3.141  -1.212  1.00  0.00     0.014 A 
ATOM     32  C   UNL     1      10.541  -1.506  -1.762  1.00  0.00     0.010 A 
ATOM     33  C   UNL     1       9.589  -3.465  -0.688  1.00  0.00     0.010 A 
ATOM     34  C   UNL     1      10.688  -2.629  -0.934  1.00  0.00    -0.014 A 
BRANCH  34  35
ATOM     35  C   UNL     1      11.998  -2.883  -0.295  1.00  0.00     0.031 A 
ATOM     36  C   UNL     1      12.823  -4.059  -0.718  1.00  0.00     0.074 A 
ATOM     37  C   UNL     1      12.429  -2.029   0.654  1.00  0.00     0.049 A 
ATOM     38  N   UNL     1      14.014  -4.415  -0.315  1.00  0.00    -0.248 NA
ATOM     39  C   UNL     1      12.222  -4.965  -1.709  1.00  0.00     0.031 C 
ATOM     40  C   UNL     1      11.671  -0.879   1.161  1.00  0.00     0.029 A 
ATOM     41  N   UNL     1      13.609  -1.976   1.349  1.00  0.00    -0.354 N 
ATOM     42  C   UNL     1      14.305  -5.585  -1.003  1.00  0.00     0.074 A 
ATOM     43  C   UNL     1      13.143  -5.913  -1.798  1.00  0.00     0.031 C 
ATOM     44  C   UNL     1      12.423  -0.212   2.051  1.00  0.00     0.029 A 
ATOM     45  C   UNL     1      13.698  -0.901   2.201  1.00  0.00     0.049 A 
ATOM     46  H   UNL     1      14.324  -2.645   1.247  1.00  0.00     0.167 HD
ATOM     47  C   UNL     1      15.453  -6.303  -0.992  1.00  0.00     0.031 A 
ATOM     48  C   UNL     1      14.707  -0.513   3.003  1.00  0.00     0.031 A 
ATOM     49  C   UNL     1      16.597  -5.956  -0.194  1.00  0.00     0.049 A 
ATOM     50  C   UNL     1      15.975  -1.321   2.987  1.00  0.00     0.074 A 
ATOM     51  C   UNL     1      17.819  -6.597  -0.102  1.00  0.00     0.029 A 
ATOM     52  N   UNL     1      16.655  -4.855   0.651  1.00  0.00    -0.354 N 
ATOM     53  N   UNL     1      16.255  -2.400   2.295  1.00  0.00    -0.248 NA
ATOM     54  C   UNL     1      17.072  -0.851   3.842  1.00  0.00     0.031 C 
ATOM     55  C   UNL     1      18.605  -5.901   0.823  1.00  0.00     0.029 A 
ATOM     56  C   UNL     1      17.890  -4.799   1.270  1.00  0.00     0.049 A 
ATOM     57  H   UNL     1      15.925  -4.209   0.788  1.00  0.00     0.167 HD
ATOM     58  C   UNL     1      17.564  -2.729   2.615  1.00  0.00     0.074 A 
ATOM     59  C   UNL     1      18.030  -1.717   3.544  1.00  0.00     0.031 C 
ATOM     60  C   UNL     1      18.315  -3.774   2.189  1.00  0.00     0.031 A 
BRANCH  47  61
ATOM     61  C   UNL     1      15.506  -7.522  -1.870  1.00  0.00    -0.014 A 
ATOM     62  C   UNL     1      15.521  -7.405  -3.270  1.00  0.00     0.009 A 
ATOM     63  C   UNL     1      15.527  -8.803  -1.298  1.00  0.00     0.009 A 
ATOM     64  C   UNL     1      15.506  -8.544  -4.078  1.00  0.00     0.001 A 
ATOM     65  C   UNL     1      15.544  -9.941  -2.109  1.00  0.00     0.001 A 
ATOM     66  C   UNL     1      15.520  -9.811  -3.497  1.00  0.00     0.000 A 
ENDBRANCH  47  61
BRANCH  48  67
ATOM     67  C   UNL     1      14.568   0.695   3.862  1.00  0.00    -0.014 A 
ATOM     68  C   UNL     1      15.320   1.853   3.608  1.00  0.00     0.009 A 
ATOM     69  C   UNL     1      13.676   0.698   4.947  1.00  0.00     0.009 A 
ATOM     70  C   UNL     1      15.206   2.972   4.439  1.00  0.00     0.001 A 
ATOM     71  C   UNL     1      13.541   1.828   5.757  1.00  0.00     0.001 A 
ATOM     72  C   UNL     1      14.314   2.960   5.510  1.00  0.00     0.000 A 
ENDBRANCH  48  67
BRANCH  60  73
ATOM     73  C   UNL     1      19.720  -3.852   2.708  1.00  0.00    -0.014 A 
ATOM     74  C   UNL     1      19.983  -4.232   4.033  1.00  0.00     0.009 A 
ATOM     75  C   UNL     1      20.794  -3.588   1.845  1.00  0.00     0.009 A 
ATOM     76  C   UNL     1      21.298  -4.316   4.492  1.00  0.00     0.001 A 
ATOM     77  C   UNL     1      22.108  -3.702   2.298  1.00  0.00     0.001 A 
ATOM     78  C   UNL     1      22.358  -4.057   3.623  1.00  0.00     0.000 A 
ENDBRANCH  60  73
ENDBRANCH  34  35
ENDBRANCH  26  29
ENDBRANCH  24  25
ENDBRANCH  23  24
ENDBRANCH  22  23
ENDBRANCH  21  22
ENDBRANCH   3  21
TORSDOF 19
