REMARK SMILES C[N@H+]1CCO[C@@H](CNS(=O)(=O)N2CCC(C(=O)NCCCCNC(=O)c3ccc(-c4c5nc(c(-c6ccccc6)c6ccc([nH]6)c(-c6ccccc6)c6nc(c(-c7ccccc7)c7ccc4[nH]7)C=C6)C=C5)cc3)CC2)C1
REMARK SMILES IDX 19 1 18 2 16 3 17 4 15 6 12 7 13 8 75 9 14 10 74 11 9 12
REMARK SMILES IDX 10 13 11 14 8 15 7 17 6 18 1 19 2 20 3 21 76 22 4 24 5 25
REMARK SMILES IDX 20 26 21 27 22 28 23 29 24 30 25 32 26 33 27 34 73 35 28 36
REMARK SMILES IDX 72 37 29 38 30 39 31 40 66 41 32 42 71 43 65 44 67 45 33 46
REMARK SMILES IDX 70 47 64 48 63 49 34 51 56 52 41 53 55 54 42 55 45 56 54 57
REMARK SMILES IDX 68 58 43 59 44 60 53 62 69 63 46 64 35 65 36 66 40 67 37 68
REMARK SMILES IDX 39 69 38 70 57 71 58 72 62 73 59 74 61 75 60 76 47 77 48 78
REMARK SMILES IDX 52 79 49 80 51 81 50 82
REMARK H PARENT 18 5 8 16 2 23 23 31 67 50 45 61
REMARK Flexibility Score: inf
ROOT
ATOM      1  C   UNL     1       2.108   0.261  -4.574  1.00  0.00     0.116 C 
ENDROOT
BRANCH   1   2
ATOM      2  N   UNL     1       1.678   1.093  -5.676  1.00  0.00    -0.356 N 
ATOM      3  C   UNL     1       0.460   1.146  -6.285  1.00  0.00     0.223 C 
ATOM      4  O   UNL     1       0.305   1.973  -7.187  1.00  0.00    -0.275 OA
ATOM      5  H   UNL     1       2.359   1.706  -6.035  1.00  0.00     0.163 HD
BRANCH   3   6
ATOM      6  C   UNL     1      -0.700   0.247  -5.854  1.00  0.00     0.081 C 
ATOM      7  N   UNL     1      -1.714  -1.754  -3.974  1.00  0.00    -0.189 NA
ATOM      8  C   UNL     1      -2.229  -0.371  -3.945  1.00  0.00     0.104 C 
ATOM      9  C   UNL     1      -1.444  -2.164  -5.380  1.00  0.00     0.104 C 
ATOM     10  C   UNL     1      -1.208   0.627  -4.457  1.00  0.00     0.030 C 
ATOM     11  C   UNL     1      -0.419  -1.253  -6.051  1.00  0.00     0.030 C 
BRANCH   7  12
ATOM     12  S   UNL     1      -0.688  -2.381  -2.799  1.00  0.00     0.279 S 
ATOM     13  O   UNL     1       0.443  -1.505  -2.608  1.00  0.00    -0.195 OA
ATOM     14  O   UNL     1      -0.478  -3.781  -3.070  1.00  0.00    -0.195 OA
BRANCH  12  15
ATOM     15  N   UNL     1      -1.568  -2.323  -1.373  1.00  0.00    -0.199 NA
ATOM     16  H   UNL     1      -2.472  -2.761  -1.553  1.00  0.00     0.142 HD
BRANCH  15  17
ATOM     17  C   UNL     1      -1.829  -0.992  -0.787  1.00  0.00     0.138 C 
BRANCH  17  18
ATOM     18  C   UNL     1      -1.811  -0.917   0.744  1.00  0.00     0.188 C 
ATOM     19  C   UNL     1       1.323  -0.029   0.192  1.00  0.00     0.332 C 
ATOM     20  N   UNL     1       0.533  -0.085   1.413  1.00  0.00    -0.333 N 
ATOM     21  C   UNL     1      -0.115   1.197   1.738  1.00  0.00     0.290 C 
ATOM     22  C   UNL     1      -0.457  -1.174   1.441  1.00  0.00     0.295 C 
ATOM     23  H   UNL     1       1.221  -0.290   2.138  1.00  0.00     0.348 HD
ATOM     24  C   UNL     1      -1.428   1.440   0.980  1.00  0.00     0.222 C 
ATOM     25  O   UNL     1      -2.354   0.358   1.164  1.00  0.00    -0.365 OA
ENDBRANCH  17  18
ENDBRANCH  15  17
ENDBRANCH  12  15
ENDBRANCH   7  12
ENDBRANCH   3   6
ENDBRANCH   1   2
BRANCH   1  26
ATOM     26  C   UNL     1       3.192  -0.735  -4.959  1.00  0.00     0.023 C 
BRANCH  26  27
ATOM     27  C   UNL     1       4.569  -0.111  -5.127  1.00  0.00     0.023 C 
BRANCH  27  28
ATOM     28  C   UNL     1       5.074   0.637  -3.901  1.00  0.00     0.116 C 
BRANCH  28  29
ATOM     29  N   UNL     1       5.215  -0.210  -2.724  1.00  0.00    -0.352 N 
ATOM     30  C   UNL     1       6.287  -0.299  -1.866  1.00  0.00     0.251 C 
ATOM     31  H   UNL     1       4.447  -0.790  -2.516  1.00  0.00     0.163 HD
ATOM     32  O   UNL     1       6.326  -1.151  -0.987  1.00  0.00    -0.269 OA
BRANCH  30  33
ATOM     33  C   UNL     1       7.415   0.636  -2.048  1.00  0.00     0.039 A 
ATOM     34  C   UNL     1       8.713   0.128  -2.137  1.00  0.00     0.014 A 
ATOM     35  C   UNL     1       7.172   2.001  -2.216  1.00  0.00     0.014 A 
ATOM     36  C   UNL     1       9.762   0.987  -2.469  1.00  0.00     0.010 A 
ATOM     37  C   UNL     1       8.199   2.831  -2.644  1.00  0.00     0.010 A 
ATOM     38  C   UNL     1       9.506   2.336  -2.767  1.00  0.00    -0.014 A 
BRANCH  38  39
ATOM     39  C   UNL     1      10.589   3.256  -3.195  1.00  0.00     0.031 A 
ATOM     40  C   UNL     1      10.920   4.461  -2.358  1.00  0.00     0.074 A 
ATOM     41  C   UNL     1      11.222   3.054  -4.366  1.00  0.00     0.049 A 
ATOM     42  N   UNL     1      11.786   5.415  -2.589  1.00  0.00    -0.248 NA
ATOM     43  C   UNL     1      10.155   4.632  -1.113  1.00  0.00     0.031 C 
ATOM     44  C   UNL     1      10.973   1.942  -5.287  1.00  0.00     0.029 A 
ATOM     45  N   UNL     1      12.208   3.782  -4.984  1.00  0.00    -0.354 N 
ATOM     46  C   UNL     1      11.648   6.308  -1.534  1.00  0.00     0.074 A 
ATOM     47  C   UNL     1      10.577   5.815  -0.698  1.00  0.00     0.031 C 
ATOM     48  C   UNL     1      11.815   2.039  -6.329  1.00  0.00     0.029 A 
ATOM     49  C   UNL     1      12.626   3.243  -6.176  1.00  0.00     0.049 A 
ATOM     50  H   UNL     1      12.581   4.611  -4.607  1.00  0.00     0.167 HD
ATOM     51  C   UNL     1      12.362   7.428  -1.270  1.00  0.00     0.031 A 
ATOM     52  C   UNL     1      13.556   3.672  -7.051  1.00  0.00     0.031 A 
ATOM     53  C   UNL     1      13.429   7.916  -2.102  1.00  0.00     0.049 A 
ATOM     54  C   UNL     1      14.311   4.938  -6.758  1.00  0.00     0.074 A 
ATOM     55  C   UNL     1      14.256   9.005  -1.892  1.00  0.00     0.029 A 
ATOM     56  N   UNL     1      13.809   7.351  -3.310  1.00  0.00    -0.354 N 
ATOM     57  N   UNL     1      14.223   5.733  -5.718  1.00  0.00    -0.248 NA
ATOM     58  C   UNL     1      15.302   5.361  -7.757  1.00  0.00     0.031 C 
ATOM     59  C   UNL     1      15.088   9.141  -3.008  1.00  0.00     0.029 A 
ATOM     60  C   UNL     1      14.833   8.091  -3.877  1.00  0.00     0.049 A 
ATOM     61  H   UNL     1      13.410   6.543  -3.706  1.00  0.00     0.167 HD
ATOM     62  C   UNL     1      15.171   6.728  -5.920  1.00  0.00     0.074 A 
ATOM     63  C   UNL     1      15.828   6.431  -7.177  1.00  0.00     0.031 C 
ATOM     64  C   UNL     1      15.475   7.788  -5.131  1.00  0.00     0.031 A 
BRANCH  51  65
ATOM     65  C   UNL     1      11.981   8.214  -0.043  1.00  0.00    -0.014 A 
ATOM     66  C   UNL     1      12.155   7.691   1.249  1.00  0.00     0.009 A 
ATOM     67  C   UNL     1      11.435   9.499  -0.184  1.00  0.00     0.009 A 
ATOM     68  C   UNL     1      11.735   8.413   2.369  1.00  0.00     0.001 A 
ATOM     69  C   UNL     1      11.052  10.235   0.939  1.00  0.00     0.001 A 
ATOM     70  C   UNL     1      11.187   9.685   2.213  1.00  0.00     0.000 A 
ENDBRANCH  51  65
BRANCH  52  71
ATOM     71  C   UNL     1      13.850   2.875  -8.271  1.00  0.00    -0.014 A 
ATOM     72  C   UNL     1      15.069   2.190  -8.391  1.00  0.00     0.009 A 
ATOM     73  C   UNL     1      12.916   2.783  -9.315  1.00  0.00     0.009 A 
ATOM     74  C   UNL     1      15.355   1.447  -9.538  1.00  0.00     0.001 A 
ATOM     75  C   UNL     1      13.193   2.014 -10.448  1.00  0.00     0.001 A 
ATOM     76  C   UNL     1      14.415   1.354 -10.562  1.00  0.00     0.000 A 
ENDBRANCH  52  71
BRANCH  64  77
ATOM     77  C   UNL     1      16.598   8.684  -5.577  1.00  0.00    -0.014 A 
ATOM     78  C   UNL     1      16.465   9.536  -6.684  1.00  0.00     0.009 A 
ATOM     79  C   UNL     1      17.795   8.709  -4.842  1.00  0.00     0.009 A 
ATOM     80  C   UNL     1      17.520  10.370  -7.064  1.00  0.00     0.001 A 
ATOM     81  C   UNL     1      18.833   9.568  -5.203  1.00  0.00     0.001 A 
ATOM     82  C   UNL     1      18.699  10.390  -6.320  1.00  0.00     0.000 A 
ENDBRANCH  64  77
ENDBRANCH  38  39
ENDBRANCH  30  33
ENDBRANCH  28  29
ENDBRANCH  27  28
ENDBRANCH  26  27
ENDBRANCH   1  26
TORSDOF 15
