REMARK SMILES C[NH2+]C[C@H](C)C(=O)NC[C@](C)(O)C(=O)NCCCCNC(=O)c1ccc(-c2c3nc(c(-c4ccccc4)c4ccc([nH]4)c(-c4ccccc4)c4nc(c(-c5ccccc5)c5ccc2[nH]5)C=C4)C=C3)cc1
REMARK SMILES IDX 16 1 15 2 13 3 14 4 10 6 11 7 9 8 8 9 6 10 7 11 4 13 5 14
REMARK SMILES IDX 3 15 2 16 1 17 12 20 17 22 18 23 19 24 20 25 21 26 22 28
REMARK SMILES IDX 23 29 24 30 70 31 25 32 69 33 26 34 27 35 28 36 63 37 29 38
REMARK SMILES IDX 68 39 62 40 64 41 30 42 67 43 61 44 60 45 31 47 53 48 38 49
REMARK SMILES IDX 52 50 39 51 42 52 51 53 65 54 40 55 41 56 50 58 66 59 43 60
REMARK SMILES IDX 32 61 33 62 37 63 34 64 36 65 35 66 54 67 55 68 59 69 56 70
REMARK SMILES IDX 58 71 57 72 44 73 45 74 49 75 46 76 48 77 47 78
REMARK H PARENT 15 5 8 12 2 18 2 19 12 21 20 27 64 46 42 57
REMARK Flexibility Score: inf
ROOT
ATOM      1  C   UNL     1      -3.030  -6.047   1.161  1.00  0.00     0.116 C 
ENDROOT
BRANCH   1   2
ATOM      2  N   UNL     1      -2.542  -4.682   1.148  1.00  0.00    -0.354 N 
ATOM      3  C   UNL     1      -2.672  -3.719   0.186  1.00  0.00     0.253 C 
ATOM      4  O   UNL     1      -2.360  -2.571   0.524  1.00  0.00    -0.272 OA
ATOM      5  H   UNL     1      -2.042  -4.409   1.950  1.00  0.00     0.163 HD
BRANCH   3   6
ATOM      6  C   UNL     1      -3.243  -4.023  -1.241  1.00  0.00     0.157 C 
ATOM      7  C   UNL     1      -2.729  -2.929  -2.207  1.00  0.00     0.055 C 
BRANCH   6   8
ATOM      8  C   UNL     1      -4.791  -3.963  -1.238  1.00  0.00     0.160 C 
BRANCH   8   9
ATOM      9  N   UNL     1      -5.403  -5.075  -0.531  1.00  0.00    -0.352 N 
ATOM     10  C   UNL     1      -6.232  -5.111   0.541  1.00  0.00     0.228 C 
ATOM     11  O   UNL     1      -6.446  -6.214   1.054  1.00  0.00    -0.275 OA
ATOM     12  H   UNL     1      -5.175  -5.961  -0.895  1.00  0.00     0.163 HD
BRANCH  10  13
ATOM     13  C   UNL     1      -6.913  -3.866   1.086  1.00  0.00     0.130 C 
ATOM     14  C   UNL     1      -5.936  -2.850   1.677  1.00  0.00     0.024 C 
BRANCH  13  15
ATOM     15  C   UNL     1      -7.886  -3.241   0.070  1.00  0.00     0.273 C 
BRANCH  15  16
ATOM     16  N   UNL     1      -8.727  -4.175  -0.690  1.00  0.00    -0.348 N 
ATOM     17  C   UNL     1      -9.636  -4.942   0.153  1.00  0.00     0.330 C 
ATOM     18  H   UNL     1      -9.280  -3.641  -1.361  1.00  0.00     0.346 HD
ATOM     19  H   UNL     1      -8.105  -4.839  -1.150  1.00  0.00     0.346 HD
ENDBRANCH  15  16
ENDBRANCH  13  15
ENDBRANCH  10  13
ENDBRANCH   8   9
ENDBRANCH   6   8
BRANCH   6  20
ATOM     20  O   UNL     1      -2.846  -5.288  -1.781  1.00  0.00    -0.378 OA
ATOM     21  H   UNL     1      -1.878  -5.346  -1.791  1.00  0.00     0.212 HD
ENDBRANCH   6  20
ENDBRANCH   3   6
ENDBRANCH   1   2
BRANCH   1  22
ATOM     22  C   UNL     1      -2.167  -7.013   1.960  1.00  0.00     0.023 C 
BRANCH  22  23
ATOM     23  C   UNL     1      -2.138  -6.763   3.468  1.00  0.00     0.023 C 
BRANCH  23  24
ATOM     24  C   UNL     1      -3.497  -6.677   4.160  1.00  0.00     0.116 C 
BRANCH  24  25
ATOM     25  N   UNL     1      -4.293  -7.889   4.030  1.00  0.00    -0.352 N 
ATOM     26  C   UNL     1      -4.766  -8.740   4.998  1.00  0.00     0.251 C 
ATOM     27  H   UNL     1      -4.528  -8.136   3.106  1.00  0.00     0.163 HD
ATOM     28  O   UNL     1      -5.290  -9.808   4.682  1.00  0.00    -0.269 OA
BRANCH  26  29
ATOM     29  C   UNL     1      -4.631  -8.394   6.430  1.00  0.00     0.039 A 
ATOM     30  C   UNL     1      -4.229  -9.382   7.332  1.00  0.00     0.014 A 
ATOM     31  C   UNL     1      -4.910  -7.105   6.889  1.00  0.00     0.014 A 
ATOM     32  C   UNL     1      -4.040  -9.058   8.678  1.00  0.00     0.010 A 
ATOM     33  C   UNL     1      -4.631  -6.760   8.209  1.00  0.00     0.010 A 
ATOM     34  C   UNL     1      -4.202  -7.734   9.122  1.00  0.00    -0.014 A 
BRANCH  34  35
ATOM     35  C   UNL     1      -3.935  -7.362  10.537  1.00  0.00     0.031 A 
ATOM     36  C   UNL     1      -5.040  -6.819  11.405  1.00  0.00     0.074 A 
ATOM     37  C   UNL     1      -2.687  -7.474  11.034  1.00  0.00     0.049 A 
ATOM     38  N   UNL     1      -4.994  -6.441  12.658  1.00  0.00    -0.248 NA
ATOM     39  C   UNL     1      -6.361  -6.657  10.778  1.00  0.00     0.031 C 
ATOM     40  C   UNL     1      -1.515  -7.939  10.288  1.00  0.00     0.029 A 
ATOM     41  N   UNL     1      -2.197  -7.209  12.289  1.00  0.00    -0.354 N 
ATOM     42  C   UNL     1      -6.272  -5.986  12.961  1.00  0.00     0.074 A 
ATOM     43  C   UNL     1      -7.052  -6.076  11.748  1.00  0.00     0.031 C 
ATOM     44  C   UNL     1      -0.453  -7.966  11.110  1.00  0.00     0.029 A 
ATOM     45  C   UNL     1      -0.857  -7.483  12.426  1.00  0.00     0.049 A 
ATOM     46  H   UNL     1      -2.752  -6.855  13.020  1.00  0.00     0.167 HD
ATOM     47  C   UNL     1      -6.763  -5.555  14.148  1.00  0.00     0.031 A 
ATOM     48  C   UNL     1      -0.044  -7.362  13.493  1.00  0.00     0.031 A 
ATOM     49  C   UNL     1      -5.991  -5.468  15.360  1.00  0.00     0.049 A 
ATOM     50  C   UNL     1      -0.610  -6.869  14.796  1.00  0.00     0.074 A 
ATOM     51  C   UNL     1      -6.411  -5.096  16.625  1.00  0.00     0.029 A 
ATOM     52  N   UNL     1      -4.638  -5.754  15.456  1.00  0.00    -0.354 N 
ATOM     53  N   UNL     1      -1.839  -6.518  15.085  1.00  0.00    -0.248 NA
ATOM     54  C   UNL     1       0.326  -6.772  15.926  1.00  0.00     0.031 C 
ATOM     55  C   UNL     1      -5.299  -5.098  17.473  1.00  0.00     0.029 A 
ATOM     56  C   UNL     1      -4.201  -5.540  16.753  1.00  0.00     0.049 A 
ATOM     57  H   UNL     1      -4.071  -6.063  14.712  1.00  0.00     0.167 HD
ATOM     58  C   UNL     1      -1.832  -6.189  16.435  1.00  0.00     0.074 A 
ATOM     59  C   UNL     1      -0.481  -6.404  16.911  1.00  0.00     0.031 C 
ATOM     60  C   UNL     1      -2.853  -5.752  17.212  1.00  0.00     0.031 A 
BRANCH  47  61
ATOM     61  C   UNL     1      -8.208  -5.137  14.189  1.00  0.00    -0.014 A 
ATOM     62  C   UNL     1      -9.244  -6.074  14.037  1.00  0.00     0.009 A 
ATOM     63  C   UNL     1      -8.541  -3.792  14.414  1.00  0.00     0.009 A 
ATOM     64  C   UNL     1     -10.579  -5.667  14.068  1.00  0.00     0.001 A 
ATOM     65  C   UNL     1      -9.878  -3.393  14.477  1.00  0.00     0.001 A 
ATOM     66  C   UNL     1     -10.895  -4.328  14.293  1.00  0.00     0.000 A 
ENDBRANCH  47  61
BRANCH  48  67
ATOM     67  C   UNL     1       1.392  -7.734  13.385  1.00  0.00    -0.014 A 
ATOM     68  C   UNL     1       1.892  -8.858  14.062  1.00  0.00     0.009 A 
ATOM     69  C   UNL     1       2.276  -6.960  12.617  1.00  0.00     0.009 A 
ATOM     70  C   UNL     1       3.250  -9.178  14.000  1.00  0.00     0.001 A 
ATOM     71  C   UNL     1       3.627  -7.301  12.529  1.00  0.00     0.001 A 
ATOM     72  C   UNL     1       4.115  -8.402  13.230  1.00  0.00     0.000 A 
ENDBRANCH  48  67
BRANCH  60  73
ATOM     73  C   UNL     1      -2.555  -5.514  18.668  1.00  0.00    -0.014 A 
ATOM     74  C   UNL     1      -1.740  -4.451  19.087  1.00  0.00     0.009 A 
ATOM     75  C   UNL     1      -3.121  -6.358  19.637  1.00  0.00     0.009 A 
ATOM     76  C   UNL     1      -1.461  -4.267  20.443  1.00  0.00     0.001 A 
ATOM     77  C   UNL     1      -2.870  -6.150  20.994  1.00  0.00     0.001 A 
ATOM     78  C   UNL     1      -2.030  -5.113  21.395  1.00  0.00     0.000 A 
ENDBRANCH  60  73
ENDBRANCH  34  35
ENDBRANCH  26  29
ENDBRANCH  24  25
ENDBRANCH  23  24
ENDBRANCH  22  23
ENDBRANCH   1  22
TORSDOF 17
