REMARK SMILES Cc1cccc(CC(=O)N2CCC3(CCC(=O)N([C@H](C)C(=O)NCCCCNC(=O)c4ccc(-c5c6nc(c(-c7ccccc7)c7ccc([nH]7)c(-c7ccccc7)c7nc(c(-c8ccccc8)c8ccc5[nH]8)C=C7)C=C6)cc4)C3)CC2)c1
REMARK SMILES IDX 25 1 24 2 23 3 21 4 22 5 19 7 20 8 18 9 8 10 9 11 10 12
REMARK SMILES IDX 11 13 81 14 12 15 80 16 13 17 14 18 79 19 15 20 16 21 17 22
REMARK SMILES IDX 7 23 6 24 1 25 2 26 3 27 82 28 4 29 5 30 26 31 27 32 28 33
REMARK SMILES IDX 29 34 30 36 31 37 32 38 78 39 33 40 77 41 34 42 35 43 36 44
REMARK SMILES IDX 71 45 37 46 76 47 70 48 72 49 38 50 75 51 69 52 68 53 39 55
REMARK SMILES IDX 61 56 46 57 60 58 47 59 50 60 59 61 73 62 48 63 49 64 58 66
REMARK SMILES IDX 74 67 51 68 40 69 41 70 45 71 42 72 44 73 43 74 62 75 63 76
REMARK SMILES IDX 67 77 64 78 66 79 65 80 52 81 53 82 57 83 54 84 56 85 55 86
REMARK H PARENT 23 6 28 35 72 54 50 65
REMARK Flexibility Score: inf
ROOT
ATOM      1  C   UNL     1      -2.170   4.037  -8.344  1.00  0.00     0.023 C 
ENDROOT
BRANCH   1   2
ATOM      2  C   UNL     1      -1.366   5.323  -8.506  1.00  0.00     0.116 C 
BRANCH   2   3
ATOM      3  N   UNL     1      -1.677   6.343  -7.517  1.00  0.00    -0.354 N 
ATOM      4  C   UNL     1      -0.835   7.107  -6.756  1.00  0.00     0.242 C 
ATOM      5  O   UNL     1      -1.316   8.096  -6.190  1.00  0.00    -0.273 OA
ATOM      6  H   UNL     1      -2.637   6.508  -7.373  1.00  0.00     0.163 HD
BRANCH   4   7
ATOM      7  C   UNL     1       0.660   6.743  -6.563  1.00  0.00     0.171 C 
ATOM      8  C   UNL     1       0.857   5.302  -6.084  1.00  0.00     0.042 C 
BRANCH   7   9
ATOM      9  N   UNL     1       1.623   7.114  -7.618  1.00  0.00    -0.330 N 
ATOM     10  C   UNL     1       7.890   5.254  -6.990  1.00  0.00     0.226 C 
ATOM     11  O   UNL     1       8.098   4.052  -6.781  1.00  0.00    -0.275 OA
ATOM     12  N   UNL     1       6.756   5.662  -7.680  1.00  0.00    -0.342 N 
ATOM     13  C   UNL     1       5.626   4.745  -7.809  1.00  0.00     0.120 C 
ATOM     14  C   UNL     1       6.585   6.910  -8.407  1.00  0.00     0.120 C 
ATOM     15  C   UNL     1       4.333   5.435  -7.345  1.00  0.00     0.030 C 
ATOM     16  C   UNL     1       5.390   7.667  -7.852  1.00  0.00     0.030 C 
ATOM     17  C   UNL     1       4.094   6.831  -7.992  1.00  0.00    -0.008 C 
ATOM     18  C   UNL     1       3.738   6.732  -9.497  1.00  0.00     0.019 C 
ATOM     19  C   UNL     1       2.956   7.569  -7.249  1.00  0.00     0.127 C 
ATOM     20  C   UNL     1       2.334   6.230  -9.746  1.00  0.00     0.101 C 
ATOM     21  C   UNL     1       1.319   7.016  -8.962  1.00  0.00     0.223 C 
ATOM     22  O   UNL     1       0.267   7.382  -9.472  1.00  0.00    -0.275 OA
BRANCH  10  23
ATOM     23  C   UNL     1       8.772   6.277  -6.272  1.00  0.00     0.135 C 
BRANCH  23  24
ATOM     24  C   UNL     1       9.337   7.430  -7.058  1.00  0.00    -0.038 A 
ATOM     25  C   UNL     1       8.841  11.211  -7.247  1.00  0.00     0.044 C 
ATOM     26  C   UNL     1       9.338   9.825  -7.535  1.00  0.00    -0.051 A 
ATOM     27  C   UNL     1      10.156   9.586  -8.645  1.00  0.00     0.003 A 
ATOM     28  C   UNL     1       8.955   8.745  -6.731  1.00  0.00     0.007 A 
ATOM     29  C   UNL     1      10.585   8.291  -8.944  1.00  0.00     0.001 A 
ATOM     30  C   UNL     1      10.180   7.215  -8.154  1.00  0.00     0.004 A 
ENDBRANCH  23  24
ENDBRANCH  10  23
ENDBRANCH   7   9
ENDBRANCH   4   7
ENDBRANCH   2   3
ENDBRANCH   1   2
BRANCH   1  31
ATOM     31  C   UNL     1      -3.679   4.191  -8.518  1.00  0.00     0.023 C 
BRANCH  31  32
ATOM     32  C   UNL     1      -4.123   4.719  -9.876  1.00  0.00     0.116 C 
BRANCH  32  33
ATOM     33  N   UNL     1      -4.109   3.747 -10.957  1.00  0.00    -0.352 N 
ATOM     34  C   UNL     1      -4.375   3.911 -12.309  1.00  0.00     0.251 C 
ATOM     35  H   UNL     1      -3.874   2.830 -10.687  1.00  0.00     0.163 HD
ATOM     36  O   UNL     1      -4.416   2.926 -13.029  1.00  0.00    -0.269 OA
BRANCH  34  37
ATOM     37  C   UNL     1      -4.460   5.272 -12.914  1.00  0.00     0.039 A 
ATOM     38  C   UNL     1      -3.944   5.441 -14.208  1.00  0.00     0.014 A 
ATOM     39  C   UNL     1      -4.826   6.393 -12.178  1.00  0.00     0.014 A 
ATOM     40  C   UNL     1      -3.538   6.705 -14.631  1.00  0.00     0.010 A 
ATOM     41  C   UNL     1      -4.318   7.623 -12.536  1.00  0.00     0.010 A 
ATOM     42  C   UNL     1      -3.610   7.761 -13.730  1.00  0.00    -0.014 A 
BRANCH  42  43
ATOM     43  C   UNL     1      -2.868   9.004 -13.875  1.00  0.00     0.031 A 
ATOM     44  C   UNL     1      -3.566  10.262 -14.183  1.00  0.00     0.074 A 
ATOM     45  C   UNL     1      -1.555   9.010 -13.556  1.00  0.00     0.049 A 
ATOM     46  N   UNL     1      -2.989  11.319 -14.643  1.00  0.00    -0.248 NA
ATOM     47  C   UNL     1      -5.010  10.411 -14.039  1.00  0.00     0.031 C 
ATOM     48  C   UNL     1      -0.698  10.163 -13.292  1.00  0.00     0.029 A 
ATOM     49  N   UNL     1      -0.669   7.927 -13.616  1.00  0.00    -0.354 N 
ATOM     50  C   UNL     1      -3.892  12.352 -14.546  1.00  0.00     0.074 A 
ATOM     51  C   UNL     1      -5.159  11.717 -14.271  1.00  0.00     0.031 C 
ATOM     52  C   UNL     1       0.580   9.803 -13.497  1.00  0.00     0.029 A 
ATOM     53  C   UNL     1       0.556   8.465 -14.063  1.00  0.00     0.049 A 
ATOM     54  H   UNL     1      -0.860   6.988 -13.392  1.00  0.00     0.167 HD
ATOM     55  C   UNL     1      -3.434  13.636 -14.555  1.00  0.00     0.031 A 
ATOM     56  C   UNL     1       1.065   8.135 -15.287  1.00  0.00     0.031 A 
ATOM     57  C   UNL     1      -1.997  13.694 -14.828  1.00  0.00     0.049 A 
ATOM     58  C   UNL     1       1.275   9.318 -16.208  1.00  0.00     0.074 A 
ATOM     59  C   UNL     1      -0.884  13.902 -14.028  1.00  0.00     0.029 A 
ATOM     60  N   UNL     1      -1.521  13.214 -16.042  1.00  0.00    -0.354 N 
ATOM     61  N   UNL     1       0.696  10.478 -16.061  1.00  0.00    -0.248 NA
ATOM     62  C   UNL     1       2.130   9.272 -17.390  1.00  0.00     0.031 C 
ATOM     63  C   UNL     1       0.265  13.494 -14.758  1.00  0.00     0.029 A 
ATOM     64  C   UNL     1      -0.148  13.065 -16.006  1.00  0.00     0.049 A 
ATOM     65  H   UNL     1      -2.085  13.009 -16.822  1.00  0.00     0.167 HD
ATOM     66  C   UNL     1       1.064  11.315 -17.085  1.00  0.00     0.074 A 
ATOM     67  C   UNL     1       1.977  10.515 -17.881  1.00  0.00     0.031 C 
ATOM     68  C   UNL     1       0.564  12.583 -17.186  1.00  0.00     0.031 A 
BRANCH  55  69
ATOM     69  C   UNL     1      -4.231  14.813 -14.037  1.00  0.00    -0.014 A 
ATOM     70  C   UNL     1      -3.555  15.959 -13.576  1.00  0.00     0.009 A 
ATOM     71  C   UNL     1      -5.630  14.842 -13.910  1.00  0.00     0.009 A 
ATOM     72  C   UNL     1      -4.224  17.018 -12.945  1.00  0.00     0.001 A 
ATOM     73  C   UNL     1      -6.305  15.881 -13.253  1.00  0.00     0.001 A 
ATOM     74  C   UNL     1      -5.599  16.966 -12.759  1.00  0.00     0.000 A 
ENDBRANCH  55  69
BRANCH  56  75
ATOM     75  C   UNL     1       0.692   6.766 -15.747  1.00  0.00    -0.014 A 
ATOM     76  C   UNL     1       1.119   5.659 -14.982  1.00  0.00     0.009 A 
ATOM     77  C   UNL     1      -0.332   6.573 -16.684  1.00  0.00     0.009 A 
ATOM     78  C   UNL     1       0.456   4.431 -15.063  1.00  0.00     0.001 A 
ATOM     79  C   UNL     1      -0.980   5.333 -16.777  1.00  0.00     0.001 A 
ATOM     80  C   UNL     1      -0.612   4.278 -15.942  1.00  0.00     0.000 A 
ENDBRANCH  56  75
BRANCH  68  81
ATOM     81  C   UNL     1       0.701  13.537 -18.358  1.00  0.00    -0.014 A 
ATOM     82  C   UNL     1       1.188  13.200 -19.625  1.00  0.00     0.009 A 
ATOM     83  C   UNL     1       0.207  14.858 -18.217  1.00  0.00     0.009 A 
ATOM     84  C   UNL     1       1.206  14.128 -20.679  1.00  0.00     0.001 A 
ATOM     85  C   UNL     1       0.179  15.773 -19.273  1.00  0.00     0.001 A 
ATOM     86  C   UNL     1       0.690  15.409 -20.507  1.00  0.00     0.000 A 
ENDBRANCH  68  81
ENDBRANCH  42  43
ENDBRANCH  34  37
ENDBRANCH  32  33
ENDBRANCH  31  32
ENDBRANCH   1  31
TORSDOF 14
