REMARK SMILES Cc1ccc(NC(=O)c2cnn3c2NC2=C(C(=O)CCC2)[C@H]3c2ccc(C(=O)NCCCCNC(=O)c3ccc(-c4c5nc(c(-c6ccccc6)c6ccc([nH]6)c(-c6ccccc6)c6nc(c(-c7ccccc7)c7ccc4[nH]7)C=C6)C=C5)cc3)cc2)cc1
REMARK SMILES IDX 31 1 30 2 29 3 27 4 28 5 26 7 23 8 24 9 86 10 25 11 85 12
REMARK SMILES IDX 22 13 9 14 10 15 13 16 11 17 12 18 14 19 15 20 16 22 21 23
REMARK SMILES IDX 17 24 20 25 18 26 19 27 7 28 6 29 8 31 5 32 1 33 2 34 3 35
REMARK SMILES IDX 88 36 4 37 87 38 32 39 33 40 34 41 35 42 36 44 37 45 38 46
REMARK SMILES IDX 84 47 39 48 83 49 40 50 41 51 42 52 77 53 43 54 82 55 76 56
REMARK SMILES IDX 78 57 44 58 81 59 75 60 74 61 45 63 67 64 52 65 66 66 53 67
REMARK SMILES IDX 56 68 65 69 79 70 54 71 55 72 64 74 80 75 57 76 46 77 47 78
REMARK SMILES IDX 51 79 48 80 50 81 49 82 68 83 69 84 73 85 70 86 72 87 71 88
REMARK SMILES IDX 58 89 59 90 63 91 60 92 62 93 61 94
REMARK H PARENT 29 6 14 21 6 30 34 43 78 62 56 73
REMARK Flexibility Score: inf
ROOT
ATOM      1  C   UNL     1      -0.115  -2.038  -6.189  1.00  0.00     0.023 C 
ENDROOT
BRANCH   1   2
ATOM      2  C   UNL     1      -1.448  -2.751  -6.474  1.00  0.00     0.116 C 
BRANCH   2   3
ATOM      3  N   UNL     1      -1.277  -4.103  -6.987  1.00  0.00    -0.352 N 
ATOM      4  C   UNL     1      -1.286  -5.352  -6.412  1.00  0.00     0.251 C 
ATOM      5  O   UNL     1      -1.259  -6.313  -7.183  1.00  0.00    -0.269 OA
ATOM      6  H   UNL     1      -1.121  -4.128  -7.958  1.00  0.00     0.163 HD
BRANCH   4   7
ATOM      7  C   UNL     1      -1.361  -5.619  -4.943  1.00  0.00     0.039 A 
ATOM      8  C   UNL     1      -1.802  -6.207  -2.186  1.00  0.00    -0.019 A 
ATOM      9  C   UNL     1      -2.003  -7.188  -3.168  1.00  0.00     0.007 A 
ATOM     10  C   UNL     1      -1.174  -5.021  -2.598  1.00  0.00     0.007 A 
ATOM     11  C   UNL     1      -1.793  -6.891  -4.527  1.00  0.00     0.014 A 
ATOM     12  C   UNL     1      -0.995  -4.716  -3.953  1.00  0.00     0.014 A 
BRANCH   8  13
ATOM     13  C   UNL     1      -2.431  -6.337  -0.759  1.00  0.00     0.175 C 
ATOM     14  C   UNL     1      -3.490  -2.956  -0.271  1.00  0.00     0.102 A 
ATOM     15  C   UNL     1      -2.582  -3.192   0.806  1.00  0.00     0.151 A 
ATOM     16  C   UNL     1      -3.735  -4.223  -0.754  1.00  0.00     0.142 A 
ATOM     17  N   UNL     1      -2.071  -4.428   0.807  1.00  0.00    -0.178 NA
ATOM     18  N   UNL     1      -2.712  -4.996  -0.226  1.00  0.00    -0.237 N 
ATOM     19  N   UNL     1      -4.639  -4.847  -1.575  1.00  0.00    -0.343 N 
ATOM     20  C   UNL     1      -4.792  -6.243  -1.475  1.00  0.00     0.026 C 
ATOM     21  H   UNL     1      -5.170  -4.329  -2.222  1.00  0.00     0.168 HD
ATOM     22  C   UNL     1      -3.816  -6.943  -0.844  1.00  0.00     0.044 C 
ATOM     23  C   UNL     1      -6.130  -6.885  -1.714  1.00  0.00     0.055 C 
ATOM     24  C   UNL     1      -4.323  -7.705   0.331  1.00  0.00     0.163 C 
ATOM     25  C   UNL     1      -6.684  -7.553  -0.452  1.00  0.00     0.014 C 
ATOM     26  O   UNL     1      -3.566  -8.393   1.006  1.00  0.00    -0.294 OA
ATOM     27  C   UNL     1      -5.757  -7.404   0.749  1.00  0.00     0.081 C 
BRANCH  14  28
ATOM     28  C   UNL     1      -4.077  -1.709  -0.705  1.00  0.00     0.261 C 
ATOM     29  N   UNL     1      -3.327  -0.545  -0.640  1.00  0.00    -0.322 N 
ATOM     30  H   UNL     1      -3.863   0.281  -0.660  1.00  0.00     0.170 HD
ATOM     31  O   UNL     1      -5.240  -1.647  -1.103  1.00  0.00    -0.269 OA
BRANCH  29  32
ATOM     32  C   UNL     1      -1.934  -0.328  -0.550  1.00  0.00     0.041 A 
ATOM     33  C   UNL     1       2.289   0.413   0.044  1.00  0.00     0.044 C 
ATOM     34  C   UNL     1       0.829   0.187  -0.211  1.00  0.00    -0.051 A 
ATOM     35  C   UNL     1       0.390  -1.052  -0.674  1.00  0.00     0.005 A 
ATOM     36  C   UNL     1      -0.121   1.182   0.042  1.00  0.00     0.005 A 
ATOM     37  C   UNL     1      -0.973  -1.286  -0.876  1.00  0.00     0.026 A 
ATOM     38  C   UNL     1      -1.490   0.929  -0.135  1.00  0.00     0.026 A 
ENDBRANCH  29  32
ENDBRANCH  14  28
ENDBRANCH   8  13
ENDBRANCH   4   7
ENDBRANCH   2   3
ENDBRANCH   1   2
BRANCH   1  39
ATOM     39  C   UNL     1       0.774  -1.793  -7.410  1.00  0.00     0.023 C 
BRANCH  39  40
ATOM     40  C   UNL     1       0.297  -0.674  -8.323  1.00  0.00     0.116 C 
BRANCH  40  41
ATOM     41  N   UNL     1       0.722   0.665  -7.926  1.00  0.00    -0.352 N 
ATOM     42  C   UNL     1       0.325   1.894  -8.443  1.00  0.00     0.251 C 
ATOM     43  H   UNL     1       1.377   0.703  -7.192  1.00  0.00     0.163 HD
ATOM     44  O   UNL     1       0.777   2.931  -8.007  1.00  0.00    -0.269 OA
BRANCH  42  45
ATOM     45  C   UNL     1      -0.766   1.915  -9.452  1.00  0.00     0.039 A 
ATOM     46  C   UNL     1      -1.873   2.729  -9.195  1.00  0.00     0.014 A 
ATOM     47  C   UNL     1      -0.804   0.973 -10.477  1.00  0.00     0.014 A 
ATOM     48  C   UNL     1      -3.097   2.406  -9.773  1.00  0.00     0.010 A 
ATOM     49  C   UNL     1      -2.033   0.591 -10.978  1.00  0.00     0.010 A 
ATOM     50  C   UNL     1      -3.188   1.256 -10.560  1.00  0.00    -0.014 A 
BRANCH  50  51
ATOM     51  C   UNL     1      -4.459   0.605 -10.854  1.00  0.00     0.031 A 
ATOM     52  C   UNL     1      -5.080   0.737 -12.188  1.00  0.00     0.074 A 
ATOM     53  C   UNL     1      -5.090  -0.114  -9.898  1.00  0.00     0.049 A 
ATOM     54  N   UNL     1      -6.354   0.717 -12.398  1.00  0.00    -0.248 NA
ATOM     55  C   UNL     1      -4.297   0.949 -13.400  1.00  0.00     0.031 C 
ATOM     56  C   UNL     1      -6.258  -0.977 -10.064  1.00  0.00     0.029 A 
ATOM     57  N   UNL     1      -4.908  -0.120  -8.527  1.00  0.00    -0.354 N 
ATOM     58  C   UNL     1      -6.545   0.614 -13.756  1.00  0.00     0.074 A 
ATOM     59  C   UNL     1      -5.245   0.857 -14.339  1.00  0.00     0.031 C 
ATOM     60  C   UNL     1      -6.837  -1.158  -8.864  1.00  0.00     0.029 A 
ATOM     61  C   UNL     1      -6.145  -0.302  -7.915  1.00  0.00     0.049 A 
ATOM     62  H   UNL     1      -4.047  -0.014  -8.062  1.00  0.00     0.167 HD
ATOM     63  C   UNL     1      -7.745   0.184 -14.241  1.00  0.00     0.031 A 
ATOM     64  C   UNL     1      -6.750   0.636  -7.127  1.00  0.00     0.031 A 
ATOM     65  C   UNL     1      -8.709  -0.069 -13.173  1.00  0.00     0.049 A 
ATOM     66  C   UNL     1      -8.098   1.094  -7.662  1.00  0.00     0.074 A 
ATOM     67  C   UNL     1      -9.122  -1.232 -12.542  1.00  0.00     0.029 A 
ATOM     68  N   UNL     1      -9.180   0.987 -12.404  1.00  0.00    -0.354 N 
ATOM     69  N   UNL     1      -8.505   0.881  -8.883  1.00  0.00    -0.248 NA
ATOM     70  C   UNL     1      -9.064   1.879  -6.891  1.00  0.00     0.031 C 
ATOM     71  C   UNL     1      -9.785  -0.867 -11.342  1.00  0.00     0.029 A 
ATOM     72  C   UNL     1      -9.800   0.514 -11.263  1.00  0.00     0.049 A 
ATOM     73  H   UNL     1      -9.085   1.938 -12.638  1.00  0.00     0.167 HD
ATOM     74  C   UNL     1      -9.721   1.478  -9.079  1.00  0.00     0.074 A 
ATOM     75  C   UNL     1     -10.039   2.079  -7.797  1.00  0.00     0.031 C 
ATOM     76  C   UNL     1     -10.353   1.442 -10.288  1.00  0.00     0.031 A 
BRANCH  63  77
ATOM     77  C   UNL     1      -7.934  -0.304 -15.658  1.00  0.00    -0.014 A 
ATOM     78  C   UNL     1      -8.902  -1.290 -15.931  1.00  0.00     0.009 A 
ATOM     79  C   UNL     1      -7.165   0.121 -16.754  1.00  0.00     0.009 A 
ATOM     80  C   UNL     1      -9.015  -1.894 -17.190  1.00  0.00     0.001 A 
ATOM     81  C   UNL     1      -7.242  -0.507 -18.005  1.00  0.00     0.001 A 
ATOM     82  C   UNL     1      -8.159  -1.526 -18.220  1.00  0.00     0.000 A 
ENDBRANCH  63  77
BRANCH  64  83
ATOM     83  C   UNL     1      -5.806   1.518  -6.388  1.00  0.00    -0.014 A 
ATOM     84  C   UNL     1      -5.005   0.945  -5.379  1.00  0.00     0.009 A 
ATOM     85  C   UNL     1      -5.449   2.775  -6.894  1.00  0.00     0.009 A 
ATOM     86  C   UNL     1      -3.812   1.555  -4.980  1.00  0.00     0.001 A 
ATOM     87  C   UNL     1      -4.261   3.389  -6.480  1.00  0.00     0.001 A 
ATOM     88  C   UNL     1      -3.425   2.762  -5.555  1.00  0.00     0.000 A 
ENDBRANCH  64  83
BRANCH  76  89
ATOM     89  C   UNL     1     -11.585   2.222 -10.670  1.00  0.00    -0.014 A 
ATOM     90  C   UNL     1     -11.953   3.444 -10.092  1.00  0.00     0.009 A 
ATOM     91  C   UNL     1     -12.350   1.784 -11.775  1.00  0.00     0.009 A 
ATOM     92  C   UNL     1     -13.052   4.171 -10.571  1.00  0.00     0.001 A 
ATOM     93  C   UNL     1     -13.418   2.526 -12.281  1.00  0.00     0.001 A 
ATOM     94  C   UNL     1     -13.776   3.718 -11.671  1.00  0.00     0.000 A 
ENDBRANCH  76  89
ENDBRANCH  50  51
ENDBRANCH  42  45
ENDBRANCH  40  41
ENDBRANCH  39  40
ENDBRANCH   1  39
TORSDOF 14
