REMARK SMILES O=C(NCCCCNC(=O)[C@]1(NC(=O)C2CCN(C(=O)C3CC3)CC2)CCCc2ccccc21)c1ccc(-c2c3nc(c(-c4ccccc4)c4ccc([nH]4)c(-c4ccccc4)c4nc(c(-c5ccccc5)c5ccc2[nH]5)C=C4)C=C3)cc1
REMARK SMILES IDX 6 1 5 2 4 3 3 4 1 5 2 6 35 8 36 9 82 10 37 11 81 12 38 13
REMARK SMILES IDX 39 14 40 15 75 16 41 17 80 18 74 19 76 20 42 21 79 22 73 23
REMARK SMILES IDX 72 24 43 26 65 27 50 28 64 29 51 30 54 31 63 32 77 33 52 34
REMARK SMILES IDX 53 35 62 37 78 38 55 39 44 40 45 41 49 42 46 43 48 44 47 45
REMARK SMILES IDX 66 46 67 47 71 48 68 49 70 50 69 51 56 52 57 53 61 54 58 55
REMARK SMILES IDX 60 56 59 57 7 58 8 59 9 60 10 62 11 63 26 64 34 65 27 66
REMARK SMILES IDX 29 67 33 68 28 69 30 70 32 71 31 72 12 73 13 74 14 76 15 77
REMARK SMILES IDX 16 78 25 79 17 80 24 81 18 82 19 83 20 84 21 85 22 86 23 87
REMARK H PARENT 3 7 76 25 54 36 8 61 12 75
REMARK Flexibility Score: inf
ROOT
ATOM      1  C   UNL     1       4.184   3.760  -0.842  1.00  0.00     0.023 C 
ENDROOT
BRANCH   1   2
ATOM      2  C   UNL     1       4.658   2.400  -1.353  1.00  0.00     0.023 C 
BRANCH   2   3
ATOM      3  C   UNL     1       4.398   1.227  -0.413  1.00  0.00     0.116 C 
BRANCH   3   4
ATOM      4  N   UNL     1       2.990   1.041  -0.102  1.00  0.00    -0.352 N 
ATOM      5  O   UNL     1       1.051  -0.116   0.032  1.00  0.00    -0.269 OA
ATOM      6  C   UNL     1       2.262  -0.127  -0.131  1.00  0.00     0.251 C 
ATOM      7  H   UNL     1       2.496   1.851   0.161  1.00  0.00     0.163 HD
BRANCH   6   8
ATOM      8  C   UNL     1       2.970  -1.393  -0.405  1.00  0.00     0.039 A 
ATOM      9  C   UNL     1       4.106  -1.738   0.332  1.00  0.00     0.014 A 
ATOM     10  C   UNL     1       2.515  -2.212  -1.441  1.00  0.00     0.014 A 
ATOM     11  C   UNL     1       4.859  -2.842  -0.050  1.00  0.00     0.010 A 
ATOM     12  C   UNL     1       3.234  -3.361  -1.775  1.00  0.00     0.010 A 
ATOM     13  C   UNL     1       4.425  -3.671  -1.099  1.00  0.00    -0.014 A 
BRANCH  13  14
ATOM     14  C   UNL     1       5.182  -4.905  -1.417  1.00  0.00     0.031 A 
ATOM     15  C   UNL     1       5.890  -5.076  -2.731  1.00  0.00     0.074 A 
ATOM     16  C   UNL     1       5.221  -5.884  -0.492  1.00  0.00     0.049 A 
ATOM     17  N   UNL     1       6.585  -6.099  -3.161  1.00  0.00    -0.248 NA
ATOM     18  C   UNL     1       5.805  -3.963  -3.691  1.00  0.00     0.031 C 
ATOM     19  C   UNL     1       4.563  -5.835   0.817  1.00  0.00     0.029 A 
ATOM     20  N   UNL     1       5.847  -7.103  -0.504  1.00  0.00    -0.354 N 
ATOM     21  C   UNL     1       7.003  -5.765  -4.443  1.00  0.00     0.074 A 
ATOM     22  C   UNL     1       6.471  -4.450  -4.731  1.00  0.00     0.031 C 
ATOM     23  C   UNL     1       4.849  -6.955   1.494  1.00  0.00     0.029 A 
ATOM     24  C   UNL     1       5.659  -7.823   0.649  1.00  0.00     0.049 A 
ATOM     25  H   UNL     1       6.379  -7.430  -1.266  1.00  0.00     0.167 HD
ATOM     26  C   UNL     1       7.764  -6.491  -5.298  1.00  0.00     0.031 A 
ATOM     27  C   UNL     1       6.075  -9.057   0.986  1.00  0.00     0.031 A 
ATOM     28  C   UNL     1       8.300  -7.795  -5.004  1.00  0.00     0.049 A 
ATOM     29  C   UNL     1       6.894  -9.843   0.007  1.00  0.00     0.074 A 
ATOM     30  C   UNL     1       9.120  -8.586  -5.790  1.00  0.00     0.029 A 
ATOM     31  N   UNL     1       8.066  -8.501  -3.835  1.00  0.00    -0.354 N 
ATOM     32  N   UNL     1       7.316  -9.493  -1.183  1.00  0.00    -0.248 NA
ATOM     33  C   UNL     1       7.293 -11.195   0.420  1.00  0.00     0.031 C 
ATOM     34  C   UNL     1       9.343  -9.792  -5.117  1.00  0.00     0.029 A 
ATOM     35  C   UNL     1       8.702  -9.731  -3.891  1.00  0.00     0.049 A 
ATOM     36  H   UNL     1       7.528  -8.177  -3.077  1.00  0.00     0.167 HD
ATOM     37  C   UNL     1       8.042 -10.576  -1.657  1.00  0.00     0.074 A 
ATOM     38  C   UNL     1       8.023 -11.584  -0.617  1.00  0.00     0.031 C 
ATOM     39  C   UNL     1       8.665 -10.724  -2.851  1.00  0.00     0.031 A 
BRANCH  26  40
ATOM     40  C   UNL     1       8.054  -5.906  -6.652  1.00  0.00    -0.014 A 
ATOM     41  C   UNL     1       8.989  -4.873  -6.814  1.00  0.00     0.009 A 
ATOM     42  C   UNL     1       7.444  -6.457  -7.791  1.00  0.00     0.009 A 
ATOM     43  C   UNL     1       9.296  -4.392  -8.090  1.00  0.00     0.001 A 
ATOM     44  C   UNL     1       7.768  -5.989  -9.066  1.00  0.00     0.001 A 
ATOM     45  C   UNL     1       8.691  -4.954  -9.214  1.00  0.00     0.000 A 
ENDBRANCH  26  40
BRANCH  27  46
ATOM     46  C   UNL     1       5.700  -9.628   2.303  1.00  0.00    -0.014 A 
ATOM     47  C   UNL     1       6.665  -9.814   3.304  1.00  0.00     0.009 A 
ATOM     48  C   UNL     1       4.368  -9.986   2.566  1.00  0.00     0.009 A 
ATOM     49  C   UNL     1       6.307 -10.370   4.534  1.00  0.00     0.001 A 
ATOM     50  C   UNL     1       4.008 -10.513   3.807  1.00  0.00     0.001 A 
ATOM     51  C   UNL     1       4.979 -10.714   4.786  1.00  0.00     0.000 A 
ENDBRANCH  27  46
BRANCH  39  52
ATOM     52  C   UNL     1       9.390 -12.018  -3.079  1.00  0.00    -0.014 A 
ATOM     53  C   UNL     1       8.688 -13.206  -3.330  1.00  0.00     0.009 A 
ATOM     54  C   UNL     1      10.793 -12.043  -3.057  1.00  0.00     0.009 A 
ATOM     55  C   UNL     1       9.377 -14.404  -3.521  1.00  0.00     0.001 A 
ATOM     56  C   UNL     1      11.480 -13.238  -3.275  1.00  0.00     0.001 A 
ATOM     57  C   UNL     1      10.772 -14.419  -3.497  1.00  0.00     0.000 A 
ENDBRANCH  39  52
ENDBRANCH  13  14
ENDBRANCH   6   8
ENDBRANCH   3   4
ENDBRANCH   2   3
ENDBRANCH   1   2
BRANCH   1  58
ATOM     58  C   UNL     1       4.769   4.150   0.508  1.00  0.00     0.116 C 
BRANCH  58  59
ATOM     59  N   UNL     1       6.178   4.549   0.412  1.00  0.00    -0.354 N 
ATOM     60  C   UNL     1       6.900   5.478   1.144  1.00  0.00     0.250 C 
ATOM     61  H   UNL     1       6.693   4.082  -0.285  1.00  0.00     0.163 HD
ATOM     62  O   UNL     1       8.120   5.509   0.969  1.00  0.00    -0.272 OA
BRANCH  60  63
ATOM     63  C   UNL     1       6.146   6.484   2.060  1.00  0.00     0.145 C 
ATOM     64  C   UNL     1       5.208   7.291   1.082  1.00  0.00     0.044 C 
ATOM     65  C   UNL     1       6.984   7.567   2.802  1.00  0.00    -0.010 A 
ATOM     66  C   UNL     1       6.023   8.169   0.134  1.00  0.00     0.008 C 
ATOM     67  C   UNL     1       7.139   8.881   2.275  1.00  0.00    -0.042 A 
ATOM     68  C   UNL     1       7.498   7.347   4.094  1.00  0.00     0.007 A 
ATOM     69  C   UNL     1       6.632   9.306   0.918  1.00  0.00     0.036 C 
ATOM     70  C   UNL     1       7.708   9.909   3.054  1.00  0.00     0.004 A 
ATOM     71  C   UNL     1       8.060   8.378   4.857  1.00  0.00     0.000 A 
ATOM     72  C   UNL     1       8.148   9.664   4.345  1.00  0.00     0.000 A 
BRANCH  63  73
ATOM     73  N   UNL     1       5.309   5.694   3.017  1.00  0.00    -0.338 N 
ATOM     74  C   UNL     1       5.570   4.688   3.906  1.00  0.00     0.224 C 
ATOM     75  H   UNL     1       4.361   5.958   3.004  1.00  0.00     0.164 HD
ATOM     76  O   UNL     1       4.679   4.465   4.732  1.00  0.00    -0.275 OA
BRANCH  74  77
ATOM     77  C   UNL     1       6.848   3.815   3.887  1.00  0.00     0.082 C 
ATOM     78  C   UNL     1       6.740   2.577   2.988  1.00  0.00     0.035 C 
ATOM     79  C   UNL     1       7.220   3.314   5.312  1.00  0.00     0.035 C 
ATOM     80  C   UNL     1       5.737   1.574   3.540  1.00  0.00     0.120 C 
ATOM     81  C   UNL     1       6.380   2.116   5.814  1.00  0.00     0.120 C 
ATOM     82  N   UNL     1       6.269   1.069   4.795  1.00  0.00    -0.342 N 
ATOM     83  C   UNL     1       6.657  -0.272   4.811  1.00  0.00     0.225 C 
ATOM     84  O   UNL     1       6.429  -0.998   3.840  1.00  0.00    -0.275 OA
BRANCH  83  85
ATOM     85  C   UNL     1       7.384  -0.941   5.927  1.00  0.00     0.079 C 
ATOM     86  C   UNL     1       8.360  -0.312   6.877  1.00  0.00     0.014 C 
ATOM     87  C   UNL     1       7.025  -0.808   7.378  1.00  0.00     0.014 C 
ENDBRANCH  83  85
ENDBRANCH  74  77
ENDBRANCH  63  73
ENDBRANCH  60  63
ENDBRANCH  58  59
ENDBRANCH   1  58
TORSDOF 14
