REMARK SMILES COc1cc(C(=O)NCCCCNC(=O)c2ccc(-c3c4nc(c(-c5ccccc5)c5ccc([nH]5)c(-c5ccccc5)c5nc(c(-c6ccccc6)c6ccc3[nH]6)C=C5)C=C4)cc2)c([N+](=O)[O-])cc1O[C@H](C)[C@@H](C)O
REMARK SMILES IDX 9 1 8 2 6 3 7 4 5 6 3 7 4 8 69 9 68 10 64 11 2 12 1 13 70 14
REMARK SMILES IDX 71 15 72 16 73 17 74 18 75 19 65 21 66 22 67 23 10 24 11 25
REMARK SMILES IDX 12 26 13 27 14 28 15 30 16 31 17 32 63 33 18 34 62 35 19 36
REMARK SMILES IDX 20 37 21 38 56 39 22 40 61 41 55 42 57 43 23 44 60 45 54 46
REMARK SMILES IDX 53 47 24 49 46 50 31 51 45 52 32 53 35 54 44 55 58 56 33 57
REMARK SMILES IDX 34 58 43 60 59 61 36 62 25 63 26 64 30 65 27 66 29 67 28 68
REMARK SMILES IDX 47 69 48 70 52 71 49 72 51 73 50 74 37 75 38 76 42 77 39 78
REMARK SMILES IDX 41 79 40 80
REMARK H PARENT 8 5 75 20 13 29 57 48 35 59
REMARK Flexibility Score: inf
ROOT
ATOM      1  C   UNL     1      -0.625  -1.929   5.610  1.00  0.00     0.116 C 
ENDROOT
BRANCH   1   2
ATOM      2  N   UNL     1      -1.339  -3.104   5.138  1.00  0.00    -0.352 N 
ATOM      3  C   UNL     1      -1.225  -3.783   3.942  1.00  0.00     0.258 C 
ATOM      4  O   UNL     1      -1.917  -4.774   3.731  1.00  0.00    -0.269 OA
ATOM      5  H   UNL     1      -2.004  -3.471   5.766  1.00  0.00     0.163 HD
BRANCH   3   6
ATOM      6  C   UNL     1      -0.346  -3.270   2.865  1.00  0.00     0.121 A 
ATOM      7  C   UNL     1      -0.136  -2.528   0.545  1.00  0.00     0.162 A 
ATOM      8  C   UNL     1      -0.872  -3.151   1.575  1.00  0.00     0.071 A 
ATOM      9  C   UNL     1       1.102  -1.911   0.826  1.00  0.00     0.168 A 
ATOM     10  C   UNL     1       1.632  -2.082   2.099  1.00  0.00     0.136 A 
ATOM     11  C   UNL     1       0.958  -2.842   3.063  1.00  0.00     0.286 A 
BRANCH   7  12
ATOM     12  O   UNL     1      -0.782  -2.572  -0.666  1.00  0.00    -0.493 OA
ATOM     13  C   UNL     1       0.028  -2.539  -1.836  1.00  0.00     0.278 C 
ENDBRANCH   7  12
BRANCH   9  14
ATOM     14  O   UNL     1       1.756  -1.275  -0.184  1.00  0.00    -0.484 OA
BRANCH  14  15
ATOM     15  C   UNL     1       2.801  -0.289  -0.051  1.00  0.00     0.198 C 
ATOM     16  C   UNL     1       4.016  -0.691   0.785  1.00  0.00     0.056 C 
BRANCH  15  17
ATOM     17  C   UNL     1       2.227   1.119   0.252  1.00  0.00     0.151 C 
ATOM     18  C   UNL     1       3.291   2.176   0.539  1.00  0.00     0.042 C 
BRANCH  17  19
ATOM     19  O   UNL     1       1.461   1.577  -0.873  1.00  0.00    -0.390 OA
ATOM     20  H   UNL     1       2.042   1.666  -1.645  1.00  0.00     0.211 HD
ENDBRANCH  17  19
ENDBRANCH  15  17
ENDBRANCH  14  15
ENDBRANCH   9  14
BRANCH  11  21
ATOM     21  N   UNL     1       1.723  -3.263   4.224  1.00  0.00     0.063 N 
ATOM     22  O   UNL     1       1.606  -4.436   4.598  1.00  0.00    -0.258 OA
ATOM     23  O   UNL     1       2.463  -2.417   4.746  1.00  0.00    -0.258 OA
ENDBRANCH  11  21
ENDBRANCH   3   6
ENDBRANCH   1   2
BRANCH   1  24
ATOM     24  C   UNL     1      -1.369  -1.049   6.602  1.00  0.00     0.023 C 
BRANCH  24  25
ATOM     25  C   UNL     1      -1.770  -1.715   7.914  1.00  0.00     0.023 C 
BRANCH  25  26
ATOM     26  C   UNL     1      -0.706  -2.567   8.601  1.00  0.00     0.116 C 
BRANCH  26  27
ATOM     27  N   UNL     1       0.479  -1.826   9.009  1.00  0.00    -0.352 N 
ATOM     28  C   UNL     1       0.992  -1.579  10.265  1.00  0.00     0.251 C 
ATOM     29  H   UNL     1       0.998  -1.438   8.267  1.00  0.00     0.163 HD
ATOM     30  O   UNL     1       1.963  -0.851  10.398  1.00  0.00    -0.269 OA
BRANCH  28  31
ATOM     31  C   UNL     1       0.337  -2.155  11.462  1.00  0.00     0.039 A 
ATOM     32  C   UNL     1       0.103  -1.327  12.563  1.00  0.00     0.014 A 
ATOM     33  C   UNL     1      -0.063  -3.491  11.499  1.00  0.00     0.014 A 
ATOM     34  C   UNL     1      -0.627  -1.811  13.653  1.00  0.00     0.010 A 
ATOM     35  C   UNL     1      -0.872  -3.942  12.538  1.00  0.00     0.010 A 
ATOM     36  C   UNL     1      -1.171  -3.105  13.624  1.00  0.00    -0.014 A 
BRANCH  36  37
ATOM     37  C   UNL     1      -2.066  -3.593  14.706  1.00  0.00     0.031 A 
ATOM     38  C   UNL     1      -1.683  -4.793  15.529  1.00  0.00     0.074 A 
ATOM     39  C   UNL     1      -3.261  -3.001  14.902  1.00  0.00     0.049 A 
ATOM     40  N   UNL     1      -2.361  -5.397  16.473  1.00  0.00    -0.248 NA
ATOM     41  C   UNL     1      -0.382  -5.414  15.234  1.00  0.00     0.031 C 
ATOM     42  C   UNL     1      -3.782  -1.863  14.140  1.00  0.00     0.029 A 
ATOM     43  N   UNL     1      -4.262  -3.282  15.800  1.00  0.00    -0.354 N 
ATOM     44  C   UNL     1      -1.580  -6.477  16.866  1.00  0.00     0.074 A 
ATOM     45  C   UNL     1      -0.404  -6.477  16.024  1.00  0.00     0.031 C 
ATOM     46  C   UNL     1      -4.987  -1.523  14.625  1.00  0.00     0.029 A 
ATOM     47  C   UNL     1      -5.344  -2.441  15.701  1.00  0.00     0.049 A 
ATOM     48  H   UNL     1      -4.208  -4.016  16.454  1.00  0.00     0.167 HD
ATOM     49  C   UNL     1      -1.808  -7.377  17.852  1.00  0.00     0.031 A 
ATOM     50  C   UNL     1      -6.497  -2.412  16.395  1.00  0.00     0.031 A 
ATOM     51  C   UNL     1      -2.968  -7.372  18.703  1.00  0.00     0.049 A 
ATOM     52  C   UNL     1      -6.726  -3.420  17.486  1.00  0.00     0.074 A 
ATOM     53  C   UNL     1      -3.257  -8.203  19.771  1.00  0.00     0.029 A 
ATOM     54  N   UNL     1      -4.032  -6.494  18.579  1.00  0.00    -0.354 N 
ATOM     55  N   UNL     1      -5.942  -4.388  17.895  1.00  0.00    -0.248 NA
ATOM     56  C   UNL     1      -7.997  -3.323  18.219  1.00  0.00     0.031 C 
ATOM     57  C   UNL     1      -4.520  -7.858  20.264  1.00  0.00     0.029 A 
ATOM     58  C   UNL     1      -4.991  -6.776  19.537  1.00  0.00     0.049 A 
ATOM     59  H   UNL     1      -4.097  -5.775  17.909  1.00  0.00     0.167 HD
ATOM     60  C   UNL     1      -6.610  -4.996  18.949  1.00  0.00     0.074 A 
ATOM     61  C   UNL     1      -7.855  -4.277  19.128  1.00  0.00     0.031 C 
ATOM     62  C   UNL     1      -6.226  -6.055  19.703  1.00  0.00     0.031 A 
BRANCH  49  63
ATOM     63  C   UNL     1      -0.773  -8.448  18.061  1.00  0.00    -0.014 A 
ATOM     64  C   UNL     1       0.496  -8.144  18.582  1.00  0.00     0.009 A 
ATOM     65  C   UNL     1      -1.079  -9.784  17.760  1.00  0.00     0.009 A 
ATOM     66  C   UNL     1       1.449  -9.148  18.757  1.00  0.00     0.001 A 
ATOM     67  C   UNL     1      -0.134 -10.791  17.965  1.00  0.00     0.001 A 
ATOM     68  C   UNL     1       1.132 -10.472  18.453  1.00  0.00     0.000 A 
ENDBRANCH  49  63
BRANCH  50  69
ATOM     69  C   UNL     1      -7.522  -1.376  16.097  1.00  0.00    -0.014 A 
ATOM     70  C   UNL     1      -7.765  -0.335  17.007  1.00  0.00     0.009 A 
ATOM     71  C   UNL     1      -8.268  -1.427  14.910  1.00  0.00     0.009 A 
ATOM     72  C   UNL     1      -8.754   0.617  16.746  1.00  0.00     0.001 A 
ATOM     73  C   UNL     1      -9.235  -0.457  14.638  1.00  0.00     0.001 A 
ATOM     74  C   UNL     1      -9.485   0.558  15.561  1.00  0.00     0.000 A 
ENDBRANCH  50  69
BRANCH  62  75
ATOM     75  C   UNL     1      -7.146  -6.477  20.813  1.00  0.00    -0.014 A 
ATOM     76  C   UNL     1      -8.365  -7.120  20.547  1.00  0.00     0.009 A 
ATOM     77  C   UNL     1      -6.770  -6.257  22.148  1.00  0.00     0.009 A 
ATOM     78  C   UNL     1      -9.205  -7.503  21.595  1.00  0.00     0.001 A 
ATOM     79  C   UNL     1      -7.598  -6.667  23.194  1.00  0.00     0.001 A 
ATOM     80  C   UNL     1      -8.819  -7.280  22.916  1.00  0.00     0.000 A 
ENDBRANCH  62  75
ENDBRANCH  36  37
ENDBRANCH  28  31
ENDBRANCH  26  27
ENDBRANCH  25  26
ENDBRANCH  24  25
ENDBRANCH   1  24
TORSDOF 17
