REMARK SMILES CC[C@H](C)N1C(=O)c2ccccc2[C@@H](C(=O)NCCCCNC(=O)c2ccc(-c3c4nc(c(-c5ccccc5)c5ccc([nH]5)c(-c5ccccc5)c5nc(c(-c6ccccc6)c6ccc3[nH]6)C=C5)C=C4)cc2)C12CCCCC2
REMARK SMILES IDX 19 1 18 2 17 3 15 4 16 5 14 7 5 8 6 9 73 10 7 11 8 12 74 13
REMARK SMILES IDX 78 14 9 15 13 16 75 17 77 18 10 19 12 20 76 21 11 22 3 23
REMARK SMILES IDX 4 24 2 25 1 26 20 27 21 28 22 29 23 30 24 32 25 33 26 34
REMARK SMILES IDX 72 35 27 36 71 37 28 38 29 39 30 40 65 41 31 42 70 43 64 44
REMARK SMILES IDX 66 45 32 46 69 47 63 48 62 49 33 51 55 52 40 53 54 54 41 55
REMARK SMILES IDX 44 56 53 57 67 58 42 59 43 60 52 62 68 63 45 64 34 65 35 66
REMARK SMILES IDX 39 67 36 68 38 69 37 70 56 71 57 72 61 73 58 74 60 75 59 76
REMARK SMILES IDX 46 77 47 78 51 79 48 80 50 81 49 82
REMARK H PARENT 17 6 22 31 66 50 44 61
REMARK Flexibility Score: inf
ROOT
ATOM      1  C   UNL     1      -3.804   5.264  -2.588  1.00  0.00     0.023 C 
ENDROOT
BRANCH   1   2
ATOM      2  C   UNL     1      -2.776   6.201  -1.948  1.00  0.00     0.116 C 
BRANCH   2   3
ATOM      3  N   UNL     1      -2.854   6.266  -0.497  1.00  0.00    -0.355 N 
ATOM      4  C   UNL     1      -1.969   5.940   0.489  1.00  0.00     0.229 C 
ATOM      5  O   UNL     1      -2.318   6.218   1.642  1.00  0.00    -0.274 OA
ATOM      6  H   UNL     1      -3.712   6.613  -0.161  1.00  0.00     0.163 HD
BRANCH   4   7
ATOM      7  C   UNL     1      -0.581   5.320   0.218  1.00  0.00     0.135 C 
ATOM      8  N   UNL     1       0.619   3.406  -1.050  1.00  0.00    -0.329 N 
ATOM      9  C   UNL     1       0.978   4.320  -2.072  1.00  0.00     0.254 C 
ATOM     10  C   UNL     1      -0.532   3.743  -0.069  1.00  0.00     0.059 C 
ATOM     11  O   UNL     1       1.510   3.978  -3.128  1.00  0.00    -0.269 OA
ATOM     12  C   UNL     1       0.789   5.763  -1.858  1.00  0.00     0.044 A 
ATOM     13  C   UNL     1      -1.809   3.129  -0.688  1.00  0.00     0.030 C 
ATOM     14  C   UNL     1      -0.375   3.033   1.317  1.00  0.00     0.030 C 
ATOM     15  C   UNL     1       1.271   6.664  -2.826  1.00  0.00     0.014 A 
ATOM     16  C   UNL     1       0.179   6.243  -0.713  1.00  0.00    -0.020 A 
ATOM     17  C   UNL     1      -3.082   3.089   0.160  1.00  0.00     0.002 C 
ATOM     18  C   UNL     1      -1.607   3.094   2.226  1.00  0.00     0.002 C 
ATOM     19  C   UNL     1       1.201   8.041  -2.619  1.00  0.00     0.001 A 
ATOM     20  C   UNL     1       0.191   7.637  -0.474  1.00  0.00     0.005 A 
ATOM     21  C   UNL     1      -2.843   2.514   1.546  1.00  0.00     0.000 C 
ATOM     22  C   UNL     1       0.688   8.528  -1.425  1.00  0.00     0.000 A 
BRANCH   8  23
ATOM     23  C   UNL     1       1.118   2.019  -1.363  1.00  0.00     0.082 C 
ATOM     24  C   UNL     1       1.501   1.103  -0.204  1.00  0.00     0.031 C 
BRANCH  23  25
ATOM     25  C   UNL     1       0.341   1.335  -2.528  1.00  0.00     0.021 C 
ATOM     26  C   UNL     1      -0.275  -0.028  -2.247  1.00  0.00     0.006 C 
ENDBRANCH  23  25
ENDBRANCH   8  23
ENDBRANCH   4   7
ENDBRANCH   2   3
ENDBRANCH   1   2
BRANCH   1  27
ATOM     27  C   UNL     1      -5.231   5.444  -2.107  1.00  0.00     0.023 C 
BRANCH  27  28
ATOM     28  C   UNL     1      -5.809   6.785  -2.495  1.00  0.00     0.116 C 
BRANCH  28  29
ATOM     29  N   UNL     1      -5.932   6.924  -3.942  1.00  0.00    -0.352 N 
ATOM     30  C   UNL     1      -7.066   7.114  -4.694  1.00  0.00     0.251 C 
ATOM     31  H   UNL     1      -5.089   6.875  -4.448  1.00  0.00     0.163 HD
ATOM     32  O   UNL     1      -7.045   6.994  -5.913  1.00  0.00    -0.269 OA
BRANCH  30  33
ATOM     33  C   UNL     1      -8.320   7.441  -3.991  1.00  0.00     0.039 A 
ATOM     34  C   UNL     1      -8.290   8.366  -2.948  1.00  0.00     0.014 A 
ATOM     35  C   UNL     1      -9.497   6.763  -4.311  1.00  0.00     0.014 A 
ATOM     36  C   UNL     1      -9.368   8.448  -2.087  1.00  0.00     0.010 A 
ATOM     37  C   UNL     1     -10.633   6.961  -3.524  1.00  0.00     0.010 A 
ATOM     38  C   UNL     1     -10.563   7.771  -2.380  1.00  0.00    -0.014 A 
BRANCH  38  39
ATOM     39  C   UNL     1     -11.729   7.978  -1.488  1.00  0.00     0.031 A 
ATOM     40  C   UNL     1     -12.348   6.835  -0.736  1.00  0.00     0.074 A 
ATOM     41  C   UNL     1     -12.177   9.237  -1.312  1.00  0.00     0.049 A 
ATOM     42  N   UNL     1     -13.367   6.856   0.087  1.00  0.00    -0.248 NA
ATOM     43  C   UNL     1     -11.764   5.497  -0.928  1.00  0.00     0.031 C 
ATOM     44  C   UNL     1     -11.625  10.424  -1.974  1.00  0.00     0.029 A 
ATOM     45  N   UNL     1     -13.155   9.740  -0.496  1.00  0.00    -0.354 N 
ATOM     46  C   UNL     1     -13.569   5.538   0.477  1.00  0.00     0.074 A 
ATOM     47  C   UNL     1     -12.576   4.737  -0.204  1.00  0.00     0.031 C 
ATOM     48  C   UNL     1     -12.203  11.519  -1.466  1.00  0.00     0.029 A 
ATOM     49  C   UNL     1     -13.239  11.111  -0.528  1.00  0.00     0.049 A 
ATOM     50  H   UNL     1     -13.739   9.175   0.059  1.00  0.00     0.167 HD
ATOM     51  C   UNL     1     -14.501   5.049   1.327  1.00  0.00     0.031 A 
ATOM     52  C   UNL     1     -14.072  11.954   0.108  1.00  0.00     0.031 A 
ATOM     53  C   UNL     1     -15.467   5.864   2.017  1.00  0.00     0.049 A 
ATOM     54  C   UNL     1     -15.117  11.380   1.015  1.00  0.00     0.074 A 
ATOM     55  C   UNL     1     -16.443   5.465   2.912  1.00  0.00     0.029 A 
ATOM     56  N   UNL     1     -15.573   7.242   1.894  1.00  0.00    -0.354 N 
ATOM     57  N   UNL     1     -15.310  10.129   1.353  1.00  0.00    -0.248 NA
ATOM     58  C   UNL     1     -16.068  12.325   1.611  1.00  0.00     0.031 C 
ATOM     59  C   UNL     1     -17.178   6.592   3.286  1.00  0.00     0.029 A 
ATOM     60  C   UNL     1     -16.617   7.704   2.677  1.00  0.00     0.049 A 
ATOM     61  H   UNL     1     -14.993   7.806   1.334  1.00  0.00     0.167 HD
ATOM     62  C   UNL     1     -16.404  10.133   2.204  1.00  0.00     0.074 A 
ATOM     63  C   UNL     1     -16.815  11.515   2.351  1.00  0.00     0.031 C 
ATOM     64  C   UNL     1     -17.016   9.083   2.803  1.00  0.00     0.031 A 
BRANCH  51  65
ATOM     65  C   UNL     1     -14.554   3.562   1.549  1.00  0.00    -0.014 A 
ATOM     66  C   UNL     1     -15.652   2.829   1.067  1.00  0.00     0.009 A 
ATOM     67  C   UNL     1     -13.579   2.898   2.310  1.00  0.00     0.009 A 
ATOM     68  C   UNL     1     -15.781   1.469   1.353  1.00  0.00     0.001 A 
ATOM     69  C   UNL     1     -13.698   1.531   2.572  1.00  0.00     0.001 A 
ATOM     70  C   UNL     1     -14.802   0.820   2.103  1.00  0.00     0.000 A 
ENDBRANCH  51  65
BRANCH  52  71
ATOM     71  C   UNL     1     -13.937  13.416  -0.118  1.00  0.00    -0.014 A 
ATOM     72  C   UNL     1     -14.204  13.971  -1.381  1.00  0.00     0.009 A 
ATOM     73  C   UNL     1     -13.454  14.251   0.899  1.00  0.00     0.009 A 
ATOM     74  C   UNL     1     -13.953  15.320  -1.634  1.00  0.00     0.001 A 
ATOM     75  C   UNL     1     -13.236  15.609   0.653  1.00  0.00     0.001 A 
ATOM     76  C   UNL     1     -13.471  16.139  -0.615  1.00  0.00     0.000 A 
ENDBRANCH  52  71
BRANCH  64  77
ATOM     77  C   UNL     1     -18.197   9.379   3.680  1.00  0.00    -0.014 A 
ATOM     78  C   UNL     1     -18.091   9.211   5.070  1.00  0.00     0.009 A 
ATOM     79  C   UNL     1     -19.437   9.728   3.125  1.00  0.00     0.009 A 
ATOM     80  C   UNL     1     -19.210   9.371   5.887  1.00  0.00     0.001 A 
ATOM     81  C   UNL     1     -20.548   9.916   3.949  1.00  0.00     0.001 A 
ATOM     82  C   UNL     1     -20.436   9.727   5.327  1.00  0.00     0.000 A 
ENDBRANCH  64  77
ENDBRANCH  38  39
ENDBRANCH  30  33
ENDBRANCH  28  29
ENDBRANCH  27  28
ENDBRANCH   1  27
TORSDOF 13
