REMARK SMILES CSc1cccc(N2C[C@@H](C(=O)NCCCCNC(=O)c3ccc(-c4c5nc(c(-c6ccccc6)c6ccc([nH]6)c(-c6ccccc6)c6nc(c(-c7ccccc7)c7ccc4[nH]7)C=C6)C=C5)cc3)CC2=O)c1
REMARK SMILES IDX 15 1 14 2 13 3 11 4 12 5 10 7 8 8 9 9 70 10 69 11 71 12 7 13
REMARK SMILES IDX 3 14 4 15 72 16 5 17 6 18 2 19 1 20 16 21 17 22 18 23 19 24
REMARK SMILES IDX 20 26 21 27 22 28 68 29 23 30 67 31 24 32 25 33 26 34 61 35
REMARK SMILES IDX 27 36 66 37 60 38 62 39 28 40 65 41 59 42 58 43 29 45 51 46
REMARK SMILES IDX 36 47 50 48 37 49 40 50 49 51 63 52 38 53 39 54 48 56 64 57
REMARK SMILES IDX 41 58 30 59 31 60 35 61 32 62 34 63 33 64 52 65 53 66 57 67
REMARK SMILES IDX 54 68 56 69 55 70 42 71 43 72 47 73 44 74 46 75 45 76
REMARK H PARENT 13 6 18 25 62 44 40 55
REMARK Flexibility Score: inf
ROOT
ATOM      1  C   UNL     1       1.710   9.321   0.144  1.00  0.00     0.023 C 
ENDROOT
BRANCH   1   2
ATOM      2  C   UNL     1       2.409   8.522   1.242  1.00  0.00     0.116 C 
BRANCH   2   3
ATOM      3  N   UNL     1       2.560   9.290   2.465  1.00  0.00    -0.356 N 
ATOM      4  C   UNL     1       2.018   9.136   3.700  1.00  0.00     0.225 C 
ATOM      5  O   UNL     1       2.353   9.947   4.567  1.00  0.00    -0.275 OA
ATOM      6  H   UNL     1       3.165  10.063   2.384  1.00  0.00     0.163 HD
BRANCH   4   7
ATOM      7  C   UNL     1       1.058   8.017   4.048  1.00  0.00     0.107 C 
ATOM      8  N   UNL     1       0.783   5.805   3.272  1.00  0.00    -0.312 N 
ATOM      9  C   UNL     1       1.702   6.644   4.003  1.00  0.00     0.139 C 
ATOM     10  C   UNL     1      -0.278   6.522   2.724  1.00  0.00     0.227 C 
ATOM     11  C   UNL     1      -0.185   7.953   3.178  1.00  0.00     0.116 C 
ATOM     12  O   UNL     1      -1.191   6.112   2.020  1.00  0.00    -0.274 OA
BRANCH   8  13
ATOM     13  C   UNL     1       0.995   4.415   3.099  1.00  0.00     0.045 A 
ATOM     14  C   UNL     1       0.812   2.390   1.728  1.00  0.00     0.009 A 
ATOM     15  C   UNL     1       1.344   1.644   2.781  1.00  0.00     0.015 A 
ATOM     16  C   UNL     1       0.618   3.770   1.912  1.00  0.00     0.041 A 
ATOM     17  C   UNL     1       1.717   2.270   3.971  1.00  0.00     0.003 A 
ATOM     18  C   UNL     1       1.570   3.651   4.119  1.00  0.00     0.026 A 
BRANCH  14  19
ATOM     19  S   UNL     1       0.340   1.714   0.138  1.00  0.00    -0.130 SA
ATOM     20  C   UNL     1       1.009   0.030   0.180  1.00  0.00     0.091 C 
ENDBRANCH  14  19
ENDBRANCH   8  13
ENDBRANCH   4   7
ENDBRANCH   2   3
ENDBRANCH   1   2
BRANCH   1  21
ATOM     21  C   UNL     1       2.482  10.544  -0.354  1.00  0.00     0.023 C 
BRANCH  21  22
ATOM     22  C   UNL     1       3.898  10.263  -0.843  1.00  0.00     0.116 C 
BRANCH  22  23
ATOM     23  N   UNL     1       3.943   9.305  -1.937  1.00  0.00    -0.352 N 
ATOM     24  C   UNL     1       4.607   9.389  -3.137  1.00  0.00     0.251 C 
ATOM     25  H   UNL     1       3.424   8.480  -1.798  1.00  0.00     0.163 HD
ATOM     26  O   UNL     1       4.425   8.543  -4.006  1.00  0.00    -0.269 OA
BRANCH  24  27
ATOM     27  C   UNL     1       5.519  10.523  -3.392  1.00  0.00     0.039 A 
ATOM     28  C   UNL     1       5.429  11.202  -4.609  1.00  0.00     0.014 A 
ATOM     29  C   UNL     1       6.443  10.930  -2.425  1.00  0.00     0.014 A 
ATOM     30  C   UNL     1       6.216  12.333  -4.828  1.00  0.00     0.010 A 
ATOM     31  C   UNL     1       7.164  12.104  -2.612  1.00  0.00     0.010 A 
ATOM     32  C   UNL     1       7.061  12.818  -3.816  1.00  0.00    -0.014 A 
BRANCH  32  33
ATOM     33  C   UNL     1       7.840  14.069  -3.995  1.00  0.00     0.031 A 
ATOM     34  C   UNL     1       9.343  14.035  -3.970  1.00  0.00     0.074 A 
ATOM     35  C   UNL     1       7.195  15.246  -4.117  1.00  0.00     0.049 A 
ATOM     36  N   UNL     1      10.193  15.027  -4.052  1.00  0.00    -0.248 NA
ATOM     37  C   UNL     1       9.975  12.715  -3.806  1.00  0.00     0.031 C 
ATOM     38  C   UNL     1       5.741  15.422  -4.119  1.00  0.00     0.029 A 
ATOM     39  N   UNL     1       7.682  16.522  -4.259  1.00  0.00    -0.354 N 
ATOM     40  C   UNL     1      11.454  14.455  -3.934  1.00  0.00     0.074 A 
ATOM     41  C   UNL     1      11.257  13.038  -3.719  1.00  0.00     0.031 C 
ATOM     42  C   UNL     1       5.455  16.723  -4.287  1.00  0.00     0.029 A 
ATOM     43  C   UNL     1       6.701  17.479  -4.356  1.00  0.00     0.049 A 
ATOM     44  H   UNL     1       8.644  16.731  -4.288  1.00  0.00     0.167 HD
ATOM     45  C   UNL     1      12.667  15.050  -4.018  1.00  0.00     0.031 A 
ATOM     46  C   UNL     1       6.793  18.817  -4.477  1.00  0.00     0.031 A 
ATOM     47  C   UNL     1      12.864  16.458  -4.235  1.00  0.00     0.049 A 
ATOM     48  C   UNL     1       8.153  19.457  -4.537  1.00  0.00     0.074 A 
ATOM     49  C   UNL     1      14.054  17.148  -4.388  1.00  0.00     0.029 A 
ATOM     50  N   UNL     1      11.844  17.393  -4.325  1.00  0.00    -0.354 N 
ATOM     51  N   UNL     1       9.335  18.892  -4.495  1.00  0.00    -0.248 NA
ATOM     52  C   UNL     1       8.189  20.920  -4.673  1.00  0.00     0.031 C 
ATOM     53  C   UNL     1      13.757  18.509  -4.507  1.00  0.00     0.029 A 
ATOM     54  C   UNL     1      12.379  18.658  -4.500  1.00  0.00     0.049 A 
ATOM     55  H   UNL     1      10.883  17.188  -4.272  1.00  0.00     0.167 HD
ATOM     56  C   UNL     1      10.254  19.926  -4.632  1.00  0.00     0.074 A 
ATOM     57  C   UNL     1       9.491  21.148  -4.774  1.00  0.00     0.031 C 
ATOM     58  C   UNL     1      11.608  19.867  -4.640  1.00  0.00     0.031 A 
BRANCH  45  59
ATOM     59  C   UNL     1      13.881  14.174  -3.860  1.00  0.00    -0.014 A 
ATOM     60  C   UNL     1      14.225  13.220  -4.831  1.00  0.00     0.009 A 
ATOM     61  C   UNL     1      14.713  14.330  -2.740  1.00  0.00     0.009 A 
ATOM     62  C   UNL     1      15.353  12.413  -4.664  1.00  0.00     0.001 A 
ATOM     63  C   UNL     1      15.858  13.545  -2.592  1.00  0.00     0.001 A 
ATOM     64  C   UNL     1      16.171  12.581  -3.548  1.00  0.00     0.000 A 
ENDBRANCH  45  59
BRANCH  46  65
ATOM     65  C   UNL     1       5.561  19.647  -4.558  1.00  0.00    -0.014 A 
ATOM     66  C   UNL     1       5.224  20.310  -5.748  1.00  0.00     0.009 A 
ATOM     67  C   UNL     1       4.722  19.793  -3.442  1.00  0.00     0.009 A 
ATOM     68  C   UNL     1       4.092  21.126  -5.810  1.00  0.00     0.001 A 
ATOM     69  C   UNL     1       3.573  20.582  -3.516  1.00  0.00     0.001 A 
ATOM     70  C   UNL     1       3.265  21.257  -4.696  1.00  0.00     0.000 A 
ENDBRANCH  46  65
BRANCH  58  71
ATOM     71  C   UNL     1      12.354  21.156  -4.850  1.00  0.00    -0.014 A 
ATOM     72  C   UNL     1      12.392  22.152  -3.862  1.00  0.00     0.009 A 
ATOM     73  C   UNL     1      13.065  21.357  -6.045  1.00  0.00     0.009 A 
ATOM     74  C   UNL     1      13.097  23.338  -4.082  1.00  0.00     0.001 A 
ATOM     75  C   UNL     1      13.796  22.527  -6.247  1.00  0.00     0.001 A 
ATOM     76  C   UNL     1      13.803  23.521  -5.270  1.00  0.00     0.000 A 
ENDBRANCH  58  71
ENDBRANCH  32  33
ENDBRANCH  24  27
ENDBRANCH  22  23
ENDBRANCH  21  22
ENDBRANCH   1  21
TORSDOF 13
