REMARK SMILES Cc1ccccc1/C=C1\SC(=O)N(CC(=O)Nc2ccccc2C(=O)NCCCCNC(=O)c2ccc(-c3c4nc(c(-c5ccccc5)c5ccc([nH]5)c(-c5ccccc5)c5nc(c(-c6ccccc6)c6ccc3[nH]6)C=C5)C=C4)cc2)C1=O
REMARK SMILES IDX 27 1 26 2 24 3 25 4 23 6 18 7 19 8 20 9 22 10 21 11 17 12
REMARK SMILES IDX 15 13 16 14 14 16 13 17 8 18 9 19 10 20 82 21 11 22 83 23
REMARK SMILES IDX 12 24 7 25 1 26 2 27 3 28 4 29 6 30 5 31 28 32 29 33 30 34
REMARK SMILES IDX 31 35 32 36 33 38 34 39 35 40 81 41 36 42 80 43 37 44 38 45
REMARK SMILES IDX 39 46 74 47 40 48 79 49 73 50 75 51 41 52 78 53 72 54 71 55
REMARK SMILES IDX 42 57 64 58 49 59 63 60 50 61 53 62 62 63 76 64 51 65 52 66
REMARK SMILES IDX 61 68 77 69 54 70 43 71 44 72 48 73 45 74 47 75 46 76 65 77
REMARK SMILES IDX 66 78 70 79 67 80 69 81 68 82 55 83 56 84 60 85 57 86 59 87
REMARK SMILES IDX 58 88
REMARK H PARENT 26 5 17 15 31 37 75 56 53 67
REMARK Flexibility Score: inf
ROOT
ATOM      1  C   UNL     1       2.075   1.050  -3.907  1.00  0.00     0.116 C 
ENDROOT
BRANCH   1   2
ATOM      2  N   UNL     1       1.849   2.225  -3.060  1.00  0.00    -0.352 N 
ATOM      3  C   UNL     1       1.720   3.587  -3.300  1.00  0.00     0.253 C 
ATOM      4  O   UNL     1       1.355   4.296  -2.363  1.00  0.00    -0.269 OA
ATOM      5  H   UNL     1       1.772   1.997  -2.106  1.00  0.00     0.163 HD
BRANCH   3   6
ATOM      6  C   UNL     1       2.005   4.238  -4.606  1.00  0.00     0.063 A 
ATOM      7  C   UNL     1       2.506   5.558  -4.743  1.00  0.00     0.054 A 
ATOM      8  C   UNL     1       2.614   6.113  -6.037  1.00  0.00     0.027 A 
ATOM      9  C   UNL     1       2.258   5.398  -7.178  1.00  0.00     0.002 A 
ATOM     10  C   UNL     1       1.527   3.601  -5.767  1.00  0.00     0.016 A 
ATOM     11  C   UNL     1       1.692   4.144  -7.041  1.00  0.00     0.001 A 
BRANCH   7  12
ATOM     12  N   UNL     1       2.611   6.535  -3.733  1.00  0.00    -0.324 N 
ATOM     13  C   UNL     1       3.455   6.756  -2.692  1.00  0.00     0.244 C 
ATOM     14  O   UNL     1       3.333   7.846  -2.117  1.00  0.00    -0.273 OA
ATOM     15  H   UNL     1       1.905   7.218  -3.796  1.00  0.00     0.170 HD
BRANCH  13  16
ATOM     16  C   UNL     1       4.580   5.821  -2.291  1.00  0.00     0.230 C 
BRANCH  16  17
ATOM     17  N   UNL     1       4.150   4.725  -1.467  1.00  0.00    -0.259 N 
ATOM     18  C   UNL     1       1.742   3.478   0.679  1.00  0.00     0.029 C 
ATOM     19  C   UNL     1       2.973   3.579   0.166  1.00  0.00     0.083 C 
ATOM     20  S   UNL     1       3.996   2.380  -0.479  1.00  0.00    -0.022 SA
ATOM     21  C   UNL     1       3.451   4.910  -0.291  1.00  0.00     0.268 C 
ATOM     22  C   UNL     1       4.594   3.464  -1.708  1.00  0.00     0.294 C 
ATOM     23  O   UNL     1       3.232   5.956   0.291  1.00  0.00    -0.268 OA
ATOM     24  O   UNL     1       5.328   3.090  -2.620  1.00  0.00    -0.261 OA
BRANCH  18  25
ATOM     25  C   UNL     1       0.845   2.314   0.764  1.00  0.00    -0.021 A 
ATOM     26  C   UNL     1       2.457   0.625   1.861  1.00  0.00     0.045 C 
ATOM     27  C   UNL     1       1.108   1.087   1.389  1.00  0.00    -0.044 A 
ATOM     28  C   UNL     1       0.044   0.189   1.549  1.00  0.00     0.004 A 
ATOM     29  C   UNL     1      -1.229   0.453   1.037  1.00  0.00     0.000 A 
ATOM     30  C   UNL     1      -0.440   2.546   0.217  1.00  0.00     0.008 A 
ATOM     31  C   UNL     1      -1.464   1.614   0.329  1.00  0.00     0.001 A 
ENDBRANCH  18  25
ENDBRANCH  16  17
ENDBRANCH  13  16
ENDBRANCH   7  12
ENDBRANCH   3   6
ENDBRANCH   1   2
BRANCH   1  32
ATOM     32  C   UNL     1       3.436   0.344  -3.834  1.00  0.00     0.023 C 
BRANCH  32  33
ATOM     33  C   UNL     1       3.799  -0.516  -2.625  1.00  0.00     0.023 C 
BRANCH  33  34
ATOM     34  C   UNL     1       2.743  -1.465  -2.092  1.00  0.00     0.116 C 
BRANCH  34  35
ATOM     35  N   UNL     1       2.716  -2.777  -2.714  1.00  0.00    -0.352 N 
ATOM     36  C   UNL     1       2.145  -3.966  -2.289  1.00  0.00     0.251 C 
ATOM     37  H   UNL     1       3.181  -2.831  -3.581  1.00  0.00     0.163 HD
ATOM     38  O   UNL     1       2.431  -4.996  -2.899  1.00  0.00    -0.269 OA
BRANCH  36  39
ATOM     39  C   UNL     1       1.109  -4.031  -1.213  1.00  0.00     0.039 A 
ATOM     40  C   UNL     1       0.280  -5.170  -1.113  1.00  0.00     0.014 A 
ATOM     41  C   UNL     1       0.789  -2.940  -0.434  1.00  0.00     0.014 A 
ATOM     42  C   UNL     1      -1.008  -5.067  -0.556  1.00  0.00     0.010 A 
ATOM     43  C   UNL     1      -0.415  -2.893   0.204  1.00  0.00     0.010 A 
ATOM     44  C   UNL     1      -1.387  -3.845  -0.036  1.00  0.00    -0.014 A 
BRANCH  44  45
ATOM     45  C   UNL     1      -2.698  -3.190  -0.004  1.00  0.00     0.031 A 
ATOM     46  C   UNL     1      -3.329  -2.826   1.276  1.00  0.00     0.074 A 
ATOM     47  C   UNL     1      -2.936  -2.394  -1.085  1.00  0.00     0.049 A 
ATOM     48  N   UNL     1      -4.479  -2.260   1.368  1.00  0.00    -0.248 NA
ATOM     49  C   UNL     1      -2.668  -2.989   2.565  1.00  0.00     0.031 C 
ATOM     50  C   UNL     1      -3.755  -1.187  -1.215  1.00  0.00     0.029 A 
ATOM     51  N   UNL     1      -2.466  -2.587  -2.386  1.00  0.00    -0.354 N 
ATOM     52  C   UNL     1      -4.577  -1.706   2.625  1.00  0.00     0.074 A 
ATOM     53  C   UNL     1      -3.467  -2.266   3.360  1.00  0.00     0.031 C 
ATOM     54  C   UNL     1      -3.994  -0.956  -2.519  1.00  0.00     0.029 A 
ATOM     55  C   UNL     1      -3.458  -2.085  -3.256  1.00  0.00     0.049 A 
ATOM     56  H   UNL     1      -1.609  -2.994  -2.646  1.00  0.00     0.167 HD
ATOM     57  C   UNL     1      -5.529  -0.751   2.843  1.00  0.00     0.031 A 
ATOM     58  C   UNL     1      -4.203  -3.002  -3.949  1.00  0.00     0.031 A 
ATOM     59  C   UNL     1      -6.342  -0.528   1.636  1.00  0.00     0.049 A 
ATOM     60  C   UNL     1      -5.615  -3.155  -3.398  1.00  0.00     0.074 A 
ATOM     61  C   UNL     1      -6.459   0.495   0.709  1.00  0.00     0.029 A 
ATOM     62  N   UNL     1      -6.975  -1.623   1.067  1.00  0.00    -0.354 N 
ATOM     63  N   UNL     1      -6.113  -2.443  -2.422  1.00  0.00    -0.248 NA
ATOM     64  C   UNL     1      -6.555  -4.173  -3.861  1.00  0.00     0.031 C 
ATOM     65  C   UNL     1      -7.101  -0.038  -0.454  1.00  0.00     0.029 A 
ATOM     66  C   UNL     1      -7.421  -1.363  -0.212  1.00  0.00     0.049 A 
ATOM     67  H   UNL     1      -7.093  -2.487   1.525  1.00  0.00     0.167 HD
ATOM     68  C   UNL     1      -7.333  -2.938  -2.049  1.00  0.00     0.074 A 
ATOM     69  C   UNL     1      -7.570  -4.021  -2.991  1.00  0.00     0.031 C 
ATOM     70  C   UNL     1      -8.032  -2.450  -0.976  1.00  0.00     0.031 A 
BRANCH  57  71
ATOM     71  C   UNL     1      -5.668   0.100   4.088  1.00  0.00    -0.014 A 
ATOM     72  C   UNL     1      -6.591   1.165   4.096  1.00  0.00     0.009 A 
ATOM     73  C   UNL     1      -4.936  -0.072   5.276  1.00  0.00     0.009 A 
ATOM     74  C   UNL     1      -6.740   2.023   5.197  1.00  0.00     0.001 A 
ATOM     75  C   UNL     1      -5.074   0.784   6.380  1.00  0.00     0.001 A 
ATOM     76  C   UNL     1      -5.973   1.838   6.338  1.00  0.00     0.000 A 
ENDBRANCH  57  71
BRANCH  58  77
ATOM     77  C   UNL     1      -3.310  -4.102  -4.457  1.00  0.00    -0.014 A 
ATOM     78  C   UNL     1      -2.321  -3.725  -5.397  1.00  0.00     0.009 A 
ATOM     79  C   UNL     1      -3.081  -5.248  -3.679  1.00  0.00     0.009 A 
ATOM     80  C   UNL     1      -1.065  -4.342  -5.405  1.00  0.00     0.001 A 
ATOM     81  C   UNL     1      -1.834  -5.890  -3.727  1.00  0.00     0.001 A 
ATOM     82  C   UNL     1      -0.810  -5.399  -4.539  1.00  0.00     0.000 A 
ENDBRANCH  58  77
BRANCH  70  83
ATOM     83  C   UNL     1      -9.364  -3.003  -0.521  1.00  0.00    -0.014 A 
ATOM     84  C   UNL     1     -10.331  -3.477  -1.415  1.00  0.00     0.009 A 
ATOM     85  C   UNL     1      -9.734  -2.975   0.842  1.00  0.00     0.009 A 
ATOM     86  C   UNL     1     -11.552  -3.996  -0.964  1.00  0.00     0.001 A 
ATOM     87  C   UNL     1     -10.961  -3.462   1.297  1.00  0.00     0.001 A 
ATOM     88  C   UNL     1     -11.863  -3.997   0.393  1.00  0.00     0.000 A 
ENDBRANCH  70  83
ENDBRANCH  44  45
ENDBRANCH  36  39
ENDBRANCH  34  35
ENDBRANCH  33  34
ENDBRANCH  32  33
ENDBRANCH   1  32
TORSDOF 15
