REMARK SMILES CCc1ccc2c(CC(=O)NCCCCNC(=O)c3ccc(-c4c5nc(c(-c6ccccc6)c6ccc([nH]6)c(-c6ccccc6)c6nc(c(-c7ccccc7)c7ccc4[nH]7)C=C6)C=C5)cc3)c(C(=O)c3cc(C)ccn3)[nH]c2c1
REMARK SMILES IDX 13 1 12 2 11 3 9 4 10 5 8 7 7 8 3 9 4 10 79 11 5 12 78 13
REMARK SMILES IDX 6 14 77 15 67 16 2 18 1 19 68 20 69 21 70 22 71 23 76 24
REMARK SMILES IDX 72 25 75 26 73 27 74 28 14 29 15 30 16 31 17 32 18 34 19 35
REMARK SMILES IDX 20 36 66 37 21 38 65 39 22 40 23 41 24 42 59 43 25 44 64 45
REMARK SMILES IDX 58 46 60 47 26 48 63 49 57 50 56 51 27 53 49 54 34 55 48 56
REMARK SMILES IDX 35 57 38 58 47 59 61 60 36 61 37 62 46 64 62 65 39 66 28 67
REMARK SMILES IDX 29 68 33 69 30 70 32 71 31 72 50 73 51 74 55 75 52 76 54 77
REMARK SMILES IDX 53 78 40 79 41 80 45 81 42 82 44 83 43 84
REMARK H PARENT 11 6 77 17 16 33 60 52 38 63
REMARK Flexibility Score: inf
ROOT
ATOM      1  C   UNL     1       4.834   4.871  -2.704  1.00  0.00     0.023 C 
ENDROOT
BRANCH   1   2
ATOM      2  C   UNL     1       4.059   6.186  -2.752  1.00  0.00     0.116 C 
BRANCH   2   3
ATOM      3  N   UNL     1       4.010   6.753  -4.081  1.00  0.00    -0.356 N 
ATOM      4  C   UNL     1       2.971   6.801  -4.967  1.00  0.00     0.224 C 
ATOM      5  O   UNL     1       3.127   7.511  -5.965  1.00  0.00    -0.275 OA
ATOM      6  H   UNL     1       4.848   7.164  -4.394  1.00  0.00     0.163 HD
BRANCH   4   7
ATOM      7  C   UNL     1       1.635   6.127  -4.667  1.00  0.00     0.138 C 
BRANCH   7   8
ATOM      8  C   UNL     1       1.712   4.650  -4.379  1.00  0.00    -0.002 A 
ATOM      9  C   UNL     1       0.926   2.229  -0.988  1.00  0.00    -0.046 A 
ATOM     10  C   UNL     1       0.612   3.590  -0.865  1.00  0.00     0.004 A 
ATOM     11  C   UNL     1       1.452   1.756  -2.200  1.00  0.00     0.030 A 
ATOM     12  C   UNL     1       0.813   4.487  -1.920  1.00  0.00     0.011 A 
ATOM     13  C   UNL     1       1.646   2.671  -3.247  1.00  0.00     0.046 A 
ATOM     14  C   UNL     1       1.346   4.022  -3.139  1.00  0.00     0.004 A 
ATOM     15  N   UNL     1       2.143   2.472  -4.512  1.00  0.00    -0.352 N 
ATOM     16  C   UNL     1       2.111   3.636  -5.252  1.00  0.00     0.093 A 
ATOM     17  H   UNL     1       2.479   1.610  -4.847  1.00  0.00     0.167 HD
BRANCH   9  18
ATOM     18  C   UNL     1       0.645   1.336   0.203  1.00  0.00     0.032 C 
ATOM     19  C   UNL     1       1.129  -0.105   0.116  1.00  0.00     0.009 C 
ENDBRANCH   9  18
BRANCH  16  20
ATOM     20  C   UNL     1       2.459   3.742  -6.666  1.00  0.00     0.227 C 
ATOM     21  O   UNL     1       2.335   4.773  -7.319  1.00  0.00    -0.285 OA
BRANCH  20  22
ATOM     22  C   UNL     1       2.932   2.526  -7.379  1.00  0.00     0.113 A 
ATOM     23  C   UNL     1       2.045   1.479  -7.613  1.00  0.00     0.036 A 
ATOM     24  N   UNL     1       4.235   2.516  -7.753  1.00  0.00    -0.253 NA
ATOM     25  C   UNL     1       2.521   0.344  -8.271  1.00  0.00    -0.047 A 
ATOM     26  C   UNL     1       4.659   1.424  -8.420  1.00  0.00     0.112 A 
ATOM     27  C   UNL     1       1.632  -0.833  -8.536  1.00  0.00     0.044 C 
ATOM     28  C   UNL     1       3.854   0.327  -8.692  1.00  0.00     0.023 A 
ENDBRANCH  20  22
ENDBRANCH  16  20
ENDBRANCH   7   8
ENDBRANCH   4   7
ENDBRANCH   2   3
ENDBRANCH   1   2
BRANCH   1  29
ATOM     29  C   UNL     1       6.338   5.004  -2.956  1.00  0.00     0.023 C 
BRANCH  29  30
ATOM     30  C   UNL     1       7.070   5.966  -2.029  1.00  0.00     0.116 C 
BRANCH  30  31
ATOM     31  N   UNL     1       6.949   5.617  -0.621  1.00  0.00    -0.352 N 
ATOM     32  C   UNL     1       7.900   5.697   0.367  1.00  0.00     0.251 C 
ATOM     33  H   UNL     1       6.068   5.278  -0.340  1.00  0.00     0.163 HD
ATOM     34  O   UNL     1       7.670   5.259   1.490  1.00  0.00    -0.269 OA
BRANCH  32  35
ATOM     35  C   UNL     1       9.222   6.280   0.058  1.00  0.00     0.039 A 
ATOM     36  C   UNL     1      10.372   5.586   0.443  1.00  0.00     0.014 A 
ATOM     37  C   UNL     1       9.326   7.488  -0.637  1.00  0.00     0.014 A 
ATOM     38  C   UNL     1      11.628   6.068   0.067  1.00  0.00     0.010 A 
ATOM     39  C   UNL     1      10.572   7.927  -1.073  1.00  0.00     0.010 A 
ATOM     40  C   UNL     1      11.735   7.222  -0.727  1.00  0.00    -0.014 A 
BRANCH  40  41
ATOM     41  C   UNL     1      13.052   7.706  -1.212  1.00  0.00     0.031 A 
ATOM     42  C   UNL     1      13.576   9.042  -0.767  1.00  0.00     0.074 A 
ATOM     43  C   UNL     1      13.741   6.978  -2.112  1.00  0.00     0.049 A 
ATOM     44  N   UNL     1      14.672   9.662  -1.127  1.00  0.00    -0.248 NA
ATOM     45  C   UNL     1      12.747   9.793   0.190  1.00  0.00     0.031 C 
ATOM     46  C   UNL     1      13.328   5.681  -2.652  1.00  0.00     0.029 A 
ATOM     47  N   UNL     1      14.938   7.231  -2.735  1.00  0.00    -0.354 N 
ATOM     48  C   UNL     1      14.649  10.882  -0.465  1.00  0.00     0.074 A 
ATOM     49  C   UNL     1      13.413  10.934   0.285  1.00  0.00     0.031 C 
ATOM     50  C   UNL     1      14.271   5.236  -3.497  1.00  0.00     0.029 A 
ATOM     51  C   UNL     1      15.332   6.234  -3.594  1.00  0.00     0.049 A 
ATOM     52  H   UNL     1      15.463   8.049  -2.581  1.00  0.00     0.167 HD
ATOM     53  C   UNL     1      15.579  11.866  -0.467  1.00  0.00     0.031 A 
ATOM     54  C   UNL     1      16.425   6.134  -4.373  1.00  0.00     0.031 A 
ATOM     55  C   UNL     1      16.816  11.809  -1.200  1.00  0.00     0.049 A 
ATOM     56  C   UNL     1      17.434   7.249  -4.374  1.00  0.00     0.074 A 
ATOM     57  C   UNL     1      17.857  12.721  -1.207  1.00  0.00     0.029 A 
ATOM     58  N   UNL     1      17.174  10.785  -2.063  1.00  0.00    -0.354 N 
ATOM     59  N   UNL     1      17.436   8.362  -3.682  1.00  0.00    -0.248 NA
ATOM     60  C   UNL     1      18.594   7.088  -5.261  1.00  0.00     0.031 C 
ATOM     61  C   UNL     1      18.821  12.276  -2.118  1.00  0.00     0.029 A 
ATOM     62  C   UNL     1      18.406  11.059  -2.633  1.00  0.00     0.049 A 
ATOM     63  H   UNL     1      16.633   9.983  -2.244  1.00  0.00     0.167 HD
ATOM     64  C   UNL     1      18.612   9.018  -4.024  1.00  0.00     0.074 A 
ATOM     65  C   UNL     1      19.301   8.173  -4.978  1.00  0.00     0.031 C 
ATOM     66  C   UNL     1      19.081  10.210  -3.582  1.00  0.00     0.031 A 
BRANCH  53  67
ATOM     67  C   UNL     1      15.280  13.101   0.337  1.00  0.00    -0.014 A 
ATOM     68  C   UNL     1      15.259  13.074   1.741  1.00  0.00     0.009 A 
ATOM     69  C   UNL     1      15.031  14.316  -0.321  1.00  0.00     0.009 A 
ATOM     70  C   UNL     1      14.950  14.227   2.467  1.00  0.00     0.001 A 
ATOM     71  C   UNL     1      14.754  15.474   0.408  1.00  0.00     0.001 A 
ATOM     72  C   UNL     1      14.702  15.425   1.800  1.00  0.00     0.000 A 
ENDBRANCH  53  67
BRANCH  54  73
ATOM     73  C   UNL     1      16.643   4.918  -5.198  1.00  0.00    -0.014 A 
ATOM     74  C   UNL     1      17.651   4.003  -4.853  1.00  0.00     0.009 A 
ATOM     75  C   UNL     1      15.854   4.663  -6.330  1.00  0.00     0.009 A 
ATOM     76  C   UNL     1      17.878   2.870  -5.636  1.00  0.00     0.001 A 
ATOM     77  C   UNL     1      16.066   3.515  -7.097  1.00  0.00     0.001 A 
ATOM     78  C   UNL     1      17.083   2.624  -6.755  1.00  0.00     0.000 A 
ENDBRANCH  54  73
BRANCH  66  79
ATOM     79  C   UNL     1      20.421  10.655  -4.094  1.00  0.00    -0.014 A 
ATOM     80  C   UNL     1      20.588  11.104  -5.413  1.00  0.00     0.009 A 
ATOM     81  C   UNL     1      21.525  10.665  -3.226  1.00  0.00     0.009 A 
ATOM     82  C   UNL     1      21.843  11.524  -5.861  1.00  0.00     0.001 A 
ATOM     83  C   UNL     1      22.770  11.114  -3.668  1.00  0.00     0.001 A 
ATOM     84  C   UNL     1      22.930  11.534  -4.987  1.00  0.00     0.000 A 
ENDBRANCH  66  79
ENDBRANCH  40  41
ENDBRANCH  32  35
ENDBRANCH  30  31
ENDBRANCH  29  30
ENDBRANCH   1  29
TORSDOF 15
