REMARK SMILES COCC[C@]1(C(=O)NCCCCNC(=O)c2ccc(-c3c4nc(c(-c5ccccc5)c5ccc([nH]5)c(-c5ccccc5)c5nc(c(-c6ccccc6)c6ccc3[nH]6)C=C5)C=C4)cc2)CCC[N@@H+](Cc2ccc(C(F)(F)F)nc2)C1
REMARK SMILES IDX 10 1 9 2 8 3 6 4 7 5 5 7 64 8 79 9 65 10 67 11 66 12 4 14
REMARK SMILES IDX 3 15 2 16 1 17 68 18 69 19 70 20 78 21 71 22 77 23 72 24
REMARK SMILES IDX 73 25 74 26 75 27 76 28 11 29 12 30 13 31 14 32 15 34 16 35
REMARK SMILES IDX 17 36 63 37 18 38 62 39 19 40 20 41 21 42 56 43 22 44 61 45
REMARK SMILES IDX 55 46 57 47 23 48 60 49 54 50 53 51 24 53 46 54 31 55 45 56
REMARK SMILES IDX 32 57 35 58 44 59 58 60 33 61 34 62 43 64 59 65 36 66 25 67
REMARK SMILES IDX 26 68 30 69 27 70 29 71 28 72 47 73 48 74 52 75 49 76 51 77
REMARK SMILES IDX 50 78 37 79 38 80 42 81 39 82 41 83 40 84
REMARK H PARENT 8 6 67 13 13 33 57 52 35 63
REMARK Flexibility Score: inf
ROOT
ATOM      1  C   UNL     1       1.060   4.993  -1.249  1.00  0.00     0.023 C 
ENDROOT
BRANCH   1   2
ATOM      2  C   UNL     1       1.951   3.752  -1.251  1.00  0.00     0.116 C 
BRANCH   2   3
ATOM      3  N   UNL     1       1.321   2.651  -0.550  1.00  0.00    -0.355 N 
ATOM      4  C   UNL     1       0.529   1.638  -0.993  1.00  0.00     0.232 C 
ATOM      5  O   UNL     1      -0.293   1.244  -0.161  1.00  0.00    -0.274 OA
ATOM      6  H   UNL     1       1.498   2.633   0.419  1.00  0.00     0.163 HD
BRANCH   4   7
ATOM      7  C   UNL     1       0.570   1.088  -2.438  1.00  0.00     0.100 C 
ATOM      8  C   UNL     1      -0.231   2.111  -3.296  1.00  0.00     0.029 C 
ATOM      9  C   UNL     1       2.003   0.899  -3.001  1.00  0.00     0.279 C 
ATOM     10  C   UNL     1      -0.004   2.013  -4.801  1.00  0.00     0.063 C 
ATOM     11  N   UNL     1       1.986   0.665  -4.455  1.00  0.00    -0.330 N 
ATOM     12  C   UNL     1       1.469   1.841  -5.156  1.00  0.00     0.262 C 
ATOM     13  H   UNL     1       1.338  -0.107  -4.612  1.00  0.00     0.348 HD
BRANCH   7  14
ATOM     14  C   UNL     1      -0.169  -0.300  -2.487  1.00  0.00     0.051 C 
BRANCH  14  15
ATOM     15  C   UNL     1       0.499  -1.498  -1.773  1.00  0.00     0.161 C 
BRANCH  15  16
ATOM     16  O   UNL     1       0.347  -1.441  -0.361  1.00  0.00    -0.385 OA
ATOM     17  C   UNL     1       1.537  -1.149   0.353  1.00  0.00     0.194 C 
ENDBRANCH  15  16
ENDBRANCH  14  15
ENDBRANCH   7  14
BRANCH  11  18
ATOM     18  C   UNL     1       3.238   0.147  -5.021  1.00  0.00     0.300 C 
BRANCH  18  19
ATOM     19  C   UNL     1       4.473   0.979  -4.802  1.00  0.00     0.025 A 
ATOM     20  C   UNL     1       5.204   0.892  -3.616  1.00  0.00     0.013 A 
ATOM     21  C   UNL     1       4.931   1.866  -5.767  1.00  0.00     0.121 A 
ATOM     22  C   UNL     1       6.314   1.707  -3.420  1.00  0.00     0.034 A 
ATOM     23  N   UNL     1       6.012   2.664  -5.609  1.00  0.00    -0.251 NA
ATOM     24  C   UNL     1       6.692   2.595  -4.427  1.00  0.00     0.144 A 
BRANCH  24  25
ATOM     25  C   UNL     1       7.899   3.498  -4.210  1.00  0.00     0.433 C 
ATOM     26  F   UNL     1       9.000   3.094  -4.904  1.00  0.00    -0.165 F 
ATOM     27  F   UNL     1       7.677   4.795  -4.567  1.00  0.00    -0.165 F 
ATOM     28  F   UNL     1       8.294   3.550  -2.901  1.00  0.00    -0.165 F 
ENDBRANCH  24  25
ENDBRANCH  18  19
ENDBRANCH  11  18
ENDBRANCH   4   7
ENDBRANCH   2   3
ENDBRANCH   1   2
BRANCH   1  29
ATOM     29  C   UNL     1       0.804   5.600   0.127  1.00  0.00     0.023 C 
BRANCH  29  30
ATOM     30  C   UNL     1       2.059   5.957   0.907  1.00  0.00     0.116 C 
BRANCH  30  31
ATOM     31  N   UNL     1       2.958   6.824   0.162  1.00  0.00    -0.352 N 
ATOM     32  C   UNL     1       3.592   7.973   0.570  1.00  0.00     0.251 C 
ATOM     33  H   UNL     1       3.138   6.550  -0.766  1.00  0.00     0.163 HD
ATOM     34  O   UNL     1       4.194   8.666  -0.236  1.00  0.00    -0.269 OA
BRANCH  32  35
ATOM     35  C   UNL     1       3.512   8.374   1.988  1.00  0.00     0.039 A 
ATOM     36  C   UNL     1       3.232   9.707   2.295  1.00  0.00     0.014 A 
ATOM     37  C   UNL     1       3.690   7.434   3.007  1.00  0.00     0.014 A 
ATOM     38  C   UNL     1       3.076  10.084   3.628  1.00  0.00     0.010 A 
ATOM     39  C   UNL     1       3.441   7.793   4.326  1.00  0.00     0.010 A 
ATOM     40  C   UNL     1       3.146   9.124   4.651  1.00  0.00    -0.014 A 
BRANCH  40  41
ATOM     41  C   UNL     1       2.927   9.504   6.067  1.00  0.00     0.031 A 
ATOM     42  C   UNL     1       4.037   9.352   7.070  1.00  0.00     0.074 A 
ATOM     43  C   UNL     1       1.716   9.947   6.456  1.00  0.00     0.049 A 
ATOM     44  N   UNL     1       4.037   9.631   8.349  1.00  0.00    -0.248 NA
ATOM     45  C   UNL     1       5.307   8.789   6.580  1.00  0.00     0.031 C 
ATOM     46  C   UNL     1       0.545  10.091   5.588  1.00  0.00     0.029 A 
ATOM     47  N   UNL     1       1.272  10.366   7.685  1.00  0.00    -0.354 N 
ATOM     48  C   UNL     1       5.295   9.269   8.814  1.00  0.00     0.074 A 
ATOM     49  C   UNL     1       6.009   8.691   7.698  1.00  0.00     0.031 C 
ATOM     50  C   UNL     1      -0.470  10.605   6.301  1.00  0.00     0.029 A 
ATOM     51  C   UNL     1      -0.035  10.789   7.682  1.00  0.00     0.049 A 
ATOM     52  H   UNL     1       1.836  10.363   8.492  1.00  0.00     0.167 HD
ATOM     53  C   UNL     1       5.819   9.426  10.052  1.00  0.00     0.031 A 
ATOM     54  C   UNL     1      -0.797  11.274   8.680  1.00  0.00     0.031 A 
ATOM     55  C   UNL     1       5.108  10.005  11.159  1.00  0.00     0.049 A 
ATOM     56  C   UNL     1      -0.195  11.429  10.048  1.00  0.00     0.074 A 
ATOM     57  C   UNL     1       5.564  10.256  12.441  1.00  0.00     0.029 A 
ATOM     58  N   UNL     1       3.785  10.421  11.116  1.00  0.00    -0.354 N 
ATOM     59  N   UNL     1       1.021  11.152  10.454  1.00  0.00    -0.248 NA
ATOM     60  C   UNL     1      -1.068  11.981  11.093  1.00  0.00     0.031 C 
ATOM     61  C   UNL     1       4.500  10.770  13.190  1.00  0.00     0.029 A 
ATOM     62  C   UNL     1       3.402  10.904  12.356  1.00  0.00     0.049 A 
ATOM     63  H   UNL     1       3.205  10.378  10.322  1.00  0.00     0.167 HD
ATOM     64  C   UNL     1       1.069  11.527  11.790  1.00  0.00     0.074 A 
ATOM     65  C   UNL     1      -0.234  12.068  12.119  1.00  0.00     0.031 C 
ATOM     66  C   UNL     1       2.100  11.436  12.667  1.00  0.00     0.031 A 
BRANCH  53  67
ATOM     67  C   UNL     1       7.232   8.956  10.270  1.00  0.00    -0.014 A 
ATOM     68  C   UNL     1       8.319   9.606   9.663  1.00  0.00     0.009 A 
ATOM     69  C   UNL     1       7.482   7.864  11.115  1.00  0.00     0.009 A 
ATOM     70  C   UNL     1       9.623   9.146   9.865  1.00  0.00     0.001 A 
ATOM     71  C   UNL     1       8.789   7.428  11.342  1.00  0.00     0.001 A 
ATOM     72  C   UNL     1       9.857   8.062  10.709  1.00  0.00     0.000 A 
ENDBRANCH  53  67
BRANCH  54  73
ATOM     73  C   UNL     1      -2.204  11.675   8.418  1.00  0.00    -0.014 A 
ATOM     74  C   UNL     1      -2.581  13.027   8.460  1.00  0.00     0.009 A 
ATOM     75  C   UNL     1      -3.182  10.709   8.134  1.00  0.00     0.009 A 
ATOM     76  C   UNL     1      -3.912  13.398   8.257  1.00  0.00     0.001 A 
ATOM     77  C   UNL     1      -4.505  11.086   7.898  1.00  0.00     0.001 A 
ATOM     78  C   UNL     1      -4.872  12.429   7.971  1.00  0.00     0.000 A 
ENDBRANCH  54  73
BRANCH  66  79
ATOM     79  C   UNL     1       1.871  11.974  14.052  1.00  0.00    -0.014 A 
ATOM     80  C   UNL     1       1.010  11.334  14.957  1.00  0.00     0.009 A 
ATOM     81  C   UNL     1       2.551  13.131  14.464  1.00  0.00     0.009 A 
ATOM     82  C   UNL     1       0.801  11.868  16.230  1.00  0.00     0.001 A 
ATOM     83  C   UNL     1       2.368  13.643  15.749  1.00  0.00     0.001 A 
ATOM     84  C   UNL     1       1.483  13.018  16.626  1.00  0.00     0.000 A 
ENDBRANCH  66  79
ENDBRANCH  40  41
ENDBRANCH  32  35
ENDBRANCH  30  31
ENDBRANCH  29  30
ENDBRANCH   1  29
TORSDOF 17
