REMARK SMILES Cc1ccc(NC(=O)C[C@H]([NH2+]Cc2cccnc2)C(=O)NCCCCNC(=O)c2ccc(-c3c4nc(c(-c5ccccc5)c5ccc([nH]5)c(-c5ccccc5)c5nc(c(-c6ccccc6)c6ccc3[nH]6)C=C5)C=C4)cc2)cc1Cl
REMARK SMILES IDX 23 1 22 2 21 3 19 4 20 5 10 7 9 8 7 9 6 10 8 12 5 13 1 14
REMARK SMILES IDX 2 15 3 16 78 17 4 18 77 19 79 20 11 21 12 24 13 25 14 26
REMARK SMILES IDX 18 27 15 28 17 29 16 30 24 31 25 32 26 33 27 34 28 36 29 37
REMARK SMILES IDX 30 38 76 39 31 40 75 41 32 42 33 43 34 44 69 45 35 46 74 47
REMARK SMILES IDX 68 48 70 49 36 50 73 51 67 52 66 53 37 55 59 56 44 57 58 58
REMARK SMILES IDX 45 59 48 60 57 61 71 62 46 63 47 64 56 66 72 67 49 68 38 69
REMARK SMILES IDX 39 70 43 71 40 72 42 73 41 74 60 75 61 76 65 77 62 78 64 79
REMARK SMILES IDX 63 80 50 81 51 82 55 83 52 84 54 85 53 86
REMARK H PARENT 21 6 6 11 11 22 11 23 26 35 70 54 48 65
REMARK Flexibility Score: inf
ROOT
ATOM      1  C   UNL     1       2.805  -2.991   1.388  1.00  0.00     0.023 C 
ENDROOT
BRANCH   1   2
ATOM      2  C   UNL     1       2.578  -2.238   0.075  1.00  0.00     0.116 C 
BRANCH   2   3
ATOM      3  N   UNL     1       2.119  -3.129  -0.989  1.00  0.00    -0.351 N 
ATOM      4  C   UNL     1       0.948  -3.419  -1.609  1.00  0.00     0.278 C 
ATOM      5  O   UNL     1       1.024  -4.320  -2.462  1.00  0.00    -0.268 OA
ATOM      6  H   UNL     1       2.861  -3.663  -1.355  1.00  0.00     0.163 HD
BRANCH   4   7
ATOM      7  C   UNL     1      -0.460  -2.805  -1.324  1.00  0.00     0.282 C 
BRANCH   7   8
ATOM      8  C   UNL     1      -0.491  -1.422  -0.713  1.00  0.00     0.175 C 
BRANCH   8   9
ATOM      9  C   UNL     1      -0.725  -0.977   0.721  1.00  0.00     0.230 C 
ATOM     10  N   UNL     1      -0.695  -1.602   1.910  1.00  0.00    -0.326 N 
ATOM     11  H   UNL     1      -0.904  -0.955   2.622  1.00  0.00     0.169 HD
ATOM     12  O   UNL     1      -0.969   0.243   0.843  1.00  0.00    -0.274 OA
BRANCH  10  13
ATOM     13  C   UNL     1      -0.469  -2.862   2.483  1.00  0.00     0.042 A 
ATOM     14  C   UNL     1       0.175  -6.611   4.590  1.00  0.00     0.046 C 
ATOM     15  C   UNL     1      -0.033  -5.318   3.860  1.00  0.00    -0.032 A 
ATOM     16  C   UNL     1      -0.428  -4.168   4.550  1.00  0.00     0.007 A 
ATOM     17  C   UNL     1       0.144  -5.221   2.481  1.00  0.00     0.046 A 
ATOM     18  C   UNL     1      -0.645  -2.961   3.869  1.00  0.00     0.026 A 
ATOM     19  C   UNL     1      -0.050  -4.002   1.823  1.00  0.00     0.047 A 
ATOM     20  Cl  UNL     1       0.639  -6.577   1.528  1.00  0.00    -0.084 Cl
ENDBRANCH  10  13
ENDBRANCH   8   9
ENDBRANCH   7   8
BRANCH   7  21
ATOM     21  N   UNL     1      -1.346  -3.859  -0.807  1.00  0.00    -0.332 N 
ATOM     22  H   UNL     1      -0.974  -4.146   0.098  1.00  0.00     0.347 HD
ATOM     23  H   UNL     1      -1.343  -4.567  -1.542  1.00  0.00     0.347 HD
BRANCH  21  24
ATOM     24  C   UNL     1      -2.756  -3.553  -0.614  1.00  0.00     0.299 C 
BRANCH  24  25
ATOM     25  C   UNL     1      -3.252  -4.204   0.655  1.00  0.00     0.024 A 
ATOM     26  C   UNL     1      -3.181  -5.587   0.860  1.00  0.00     0.013 A 
ATOM     27  C   UNL     1      -3.734  -3.436   1.714  1.00  0.00     0.120 A 
ATOM     28  C   UNL     1      -3.541  -6.127   2.093  1.00  0.00     0.021 A 
ATOM     29  N   UNL     1      -4.105  -3.933   2.918  1.00  0.00    -0.264 NA
ATOM     30  C   UNL     1      -3.984  -5.267   3.083  1.00  0.00     0.111 A 
ENDBRANCH  24  25
ENDBRANCH  21  24
ENDBRANCH   7  21
ENDBRANCH   4   7
ENDBRANCH   2   3
ENDBRANCH   1   2
BRANCH   1  31
ATOM     31  C   UNL     1       4.179  -2.870   2.023  1.00  0.00     0.023 C 
BRANCH  31  32
ATOM     32  C   UNL     1       4.565  -1.464   2.452  1.00  0.00     0.116 C 
BRANCH  32  33
ATOM     33  N   UNL     1       3.739  -0.890   3.506  1.00  0.00    -0.352 N 
ATOM     34  C   UNL     1       4.135  -0.146   4.603  1.00  0.00     0.251 C 
ATOM     35  H   UNL     1       2.771  -1.053   3.426  1.00  0.00     0.163 HD
ATOM     36  O   UNL     1       3.311   0.243   5.427  1.00  0.00    -0.269 OA
BRANCH  34  37
ATOM     37  C   UNL     1       5.577   0.113   4.813  1.00  0.00     0.039 A 
ATOM     38  C   UNL     1       6.145  -0.175   6.056  1.00  0.00     0.014 A 
ATOM     39  C   UNL     1       6.383   0.512   3.748  1.00  0.00     0.014 A 
ATOM     40  C   UNL     1       7.537  -0.194   6.189  1.00  0.00     0.010 A 
ATOM     41  C   UNL     1       7.762   0.376   3.849  1.00  0.00     0.010 A 
ATOM     42  C   UNL     1       8.357   0.007   5.066  1.00  0.00    -0.014 A 
BRANCH  42  43
ATOM     43  C   UNL     1       9.831  -0.184   5.119  1.00  0.00     0.031 A 
ATOM     44  C   UNL     1      10.748   0.945   4.728  1.00  0.00     0.074 A 
ATOM     45  C   UNL     1      10.346  -1.398   5.404  1.00  0.00     0.049 A 
ATOM     46  N   UNL     1      12.048   0.938   4.573  1.00  0.00    -0.248 NA
ATOM     47  C   UNL     1      10.115   2.239   4.425  1.00  0.00     0.031 C 
ATOM     48  C   UNL     1       9.576  -2.600   5.734  1.00  0.00     0.029 A 
ATOM     49  N   UNL     1      11.652  -1.824   5.449  1.00  0.00    -0.354 N 
ATOM     50  C   UNL     1      12.377   2.205   4.108  1.00  0.00     0.074 A 
ATOM     51  C   UNL     1      11.139   2.939   3.963  1.00  0.00     0.031 C 
ATOM     52  C   UNL     1      10.422  -3.613   5.986  1.00  0.00     0.029 A 
ATOM     53  C   UNL     1      11.790  -3.148   5.792  1.00  0.00     0.049 A 
ATOM     54  H   UNL     1      12.417  -1.236   5.253  1.00  0.00     0.167 HD
ATOM     55  C   UNL     1      13.599   2.723   3.846  1.00  0.00     0.031 A 
ATOM     56  C   UNL     1      12.896  -3.904   5.934  1.00  0.00     0.031 A 
ATOM     57  C   UNL     1      14.835   2.020   4.050  1.00  0.00     0.049 A 
ATOM     58  C   UNL     1      14.245  -3.290   5.688  1.00  0.00     0.074 A 
ATOM     59  C   UNL     1      16.128   2.493   3.911  1.00  0.00     0.029 A 
ATOM     60  N   UNL     1      14.931   0.697   4.449  1.00  0.00    -0.354 N 
ATOM     61  N   UNL     1      14.541  -2.066   5.324  1.00  0.00    -0.248 NA
ATOM     62  C   UNL     1      15.414  -4.161   5.882  1.00  0.00     0.031 C 
ATOM     63  C   UNL     1      17.009   1.444   4.197  1.00  0.00     0.029 A 
ATOM     64  C   UNL     1      16.262   0.332   4.549  1.00  0.00     0.049 A 
ATOM     65  H   UNL     1      14.166   0.105   4.634  1.00  0.00     0.167 HD
ATOM     66  C   UNL     1      15.928  -2.012   5.275  1.00  0.00     0.074 A 
ATOM     67  C   UNL     1      16.415  -3.322   5.657  1.00  0.00     0.031 C 
ATOM     68  C   UNL     1      16.727  -0.970   4.944  1.00  0.00     0.031 A 
BRANCH  55  69
ATOM     69  C   UNL     1      13.655   4.127   3.316  1.00  0.00    -0.014 A 
ATOM     70  C   UNL     1      13.353   5.227   4.136  1.00  0.00     0.009 A 
ATOM     71  C   UNL     1      14.038   4.355   1.986  1.00  0.00     0.009 A 
ATOM     72  C   UNL     1      13.393   6.524   3.621  1.00  0.00     0.001 A 
ATOM     73  C   UNL     1      14.106   5.655   1.482  1.00  0.00     0.001 A 
ATOM     74  C   UNL     1      13.774   6.737   2.296  1.00  0.00     0.000 A 
ENDBRANCH  55  69
BRANCH  56  75
ATOM     75  C   UNL     1      12.786  -5.323   6.363  1.00  0.00    -0.014 A 
ATOM     76  C   UNL     1      13.176  -5.699   7.658  1.00  0.00     0.009 A 
ATOM     77  C   UNL     1      12.319  -6.309   5.481  1.00  0.00     0.009 A 
ATOM     78  C   UNL     1      13.130  -7.038   8.052  1.00  0.00     0.001 A 
ATOM     79  C   UNL     1      12.251  -7.645   5.887  1.00  0.00     0.001 A 
ATOM     80  C   UNL     1      12.666  -8.009   7.167  1.00  0.00     0.000 A 
ENDBRANCH  56  75
BRANCH  68  81
ATOM     81  C   UNL     1      18.209  -1.190   5.021  1.00  0.00    -0.014 A 
ATOM     82  C   UNL     1      18.885  -1.939   4.047  1.00  0.00     0.009 A 
ATOM     83  C   UNL     1      18.944  -0.600   6.062  1.00  0.00     0.009 A 
ATOM     84  C   UNL     1      20.268  -2.114   4.128  1.00  0.00     0.001 A 
ATOM     85  C   UNL     1      20.328  -0.757   6.126  1.00  0.00     0.001 A 
ATOM     86  C   UNL     1      20.988  -1.520   5.164  1.00  0.00     0.000 A 
ENDBRANCH  68  81
ENDBRANCH  42  43
ENDBRANCH  34  37
ENDBRANCH  32  33
ENDBRANCH  31  32
ENDBRANCH   1  31
TORSDOF 17
