REMARK SMILES CC(C)[C@@H](NC(=O)N[C@H]1CCS(=O)(=O)C1)C(=O)NCCCCNC(=O)c1ccc(-c2c3nc(c(-c4ccccc4)c4ccc([nH]4)c(-c4ccccc4)c4nc(c(-c5ccccc5)c5ccc2[nH]5)C=C4)C=C3)cc1
REMARK SMILES IDX 20 1 19 2 18 3 16 4 17 5 4 7 2 8 1 9 3 10 5 11 6 12 7 14
REMARK SMILES IDX 8 15 9 17 10 18 15 19 11 20 12 21 13 22 14 23 21 24 22 25
REMARK SMILES IDX 23 26 24 27 25 29 26 30 27 31 73 32 28 33 72 34 29 35 30 36
REMARK SMILES IDX 31 37 66 38 32 39 71 40 65 41 67 42 33 43 70 44 64 45 63 46
REMARK SMILES IDX 34 48 56 49 41 50 55 51 42 52 45 53 54 54 68 55 43 56 44 57
REMARK SMILES IDX 53 59 69 60 46 61 35 62 36 63 40 64 37 65 39 66 38 67 57 68
REMARK SMILES IDX 58 69 62 70 59 71 61 72 60 73 47 74 48 75 52 76 49 77 51 78
REMARK SMILES IDX 50 79
REMARK H PARENT 18 6 5 13 8 16 23 28 67 47 45 58
REMARK Flexibility Score: inf
ROOT
ATOM      1  C   UNL     1      -3.044  -5.418   4.455  1.00  0.00     0.023 C 
ENDROOT
BRANCH   1   2
ATOM      2  C   UNL     1      -3.552  -4.284   3.572  1.00  0.00     0.116 C 
BRANCH   2   3
ATOM      3  N   UNL     1      -3.464  -4.692   2.169  1.00  0.00    -0.354 N 
ATOM      4  C   UNL     1      -4.253  -4.490   1.042  1.00  0.00     0.242 C 
ATOM      5  O   UNL     1      -4.128  -5.042  -0.051  1.00  0.00    -0.273 OA
ATOM      6  H   UNL     1      -2.663  -5.233   1.980  1.00  0.00     0.163 HD
BRANCH   4   7
ATOM      7  C   UNL     1      -5.284  -3.451   1.101  1.00  0.00     0.175 C 
BRANCH   7   8
ATOM      8  C   UNL     1      -6.399  -4.198   1.926  1.00  0.00     0.015 C 
ATOM      9  C   UNL     1      -7.763  -3.535   1.991  1.00  0.00     0.010 C 
ATOM     10  C   UNL     1      -6.628  -5.631   1.330  1.00  0.00     0.010 C 
ENDBRANCH   7   8
BRANCH   7  11
ATOM     11  N   UNL     1      -4.383  -2.352   1.512  1.00  0.00    -0.326 N 
ATOM     12  C   UNL     1      -3.109  -2.017   1.149  1.00  0.00     0.315 C 
ATOM     13  H   UNL     1      -4.779  -1.743   2.176  1.00  0.00     0.166 HD
ATOM     14  O   UNL     1      -2.764  -0.866   1.455  1.00  0.00    -0.249 OA
ATOM     15  N   UNL     1      -2.102  -2.768   0.619  1.00  0.00    -0.334 N 
ATOM     16  H   UNL     1      -1.294  -2.258   0.858  1.00  0.00     0.165 HD
BRANCH  15  17
ATOM     17  C   UNL     1      -1.514  -4.024  -0.178  1.00  0.00     0.099 C 
ATOM     18  C   UNL     1       0.046  -3.898  -0.115  1.00  0.00     0.042 C 
ATOM     19  C   UNL     1      -1.610  -5.525   0.259  1.00  0.00     0.161 C 
ATOM     20  C   UNL     1       0.708  -5.119  -0.776  1.00  0.00     0.139 C 
ATOM     21  S   UNL     1      -0.464  -6.437  -0.703  1.00  0.00     0.152 S 
ATOM     22  O   UNL     1      -1.018  -6.659  -2.016  1.00  0.00    -0.229 OA
ATOM     23  O   UNL     1       0.047  -7.514   0.127  1.00  0.00    -0.229 OA
ENDBRANCH  15  17
ENDBRANCH   7  11
ENDBRANCH   4   7
ENDBRANCH   2   3
ENDBRANCH   1   2
BRANCH   1  24
ATOM     24  C   UNL     1      -1.552  -5.748   4.299  1.00  0.00     0.023 C 
BRANCH  24  25
ATOM     25  C   UNL     1      -0.587  -4.593   4.554  1.00  0.00     0.116 C 
BRANCH  25  26
ATOM     26  N   UNL     1      -0.668  -4.130   5.927  1.00  0.00    -0.352 N 
ATOM     27  C   UNL     1       0.241  -4.244   6.947  1.00  0.00     0.251 C 
ATOM     28  H   UNL     1      -1.503  -3.664   6.161  1.00  0.00     0.163 HD
ATOM     29  O   UNL     1      -0.132  -4.070   8.105  1.00  0.00    -0.269 OA
BRANCH  27  30
ATOM     30  C   UNL     1       1.663  -4.561   6.678  1.00  0.00     0.039 A 
ATOM     31  C   UNL     1       2.352  -5.373   7.584  1.00  0.00     0.014 A 
ATOM     32  C   UNL     1       2.348  -3.990   5.602  1.00  0.00     0.014 A 
ATOM     33  C   UNL     1       3.715  -5.626   7.402  1.00  0.00     0.010 A 
ATOM     34  C   UNL     1       3.691  -4.302   5.380  1.00  0.00     0.010 A 
ATOM     35  C   UNL     1       4.396  -5.103   6.292  1.00  0.00    -0.014 A 
BRANCH  35  36
ATOM     36  C   UNL     1       5.853  -5.343   6.102  1.00  0.00     0.031 A 
ATOM     37  C   UNL     1       6.823  -4.190   6.139  1.00  0.00     0.074 A 
ATOM     38  C   UNL     1       6.306  -6.590   5.866  1.00  0.00     0.049 A 
ATOM     39  N   UNL     1       8.121  -4.194   5.956  1.00  0.00    -0.248 NA
ATOM     40  C   UNL     1       6.260  -2.854   6.392  1.00  0.00     0.031 C 
ATOM     41  C   UNL     1       5.476  -7.793   5.785  1.00  0.00     0.029 A 
ATOM     42  N   UNL     1       7.582  -7.051   5.651  1.00  0.00    -0.354 N 
ATOM     43  C   UNL     1       8.522  -2.867   6.056  1.00  0.00     0.074 A 
ATOM     44  C   UNL     1       7.326  -2.080   6.259  1.00  0.00     0.031 C 
ATOM     45  C   UNL     1       6.266  -8.857   5.566  1.00  0.00     0.029 A 
ATOM     46  C   UNL     1       7.650  -8.409   5.447  1.00  0.00     0.049 A 
ATOM     47  H   UNL     1       8.373  -6.465   5.643  1.00  0.00     0.167 HD
ATOM     48  C   UNL     1       9.773  -2.348   6.004  1.00  0.00     0.031 A 
ATOM     49  C   UNL     1       8.706  -9.204   5.187  1.00  0.00     0.031 A 
ATOM     50  C   UNL     1      10.966  -3.129   5.810  1.00  0.00     0.049 A 
ATOM     51  C   UNL     1      10.081  -8.599   5.101  1.00  0.00     0.074 A 
ATOM     52  C   UNL     1      12.283  -2.700   5.789  1.00  0.00     0.029 A 
ATOM     53  N   UNL     1      10.989  -4.499   5.601  1.00  0.00    -0.354 N 
ATOM     54  N   UNL     1      10.448  -7.350   5.256  1.00  0.00    -0.248 NA
ATOM     55  C   UNL     1      11.191  -9.521   4.819  1.00  0.00     0.031 C 
ATOM     56  C   UNL     1      13.097  -3.801   5.505  1.00  0.00     0.029 A 
ATOM     57  C   UNL     1      12.294  -4.928   5.423  1.00  0.00     0.049 A 
ATOM     58  H   UNL     1      10.195  -5.081   5.582  1.00  0.00     0.167 HD
ATOM     59  C   UNL     1      11.832  -7.343   5.128  1.00  0.00     0.074 A 
ATOM     60  C   UNL     1      12.238  -8.713   4.897  1.00  0.00     0.031 C 
ATOM     61  C   UNL     1      12.688  -6.295   5.199  1.00  0.00     0.031 A 
BRANCH  48  62
ATOM     62  C   UNL     1       9.913  -0.856   6.147  1.00  0.00    -0.014 A 
ATOM     63  C   UNL     1       9.641  -0.208   7.363  1.00  0.00     0.009 A 
ATOM     64  C   UNL     1      10.361  -0.089   5.059  1.00  0.00     0.009 A 
ATOM     65  C   UNL     1       9.772   1.178   7.473  1.00  0.00     0.001 A 
ATOM     66  C   UNL     1      10.524   1.292   5.182  1.00  0.00     0.001 A 
ATOM     67  C   UNL     1      10.219   1.926   6.385  1.00  0.00     0.000 A 
ENDBRANCH  48  62
BRANCH  49  68
ATOM     68  C   UNL     1       8.511 -10.666   4.995  1.00  0.00    -0.014 A 
ATOM     69  C   UNL     1       9.011 -11.584   5.932  1.00  0.00     0.009 A 
ATOM     70  C   UNL     1       7.841 -11.155   3.862  1.00  0.00     0.009 A 
ATOM     71  C   UNL     1       8.875 -12.958   5.722  1.00  0.00     0.001 A 
ATOM     72  C   UNL     1       7.676 -12.529   3.672  1.00  0.00     0.001 A 
ATOM     73  C   UNL     1       8.204 -13.429   4.595  1.00  0.00     0.000 A 
ENDBRANCH  49  68
BRANCH  61  74
ATOM     74  C   UNL     1      14.158  -6.593   5.078  1.00  0.00    -0.014 A 
ATOM     75  C   UNL     1      14.731  -6.998   3.863  1.00  0.00     0.009 A 
ATOM     76  C   UNL     1      14.990  -6.425   6.197  1.00  0.00     0.009 A 
ATOM     77  C   UNL     1      16.100  -7.267   3.782  1.00  0.00     0.001 A 
ATOM     78  C   UNL     1      16.363  -6.660   6.105  1.00  0.00     0.001 A 
ATOM     79  C   UNL     1      16.914  -7.091   4.900  1.00  0.00     0.000 A 
ENDBRANCH  61  74
ENDBRANCH  35  36
ENDBRANCH  27  30
ENDBRANCH  25  26
ENDBRANCH  24  25
ENDBRANCH   1  24
TORSDOF 14
