REMARK SMILES O=C(C[NH2+]C1CCCC1)N[C@@H]1CCCCC[C@H]1C(=O)NCCCCNC(=O)c1ccc(-c2c3nc(c(-c4ccccc4)c4ccc([nH]4)c(-c4ccccc4)c4nc(c(-c5ccccc5)c5ccc2[nH]5)C=C4)C=C3)cc1
REMARK SMILES IDX 21 1 20 2 18 3 19 4 17 6 11 7 10 9 1 10 2 11 3 13 4 14 5 17
REMARK SMILES IDX 6 18 9 19 7 20 8 21 16 22 15 23 14 24 13 25 12 26 22 28
REMARK SMILES IDX 23 29 24 30 25 31 26 32 27 34 28 35 29 36 75 37 30 38 74 39
REMARK SMILES IDX 31 40 32 41 33 42 68 43 34 44 73 45 67 46 69 47 35 48 72 49
REMARK SMILES IDX 66 50 65 51 36 53 58 54 43 55 57 56 44 57 47 58 56 59 70 60
REMARK SMILES IDX 45 61 46 62 55 64 71 65 48 66 37 67 38 68 42 69 39 70 41 71
REMARK SMILES IDX 40 72 59 73 60 74 64 75 61 76 63 77 62 78 49 79 50 80 54 81
REMARK SMILES IDX 51 82 53 83 52 84
REMARK H PARENT 20 5 10 12 4 15 4 16 25 33 69 52 47 63
REMARK Flexibility Score: 100.00
ROOT
ATOM      1  C   UNL     1       0.614  -4.181   3.405  1.00  0.00     0.116 C 
ENDROOT
BRANCH   1   2
ATOM      2  N   UNL     1      -0.031  -3.533   2.291  1.00  0.00    -0.356 N 
ATOM      3  C   UNL     1       0.411  -3.278   1.031  1.00  0.00     0.225 C 
ATOM      4  O   UNL     1      -0.469  -3.184   0.166  1.00  0.00    -0.275 OA
ATOM      5  H   UNL     1      -0.946  -3.221   2.473  1.00  0.00     0.163 HD
BRANCH   3   6
ATOM      6  C   UNL     1       1.891  -3.141   0.627  1.00  0.00     0.101 C 
BRANCH   6   7
ATOM      7  C   UNL     1       2.713  -2.126   1.458  1.00  0.00     0.094 CG0
ATOM      8  G   UNL     1       4.103  -2.587   1.927  1.00  0.00     0.000 G0
BRANCH   7   9
ATOM      9  N   UNL     1       2.957  -0.904   0.659  1.00  0.00    -0.348 N 
ATOM     10  O   UNL     1       0.835  -0.022   0.698  1.00  0.00    -0.268 OA
ATOM     11  C   UNL     1       1.997   0.024   0.313  1.00  0.00     0.275 C 
ATOM     12  H   UNL     1       3.877  -0.741   0.350  1.00  0.00     0.163 HD
BRANCH  11  13
ATOM     13  C   UNL     1       2.520   1.092  -0.668  1.00  0.00     0.362 C 
BRANCH  13  14
ATOM     14  N   UNL     1       3.830   1.585  -0.201  1.00  0.00    -0.336 N 
ATOM     15  H   UNL     1       4.485   0.804  -0.219  1.00  0.00     0.346 HD
ATOM     16  H   UNL     1       3.670   1.967   0.731  1.00  0.00     0.346 HD
BRANCH  14  17
ATOM     17  C   UNL     1       4.407   2.675  -0.987  1.00  0.00     0.182 C 
ATOM     18  C   UNL     1       4.206   2.684  -2.503  1.00  0.00     0.065 C 
ATOM     19  C   UNL     1       3.924   4.072  -0.588  1.00  0.00     0.065 C 
ATOM     20  C   UNL     1       4.723   4.063  -2.904  1.00  0.00     0.006 C 
ATOM     21  C   UNL     1       4.403   4.981  -1.722  1.00  0.00     0.006 C 
ENDBRANCH  14  17
ENDBRANCH  13  14
ENDBRANCH  11  13
ENDBRANCH   7   9
ENDBRANCH   6   7
BRANCH   6  22
ATOM     22  C   UNL     1       2.566  -4.446   0.181  1.00  0.00     0.015 C 
BRANCH  22  23
ATOM     23  C   UNL     1       2.960  -5.485   1.219  1.00  0.00     0.001 C 
BRANCH  23  24
ATOM     24  C   UNL     1       4.151  -5.145   2.108  1.00  0.00     0.000 C 
BRANCH  24  25
ATOM     25  C   UNL     1       4.168  -3.804   2.834  1.00  0.00     0.002 C 
BRANCH  25  26
ATOM     26  C   UNL     1       4.103  -2.587   1.927  1.00  0.00     0.026 CG0
ATOM     27  G   UNL     1       2.713  -2.126   1.458  1.00  0.00     0.000 G0
ENDBRANCH  25  26
ENDBRANCH  24  25
ENDBRANCH  23  24
ENDBRANCH  22  23
ENDBRANCH   6  22
ENDBRANCH   3   6
ENDBRANCH   1   2
BRANCH   1  28
ATOM     28  C   UNL     1       0.640  -3.360   4.689  1.00  0.00     0.023 C 
BRANCH  28  29
ATOM     29  C   UNL     1      -0.129  -3.983   5.855  1.00  0.00     0.023 C 
BRANCH  29  30
ATOM     30  C   UNL     1       0.204  -5.432   6.207  1.00  0.00     0.116 C 
BRANCH  30  31
ATOM     31  N   UNL     1       1.576  -5.673   6.625  1.00  0.00    -0.352 N 
ATOM     32  C   UNL     1       2.016  -6.564   7.586  1.00  0.00     0.251 C 
ATOM     33  H   UNL     1       2.271  -5.141   6.173  1.00  0.00     0.163 HD
ATOM     34  O   UNL     1       3.206  -6.658   7.865  1.00  0.00    -0.269 OA
BRANCH  32  35
ATOM     35  C   UNL     1       1.012  -7.364   8.324  1.00  0.00     0.039 A 
ATOM     36  C   UNL     1       0.960  -7.263   9.716  1.00  0.00     0.014 A 
ATOM     37  C   UNL     1       0.049  -8.101   7.632  1.00  0.00     0.014 A 
ATOM     38  C   UNL     1      -0.126  -7.808  10.406  1.00  0.00     0.010 A 
ATOM     39  C   UNL     1      -1.071  -8.571   8.311  1.00  0.00     0.010 A 
ATOM     40  C   UNL     1      -1.182  -8.412   9.702  1.00  0.00    -0.014 A 
BRANCH  40  41
ATOM     41  C   UNL     1      -2.422  -8.856  10.392  1.00  0.00     0.031 A 
ATOM     42  C   UNL     1      -2.828 -10.304  10.358  1.00  0.00     0.074 A 
ATOM     43  C   UNL     1      -3.232  -7.948  10.975  1.00  0.00     0.049 A 
ATOM     44  N   UNL     1      -3.921 -10.867  10.809  1.00  0.00    -0.248 NA
ATOM     45  C   UNL     1      -1.899 -11.236   9.700  1.00  0.00     0.031 C 
ATOM     46  C   UNL     1      -2.992  -6.504  11.034  1.00  0.00     0.029 A 
ATOM     47  N   UNL     1      -4.432  -8.109  11.623  1.00  0.00    -0.354 N 
ATOM     48  C   UNL     1      -3.820 -12.209  10.468  1.00  0.00     0.074 A 
ATOM     49  C   UNL     1      -2.587 -12.367   9.729  1.00  0.00     0.031 C 
ATOM     50  C   UNL     1      -3.995  -5.917  11.709  1.00  0.00     0.029 A 
ATOM     51  C   UNL     1      -4.966  -6.934  12.097  1.00  0.00     0.049 A 
ATOM     52  H   UNL     1      -4.869  -8.983  11.738  1.00  0.00     0.167 HD
ATOM     53  C   UNL     1      -4.663 -13.228  10.762  1.00  0.00     0.031 A 
ATOM     54  C   UNL     1      -6.110  -6.700  12.768  1.00  0.00     0.031 A 
ATOM     55  C   UNL     1      -5.877 -13.086  11.519  1.00  0.00     0.049 A 
ATOM     56  C   UNL     1      -7.018  -7.851  13.104  1.00  0.00     0.074 A 
ATOM     57  C   UNL     1      -6.774 -14.067  11.905  1.00  0.00     0.029 A 
ATOM     58  N   UNL     1      -6.356 -11.885  12.016  1.00  0.00    -0.354 N 
ATOM     59  N   UNL     1      -6.880  -9.123  12.817  1.00  0.00    -0.248 NA
ATOM     60  C   UNL     1      -8.233  -7.534  13.868  1.00  0.00     0.031 C 
ATOM     61  C   UNL     1      -7.811 -13.455  12.617  1.00  0.00     0.029 A 
ATOM     62  C   UNL     1      -7.537 -12.100  12.706  1.00  0.00     0.049 A 
ATOM     63  H   UNL     1      -5.922 -11.009  11.897  1.00  0.00     0.167 HD
ATOM     64  C   UNL     1      -7.972  -9.759  13.391  1.00  0.00     0.074 A 
ATOM     65  C   UNL     1      -8.756  -8.738  14.053  1.00  0.00     0.031 C 
ATOM     66  C   UNL     1      -8.297 -11.074  13.370  1.00  0.00     0.031 A 
BRANCH  53  67
ATOM     67  C   UNL     1      -4.283 -14.594  10.266  1.00  0.00    -0.014 A 
ATOM     68  C   UNL     1      -3.209 -15.295  10.838  1.00  0.00     0.009 A 
ATOM     69  C   UNL     1      -5.012 -15.194   9.229  1.00  0.00     0.009 A 
ATOM     70  C   UNL     1      -2.847 -16.553  10.353  1.00  0.00     0.001 A 
ATOM     71  C   UNL     1      -4.665 -16.463   8.764  1.00  0.00     0.001 A 
ATOM     72  C   UNL     1      -3.577 -17.137   9.319  1.00  0.00     0.000 A 
ENDBRANCH  53  67
BRANCH  54  73
ATOM     73  C   UNL     1      -6.460  -5.322  13.199  1.00  0.00    -0.014 A 
ATOM     74  C   UNL     1      -6.386  -4.963  14.554  1.00  0.00     0.009 A 
ATOM     75  C   UNL     1      -6.895  -4.367  12.267  1.00  0.00     0.009 A 
ATOM     76  C   UNL     1      -6.771  -3.688  14.972  1.00  0.00     0.001 A 
ATOM     77  C   UNL     1      -7.255  -3.084  12.685  1.00  0.00     0.001 A 
ATOM     78  C   UNL     1      -7.203  -2.749  14.037  1.00  0.00     0.000 A 
ENDBRANCH  54  73
BRANCH  66  79
ATOM     79  C   UNL     1      -9.527 -11.489  14.124  1.00  0.00    -0.014 A 
ATOM     80  C   UNL     1     -10.811 -11.222  13.626  1.00  0.00     0.009 A 
ATOM     81  C   UNL     1      -9.395 -12.190  15.333  1.00  0.00     0.009 A 
ATOM     82  C   UNL     1     -11.941 -11.625  14.340  1.00  0.00     0.001 A 
ATOM     83  C   UNL     1     -10.525 -12.612  16.033  1.00  0.00     0.001 A 
ATOM     84  C   UNL     1     -11.797 -12.322  15.540  1.00  0.00     0.000 A 
ENDBRANCH  66  79
ENDBRANCH  40  41
ENDBRANCH  32  35
ENDBRANCH  30  31
ENDBRANCH  29  30
ENDBRANCH  28  29
ENDBRANCH   1  28
TORSDOF 15
