REMARK SMILES CCc1[nH]nc(-n2cccc2)c1C(=O)NCCCCNC(=O)c1ccc(-c2c3nc(c(-c4ccccc4)c4ccc([nH]4)c(-c4ccccc4)c4nc(c(-c5ccccc5)c5ccc2[nH]5)C=C4)C=C3)cc1
REMARK SMILES IDX 18 1 17 2 16 3 15 4 13 5 14 6 12 8 3 9 4 10 5 11 6 13 2 14
REMARK SMILES IDX 1 15 7 16 8 17 11 18 9 19 10 20 19 21 20 22 21 23 22 25
REMARK SMILES IDX 23 26 24 27 70 28 25 29 69 30 26 31 27 32 28 33 63 34 29 35
REMARK SMILES IDX 68 36 62 37 64 38 30 39 67 40 61 41 60 42 31 44 53 45 38 46
REMARK SMILES IDX 52 47 39 48 42 49 51 50 65 51 40 52 41 53 50 55 66 56 43 57
REMARK SMILES IDX 32 58 33 59 37 60 34 61 36 62 35 63 54 64 55 65 59 66 56 67
REMARK SMILES IDX 58 68 57 69 44 70 45 71 49 72 46 73 48 74 47 75
REMARK H PARENT 15 7 4 12 20 24 64 43 42 54
REMARK Flexibility Score: inf
ROOT
ATOM      1  C   UNL     1      -3.363   0.355   1.071  1.00  0.00     0.023 C 
ENDROOT
BRANCH   1   2
ATOM      2  C   UNL     1      -2.391   0.222  -0.105  1.00  0.00     0.023 C 
BRANCH   2   3
ATOM      3  C   UNL     1      -1.093  -0.496   0.227  1.00  0.00     0.116 C 
BRANCH   3   4
ATOM      4  N   UNL     1      -1.132  -1.914   0.025  1.00  0.00    -0.352 N 
ATOM      5  C   UNL     1      -0.331  -2.798  -0.649  1.00  0.00     0.256 C 
ATOM      6  O   UNL     1      -0.523  -3.960  -0.277  1.00  0.00    -0.269 OA
ATOM      7  H   UNL     1      -1.899  -2.346   0.465  1.00  0.00     0.163 HD
BRANCH   5   8
ATOM      8  C   UNL     1       0.663  -2.501  -1.699  1.00  0.00     0.105 A 
ATOM      9  C   UNL     1       1.353  -1.356  -2.142  1.00  0.00     0.050 A 
ATOM     10  N   UNL     1       2.226  -1.784  -3.113  1.00  0.00    -0.280 N 
ATOM     11  N   UNL     1       2.283  -3.097  -3.266  1.00  0.00    -0.156 NA
ATOM     12  H   UNL     1       2.766  -1.163  -3.652  1.00  0.00     0.190 HD
ATOM     13  C   UNL     1       1.294  -3.540  -2.487  1.00  0.00     0.171 A 
BRANCH   9  14
ATOM     14  C   UNL     1       1.427   0.105  -1.833  1.00  0.00     0.053 C 
ATOM     15  C   UNL     1       2.070   0.379  -0.476  1.00  0.00     0.011 C 
ENDBRANCH   9  14
BRANCH  13  16
ATOM     16  N   UNL     1       1.046  -4.950  -2.544  1.00  0.00    -0.307 N 
ATOM     17  C   UNL     1      -0.169  -5.605  -2.514  1.00  0.00     0.093 A 
ATOM     18  C   UNL     1       2.024  -5.918  -2.717  1.00  0.00     0.093 A 
ATOM     19  C   UNL     1       0.048  -6.965  -2.573  1.00  0.00     0.020 A 
ATOM     20  C   UNL     1       1.441  -7.164  -2.674  1.00  0.00     0.020 A 
ENDBRANCH  13  16
ENDBRANCH   5   8
ENDBRANCH   3   4
ENDBRANCH   2   3
ENDBRANCH   1   2
BRANCH   1  21
ATOM     21  C   UNL     1      -2.807   1.109   2.285  1.00  0.00     0.116 C 
BRANCH  21  22
ATOM     22  N   UNL     1      -2.418   2.469   1.951  1.00  0.00    -0.352 N 
ATOM     23  C   UNL     1      -1.952   3.463   2.777  1.00  0.00     0.251 C 
ATOM     24  H   UNL     1      -2.500   2.712   1.000  1.00  0.00     0.163 HD
ATOM     25  O   UNL     1      -2.035   4.632   2.424  1.00  0.00    -0.269 OA
BRANCH  23  26
ATOM     26  C   UNL     1      -1.351   3.146   4.089  1.00  0.00     0.039 A 
ATOM     27  C   UNL     1      -1.705   3.938   5.189  1.00  0.00     0.014 A 
ATOM     28  C   UNL     1      -0.372   2.154   4.216  1.00  0.00     0.014 A 
ATOM     29  C   UNL     1      -1.127   3.695   6.432  1.00  0.00     0.010 A 
ATOM     30  C   UNL     1       0.204   1.904   5.459  1.00  0.00     0.010 A 
ATOM     31  C   UNL     1      -0.194   2.658   6.571  1.00  0.00    -0.014 A 
BRANCH  31  32
ATOM     32  C   UNL     1       0.179   2.215   7.936  1.00  0.00     0.031 A 
ATOM     33  C   UNL     1      -0.896   1.263   8.529  1.00  0.00     0.074 A 
ATOM     34  C   UNL     1       1.358   2.695   8.443  1.00  0.00     0.049 A 
ATOM     35  N   UNL     1      -1.102   0.880   9.753  1.00  0.00    -0.248 NA
ATOM     36  C   UNL     1      -1.906   0.649   7.614  1.00  0.00     0.031 C 
ATOM     37  C   UNL     1       2.323   3.540   7.697  1.00  0.00     0.029 A 
ATOM     38  N   UNL     1       1.997   2.582   9.662  1.00  0.00    -0.354 N 
ATOM     39  C   UNL     1      -2.111  -0.116   9.735  1.00  0.00     0.074 A 
ATOM     40  C   UNL     1      -2.610  -0.168   8.398  1.00  0.00     0.031 C 
ATOM     41  C   UNL     1       3.357   3.916   8.484  1.00  0.00     0.029 A 
ATOM     42  C   UNL     1       3.180   3.360   9.811  1.00  0.00     0.049 A 
ATOM     43  H   UNL     1       1.656   2.002  10.381  1.00  0.00     0.167 HD
ATOM     44  C   UNL     1      -2.398  -0.919  10.802  1.00  0.00     0.031 A 
ATOM     45  C   UNL     1       3.935   3.574  10.935  1.00  0.00     0.031 A 
ATOM     46  C   UNL     1      -1.713  -0.461  11.958  1.00  0.00     0.049 A 
ATOM     47  C   UNL     1       3.365   2.685  11.950  1.00  0.00     0.074 A 
ATOM     48  C   UNL     1      -1.897   0.614  12.786  1.00  0.00     0.029 A 
ATOM     49  N   UNL     1      -0.469  -0.990  12.175  1.00  0.00    -0.354 N 
ATOM     50  N   UNL     1       3.557   1.405  11.996  1.00  0.00    -0.248 NA
ATOM     51  C   UNL     1       2.463   3.247  12.963  1.00  0.00     0.031 C 
ATOM     52  C   UNL     1      -0.579   1.005  13.101  1.00  0.00     0.029 A 
ATOM     53  C   UNL     1       0.316   0.041  12.626  1.00  0.00     0.049 A 
ATOM     54  H   UNL     1      -0.192  -1.924  12.036  1.00  0.00     0.167 HD
ATOM     55  C   UNL     1       2.504   0.985  12.765  1.00  0.00     0.074 A 
ATOM     56  C   UNL     1       2.103   2.119  13.569  1.00  0.00     0.031 C 
ATOM     57  C   UNL     1       1.723  -0.035  12.335  1.00  0.00     0.031 A 
BRANCH  44  58
ATOM     58  C   UNL     1      -3.074  -2.263  10.895  1.00  0.00    -0.014 A 
ATOM     59  C   UNL     1      -3.338  -2.770  12.193  1.00  0.00     0.009 A 
ATOM     60  C   UNL     1      -3.126  -3.175   9.836  1.00  0.00     0.009 A 
ATOM     61  C   UNL     1      -3.494  -4.135  12.440  1.00  0.00     0.001 A 
ATOM     62  C   UNL     1      -3.325  -4.544  10.079  1.00  0.00     0.001 A 
ATOM     63  C   UNL     1      -3.464  -5.027  11.380  1.00  0.00     0.000 A 
ENDBRANCH  44  58
BRANCH  45  64
ATOM     64  C   UNL     1       5.077   4.437  11.424  1.00  0.00    -0.014 A 
ATOM     65  C   UNL     1       5.899   5.256  10.648  1.00  0.00     0.009 A 
ATOM     66  C   UNL     1       5.339   4.475  12.827  1.00  0.00     0.009 A 
ATOM     67  C   UNL     1       6.851   6.114  11.252  1.00  0.00     0.001 A 
ATOM     68  C   UNL     1       6.245   5.349  13.433  1.00  0.00     0.001 A 
ATOM     69  C   UNL     1       6.998   6.187  12.638  1.00  0.00     0.000 A 
ENDBRANCH  45  64
BRANCH  57  70
ATOM     70  C   UNL     1       2.344  -0.909  11.253  1.00  0.00    -0.014 A 
ATOM     71  C   UNL     1       3.495  -1.656  11.536  1.00  0.00     0.009 A 
ATOM     72  C   UNL     1       1.883  -0.919   9.922  1.00  0.00     0.009 A 
ATOM     73  C   UNL     1       4.167  -2.368  10.533  1.00  0.00     0.001 A 
ATOM     74  C   UNL     1       2.551  -1.633   8.915  1.00  0.00     0.001 A 
ATOM     75  C   UNL     1       3.697  -2.356   9.222  1.00  0.00     0.000 A 
ENDBRANCH  57  70
ENDBRANCH  31  32
ENDBRANCH  23  26
ENDBRANCH  21  22
ENDBRANCH   1  21
TORSDOF 13
