REMARK SMILES C[NH+](C)CCc1nc(Nc2ccc(O)c(C(=O)NCCCCNC(=O)c3ccc(-c4c5nc(c(-c6ccccc6)c6ccc([nH]6)c(-c6ccccc6)c6nc(c(-c7ccccc7)c7ccc4[nH]7)C=C6)C=C5)cc3)c2)c2ccccc2n1
REMARK SMILES IDX 19 1 18 2 16 3 17 4 15 6 10 7 11 8 74 9 12 10 13 11 9 12
REMARK SMILES IDX 8 14 6 15 7 16 81 17 80 18 75 19 79 20 76 21 78 22 77 23
REMARK SMILES IDX 5 24 4 25 2 26 1 27 3 28 14 30 20 32 21 33 22 34 23 35 24 36
REMARK SMILES IDX 25 38 26 39 27 40 73 41 28 42 72 43 29 44 30 45 31 46 66 47
REMARK SMILES IDX 32 48 71 49 65 50 67 51 33 52 70 53 64 54 63 55 34 57 56 58
REMARK SMILES IDX 41 59 55 60 42 61 45 62 54 63 68 64 43 65 44 66 53 68 69 69
REMARK SMILES IDX 46 70 35 71 36 72 40 73 37 74 39 75 38 76 57 77 58 78 62 79
REMARK SMILES IDX 59 80 61 81 60 82 47 83 48 84 52 85 49 86 51 87 50 88
REMARK H PARENT 18 5 9 13 2 29 14 31 23 37 67 56 45 67
REMARK Flexibility Score: inf
ROOT
ATOM      1  C   UNL     1      -1.071   7.350  -7.903  1.00  0.00     0.116 C 
ENDROOT
BRANCH   1   2
ATOM      2  N   UNL     1      -0.099   7.942  -7.016  1.00  0.00    -0.352 N 
ATOM      3  C   UNL     1       0.094   7.835  -5.665  1.00  0.00     0.255 C 
ATOM      4  O   UNL     1       0.948   8.593  -5.191  1.00  0.00    -0.269 OA
ATOM      5  H   UNL     1       0.546   8.534  -7.466  1.00  0.00     0.163 HD
BRANCH   3   6
ATOM      6  C   UNL     1      -0.559   6.840  -4.753  1.00  0.00     0.083 A 
ATOM      7  C   UNL     1      -0.176   5.596  -2.658  1.00  0.00     0.041 A 
ATOM      8  C   UNL     1      -1.407   4.966  -2.814  1.00  0.00     0.030 A 
ATOM      9  C   UNL     1       0.236   6.510  -3.634  1.00  0.00     0.043 A 
ATOM     10  C   UNL     1      -2.231   5.292  -3.885  1.00  0.00     0.049 A 
ATOM     11  C   UNL     1      -1.821   6.237  -4.835  1.00  0.00     0.128 A 
BRANCH   7  12
ATOM     12  N   UNL     1       0.686   5.278  -1.599  1.00  0.00    -0.340 N 
ATOM     13  H   UNL     1       1.079   6.035  -1.108  1.00  0.00     0.168 HD
BRANCH  12  14
ATOM     14  C   UNL     1       1.046   3.986  -1.163  1.00  0.00     0.142 A 
ATOM     15  C   UNL     1       1.183   1.730  -1.592  1.00  0.00     0.137 A 
ATOM     16  N   UNL     1       0.743   2.941  -1.956  1.00  0.00    -0.215 NA
ATOM     17  N   UNL     1       1.956   1.508  -0.523  1.00  0.00    -0.233 NA
ATOM     18  C   UNL     1       2.167   2.527   0.314  1.00  0.00     0.076 A 
ATOM     19  C   UNL     1       1.705   3.822   0.063  1.00  0.00     0.043 A 
ATOM     20  C   UNL     1       2.847   2.283   1.499  1.00  0.00     0.029 A 
ATOM     21  C   UNL     1       1.909   4.840   1.030  1.00  0.00     0.014 A 
ATOM     22  C   UNL     1       3.046   3.281   2.456  1.00  0.00     0.002 A 
ATOM     23  C   UNL     1       2.567   4.563   2.225  1.00  0.00     0.001 A 
BRANCH  15  24
ATOM     24  C   UNL     1       0.769   0.583  -2.472  1.00  0.00     0.138 C 
BRANCH  24  25
ATOM     25  C   UNL     1       0.988  -0.841  -1.931  1.00  0.00     0.269 C 
BRANCH  25  26
ATOM     26  N   UNL     1       0.130  -1.388  -0.863  1.00  0.00    -0.339 N 
ATOM     27  C   UNL     1       0.475  -0.895   0.466  1.00  0.00     0.332 C 
ATOM     28  C   UNL     1      -1.298  -1.235  -1.117  1.00  0.00     0.332 C 
ATOM     29  H   UNL     1       0.327  -2.389  -0.880  1.00  0.00     0.347 HD
ENDBRANCH  25  26
ENDBRANCH  24  25
ENDBRANCH  15  24
ENDBRANCH  12  14
ENDBRANCH   7  12
BRANCH  11  30
ATOM     30  O   UNL     1      -2.738   6.557  -5.790  1.00  0.00    -0.507 OA
ATOM     31  H   UNL     1      -3.570   6.126  -5.803  1.00  0.00     0.293 HD
ENDBRANCH  11  30
ENDBRANCH   3   6
ENDBRANCH   1   2
BRANCH   1  32
ATOM     32  C   UNL     1      -2.329   8.224  -7.952  1.00  0.00     0.023 C 
BRANCH  32  33
ATOM     33  C   UNL     1      -2.224   9.439  -8.870  1.00  0.00     0.023 C 
BRANCH  33  34
ATOM     34  C   UNL     1      -2.154   9.096 -10.348  1.00  0.00     0.116 C 
BRANCH  34  35
ATOM     35  N   UNL     1      -3.311   8.353 -10.826  1.00  0.00    -0.352 N 
ATOM     36  C   UNL     1      -3.819   8.326 -12.104  1.00  0.00     0.251 C 
ATOM     37  H   UNL     1      -3.785   7.807 -10.158  1.00  0.00     0.163 HD
ATOM     38  O   UNL     1      -4.845   7.721 -12.372  1.00  0.00    -0.269 OA
BRANCH  36  39
ATOM     39  C   UNL     1      -3.109   9.100 -13.139  1.00  0.00     0.039 A 
ATOM     40  C   UNL     1      -3.796  10.111 -13.814  1.00  0.00     0.014 A 
ATOM     41  C   UNL     1      -1.743   8.893 -13.347  1.00  0.00     0.014 A 
ATOM     42  C   UNL     1      -3.090  10.972 -14.653  1.00  0.00     0.010 A 
ATOM     43  C   UNL     1      -1.032   9.792 -14.130  1.00  0.00     0.010 A 
ATOM     44  C   UNL     1      -1.698  10.841 -14.785  1.00  0.00    -0.014 A 
BRANCH  44  45
ATOM     45  C   UNL     1      -0.902  11.772 -15.618  1.00  0.00     0.031 A 
ATOM     46  C   UNL     1      -0.189  11.242 -16.829  1.00  0.00     0.074 A 
ATOM     47  C   UNL     1      -0.744  13.054 -15.239  1.00  0.00     0.049 A 
ATOM     48  N   UNL     1       0.695  11.832 -17.591  1.00  0.00    -0.248 NA
ATOM     49  C   UNL     1      -0.488   9.852 -17.213  1.00  0.00     0.031 C 
ATOM     50  C   UNL     1      -1.364  13.682 -14.070  1.00  0.00     0.029 A 
ATOM     51  N   UNL     1       0.011  14.057 -15.793  1.00  0.00    -0.354 N 
ATOM     52  C   UNL     1       1.076  10.878 -18.525  1.00  0.00     0.074 A 
ATOM     53  C   UNL     1       0.360   9.661 -18.212  1.00  0.00     0.031 C 
ATOM     54  C   UNL     1      -0.971  14.965 -14.000  1.00  0.00     0.029 A 
ATOM     55  C   UNL     1      -0.041  15.237 -15.091  1.00  0.00     0.049 A 
ATOM     56  H   UNL     1       0.539  13.943 -16.616  1.00  0.00     0.167 HD
ATOM     57  C   UNL     1       1.934  11.009 -19.563  1.00  0.00     0.031 A 
ATOM     58  C   UNL     1       0.606  16.400 -15.295  1.00  0.00     0.031 A 
ATOM     59  C   UNL     1       2.629  12.223 -19.887  1.00  0.00     0.049 A 
ATOM     60  C   UNL     1       1.554  16.519 -16.457  1.00  0.00     0.074 A 
ATOM     61  C   UNL     1       3.506  12.463 -20.930  1.00  0.00     0.029 A 
ATOM     62  N   UNL     1       2.512  13.407 -19.178  1.00  0.00    -0.354 N 
ATOM     63  N   UNL     1       1.889  15.614 -17.345  1.00  0.00    -0.248 NA
ATOM     64  C   UNL     1       2.208  17.822 -16.648  1.00  0.00     0.031 C 
ATOM     65  C   UNL     1       3.937  13.791 -20.839  1.00  0.00     0.029 A 
ATOM     66  C   UNL     1       3.297  14.384 -19.763  1.00  0.00     0.049 A 
ATOM     67  H   UNL     1       1.954  13.534 -18.377  1.00  0.00     0.167 HD
ATOM     68  C   UNL     1       2.764  16.247 -18.218  1.00  0.00     0.074 A 
ATOM     69  C   UNL     1       2.903  17.614 -17.758  1.00  0.00     0.031 C 
ATOM     70  C   UNL     1       3.397  15.743 -19.303  1.00  0.00     0.031 A 
BRANCH  57  71
ATOM     71  C   UNL     1       2.158   9.801 -20.425  1.00  0.00    -0.014 A 
ATOM     72  C   UNL     1       1.164   9.354 -21.310  1.00  0.00     0.009 A 
ATOM     73  C   UNL     1       3.382   9.118 -20.373  1.00  0.00     0.009 A 
ATOM     74  C   UNL     1       1.380   8.227 -22.104  1.00  0.00     0.001 A 
ATOM     75  C   UNL     1       3.605   8.006 -21.187  1.00  0.00     0.001 A 
ATOM     76  C   UNL     1       2.602   7.557 -22.045  1.00  0.00     0.000 A 
ENDBRANCH  57  71
BRANCH  58  77
ATOM     77  C   UNL     1       0.385  17.553 -14.385  1.00  0.00    -0.014 A 
ATOM     78  C   UNL     1      -0.328  18.679 -14.825  1.00  0.00     0.009 A 
ATOM     79  C   UNL     1       0.910  17.548 -13.083  1.00  0.00     0.009 A 
ATOM     80  C   UNL     1      -0.481  19.790 -13.992  1.00  0.00     0.001 A 
ATOM     81  C   UNL     1       0.732  18.650 -12.244  1.00  0.00     0.001 A 
ATOM     82  C   UNL     1       0.047  19.774 -12.703  1.00  0.00     0.000 A 
ENDBRANCH  58  77
BRANCH  70  83
ATOM     83  C   UNL     1       4.247  16.684 -20.104  1.00  0.00    -0.014 A 
ATOM     84  C   UNL     1       5.517  17.078 -19.658  1.00  0.00     0.009 A 
ATOM     85  C   UNL     1       3.791  17.131 -21.354  1.00  0.00     0.009 A 
ATOM     86  C   UNL     1       6.306  17.922 -20.441  1.00  0.00     0.001 A 
ATOM     87  C   UNL     1       4.591  17.956 -22.144  1.00  0.00     0.001 A 
ATOM     88  C   UNL     1       5.845  18.355 -21.685  1.00  0.00     0.000 A 
ENDBRANCH  70  83
ENDBRANCH  44  45
ENDBRANCH  36  39
ENDBRANCH  34  35
ENDBRANCH  33  34
ENDBRANCH  32  33
ENDBRANCH   1  32
TORSDOF 17
