REMARK SMILES CC(C)C[NH+]1CC[NH+]([C@H](C)[C@@H](C)C(=O)NCCCCNC(=O)c2ccc(-c3c4nc(c(-c5ccccc5)c5ccc([nH]5)c(-c5ccccc5)c5nc(c(-c6ccccc6)c6ccc3[nH]6)C=C5)C=C4)cc2)CC1
REMARK SMILES IDX 16 1 15 2 13 3 14 4 11 6 12 7 9 8 10 9 8 10 5 11 6 12 72 13
REMARK SMILES IDX 7 15 71 16 4 18 2 19 1 20 3 21 17 22 18 23 19 24 20 25 21 26
REMARK SMILES IDX 22 28 23 29 24 30 70 31 25 32 69 33 26 34 27 35 28 36 63 37
REMARK SMILES IDX 29 38 68 39 62 40 64 41 30 42 67 43 61 44 60 45 31 47 53 48
REMARK SMILES IDX 38 49 52 50 39 51 42 52 51 53 65 54 40 55 41 56 50 58 66 59
REMARK SMILES IDX 43 60 32 61 33 62 37 63 34 64 36 65 35 66 54 67 55 68 59 69
REMARK SMILES IDX 56 70 58 71 57 72 44 73 45 74 49 75 46 76 48 77 47 78
REMARK H PARENT 15 5 5 14 8 17 20 27 64 46 42 57
REMARK Flexibility Score: inf
ROOT
ATOM      1  C   UNL     1      -6.256  -2.691   5.326  1.00  0.00     0.116 C 
ENDROOT
BRANCH   1   2
ATOM      2  N   UNL     1      -5.889  -3.953   4.718  1.00  0.00    -0.356 N 
ATOM      3  C   UNL     1      -4.691  -4.417   4.266  1.00  0.00     0.228 C 
ATOM      4  O   UNL     1      -4.671  -5.564   3.809  1.00  0.00    -0.275 OA
ATOM      5  H   UNL     1      -6.635  -4.586   4.613  1.00  0.00     0.163 HD
BRANCH   3   6
ATOM      6  C   UNL     1      -3.401  -3.608   4.381  1.00  0.00     0.133 C 
ATOM      7  C   UNL     1      -2.993  -3.483   5.854  1.00  0.00     0.024 C 
BRANCH   6   8
ATOM      8  C   UNL     1      -3.433  -2.278   3.576  1.00  0.00     0.193 C 
ATOM      9  C   UNL     1      -2.181  -1.421   3.851  1.00  0.00     0.076 C 
BRANCH   8  10
ATOM     10  N   UNL     1      -3.682  -2.528   2.132  1.00  0.00    -0.323 N 
ATOM     11  N   UNL     1      -3.045  -1.772  -0.707  1.00  0.00    -0.325 N 
ATOM     12  C   UNL     1      -2.627  -3.059  -0.126  1.00  0.00     0.324 C 
ATOM     13  C   UNL     1      -4.358  -1.455  -0.096  1.00  0.00     0.324 C 
ATOM     14  H   UNL     1      -3.072  -1.885  -1.720  1.00  0.00     0.348 HD
ATOM     15  C   UNL     1      -2.514  -3.066   1.412  1.00  0.00     0.324 C 
ATOM     16  C   UNL     1      -4.329  -1.388   1.455  1.00  0.00     0.324 C 
ATOM     17  H   UNL     1      -4.366  -3.284   2.101  1.00  0.00     0.348 HD
BRANCH  11  18
ATOM     18  C   UNL     1      -2.120  -0.641  -0.493  1.00  0.00     0.265 C 
BRANCH  18  19
ATOM     19  C   UNL     1      -0.601  -0.874  -0.620  1.00  0.00     0.038 C 
ATOM     20  C   UNL     1      -0.177  -1.286  -2.025  1.00  0.00     0.013 C 
ATOM     21  C   UNL     1       0.128   0.410  -0.200  1.00  0.00     0.013 C 
ENDBRANCH  18  19
ENDBRANCH  11  18
ENDBRANCH   8  10
ENDBRANCH   6   8
ENDBRANCH   3   6
ENDBRANCH   1   2
BRANCH   1  22
ATOM     22  C   UNL     1      -7.081  -1.819   4.383  1.00  0.00     0.023 C 
BRANCH  22  23
ATOM     23  C   UNL     1      -8.482  -2.342   4.083  1.00  0.00     0.023 C 
BRANCH  23  24
ATOM     24  C   UNL     1      -9.335  -2.612   5.312  1.00  0.00     0.116 C 
BRANCH  24  25
ATOM     25  N   UNL     1      -9.457  -1.456   6.188  1.00  0.00    -0.352 N 
ATOM     26  C   UNL     1     -10.568  -0.998   6.857  1.00  0.00     0.251 C 
ATOM     27  H   UNL     1      -8.634  -0.931   6.319  1.00  0.00     0.163 HD
ATOM     28  O   UNL     1     -10.538   0.060   7.466  1.00  0.00    -0.269 OA
BRANCH  26  29
ATOM     29  C   UNL     1     -11.812  -1.790   6.792  1.00  0.00     0.039 A 
ATOM     30  C   UNL     1     -13.002  -1.147   6.449  1.00  0.00     0.014 A 
ATOM     31  C   UNL     1     -11.786  -3.169   7.014  1.00  0.00     0.014 A 
ATOM     32  C   UNL     1     -14.160  -1.903   6.260  1.00  0.00     0.010 A 
ATOM     33  C   UNL     1     -12.918  -3.928   6.747  1.00  0.00     0.010 A 
ATOM     34  C   UNL     1     -14.116  -3.302   6.370  1.00  0.00    -0.014 A 
BRANCH  34  35
ATOM     35  C   UNL     1     -15.313  -4.134   6.099  1.00  0.00     0.031 A 
ATOM     36  C   UNL     1     -15.918  -4.959   7.200  1.00  0.00     0.074 A 
ATOM     37  C   UNL     1     -15.811  -4.201   4.849  1.00  0.00     0.049 A 
ATOM     38  N   UNL     1     -16.920  -5.799   7.146  1.00  0.00    -0.248 NA
ATOM     39  C   UNL     1     -15.296  -4.847   8.530  1.00  0.00     0.031 C 
ATOM     40  C   UNL     1     -15.288  -3.482   3.685  1.00  0.00     0.029 A 
ATOM     41  N   UNL     1     -16.869  -4.917   4.349  1.00  0.00    -0.354 N 
ATOM     42  C   UNL     1     -17.034  -6.328   8.425  1.00  0.00     0.074 A 
ATOM     43  C   UNL     1     -15.970  -5.756   9.219  1.00  0.00     0.031 C 
ATOM     44  C   UNL     1     -16.045  -3.771   2.614  1.00  0.00     0.029 A 
ATOM     45  C   UNL     1     -17.079  -4.724   3.005  1.00  0.00     0.049 A 
ATOM     46  H   UNL     1     -17.426  -5.512   4.901  1.00  0.00     0.167 HD
ATOM     47  C   UNL     1     -17.956  -7.197   8.903  1.00  0.00     0.031 A 
ATOM     48  C   UNL     1     -17.997  -5.259   2.179  1.00  0.00     0.031 A 
ATOM     49  C   UNL     1     -19.023  -7.755   8.117  1.00  0.00     0.049 A 
ATOM     50  C   UNL     1     -19.004  -6.229   2.732  1.00  0.00     0.074 A 
ATOM     51  C   UNL     1     -20.042  -8.598   8.523  1.00  0.00     0.029 A 
ATOM     52  N   UNL     1     -19.206  -7.526   6.763  1.00  0.00    -0.354 N 
ATOM     53  N   UNL     1     -19.142  -6.665   3.961  1.00  0.00    -0.248 NA
ATOM     54  C   UNL     1     -19.988  -6.771   1.785  1.00  0.00     0.031 C 
ATOM     55  C   UNL     1     -20.815  -8.918   7.403  1.00  0.00     0.029 A 
ATOM     56  C   UNL     1     -20.309  -8.230   6.311  1.00  0.00     0.049 A 
ATOM     57  H   UNL     1     -18.636  -6.949   6.204  1.00  0.00     0.167 HD
ATOM     58  C   UNL     1     -20.245  -7.510   3.940  1.00  0.00     0.074 A 
ATOM     59  C   UNL     1     -20.746  -7.512   2.581  1.00  0.00     0.031 C 
ATOM     60  C   UNL     1     -20.795  -8.219   4.956  1.00  0.00     0.031 A 
BRANCH  47  61
ATOM     61  C   UNL     1     -17.841  -7.599  10.347  1.00  0.00    -0.014 A 
ATOM     62  C   UNL     1     -18.117  -6.688  11.380  1.00  0.00     0.009 A 
ATOM     63  C   UNL     1     -17.479  -8.913  10.679  1.00  0.00     0.009 A 
ATOM     64  C   UNL     1     -17.994  -7.075  12.716  1.00  0.00     0.001 A 
ATOM     65  C   UNL     1     -17.386  -9.306  12.016  1.00  0.00     0.001 A 
ATOM     66  C   UNL     1     -17.634  -8.384  13.032  1.00  0.00     0.000 A 
ENDBRANCH  47  61
BRANCH  48  67
ATOM     67  C   UNL     1     -18.024  -4.875   0.744  1.00  0.00    -0.014 A 
ATOM     68  C   UNL     1     -19.064  -4.078   0.241  1.00  0.00     0.009 A 
ATOM     69  C   UNL     1     -17.018  -5.310  -0.133  1.00  0.00     0.009 A 
ATOM     70  C   UNL     1     -19.110  -3.747  -1.115  1.00  0.00     0.001 A 
ATOM     71  C   UNL     1     -17.052  -4.953  -1.483  1.00  0.00     0.001 A 
ATOM     72  C   UNL     1     -18.103  -4.181  -1.974  1.00  0.00     0.000 A 
ENDBRANCH  48  67
BRANCH  60  73
ATOM     73  C   UNL     1     -22.023  -9.025   4.645  1.00  0.00    -0.014 A 
ATOM     74  C   UNL     1     -21.950 -10.205   3.888  1.00  0.00     0.009 A 
ATOM     75  C   UNL     1     -23.266  -8.618   5.154  1.00  0.00     0.009 A 
ATOM     76  C   UNL     1     -23.105 -10.943   3.622  1.00  0.00     0.001 A 
ATOM     77  C   UNL     1     -24.413  -9.374   4.911  1.00  0.00     0.001 A 
ATOM     78  C   UNL     1     -24.333 -10.530   4.137  1.00  0.00     0.000 A 
ENDBRANCH  60  73
ENDBRANCH  34  35
ENDBRANCH  26  29
ENDBRANCH  24  25
ENDBRANCH  23  24
ENDBRANCH  22  23
ENDBRANCH   1  22
TORSDOF 15
