REMARK SMILES O=C(CCN1C(=O)[C@@H]2[C@@H](C1=O)[C@H]1c3ccccc3[C@]2(Br)c2ccccc21)NCCCCNC(=O)c1ccc(-c2c3nc(c(-c4ccccc4)c4ccc([nH]4)c(-c4ccccc4)c4nc(c(-c5ccccc5)c5ccc2[nH]5)C=C4)C=C3)cc1
REMARK SMILES IDX 29 1 28 2 27 3 1 4 2 5 3 7 4 8 5 9 6 10 10 11 7 12 8 13 9 14
REMARK SMILES IDX 11 15 19 16 12 17 21 18 20 19 18 20 26 21 13 22 22 23 17 24
REMARK SMILES IDX 25 25 14 26 23 27 16 28 24 29 15 30 30 31 31 32 32 33 33 34
REMARK SMILES IDX 34 36 35 37 36 38 82 39 37 40 81 41 38 42 39 43 40 44 75 45
REMARK SMILES IDX 41 46 80 47 74 48 76 49 42 50 79 51 73 52 72 53 43 55 65 56
REMARK SMILES IDX 50 57 64 58 51 59 54 60 63 61 77 62 52 63 53 64 62 66 78 67
REMARK SMILES IDX 55 68 44 69 45 70 49 71 46 72 48 73 47 74 66 75 67 76 71 77
REMARK SMILES IDX 68 78 70 79 69 80 56 81 57 82 61 83 58 84 60 85 59 86
REMARK H PARENT 27 6 32 35 76 54 54 65
REMARK Flexibility Score: inf
ROOT
ATOM      1  C   UNL     1       1.893   3.723   0.556  1.00  0.00     0.023 C 
ENDROOT
BRANCH   1   2
ATOM      2  C   UNL     1       1.924   2.574  -0.466  1.00  0.00     0.116 C 
BRANCH   2   3
ATOM      3  N   UNL     1       2.630   1.379   0.004  1.00  0.00    -0.356 N 
ATOM      4  O   UNL     1       1.042  -0.116  -0.735  1.00  0.00    -0.275 OA
ATOM      5  C   UNL     1       2.119   0.105  -0.187  1.00  0.00     0.221 C 
ATOM      6  H   UNL     1       3.493   1.484   0.467  1.00  0.00     0.163 HD
BRANCH   5   7
ATOM      7  C   UNL     1       2.962  -1.040   0.353  1.00  0.00     0.122 C 
BRANCH   7   8
ATOM      8  C   UNL     1       3.710  -1.806  -0.747  1.00  0.00     0.138 C 
BRANCH   8   9
ATOM      9  N   UNL     1       4.956  -1.163  -1.132  1.00  0.00    -0.281 N 
ATOM     10  C   UNL     1       6.033  -0.968  -0.254  1.00  0.00     0.235 C 
ATOM     11  C   UNL     1       5.166  -0.545  -2.359  1.00  0.00     0.234 C 
ATOM     12  O   UNL     1       6.235  -1.496   0.818  1.00  0.00    -0.274 OA
ATOM     13  C   UNL     1       6.681   0.245  -0.833  1.00  0.00     0.118 C 
ATOM     14  C   UNL     1       6.603  -0.114  -2.323  1.00  0.00     0.105 C 
ATOM     15  O   UNL     1       4.395  -0.410  -3.288  1.00  0.00    -0.274 OA
ATOM     16  C   UNL     1       7.886   1.161  -0.573  1.00  0.00     0.088 C 
ATOM     17  C   UNL     1       7.149   1.050  -3.142  1.00  0.00     0.063 C 
ATOM     18  C   UNL     1       7.223   2.484  -1.088  1.00  0.00    -0.022 A 
ATOM     19  Br  UNL     1       8.335   1.181   1.296  1.00  0.00    -0.074 Br
ATOM     20  C   UNL     1       9.071   1.001  -1.545  1.00  0.00    -0.022 A 
ATOM     21  C   UNL     1       6.736   2.345  -2.451  1.00  0.00    -0.035 A 
ATOM     22  C   UNL     1       8.672   0.995  -2.925  1.00  0.00    -0.035 A 
ATOM     23  C   UNL     1       6.930   3.614  -0.357  1.00  0.00     0.006 A 
ATOM     24  C   UNL     1      10.413   1.232  -1.239  1.00  0.00     0.006 A 
ATOM     25  C   UNL     1       5.912   3.277  -3.029  1.00  0.00     0.005 A 
ATOM     26  C   UNL     1       9.591   1.222  -3.947  1.00  0.00     0.005 A 
ATOM     27  C   UNL     1       6.094   4.542  -0.952  1.00  0.00     0.000 A 
ATOM     28  C   UNL     1      11.327   1.469  -2.271  1.00  0.00     0.000 A 
ATOM     29  C   UNL     1       5.568   4.358  -2.248  1.00  0.00     0.000 A 
ATOM     30  C   UNL     1      10.920   1.468  -3.610  1.00  0.00     0.000 A 
ENDBRANCH   8   9
ENDBRANCH   7   8
ENDBRANCH   5   7
ENDBRANCH   2   3
ENDBRANCH   1   2
BRANCH   1  31
ATOM     31  C   UNL     1       2.995   4.796   0.445  1.00  0.00     0.023 C 
BRANCH  31  32
ATOM     32  C   UNL     1       2.855   5.824  -0.705  1.00  0.00     0.116 C 
BRANCH  32  33
ATOM     33  N   UNL     1       3.683   7.038  -0.472  1.00  0.00    -0.352 N 
ATOM     34  C   UNL     1       4.235   7.793  -1.505  1.00  0.00     0.251 C 
ATOM     35  H   UNL     1       3.848   7.321   0.456  1.00  0.00     0.163 HD
ATOM     36  O   UNL     1       3.553   8.345  -2.357  1.00  0.00    -0.269 OA
BRANCH  34  37
ATOM     37  C   UNL     1       5.733   7.865  -1.560  1.00  0.00     0.039 A 
ATOM     38  C   UNL     1       6.388   7.276  -2.637  1.00  0.00     0.014 A 
ATOM     39  C   UNL     1       6.514   8.385  -0.532  1.00  0.00     0.014 A 
ATOM     40  C   UNL     1       7.754   6.935  -2.535  1.00  0.00     0.010 A 
ATOM     41  C   UNL     1       7.922   8.211  -0.545  1.00  0.00     0.010 A 
ATOM     42  C   UNL     1       8.572   7.373  -1.479  1.00  0.00    -0.014 A 
BRANCH  42  43
ATOM     43  C   UNL     1      10.023   6.909  -1.288  1.00  0.00     0.031 A 
ATOM     44  C   UNL     1      10.588   6.646   0.114  1.00  0.00     0.074 A 
ATOM     45  C   UNL     1      10.887   6.640  -2.301  1.00  0.00     0.049 A 
ATOM     46  N   UNL     1      11.840   6.537   0.506  1.00  0.00    -0.248 NA
ATOM     47  C   UNL     1       9.625   6.503   1.216  1.00  0.00     0.031 C 
ATOM     48  C   UNL     1      10.605   6.710  -3.732  1.00  0.00     0.029 A 
ATOM     49  N   UNL     1      12.211   6.219  -2.268  1.00  0.00    -0.354 N 
ATOM     50  C   UNL     1      11.809   6.433   1.896  1.00  0.00     0.074 A 
ATOM     51  C   UNL     1      10.415   6.489   2.280  1.00  0.00     0.031 C 
ATOM     52  C   UNL     1      11.658   6.250  -4.424  1.00  0.00     0.029 A 
ATOM     53  C   UNL     1      12.765   5.997  -3.509  1.00  0.00     0.049 A 
ATOM     54  H   UNL     1      12.710   6.090  -1.429  1.00  0.00     0.167 HD
ATOM     55  C   UNL     1      12.827   6.292   2.783  1.00  0.00     0.031 A 
ATOM     56  C   UNL     1      14.018   5.689  -3.914  1.00  0.00     0.031 A 
ATOM     57  C   UNL     1      14.212   6.081   2.447  1.00  0.00     0.049 A 
ATOM     58  C   UNL     1      15.151   5.582  -2.930  1.00  0.00     0.074 A 
ATOM     59  C   UNL     1      15.284   5.902   3.311  1.00  0.00     0.029 A 
ATOM     60  N   UNL     1      14.716   5.963   1.166  1.00  0.00    -0.354 N 
ATOM     61  N   UNL     1      15.118   5.644  -1.624  1.00  0.00    -0.248 NA
ATOM     62  C   UNL     1      16.506   5.397  -3.483  1.00  0.00     0.031 C 
ATOM     63  C   UNL     1      16.442   5.720   2.553  1.00  0.00     0.029 A 
ATOM     64  C   UNL     1      16.081   5.725   1.218  1.00  0.00     0.049 A 
ATOM     65  H   UNL     1      14.185   6.037   0.341  1.00  0.00     0.167 HD
ATOM     66  C   UNL     1      16.436   5.506  -1.202  1.00  0.00     0.074 A 
ATOM     67  C   UNL     1      17.247   5.327  -2.384  1.00  0.00     0.031 C 
ATOM     68  C   UNL     1      16.917   5.537   0.063  1.00  0.00     0.031 A 
BRANCH  55  69
ATOM     69  C   UNL     1      12.506   6.375   4.255  1.00  0.00    -0.014 A 
ATOM     70  C   UNL     1      12.967   7.483   4.989  1.00  0.00     0.009 A 
ATOM     71  C   UNL     1      11.875   5.326   4.937  1.00  0.00     0.009 A 
ATOM     72  C   UNL     1      12.816   7.532   6.376  1.00  0.00     0.001 A 
ATOM     73  C   UNL     1      11.692   5.395   6.321  1.00  0.00     0.001 A 
ATOM     74  C   UNL     1      12.172   6.490   7.039  1.00  0.00     0.000 A 
ENDBRANCH  55  69
BRANCH  56  75
ATOM     75  C   UNL     1      14.299   5.522  -5.370  1.00  0.00    -0.014 A 
ATOM     76  C   UNL     1      14.225   6.620  -6.243  1.00  0.00     0.009 A 
ATOM     77  C   UNL     1      14.629   4.263  -5.894  1.00  0.00     0.009 A 
ATOM     78  C   UNL     1      14.426   6.454  -7.615  1.00  0.00     0.001 A 
ATOM     79  C   UNL     1      14.867   4.107  -7.262  1.00  0.00     0.001 A 
ATOM     80  C   UNL     1      14.750   5.198  -8.123  1.00  0.00     0.000 A 
ENDBRANCH  56  75
BRANCH  68  81
ATOM     81  C   UNL     1      18.394   5.351   0.280  1.00  0.00    -0.014 A 
ATOM     82  C   UNL     1      18.869   4.178   0.889  1.00  0.00     0.009 A 
ATOM     83  C   UNL     1      19.306   6.374  -0.018  1.00  0.00     0.009 A 
ATOM     84  C   UNL     1      20.223   4.038   1.208  1.00  0.00     0.001 A 
ATOM     85  C   UNL     1      20.664   6.222   0.280  1.00  0.00     0.001 A 
ATOM     86  C   UNL     1      21.119   5.060   0.900  1.00  0.00     0.000 A 
ENDBRANCH  68  81
ENDBRANCH  42  43
ENDBRANCH  34  37
ENDBRANCH  32  33
ENDBRANCH  31  32
ENDBRANCH   1  31
TORSDOF 13
