REMARK SMILES CCc1nc(COC)cc(N2CCCC[C@H]2C(=O)NCCCCNC(=O)c2ccc(-c3c4nc(c(-c5ccccc5)c5ccc([nH]5)c(-c5ccccc5)c5nc(c(-c6ccccc6)c6ccc3[nH]6)C=C5)C=C4)cc2)n1
REMARK SMILES IDX 21 1 20 2 19 3 17 4 18 5 16 7 11 8 12 9 13 10 15 11 14 12
REMARK SMILES IDX 10 13 3 14 4 15 75 16 5 17 9 18 2 19 1 20 6 21 7 22 8 23
REMARK SMILES IDX 22 24 23 25 24 26 25 27 26 29 27 30 28 31 74 32 29 33 73 34
REMARK SMILES IDX 30 35 31 36 32 37 67 38 33 39 72 40 66 41 68 42 34 43 71 44
REMARK SMILES IDX 65 45 64 46 35 48 57 49 42 50 56 51 43 52 46 53 55 54 69 55
REMARK SMILES IDX 44 56 45 57 54 59 70 60 47 61 36 62 37 63 41 64 38 65 40 66
REMARK SMILES IDX 39 67 58 68 59 69 63 70 60 71 62 72 61 73 48 74 49 75 53 76
REMARK SMILES IDX 50 77 52 78 51 79
REMARK H PARENT 19 6 24 28 68 47 46 58
REMARK Flexibility Score: inf
ROOT
ATOM      1  C   UNL     1       5.197  -2.600   5.527  1.00  0.00     0.023 C 
ENDROOT
BRANCH   1   2
ATOM      2  C   UNL     1       4.275  -3.753   5.152  1.00  0.00     0.116 C 
BRANCH   2   3
ATOM      3  N   UNL     1       3.579  -4.310   6.292  1.00  0.00    -0.354 N 
ATOM      4  C   UNL     1       2.333  -4.840   6.432  1.00  0.00     0.242 C 
ATOM      5  O   UNL     1       2.150  -5.441   7.501  1.00  0.00    -0.273 OA
ATOM      6  H   UNL     1       4.106  -4.304   7.123  1.00  0.00     0.163 HD
BRANCH   4   7
ATOM      7  C   UNL     1       1.147  -4.636   5.450  1.00  0.00     0.173 C 
ATOM      8  N   UNL     1       1.473  -4.253   4.069  1.00  0.00    -0.344 N 
ATOM      9  C   UNL     1       1.989  -5.274   3.154  1.00  0.00     0.119 C 
ATOM     10  C   UNL     1       1.117  -6.522   3.160  1.00  0.00     0.022 C 
ATOM     11  C   UNL     1       0.250  -5.892   5.418  1.00  0.00     0.035 C 
ATOM     12  C   UNL     1       0.863  -7.012   4.580  1.00  0.00     0.004 C 
BRANCH   8  13
ATOM     13  C   UNL     1       1.278  -2.960   3.606  1.00  0.00     0.133 A 
ATOM     14  C   UNL     1       0.909  -1.517   1.839  1.00  0.00     0.130 A 
ATOM     15  N   UNL     1       1.107  -0.416   2.579  1.00  0.00    -0.235 NA
ATOM     16  N   UNL     1       1.011  -2.777   2.304  1.00  0.00    -0.216 NA
ATOM     17  C   UNL     1       1.425  -0.602   3.872  1.00  0.00     0.072 A 
ATOM     18  C   UNL     1       1.456  -1.863   4.437  1.00  0.00     0.073 A 
BRANCH  14  19
ATOM     19  C   UNL     1       0.485  -1.348   0.405  1.00  0.00     0.074 C 
ATOM     20  C   UNL     1       1.035  -0.091  -0.254  1.00  0.00     0.012 C 
ENDBRANCH  14  19
BRANCH  17  21
ATOM     21  C   UNL     1       1.815   0.611   4.691  1.00  0.00     0.216 C 
BRANCH  21  22
ATOM     22  O   UNL     1       2.834   1.414   4.081  1.00  0.00    -0.378 OA
ATOM     23  C   UNL     1       4.103   0.778   4.029  1.00  0.00     0.195 C 
ENDBRANCH  21  22
ENDBRANCH  17  21
ENDBRANCH   8  13
ENDBRANCH   4   7
ENDBRANCH   2   3
ENDBRANCH   1   2
BRANCH   1  24
ATOM     24  C   UNL     1       6.449  -3.004   6.298  1.00  0.00     0.023 C 
BRANCH  24  25
ATOM     25  C   UNL     1       7.246  -4.150   5.686  1.00  0.00     0.116 C 
BRANCH  25  26
ATOM     26  N   UNL     1       7.592  -3.937   4.288  1.00  0.00    -0.352 N 
ATOM     27  C   UNL     1       8.817  -4.009   3.664  1.00  0.00     0.251 C 
ATOM     28  H   UNL     1       6.836  -3.706   3.700  1.00  0.00     0.163 HD
ATOM     29  O   UNL     1       8.934  -3.702   2.490  1.00  0.00    -0.269 OA
BRANCH  27  30
ATOM     30  C   UNL     1      10.000  -4.417   4.450  1.00  0.00     0.039 A 
ATOM     31  C   UNL     1      11.145  -3.620   4.397  1.00  0.00     0.014 A 
ATOM     32  C   UNL     1       9.955  -5.542   5.276  1.00  0.00     0.014 A 
ATOM     33  C   UNL     1      12.213  -3.898   5.250  1.00  0.00     0.010 A 
ATOM     34  C   UNL     1      10.985  -5.767   6.183  1.00  0.00     0.010 A 
ATOM     35  C   UNL     1      12.119  -4.942   6.186  1.00  0.00    -0.014 A 
BRANCH  35  36
ATOM     36  C   UNL     1      13.183  -5.160   7.198  1.00  0.00     0.031 A 
ATOM     37  C   UNL     1      13.959  -6.447   7.221  1.00  0.00     0.074 A 
ATOM     38  C   UNL     1      13.395  -4.226   8.147  1.00  0.00     0.049 A 
ATOM     39  N   UNL     1      14.893  -6.830   8.055  1.00  0.00    -0.248 NA
ATOM     40  C   UNL     1      13.624  -7.448   6.194  1.00  0.00     0.031 C 
ATOM     41  C   UNL     1      12.660  -2.965   8.280  1.00  0.00     0.029 A 
ATOM     42  N   UNL     1      14.288  -4.198   9.190  1.00  0.00    -0.354 N 
ATOM     43  C   UNL     1      15.235  -8.120   7.670  1.00  0.00     0.074 A 
ATOM     44  C   UNL     1      14.383  -8.472   6.556  1.00  0.00     0.031 C 
ATOM     45  C   UNL     1      13.148  -2.277   9.325  1.00  0.00     0.029 A 
ATOM     46  C   UNL     1      14.205  -3.060   9.957  1.00  0.00     0.049 A 
ATOM     47  H   UNL     1      14.927  -4.924   9.371  1.00  0.00     0.167 HD
ATOM     48  C   UNL     1      16.186  -8.932   8.187  1.00  0.00     0.031 A 
ATOM     49  C   UNL     1      14.899  -2.689  11.049  1.00  0.00     0.031 A 
ATOM     50  C   UNL     1      17.058  -8.570   9.272  1.00  0.00     0.049 A 
ATOM     51  C   UNL     1      15.975  -3.596  11.577  1.00  0.00     0.074 A 
ATOM     52  C   UNL     1      18.116  -9.288   9.801  1.00  0.00     0.029 A 
ATOM     53  N   UNL     1      16.969  -7.393   9.996  1.00  0.00    -0.354 N 
ATOM     54  N   UNL     1      16.357  -4.769  11.134  1.00  0.00    -0.248 NA
ATOM     55  C   UNL     1      16.724  -3.121  12.749  1.00  0.00     0.031 C 
ATOM     56  C   UNL     1      18.639  -8.566  10.878  1.00  0.00     0.029 A 
ATOM     57  C   UNL     1      17.937  -7.376  10.986  1.00  0.00     0.049 A 
ATOM     58  H   UNL     1      16.316  -6.675   9.831  1.00  0.00     0.167 HD
ATOM     59  C   UNL     1      17.405  -5.160  11.956  1.00  0.00     0.074 A 
ATOM     60  C   UNL     1      17.613  -4.091  12.910  1.00  0.00     0.031 C 
ATOM     61  C   UNL     1      18.129  -6.305  11.927  1.00  0.00     0.031 A 
BRANCH  48  62
ATOM     62  C   UNL     1      16.341 -10.299   7.584  1.00  0.00    -0.014 A 
ATOM     63  C   UNL     1      16.901 -10.473   6.309  1.00  0.00     0.009 A 
ATOM     64  C   UNL     1      15.976 -11.432   8.327  1.00  0.00     0.009 A 
ATOM     65  C   UNL     1      17.069 -11.754   5.780  1.00  0.00     0.001 A 
ATOM     66  C   UNL     1      16.169 -12.713   7.807  1.00  0.00     0.001 A 
ATOM     67  C   UNL     1      16.709 -12.872   6.531  1.00  0.00     0.000 A 
ENDBRANCH  48  62
BRANCH  49  68
ATOM     68  C   UNL     1      14.611  -1.393  11.717  1.00  0.00    -0.014 A 
ATOM     69  C   UNL     1      15.531  -0.336  11.653  1.00  0.00     0.009 A 
ATOM     70  C   UNL     1      13.424  -1.217  12.445  1.00  0.00     0.009 A 
ATOM     71  C   UNL     1      15.286   0.858  12.335  1.00  0.00     0.001 A 
ATOM     72  C   UNL     1      13.168  -0.011  13.101  1.00  0.00     0.001 A 
ATOM     73  C   UNL     1      14.104   1.021  13.056  1.00  0.00     0.000 A 
ENDBRANCH  49  68
BRANCH  61  74
ATOM     74  C   UNL     1      19.229  -6.446  12.940  1.00  0.00    -0.014 A 
ATOM     75  C   UNL     1      18.943  -6.679  14.294  1.00  0.00     0.009 A 
ATOM     76  C   UNL     1      20.568  -6.379  12.527  1.00  0.00     0.009 A 
ATOM     77  C   UNL     1      19.979  -6.807  15.221  1.00  0.00     0.001 A 
ATOM     78  C   UNL     1      21.602  -6.536  13.451  1.00  0.00     0.001 A 
ATOM     79  C   UNL     1      21.306  -6.740  14.798  1.00  0.00     0.000 A 
ENDBRANCH  61  74
ENDBRANCH  35  36
ENDBRANCH  27  30
ENDBRANCH  25  26
ENDBRANCH  24  25
ENDBRANCH   1  24
TORSDOF 15
