REMARK SMILES COc1ccc(-c2cc([C@@H]3CC[N@@H+](CC(=O)NCCCCNC(=O)c4ccc(-c5c6nc(c(-c7ccccc7)c7ccc([nH]7)c(-c7ccccc7)c7nc(c(-c8ccccc8)c8ccc5[nH]8)C=C7)C=C6)cc4)C3)ccn2)c2ccc(C)nc12
REMARK SMILES IDX 18 1 17 2 15 3 16 4 14 6 13 7 10 8 11 9 73 10 12 11 9 13
REMARK SMILES IDX 7 14 8 15 76 16 75 17 74 18 6 19 3 20 4 21 83 22 5 23 77 24
REMARK SMILES IDX 82 25 78 26 80 27 79 28 81 29 2 30 1 31 19 32 20 33 21 34
REMARK SMILES IDX 22 35 23 36 24 38 25 39 26 40 72 41 27 42 71 43 28 44 29 45
REMARK SMILES IDX 30 46 65 47 31 48 70 49 64 50 66 51 32 52 69 53 63 54 62 55
REMARK SMILES IDX 33 57 55 58 40 59 54 60 41 61 44 62 53 63 67 64 42 65 43 66
REMARK SMILES IDX 52 68 68 69 45 70 34 71 35 72 39 73 36 74 38 75 37 76 56 77
REMARK SMILES IDX 57 78 61 79 58 80 60 81 59 82 46 83 47 84 51 85 48 86 50 87
REMARK SMILES IDX 49 88
REMARK H PARENT 17 5 13 12 22 37 66 56 44 67
REMARK Flexibility Score: inf
ROOT
ATOM      1  C   UNL     1       5.624  10.434   2.591  1.00  0.00     0.116 C 
ENDROOT
BRANCH   1   2
ATOM      2  N   UNL     1       5.725  10.513   4.043  1.00  0.00    -0.351 N 
ATOM      3  C   UNL     1       6.419   9.780   4.970  1.00  0.00     0.275 C 
ATOM      4  O   UNL     1       6.252  10.079   6.157  1.00  0.00    -0.269 OA
ATOM      5  H   UNL     1       5.188  11.238   4.436  1.00  0.00     0.163 HD
BRANCH   3   6
ATOM      6  C   UNL     1       7.344   8.620   4.576  1.00  0.00     0.363 C 
BRANCH   6   7
ATOM      7  N   UNL     1       6.760   7.253   4.597  1.00  0.00    -0.327 N 
ATOM      8  C   UNL     1       4.643   7.001   5.795  1.00  0.00     0.080 C 
ATOM      9  C   UNL     1       4.438   7.537   4.379  1.00  0.00     0.075 C 
ATOM     10  C   UNL     1       6.172   6.775   5.868  1.00  0.00     0.271 C 
ATOM     11  C   UNL     1       5.691   7.102   3.627  1.00  0.00     0.263 C 
ATOM     12  H   UNL     1       7.593   6.699   4.398  1.00  0.00     0.348 HD
BRANCH   8  13
ATOM     13  C   UNL     1       3.681   5.843   6.000  1.00  0.00    -0.035 A 
ATOM     14  C   UNL     1       2.295   4.099   5.005  1.00  0.00     0.071 A 
ATOM     15  C   UNL     1       3.406   4.940   4.962  1.00  0.00     0.033 A 
ATOM     16  N   UNL     1       1.467   4.088   6.073  1.00  0.00    -0.256 NA
ATOM     17  C   UNL     1       1.775   4.912   7.104  1.00  0.00     0.112 A 
ATOM     18  C   UNL     1       2.852   5.792   7.117  1.00  0.00     0.024 A 
BRANCH  14  19
ATOM     19  C   UNL     1       1.894   3.309   3.817  1.00  0.00     0.010 A 
ATOM     20  C   UNL     1       1.073   2.021   1.453  1.00  0.00     0.145 A 
ATOM     21  C   UNL     1       0.181   2.831   2.160  1.00  0.00     0.049 A 
ATOM     22  C   UNL     1       2.403   1.851   1.876  1.00  0.00     0.113 A 
ATOM     23  C   UNL     1       0.585   3.463   3.329  1.00  0.00     0.015 A 
ATOM     24  C   UNL     1       2.805   2.481   3.083  1.00  0.00     0.013 A 
ATOM     25  N   UNL     1       3.281   1.122   1.143  1.00  0.00    -0.249 NA
ATOM     26  C   UNL     1       4.136   2.247   3.497  1.00  0.00     0.013 A 
ATOM     27  C   UNL     1       4.559   0.962   1.553  1.00  0.00     0.038 A 
ATOM     28  C   UNL     1       5.022   1.504   2.731  1.00  0.00     0.024 A 
ATOM     29  C   UNL     1       5.447   0.123   0.689  1.00  0.00     0.067 C 
BRANCH  20  30
ATOM     30  O   UNL     1       0.519   1.484   0.309  1.00  0.00    -0.494 OA
ATOM     31  C   UNL     1       0.916   0.148   0.010  1.00  0.00     0.278 C 
ENDBRANCH  20  30
ENDBRANCH  14  19
ENDBRANCH   8  13
ENDBRANCH   6   7
ENDBRANCH   3   6
ENDBRANCH   1   2
BRANCH   1  32
ATOM     32  C   UNL     1       4.359   9.752   2.042  1.00  0.00     0.023 C 
BRANCH  32  33
ATOM     33  C   UNL     1       3.021  10.172   2.656  1.00  0.00     0.023 C 
BRANCH  33  34
ATOM     34  C   UNL     1       2.409  11.371   1.965  1.00  0.00     0.116 C 
BRANCH  34  35
ATOM     35  N   UNL     1       2.119  11.087   0.566  1.00  0.00    -0.352 N 
ATOM     36  C   UNL     1       1.038  11.438  -0.195  1.00  0.00     0.251 C 
ATOM     37  H   UNL     1       2.807  10.563   0.096  1.00  0.00     0.163 HD
ATOM     38  O   UNL     1       0.894  10.958  -1.312  1.00  0.00    -0.269 OA
BRANCH  36  39
ATOM     39  C   UNL     1       0.040  12.375   0.349  1.00  0.00     0.039 A 
ATOM     40  C   UNL     1      -1.309  12.133   0.085  1.00  0.00     0.014 A 
ATOM     41  C   UNL     1       0.430  13.480   1.110  1.00  0.00     0.014 A 
ATOM     42  C   UNL     1      -2.271  12.985   0.619  1.00  0.00     0.010 A 
ATOM     43  C   UNL     1      -0.531  14.266   1.725  1.00  0.00     0.010 A 
ATOM     44  C   UNL     1      -1.888  14.038   1.465  1.00  0.00    -0.014 A 
BRANCH  44  45
ATOM     45  C   UNL     1      -2.903  14.923   2.073  1.00  0.00     0.031 A 
ATOM     46  C   UNL     1      -2.929  16.384   1.723  1.00  0.00     0.074 A 
ATOM     47  C   UNL     1      -3.763  14.407   2.971  1.00  0.00     0.049 A 
ATOM     48  N   UNL     1      -3.740  17.316   2.152  1.00  0.00    -0.248 NA
ATOM     49  C   UNL     1      -1.896  16.872   0.793  1.00  0.00     0.031 C 
ATOM     50  C   UNL     1      -3.778  13.014   3.428  1.00  0.00     0.029 A 
ATOM     51  N   UNL     1      -4.792  14.992   3.659  1.00  0.00    -0.354 N 
ATOM     52  C   UNL     1      -3.302  18.495   1.564  1.00  0.00     0.074 A 
ATOM     53  C   UNL     1      -2.127  18.177   0.787  1.00  0.00     0.031 C 
ATOM     54  C   UNL     1      -4.790  12.846   4.293  1.00  0.00     0.029 A 
ATOM     55  C   UNL     1      -5.467  14.123   4.481  1.00  0.00     0.049 A 
ATOM     56  H   UNL     1      -5.025  15.945   3.574  1.00  0.00     0.167 HD
ATOM     57  C   UNL     1      -3.846  19.730   1.651  1.00  0.00     0.031 A 
ATOM     58  C   UNL     1      -6.514  14.339   5.298  1.00  0.00     0.031 A 
ATOM     59  C   UNL     1      -5.032  20.027   2.407  1.00  0.00     0.049 A 
ATOM     60  C   UNL     1      -7.108  15.718   5.355  1.00  0.00     0.074 A 
ATOM     61  C   UNL     1      -5.719  21.224   2.494  1.00  0.00     0.029 A 
ATOM     62  N   UNL     1      -5.702  19.117   3.210  1.00  0.00    -0.354 N 
ATOM     63  N   UNL     1      -6.747  16.801   4.709  1.00  0.00    -0.248 NA
ATOM     64  C   UNL     1      -8.265  15.901   6.241  1.00  0.00     0.031 C 
ATOM     65  C   UNL     1      -6.768  21.056   3.402  1.00  0.00     0.029 A 
ATOM     66  C   UNL     1      -6.774  19.737   3.827  1.00  0.00     0.049 A 
ATOM     67  H   UNL     1      -5.452  18.172   3.324  1.00  0.00     0.167 HD
ATOM     68  C   UNL     1      -7.646  17.787   5.092  1.00  0.00     0.074 A 
ATOM     69  C   UNL     1      -8.585  17.164   6.002  1.00  0.00     0.031 C 
ATOM     70  C   UNL     1      -7.690  19.093   4.731  1.00  0.00     0.031 A 
BRANCH  57  71
ATOM     71  C   UNL     1      -3.166  20.855   0.922  1.00  0.00    -0.014 A 
ATOM     72  C   UNL     1      -3.185  20.938  -0.479  1.00  0.00     0.009 A 
ATOM     73  C   UNL     1      -2.554  21.884   1.655  1.00  0.00     0.009 A 
ATOM     74  C   UNL     1      -2.586  22.019  -1.131  1.00  0.00     0.001 A 
ATOM     75  C   UNL     1      -1.982  22.977   1.002  1.00  0.00     0.001 A 
ATOM     76  C   UNL     1      -1.994  23.041  -0.391  1.00  0.00     0.000 A 
ENDBRANCH  57  71
BRANCH  58  77
ATOM     77  C   UNL     1      -7.064  13.233   6.126  1.00  0.00    -0.014 A 
ATOM     78  C   UNL     1      -8.352  12.728   5.889  1.00  0.00     0.009 A 
ATOM     79  C   UNL     1      -6.310  12.693   7.180  1.00  0.00     0.009 A 
ATOM     80  C   UNL     1      -8.889  11.740   6.718  1.00  0.00     0.001 A 
ATOM     81  C   UNL     1      -6.835  11.679   7.984  1.00  0.00     0.001 A 
ATOM     82  C   UNL     1      -8.130  11.215   7.762  1.00  0.00     0.000 A 
ENDBRANCH  58  77
BRANCH  70  83
ATOM     83  C   UNL     1      -8.807  19.919   5.303  1.00  0.00    -0.014 A 
ATOM     84  C   UNL     1      -8.834  20.265   6.663  1.00  0.00     0.009 A 
ATOM     85  C   UNL     1      -9.830  20.380   4.460  1.00  0.00     0.009 A 
ATOM     86  C   UNL     1      -9.890  21.021   7.176  1.00  0.00     0.001 A 
ATOM     87  C   UNL     1     -10.864  21.166   4.968  1.00  0.00     0.001 A 
ATOM     88  C   UNL     1     -10.900  21.474   6.327  1.00  0.00     0.000 A 
ENDBRANCH  70  83
ENDBRANCH  44  45
ENDBRANCH  36  39
ENDBRANCH  34  35
ENDBRANCH  33  34
ENDBRANCH  32  33
ENDBRANCH   1  32
TORSDOF 15
