REMARK SMILES O=C(NCCCCNC(=O)c1ccc(-c2c3nc(c(-c4ccccc4)c4ccc([nH]4)c(-c4ccccc4)c4nc(c(-c5ccccc5)c5ccc2[nH]5)C=C4)C=C3)cc1)C1=Cc2cc(OC(F)(F)F)ccc2O[C@@H]1C(F)(F)F
REMARK SMILES IDX 5 1 4 2 3 3 1 4 2 5 59 7 60 8 73 9 61 10 72 11 62 12 71 13
REMARK SMILES IDX 63 14 70 15 69 16 74 17 75 18 76 19 77 20 64 21 65 22 66 23
REMARK SMILES IDX 67 24 68 25 6 26 7 27 8 28 9 29 10 31 11 32 12 33 58 34
REMARK SMILES IDX 13 35 57 36 14 37 15 38 16 39 51 40 17 41 56 42 50 43 52 44
REMARK SMILES IDX 18 45 55 46 49 47 48 48 19 50 41 51 26 52 40 53 27 54 30 55
REMARK SMILES IDX 39 56 53 57 28 58 29 59 38 61 54 62 31 63 20 64 21 65 25 66
REMARK SMILES IDX 22 67 24 68 23 69 42 70 43 71 47 72 44 73 46 74 45 75 32 76
REMARK SMILES IDX 33 77 37 78 34 79 36 80 35 81
REMARK H PARENT 3 6 8 30 52 49 30 60
REMARK Flexibility Score: inf
ROOT
ATOM      1  C   UNL     1       4.295   0.250   3.161  1.00  0.00     0.023 C 
ENDROOT
BRANCH   1   2
ATOM      2  C   UNL     1       3.804  -0.127   1.764  1.00  0.00     0.116 C 
BRANCH   2   3
ATOM      3  N   UNL     1       2.618   0.608   1.321  1.00  0.00    -0.352 N 
ATOM      4  O   UNL     1       1.139   1.431  -0.190  1.00  0.00    -0.270 OA
ATOM      5  C   UNL     1       2.269   1.026   0.054  1.00  0.00     0.251 C 
ATOM      6  H   UNL     1       1.976   0.838   2.031  1.00  0.00     0.163 HD
BRANCH   5   7
ATOM      7  C   UNL     1       3.253   0.841  -1.034  1.00  0.00     0.067 C 
ATOM      8  C   UNL     1       4.451   1.440  -0.961  1.00  0.00     0.025 C 
ATOM      9  C   UNL     1       3.009  -0.295  -1.981  1.00  0.00     0.314 C 
ATOM     10  C   UNL     1       5.555   0.473  -1.142  1.00  0.00     0.021 A 
ATOM     11  O   UNL     1       4.023  -1.317  -1.839  1.00  0.00    -0.475 OA
ATOM     12  C   UNL     1       6.802   0.792  -0.588  1.00  0.00     0.058 A 
ATOM     13  C   UNL     1       5.259  -0.874  -1.432  1.00  0.00     0.128 A 
ATOM     14  C   UNL     1       7.695  -0.225  -0.231  1.00  0.00     0.130 A 
ATOM     15  C   UNL     1       6.177  -1.878  -1.135  1.00  0.00     0.051 A 
ATOM     16  C   UNL     1       7.386  -1.556  -0.517  1.00  0.00     0.050 A 
BRANCH   9  17
ATOM     17  C   UNL     1       2.904   0.187  -3.440  1.00  0.00     0.429 C 
ATOM     18  F   UNL     1       2.574  -0.834  -4.268  1.00  0.00    -0.167 F 
ATOM     19  F   UNL     1       1.949   1.136  -3.589  1.00  0.00    -0.167 F 
ATOM     20  F   UNL     1       4.064   0.713  -3.901  1.00  0.00    -0.167 F 
ENDBRANCH   9  17
BRANCH  14  21
ATOM     21  O   UNL     1       8.835   0.184   0.404  1.00  0.00    -0.406 OA
BRANCH  21  22
ATOM     22  C   UNL     1       9.229  -0.622   1.512  1.00  0.00     0.573 C 
ATOM     23  F   UNL     1       8.177  -0.843   2.332  1.00  0.00    -0.132 F 
ATOM     24  F   UNL     1       9.750  -1.792   1.094  1.00  0.00    -0.132 F 
ATOM     25  F   UNL     1      10.179   0.043   2.207  1.00  0.00    -0.132 F 
ENDBRANCH  21  22
ENDBRANCH  14  21
ENDBRANCH   5   7
ENDBRANCH   2   3
ENDBRANCH   1   2
BRANCH   1  26
ATOM     26  C   UNL     1       4.036  -0.792   4.244  1.00  0.00     0.023 C 
BRANCH  26  27
ATOM     27  C   UNL     1       4.600  -2.191   4.000  1.00  0.00     0.116 C 
BRANCH  27  28
ATOM     28  N   UNL     1       6.043  -2.260   3.818  1.00  0.00    -0.352 N 
ATOM     29  C   UNL     1       6.922  -3.206   4.301  1.00  0.00     0.251 C 
ATOM     30  H   UNL     1       6.443  -1.537   3.282  1.00  0.00     0.163 HD
ATOM     31  O   UNL     1       8.124  -3.133   4.058  1.00  0.00    -0.269 OA
BRANCH  29  32
ATOM     32  C   UNL     1       6.418  -4.292   5.169  1.00  0.00     0.039 A 
ATOM     33  C   UNL     1       7.033  -4.502   6.406  1.00  0.00     0.014 A 
ATOM     34  C   UNL     1       5.309  -5.055   4.795  1.00  0.00     0.014 A 
ATOM     35  C   UNL     1       6.483  -5.418   7.304  1.00  0.00     0.010 A 
ATOM     36  C   UNL     1       4.716  -5.907   5.721  1.00  0.00     0.010 A 
ATOM     37  C   UNL     1       5.296  -6.098   6.985  1.00  0.00    -0.014 A 
BRANCH  37  38
ATOM     38  C   UNL     1       4.663  -7.030   7.952  1.00  0.00     0.031 A 
ATOM     39  C   UNL     1       4.561  -8.494   7.621  1.00  0.00     0.074 A 
ATOM     40  C   UNL     1       4.140  -6.559   9.101  1.00  0.00     0.049 A 
ATOM     41  N   UNL     1       4.004  -9.459   8.307  1.00  0.00    -0.248 NA
ATOM     42  C   UNL     1       5.138  -8.925   6.337  1.00  0.00     0.031 C 
ATOM     43  C   UNL     1       4.128  -5.154   9.519  1.00  0.00     0.029 A 
ATOM     44  N   UNL     1       3.512  -7.215  10.130  1.00  0.00    -0.354 N 
ATOM     45  C   UNL     1       4.152 -10.603   7.533  1.00  0.00     0.074 A 
ATOM     46  C   UNL     1       4.796 -10.203   6.301  1.00  0.00     0.031 C 
ATOM     47  C   UNL     1       3.549  -5.060  10.728  1.00  0.00     0.029 A 
ATOM     48  C   UNL     1       3.125  -6.388  11.158  1.00  0.00     0.049 A 
ATOM     49  H   UNL     1       3.354  -8.187  10.132  1.00  0.00     0.167 HD
ATOM     50  C   UNL     1       3.812 -11.880   7.829  1.00  0.00     0.031 A 
ATOM     51  C   UNL     1       2.504  -6.673  12.318  1.00  0.00     0.031 A 
ATOM     52  C   UNL     1       3.187 -12.286   9.058  1.00  0.00     0.049 A 
ATOM     53  C   UNL     1       2.163  -8.103  12.636  1.00  0.00     0.074 A 
ATOM     54  C   UNL     1       2.813 -13.556   9.460  1.00  0.00     0.029 A 
ATOM     55  N   UNL     1       2.859 -11.424  10.092  1.00  0.00    -0.354 N 
ATOM     56  N   UNL     1       2.349  -9.178  11.909  1.00  0.00    -0.248 NA
ATOM     57  C   UNL     1       1.551  -8.360  13.947  1.00  0.00     0.031 C 
ATOM     58  C   UNL     1       2.241 -13.459  10.734  1.00  0.00     0.029 A 
ATOM     59  C   UNL     1       2.298 -12.135  11.138  1.00  0.00     0.049 A 
ATOM     60  H   UNL     1       3.004 -10.450  10.084  1.00  0.00     0.167 HD
ATOM     61  C   UNL     1       1.911 -10.241  12.688  1.00  0.00     0.074 A 
ATOM     62  C   UNL     1       1.466  -9.683  13.948  1.00  0.00     0.031 C 
ATOM     63  C   UNL     1       1.879 -11.562  12.389  1.00  0.00     0.031 A 
BRANCH  50  64
ATOM     64  C   UNL     1       4.130 -12.928   6.801  1.00  0.00    -0.014 A 
ATOM     65  C   UNL     1       5.458 -13.314   6.555  1.00  0.00     0.009 A 
ATOM     66  C   UNL     1       3.098 -13.548   6.082  1.00  0.00     0.009 A 
ATOM     67  C   UNL     1       5.749 -14.272   5.583  1.00  0.00     0.001 A 
ATOM     68  C   UNL     1       3.390 -14.527   5.129  1.00  0.00     0.001 A 
ATOM     69  C   UNL     1       4.715 -14.880   4.873  1.00  0.00     0.000 A 
ENDBRANCH  50  64
BRANCH  51  70
ATOM     70  C   UNL     1       2.191  -5.592  13.290  1.00  0.00    -0.014 A 
ATOM     71  C   UNL     1       2.893  -5.497  14.502  1.00  0.00     0.009 A 
ATOM     72  C   UNL     1       1.165  -4.671  13.027  1.00  0.00     0.009 A 
ATOM     73  C   UNL     1       2.547  -4.529  15.448  1.00  0.00     0.001 A 
ATOM     74  C   UNL     1       0.841  -3.686  13.963  1.00  0.00     0.001 A 
ATOM     75  C   UNL     1       1.523  -3.624  15.177  1.00  0.00     0.000 A 
ENDBRANCH  51  70
BRANCH  63  76
ATOM     76  C   UNL     1       1.402 -12.495  13.464  1.00  0.00    -0.014 A 
ATOM     77  C   UNL     1       0.047 -12.568  13.823  1.00  0.00     0.009 A 
ATOM     78  C   UNL     1       2.325 -13.330  14.112  1.00  0.00     0.009 A 
ATOM     79  C   UNL     1      -0.366 -13.431  14.839  1.00  0.00     0.001 A 
ATOM     80  C   UNL     1       1.905 -14.211  15.108  1.00  0.00     0.001 A 
ATOM     81  C   UNL     1       0.562 -14.253  15.478  1.00  0.00     0.000 A 
ENDBRANCH  63  76
ENDBRANCH  37  38
ENDBRANCH  29  32
ENDBRANCH  27  28
ENDBRANCH  26  27
ENDBRANCH   1  26
TORSDOF 14
