REMARK SMILES O=C(NCCCCNC(=O)c1ccc(-c2c3nc(c(-c4ccccc4)c4ccc([nH]4)c(-c4ccccc4)c4nc(c(-c5ccccc5)c5ccc2[nH]5)C=C4)C=C3)cc1)C1=Cc2cc(C(F)(F)F)ccc2O[C@@H]1C(F)(F)F
REMARK SMILES IDX 6 1 5 2 4 3 3 4 1 5 2 6 59 8 60 9 72 10 61 11 71 12 62 13
REMARK SMILES IDX 70 14 63 15 69 16 68 17 73 18 74 19 75 20 76 21 64 22 65 23
REMARK SMILES IDX 66 24 67 25 7 26 8 27 9 28 10 30 11 31 12 32 58 33 13 34
REMARK SMILES IDX 57 35 14 36 15 37 16 38 51 39 17 40 56 41 50 42 52 43 18 44
REMARK SMILES IDX 55 45 49 46 48 47 19 49 41 50 26 51 40 52 27 53 30 54 39 55
REMARK SMILES IDX 53 56 28 57 29 58 38 60 54 61 31 62 20 63 21 64 25 65 22 66
REMARK SMILES IDX 24 67 23 68 42 69 43 70 47 71 44 72 46 73 45 74 32 75 33 76
REMARK SMILES IDX 37 77 34 78 36 79 35 80
REMARK H PARENT 3 7 8 29 52 48 30 59
REMARK Flexibility Score: inf
ROOT
ATOM      1  C   UNL     1       4.037   4.001   1.717  1.00  0.00     0.023 C 
ENDROOT
BRANCH   1   2
ATOM      2  C   UNL     1       4.399   3.305   0.412  1.00  0.00     0.023 C 
BRANCH   2   3
ATOM      3  C   UNL     1       4.096   1.816   0.326  1.00  0.00     0.116 C 
BRANCH   3   4
ATOM      4  N   UNL     1       2.778   1.464  -0.168  1.00  0.00    -0.352 N 
ATOM      5  O   UNL     1       1.144   0.127  -0.932  1.00  0.00    -0.270 OA
ATOM      6  C   UNL     1       2.344   0.284  -0.712  1.00  0.00     0.251 C 
ATOM      7  H   UNL     1       2.099   2.175  -0.104  1.00  0.00     0.163 HD
BRANCH   6   8
ATOM      8  C   UNL     1       3.264  -0.862  -0.975  1.00  0.00     0.067 C 
ATOM      9  C   UNL     1       4.495  -0.689  -1.489  1.00  0.00     0.025 C 
ATOM     10  C   UNL     1       3.007  -2.057  -0.082  1.00  0.00     0.314 C 
ATOM     11  C   UNL     1       5.535  -0.928  -0.454  1.00  0.00     0.018 A 
ATOM     12  O   UNL     1       3.985  -2.139   0.994  1.00  0.00    -0.475 OA
ATOM     13  C   UNL     1       6.763  -0.269  -0.590  1.00  0.00     0.025 A 
ATOM     14  C   UNL     1       5.202  -1.552   0.756  1.00  0.00     0.128 A 
ATOM     15  C   UNL     1       7.617  -0.135   0.515  1.00  0.00     0.056 A 
ATOM     16  C   UNL     1       6.082  -1.487   1.834  1.00  0.00     0.048 A 
ATOM     17  C   UNL     1       7.271  -0.760   1.723  1.00  0.00     0.017 A 
BRANCH  10  18
ATOM     18  C   UNL     1       2.941  -3.376  -0.869  1.00  0.00     0.429 C 
ATOM     19  F   UNL     1       2.584  -4.409  -0.068  1.00  0.00    -0.167 F 
ATOM     20  F   UNL     1       2.029  -3.319  -1.868  1.00  0.00    -0.167 F 
ATOM     21  F   UNL     1       4.129  -3.700  -1.434  1.00  0.00    -0.167 F 
ENDBRANCH  10  18
BRANCH  15  22
ATOM     22  C   UNL     1       8.844   0.741   0.402  1.00  0.00     0.416 C 
ATOM     23  F   UNL     1       9.820   0.178  -0.356  1.00  0.00    -0.166 F 
ATOM     24  F   UNL     1       8.554   1.938  -0.184  1.00  0.00    -0.166 F 
ATOM     25  F   UNL     1       9.410   1.039   1.600  1.00  0.00    -0.166 F 
ENDBRANCH  15  22
ENDBRANCH   6   8
ENDBRANCH   3   4
ENDBRANCH   2   3
ENDBRANCH   1   2
BRANCH   1  26
ATOM     26  C   UNL     1       4.605   3.398   3.002  1.00  0.00     0.116 C 
BRANCH  26  27
ATOM     27  N   UNL     1       6.049   3.209   3.009  1.00  0.00    -0.352 N 
ATOM     28  C   UNL     1       6.984   3.545   3.965  1.00  0.00     0.251 C 
ATOM     29  H   UNL     1       6.415   2.774   2.205  1.00  0.00     0.163 HD
ATOM     30  O   UNL     1       8.169   3.300   3.774  1.00  0.00    -0.269 OA
BRANCH  28  31
ATOM     31  C   UNL     1       6.572   4.256   5.197  1.00  0.00     0.039 A 
ATOM     32  C   UNL     1       7.295   5.387   5.588  1.00  0.00     0.014 A 
ATOM     33  C   UNL     1       5.458   3.852   5.935  1.00  0.00     0.014 A 
ATOM     34  C   UNL     1       6.830   6.176   6.643  1.00  0.00     0.010 A 
ATOM     35  C   UNL     1       4.947   4.684   6.929  1.00  0.00     0.010 A 
ATOM     36  C   UNL     1       5.617   5.865   7.280  1.00  0.00    -0.014 A 
BRANCH  36  37
ATOM     37  C   UNL     1       5.017   6.803   8.265  1.00  0.00     0.031 A 
ATOM     38  C   UNL     1       4.820   6.401   9.699  1.00  0.00     0.074 A 
ATOM     39  C   UNL     1       4.595   8.014   7.846  1.00  0.00     0.049 A 
ATOM     40  N   UNL     1       4.355   7.112  10.697  1.00  0.00    -0.248 NA
ATOM     41  C   UNL     1       5.160   5.016  10.056  1.00  0.00     0.031 C 
ATOM     42  C   UNL     1       4.655   8.503   6.466  1.00  0.00     0.029 A 
ATOM     43  N   UNL     1       4.039   9.058   8.542  1.00  0.00    -0.354 N 
ATOM     44  C   UNL     1       4.333   6.257  11.791  1.00  0.00     0.074 A 
ATOM     45  C   UNL     1       4.782   4.963  11.325  1.00  0.00     0.031 C 
ATOM     46  C   UNL     1       4.211   9.770   6.428  1.00  0.00     0.029 A 
ATOM     47  C   UNL     1       3.809  10.172   7.771  1.00  0.00     0.049 A 
ATOM     48  H   UNL     1       3.826   9.014   9.502  1.00  0.00     0.167 HD
ATOM     49  C   UNL     1       3.991   6.527  13.074  1.00  0.00     0.031 A 
ATOM     50  C   UNL     1       3.347  11.390   8.109  1.00  0.00     0.031 A 
ATOM     51  C   UNL     1       3.557   7.816  13.545  1.00  0.00     0.049 A 
ATOM     52  C   UNL     1       3.008  11.676   9.544  1.00  0.00     0.074 A 
ATOM     53  C   UNL     1       3.264   8.209  14.840  1.00  0.00     0.029 A 
ATOM     54  N   UNL     1       3.349   8.921  12.735  1.00  0.00    -0.354 N 
ATOM     55  N   UNL     1       3.090  10.885  10.586  1.00  0.00    -0.248 NA
ATOM     56  C   UNL     1       2.530  13.032   9.849  1.00  0.00     0.031 C 
ATOM     57  C   UNL     1       2.837   9.541  14.806  1.00  0.00     0.029 A 
ATOM     58  C   UNL     1       2.910   9.991  13.498  1.00  0.00     0.049 A 
ATOM     59  H   UNL     1       3.492   8.943  11.761  1.00  0.00     0.167 HD
ATOM     60  C   UNL     1       2.701  11.655  11.674  1.00  0.00     0.074 A 
ATOM     61  C   UNL     1       2.400  12.978  11.166  1.00  0.00     0.031 C 
ATOM     62  C   UNL     1       2.604  11.298  12.978  1.00  0.00     0.031 A 
BRANCH  49  63
ATOM     63  C   UNL     1       4.072   5.394  14.058  1.00  0.00    -0.014 A 
ATOM     64  C   UNL     1       5.311   4.873  14.468  1.00  0.00     0.009 A 
ATOM     65  C   UNL     1       2.896   4.848  14.594  1.00  0.00     0.009 A 
ATOM     66  C   UNL     1       5.368   3.800  15.359  1.00  0.00     0.001 A 
ATOM     67  C   UNL     1       2.957   3.793  15.508  1.00  0.00     0.001 A 
ATOM     68  C   UNL     1       4.191   3.263  15.880  1.00  0.00     0.000 A 
ENDBRANCH  49  63
BRANCH  50  69
ATOM     69  C   UNL     1       3.239  12.457   7.082  1.00  0.00    -0.014 A 
ATOM     70  C   UNL     1       4.153  13.523   7.075  1.00  0.00     0.009 A 
ATOM     71  C   UNL     1       2.229  12.421   6.109  1.00  0.00     0.009 A 
ATOM     72  C   UNL     1       4.042  14.545   6.131  1.00  0.00     0.001 A 
ATOM     73  C   UNL     1       2.137  13.433   5.150  1.00  0.00     0.001 A 
ATOM     74  C   UNL     1       3.037  14.497   5.167  1.00  0.00     0.000 A 
ENDBRANCH  50  69
BRANCH  62  75
ATOM     75  C   UNL     1       2.179  12.367  13.944  1.00  0.00    -0.014 A 
ATOM     76  C   UNL     1       0.856  12.836  13.976  1.00  0.00     0.009 A 
ATOM     77  C   UNL     1       3.115  12.907  14.839  1.00  0.00     0.009 A 
ATOM     78  C   UNL     1       0.490  13.856  14.856  1.00  0.00     0.001 A 
ATOM     79  C   UNL     1       2.740  13.908  15.737  1.00  0.00     0.001 A 
ATOM     80  C   UNL     1       1.432  14.389  15.736  1.00  0.00     0.000 A 
ENDBRANCH  62  75
ENDBRANCH  36  37
ENDBRANCH  28  31
ENDBRANCH  26  27
ENDBRANCH   1  26
TORSDOF 13
