REMARK SMILES [NH3+]Cc1c(-c2ccccc2)c(C(=O)NCCCCNC(=O)c2ccc(-c3c4nc(c(-c5ccccc5)c5ccc([nH]5)c(-c5ccccc5)c5nc(c(-c6ccccc6)c6ccc3[nH]6)C=C5)C=C4)cc2)c2ccccn12
REMARK SMILES IDX 16 1 15 2 14 3 12 4 13 5 11 7 3 8 4 9 75 10 70 11 74 12
REMARK SMILES IDX 71 13 73 14 72 15 2 16 1 17 5 21 6 22 10 23 7 24 9 25 8 26
REMARK SMILES IDX 17 27 18 28 19 29 20 30 21 32 22 33 23 34 69 35 24 36 68 37
REMARK SMILES IDX 25 38 26 39 27 40 62 41 28 42 67 43 61 44 63 45 29 46 66 47
REMARK SMILES IDX 60 48 59 49 30 51 52 52 37 53 51 54 38 55 41 56 50 57 64 58
REMARK SMILES IDX 39 59 40 60 49 62 65 63 42 64 31 65 32 66 36 67 33 68 35 69
REMARK SMILES IDX 34 70 53 71 54 72 58 73 55 74 57 75 56 76 43 77 44 78 48 79
REMARK SMILES IDX 45 80 47 81 46 82
REMARK H PARENT 14 6 1 18 1 19 1 20 19 31 63 50 41 61
REMARK Flexibility Score: inf
ROOT
ATOM      1  C   UNL     1       2.159   7.663   3.361  1.00  0.00     0.023 C 
ENDROOT
BRANCH   1   2
ATOM      2  C   UNL     1       1.925   6.693   2.207  1.00  0.00     0.116 C 
BRANCH   2   3
ATOM      3  N   UNL     1       3.111   6.029   1.706  1.00  0.00    -0.352 N 
ATOM      4  C   UNL     1       3.268   4.793   1.113  1.00  0.00     0.254 C 
ATOM      5  O   UNL     1       4.397   4.516   0.714  1.00  0.00    -0.269 OA
ATOM      6  H   UNL     1       3.944   6.545   1.806  1.00  0.00     0.163 HD
BRANCH   4   7
ATOM      7  C   UNL     1       2.162   3.835   1.037  1.00  0.00     0.073 A 
ATOM      8  C   UNL     1       1.005   1.849   1.177  1.00  0.00     0.086 A 
ATOM      9  C   UNL     1       2.280   2.408   1.188  1.00  0.00     0.022 A 
ATOM     10  N   UNL     1       0.110   2.884   0.968  1.00  0.00    -0.314 N 
ATOM     11  C   UNL     1       0.830   4.051   0.703  1.00  0.00     0.059 A 
ATOM     12  C   UNL     1      -1.291   2.861   0.988  1.00  0.00     0.092 A 
ATOM     13  C   UNL     1       0.080   5.165   0.209  1.00  0.00     0.027 A 
ATOM     14  C   UNL     1      -1.986   3.967   0.680  1.00  0.00     0.018 A 
ATOM     15  C   UNL     1      -1.264   5.140   0.231  1.00  0.00     0.004 A 
BRANCH   8  16
ATOM     16  C   UNL     1       0.575   0.430   1.360  1.00  0.00     0.315 C 
BRANCH  16  17
ATOM     17  N   UNL     1       0.572  -0.272   0.084  1.00  0.00    -0.353 N 
ATOM     18  H   UNL     1       0.277  -1.237   0.228  1.00  0.00     0.344 HD
ATOM     19  H   UNL     1       1.511  -0.259  -0.314  1.00  0.00     0.344 HD
ATOM     20  H   UNL     1      -0.074   0.190  -0.556  1.00  0.00     0.344 HD
ENDBRANCH  16  17
ENDBRANCH   8  16
BRANCH   9  21
ATOM     21  C   UNL     1       3.479   1.598   1.344  1.00  0.00    -0.016 A 
ATOM     22  C   UNL     1       4.159   1.551   2.563  1.00  0.00     0.009 A 
ATOM     23  C   UNL     1       3.955   0.853   0.257  1.00  0.00     0.009 A 
ATOM     24  C   UNL     1       5.298   0.752   2.696  1.00  0.00     0.001 A 
ATOM     25  C   UNL     1       5.086   0.047   0.395  1.00  0.00     0.001 A 
ATOM     26  C   UNL     1       5.757  -0.003   1.615  1.00  0.00     0.000 A 
ENDBRANCH   9  21
ENDBRANCH   4   7
ENDBRANCH   2   3
ENDBRANCH   1   2
BRANCH   1  27
ATOM     27  C   UNL     1       3.184   8.774   3.139  1.00  0.00     0.023 C 
BRANCH  27  28
ATOM     28  C   UNL     1       3.110   9.530   1.816  1.00  0.00     0.116 C 
BRANCH  28  29
ATOM     29  N   UNL     1       1.851  10.224   1.596  1.00  0.00    -0.352 N 
ATOM     30  C   UNL     1       1.586  11.562   1.401  1.00  0.00     0.251 C 
ATOM     31  H   UNL     1       1.057   9.642   1.583  1.00  0.00     0.163 HD
ATOM     32  O   UNL     1       0.427  11.943   1.290  1.00  0.00    -0.269 OA
BRANCH  30  33
ATOM     33  C   UNL     1       2.687  12.553   1.378  1.00  0.00     0.039 A 
ATOM     34  C   UNL     1       2.547  13.725   2.128  1.00  0.00     0.014 A 
ATOM     35  C   UNL     1       3.853  12.333   0.643  1.00  0.00     0.014 A 
ATOM     36  C   UNL     1       3.616  14.620   2.226  1.00  0.00     0.010 A 
ATOM     37  C   UNL     1       4.946  13.182   0.809  1.00  0.00     0.010 A 
ATOM     38  C   UNL     1       4.845  14.328   1.613  1.00  0.00    -0.014 A 
BRANCH  38  39
ATOM     39  C   UNL     1       6.040  15.187   1.820  1.00  0.00     0.031 A 
ATOM     40  C   UNL     1       6.689  15.883   0.656  1.00  0.00     0.074 A 
ATOM     41  C   UNL     1       6.597  15.273   3.045  1.00  0.00     0.049 A 
ATOM     42  N   UNL     1       7.788  16.594   0.626  1.00  0.00    -0.248 NA
ATOM     43  C   UNL     1       6.033  15.736  -0.653  1.00  0.00     0.031 C 
ATOM     44  C   UNL     1       6.100  14.613   4.255  1.00  0.00     0.029 A 
ATOM     45  N   UNL     1       7.715  15.947   3.474  1.00  0.00    -0.354 N 
ATOM     46  C   UNL     1       7.969  16.955  -0.703  1.00  0.00     0.074 A 
ATOM     47  C   UNL     1       6.891  16.350  -1.455  1.00  0.00     0.031 C 
ATOM     48  C   UNL     1       6.892  14.936   5.290  1.00  0.00     0.029 A 
ATOM     49  C   UNL     1       7.974  15.790   4.814  1.00  0.00     0.049 A 
ATOM     50  H   UNL     1       8.277  16.491   2.876  1.00  0.00     0.167 HD
ATOM     51  C   UNL     1       8.933  17.735  -1.248  1.00  0.00     0.031 A 
ATOM     52  C   UNL     1       8.973  16.274   5.576  1.00  0.00     0.031 A 
ATOM     53  C   UNL     1       9.993  18.358  -0.503  1.00  0.00     0.049 A 
ATOM     54  C   UNL     1      10.027  17.142   4.948  1.00  0.00     0.074 A 
ATOM     55  C   UNL     1      10.977  19.218  -0.960  1.00  0.00     0.029 A 
ATOM     56  N   UNL     1      10.204  18.191   0.856  1.00  0.00    -0.354 N 
ATOM     57  N   UNL     1      10.145  17.525   3.700  1.00  0.00    -0.248 NA
ATOM     58  C   UNL     1      11.081  17.651   5.838  1.00  0.00     0.031 C 
ATOM     59  C   UNL     1      11.810  19.540   0.118  1.00  0.00     0.029 A 
ATOM     60  C   UNL     1      11.315  18.918   1.252  1.00  0.00     0.049 A 
ATOM     61  H   UNL     1       9.648  17.639   1.451  1.00  0.00     0.167 HD
ATOM     62  C   UNL     1      11.268  18.340   3.660  1.00  0.00     0.074 A 
ATOM     63  C   UNL     1      11.788  18.407   5.010  1.00  0.00     0.031 C 
ATOM     64  C   UNL     1      11.819  18.977   2.599  1.00  0.00     0.031 A 
BRANCH  51  65
ATOM     65  C   UNL     1       8.881  17.953  -2.735  1.00  0.00    -0.014 A 
ATOM     66  C   UNL     1       7.887  18.756  -3.316  1.00  0.00     0.009 A 
ATOM     67  C   UNL     1       9.855  17.372  -3.561  1.00  0.00     0.009 A 
ATOM     68  C   UNL     1       7.845  18.938  -4.700  1.00  0.00     0.001 A 
ATOM     69  C   UNL     1       9.827  17.579  -4.941  1.00  0.00     0.001 A 
ATOM     70  C   UNL     1       8.817  18.353  -5.510  1.00  0.00     0.000 A 
ENDBRANCH  51  65
BRANCH  52  71
ATOM     71  C   UNL     1       9.017  15.968   7.029  1.00  0.00    -0.014 A 
ATOM     72  C   UNL     1       8.720  16.965   7.971  1.00  0.00     0.009 A 
ATOM     73  C   UNL     1       9.364  14.686   7.482  1.00  0.00     0.009 A 
ATOM     74  C   UNL     1       8.794  16.691   9.339  1.00  0.00     0.001 A 
ATOM     75  C   UNL     1       9.412  14.409   8.850  1.00  0.00     0.001 A 
ATOM     76  C   UNL     1       9.136  15.413   9.777  1.00  0.00     0.000 A 
ENDBRANCH  52  71
BRANCH  64  77
ATOM     77  C   UNL     1      13.026  19.831   2.861  1.00  0.00    -0.014 A 
ATOM     78  C   UNL     1      14.282  19.259   3.112  1.00  0.00     0.009 A 
ATOM     79  C   UNL     1      12.909  21.229   2.817  1.00  0.00     0.009 A 
ATOM     80  C   UNL     1      15.393  20.072   3.342  1.00  0.00     0.001 A 
ATOM     81  C   UNL     1      14.027  22.039   3.023  1.00  0.00     0.001 A 
ATOM     82  C   UNL     1      15.266  21.460   3.293  1.00  0.00     0.000 A 
ENDBRANCH  64  77
ENDBRANCH  38  39
ENDBRANCH  30  33
ENDBRANCH  28  29
ENDBRANCH  27  28
ENDBRANCH   1  27
TORSDOF 14
