REMARK SMILES O=C(Nc1nc(C2CC2)cs1)N[C@@H]1C=C[C@@H](C(=O)NCCCCNC(=O)c2ccc(-c3c4nc(c(-c5ccccc5)c5ccc([nH]5)c(-c5ccccc5)c5nc(c(-c6ccccc6)c6ccc3[nH]6)C=C5)C=C4)cc2)C1
REMARK SMILES IDX 21 1 20 2 19 3 17 4 18 5 16 7 13 8 14 9 75 10 15 11 12 12
REMARK SMILES IDX 1 13 2 14 3 15 4 18 5 19 11 20 6 21 10 22 7 23 8 24 9 25
REMARK SMILES IDX 22 26 23 27 24 28 25 29 26 31 27 32 28 33 74 34 29 35 73 36
REMARK SMILES IDX 30 37 31 38 32 39 67 40 33 41 72 42 66 43 68 44 34 45 71 46
REMARK SMILES IDX 65 47 64 48 35 50 57 51 42 52 56 53 43 54 46 55 55 56 69 57
REMARK SMILES IDX 44 58 45 59 54 61 70 62 47 63 36 64 37 65 41 66 38 67 40 68
REMARK SMILES IDX 39 69 58 70 59 71 63 72 60 73 62 74 61 75 48 76 49 77 53 78
REMARK SMILES IDX 50 79 52 80 51 81
REMARK H PARENT 19 6 3 16 12 17 24 30 68 49 46 60
REMARK Flexibility Score: inf
ROOT
ATOM      1  C   UNL     1       1.588  -1.452   2.436  1.00  0.00     0.023 C 
ENDROOT
BRANCH   1   2
ATOM      2  C   UNL     1       1.722  -2.823   1.780  1.00  0.00     0.116 C 
BRANCH   2   3
ATOM      3  N   UNL     1       0.431  -3.411   1.484  1.00  0.00    -0.356 N 
ATOM      4  C   UNL     1      -0.169  -3.692   0.295  1.00  0.00     0.227 C 
ATOM      5  O   UNL     1      -1.275  -4.241   0.341  1.00  0.00    -0.274 OA
ATOM      6  H   UNL     1      -0.103  -3.646   2.277  1.00  0.00     0.163 HD
BRANCH   4   7
ATOM      7  C   UNL     1       0.472  -3.368  -1.058  1.00  0.00     0.103 C 
ATOM      8  C   UNL     1       2.303  -1.831  -1.673  1.00  0.00     0.107 C 
ATOM      9  C   UNL     1       2.741  -3.263  -1.641  1.00  0.00    -0.006 C 
ATOM     10  C   UNL     1       0.819  -1.888  -1.275  1.00  0.00     0.047 C 
ATOM     11  C   UNL     1       1.756  -4.098  -1.297  1.00  0.00    -0.016 C 
BRANCH   8  12
ATOM     12  N   UNL     1       2.493  -1.339  -3.008  1.00  0.00    -0.332 N 
ATOM     13  O   UNL     1       4.677  -0.730  -2.768  1.00  0.00    -0.248 OA
ATOM     14  C   UNL     1       3.688  -0.886  -3.481  1.00  0.00     0.321 C 
ATOM     15  N   UNL     1       3.788  -0.720  -4.830  1.00  0.00    -0.284 N 
ATOM     16  H   UNL     1       4.676  -0.508  -5.199  1.00  0.00     0.174 HD
ATOM     17  H   UNL     1       1.718  -1.329  -3.615  1.00  0.00     0.165 HD
BRANCH  15  18
ATOM     18  C   UNL     1       2.749  -0.826  -5.706  1.00  0.00     0.191 A 
ATOM     19  N   UNL     1       1.468  -0.774  -5.433  1.00  0.00    -0.225 NA
ATOM     20  S   UNL     1       3.179  -1.123  -7.326  1.00  0.00    -0.105 S 
ATOM     21  C   UNL     1       0.755  -1.023  -6.586  1.00  0.00     0.057 A 
ATOM     22  C   UNL     1       1.512  -1.331  -7.698  1.00  0.00     0.092 A 
BRANCH  21  23
ATOM     23  C   UNL     1      -0.765  -0.952  -6.621  1.00  0.00     0.039 C 
ATOM     24  C   UNL     1      -1.526  -0.833  -5.317  1.00  0.00     0.011 C 
ATOM     25  C   UNL     1      -1.411   0.355  -6.212  1.00  0.00     0.011 C 
ENDBRANCH  21  23
ENDBRANCH  15  18
ENDBRANCH   8  12
ENDBRANCH   4   7
ENDBRANCH   2   3
ENDBRANCH   1   2
BRANCH   1  26
ATOM     26  C   UNL     1       1.013  -1.483   3.851  1.00  0.00     0.023 C 
BRANCH  26  27
ATOM     27  C   UNL     1       1.766  -2.373   4.832  1.00  0.00     0.116 C 
BRANCH  27  28
ATOM     28  N   UNL     1       3.169  -2.010   4.969  1.00  0.00    -0.352 N 
ATOM     29  C   UNL     1       3.915  -1.860   6.112  1.00  0.00     0.251 C 
ATOM     30  H   UNL     1       3.650  -1.850   4.125  1.00  0.00     0.163 HD
ATOM     31  O   UNL     1       5.058  -1.417   6.053  1.00  0.00    -0.269 OA
BRANCH  29  32
ATOM     32  C   UNL     1       3.323  -2.204   7.421  1.00  0.00     0.039 A 
ATOM     33  C   UNL     1       3.474  -1.311   8.484  1.00  0.00     0.014 A 
ATOM     34  C   UNL     1       2.603  -3.389   7.592  1.00  0.00     0.014 A 
ATOM     35  C   UNL     1       2.847  -1.578   9.702  1.00  0.00     0.010 A 
ATOM     36  C   UNL     1       1.910  -3.611   8.778  1.00  0.00     0.010 A 
ATOM     37  C   UNL     1       2.030  -2.711   9.847  1.00  0.00    -0.014 A 
BRANCH  37  38
ATOM     38  C   UNL     1       1.296  -2.971  11.111  1.00  0.00     0.031 A 
ATOM     39  C   UNL     1       1.599  -4.200  11.924  1.00  0.00     0.074 A 
ATOM     40  C   UNL     1       0.319  -2.129  11.501  1.00  0.00     0.049 A 
ATOM     41  N   UNL     1       1.043  -4.613  13.034  1.00  0.00    -0.248 NA
ATOM     42  C   UNL     1       2.648  -5.095  11.409  1.00  0.00     0.031 C 
ATOM     43  C   UNL     1      -0.102  -0.924  10.781  1.00  0.00     0.029 A 
ATOM     44  N   UNL     1      -0.499  -2.159  12.603  1.00  0.00    -0.354 N 
ATOM     45  C   UNL     1       1.662  -5.818  13.341  1.00  0.00     0.074 A 
ATOM     46  C   UNL     1       2.594  -6.099  12.271  1.00  0.00     0.031 C 
ATOM     47  C   UNL     1      -1.074  -0.314  11.478  1.00  0.00     0.029 A 
ATOM     48  C   UNL     1      -1.375  -1.103  12.668  1.00  0.00     0.049 A 
ATOM     49  H   UNL     1      -0.461  -2.870  13.282  1.00  0.00     0.167 HD
ATOM     50  C   UNL     1       1.489  -6.610  14.425  1.00  0.00     0.031 A 
ATOM     51  C   UNL     1      -2.317  -0.804  13.581  1.00  0.00     0.031 A 
ATOM     52  C   UNL     1       0.566  -6.329  15.492  1.00  0.00     0.049 A 
ATOM     53  C   UNL     1      -2.504  -1.710  14.767  1.00  0.00     0.074 A 
ATOM     54  C   UNL     1       0.354  -7.043  16.659  1.00  0.00     0.029 A 
ATOM     55  N   UNL     1      -0.303  -5.249  15.519  1.00  0.00    -0.354 N 
ATOM     56  N   UNL     1      -1.859  -2.808  15.078  1.00  0.00    -0.248 NA
ATOM     57  C   UNL     1      -3.541  -1.325  15.734  1.00  0.00     0.031 C 
ATOM     58  C   UNL     1      -0.684  -6.426  17.365  1.00  0.00     0.029 A 
ATOM     59  C   UNL     1      -1.072  -5.291  16.671  1.00  0.00     0.049 A 
ATOM     60  H   UNL     1      -0.365  -4.556  14.824  1.00  0.00     0.167 HD
ATOM     61  C   UNL     1      -2.390  -3.227  16.292  1.00  0.00     0.074 A 
ATOM     62  C   UNL     1      -3.396  -2.255  16.667  1.00  0.00     0.031 C 
ATOM     63  C   UNL     1      -2.071  -4.318  17.031  1.00  0.00     0.031 A 
BRANCH  50  64
ATOM     64  C   UNL     1       2.315  -7.865  14.504  1.00  0.00    -0.014 A 
ATOM     65  C   UNL     1       3.704  -7.813  14.703  1.00  0.00     0.009 A 
ATOM     66  C   UNL     1       1.692  -9.119  14.410  1.00  0.00     0.009 A 
ATOM     67  C   UNL     1       4.457  -8.988  14.764  1.00  0.00     0.001 A 
ATOM     68  C   UNL     1       2.442 -10.293  14.504  1.00  0.00     0.001 A 
ATOM     69  C   UNL     1       3.824 -10.226  14.670  1.00  0.00     0.000 A 
ENDBRANCH  50  64
BRANCH  51  70
ATOM     70  C   UNL     1      -3.149   0.419  13.425  1.00  0.00    -0.014 A 
ATOM     71  C   UNL     1      -2.997   1.503  14.304  1.00  0.00     0.009 A 
ATOM     72  C   UNL     1      -4.108   0.506  12.404  1.00  0.00     0.009 A 
ATOM     73  C   UNL     1      -3.809   2.633  14.184  1.00  0.00     0.001 A 
ATOM     74  C   UNL     1      -4.897   1.650  12.266  1.00  0.00     0.001 A 
ATOM     75  C   UNL     1      -4.755   2.707  13.163  1.00  0.00     0.000 A 
ENDBRANCH  51  70
BRANCH  63  76
ATOM     76  C   UNL     1      -2.788  -4.495  18.340  1.00  0.00    -0.014 A 
ATOM     77  C   UNL     1      -4.147  -4.841  18.392  1.00  0.00     0.009 A 
ATOM     78  C   UNL     1      -2.079  -4.344  19.543  1.00  0.00     0.009 A 
ATOM     79  C   UNL     1      -4.790  -4.993  19.622  1.00  0.00     0.001 A 
ATOM     80  C   UNL     1      -2.716  -4.529  20.770  1.00  0.00     0.001 A 
ATOM     81  C   UNL     1      -4.073  -4.842  20.809  1.00  0.00     0.000 A 
ENDBRANCH  63  76
ENDBRANCH  37  38
ENDBRANCH  29  32
ENDBRANCH  27  28
ENDBRANCH  26  27
ENDBRANCH   1  26
TORSDOF 14
