REMARK SMILES CCC(=O)Nc1cc(NC(=O)/C=C/C(=O)NCCCCNC(=O)c2ccc(-c3c4nc(c(-c5ccccc5)c5ccc([nH]5)c(-c5ccccc5)c5nc(c(-c6ccccc6)c6ccc3[nH]6)C=C5)C=C4)cc2)ccc1C
REMARK SMILES IDX 17 1 16 2 14 3 15 4 13 6 12 7 10 8 9 9 11 11 8 12 6 13 7 14
REMARK SMILES IDX 74 15 73 16 75 17 72 18 5 19 3 20 4 21 2 23 1 24 18 25 19 26
REMARK SMILES IDX 20 27 21 28 22 29 23 31 24 32 25 33 71 34 26 35 70 36 27 37
REMARK SMILES IDX 28 38 29 39 64 40 30 41 69 42 63 43 65 44 31 45 68 46 62 47
REMARK SMILES IDX 61 48 32 50 54 51 39 52 53 53 40 54 43 55 52 56 66 57 41 58
REMARK SMILES IDX 42 59 51 61 67 62 44 63 33 64 34 65 38 66 35 67 37 68 36 69
REMARK SMILES IDX 55 70 56 71 60 72 57 73 59 74 58 75 45 76 46 77 50 78 47 79
REMARK SMILES IDX 49 80 48 81
REMARK H PARENT 16 5 9 10 5 22 21 30 65 49 43 60
REMARK Flexibility Score: inf
ROOT
ATOM      1  C   UNL     1       5.515   6.285   3.674  1.00  0.00     0.116 C 
ENDROOT
BRANCH   1   2
ATOM      2  N   UNL     1       4.401   5.712   2.941  1.00  0.00    -0.353 N 
ATOM      3  C   UNL     1       4.404   4.626   2.124  1.00  0.00     0.244 C 
ATOM      4  O   UNL     1       3.464   4.397   1.368  1.00  0.00    -0.270 OA
ATOM      5  H   UNL     1       3.534   6.166   3.049  1.00  0.00     0.163 HD
BRANCH   3   6
ATOM      6  C   UNL     1       5.543   3.693   2.172  1.00  0.00     0.077 C 
ATOM      7  C   UNL     1       5.710   2.991   3.304  1.00  0.00     0.077 C 
BRANCH   7   8
ATOM      8  C   UNL     1       6.569   1.798   3.338  1.00  0.00     0.248 C 
ATOM      9  N   UNL     1       6.215   0.667   2.652  1.00  0.00    -0.322 N 
ATOM     10  H   UNL     1       6.851  -0.077   2.752  1.00  0.00     0.170 HD
ATOM     11  O   UNL     1       7.607   1.834   3.994  1.00  0.00    -0.270 OA
BRANCH   9  12
ATOM     12  C   UNL     1       5.108   0.369   1.829  1.00  0.00     0.043 A 
ATOM     13  C   UNL     1       2.994   0.959   0.771  1.00  0.00     0.046 A 
ATOM     14  C   UNL     1       3.922   1.101   1.807  1.00  0.00     0.052 A 
ATOM     15  C   UNL     1       3.229   0.024  -0.244  1.00  0.00    -0.027 A 
ATOM     16  C   UNL     1       4.324  -0.846  -0.111  1.00  0.00     0.008 A 
ATOM     17  C   UNL     1       2.481   0.005  -1.548  1.00  0.00     0.046 C 
ATOM     18  C   UNL     1       5.255  -0.676   0.918  1.00  0.00     0.026 A 
BRANCH  13  19
ATOM     19  N   UNL     1       2.015   1.955   0.673  1.00  0.00    -0.326 N 
ATOM     20  C   UNL     1       0.657   1.850   0.766  1.00  0.00     0.224 C 
ATOM     21  O   UNL     1      -0.046   2.821   0.474  1.00  0.00    -0.275 OA
ATOM     22  H   UNL     1       2.356   2.865   0.512  1.00  0.00     0.169 HD
BRANCH  20  23
ATOM     23  C   UNL     1       0.032   0.606   1.370  1.00  0.00     0.097 C 
ATOM     24  C   UNL     1      -0.075  -0.590   0.453  1.00  0.00     0.014 C 
ENDBRANCH  20  23
ENDBRANCH  13  19
ENDBRANCH   9  12
ENDBRANCH   7   8
ENDBRANCH   3   6
ENDBRANCH   1   2
BRANCH   1  25
ATOM     25  C   UNL     1       6.440   7.097   2.760  1.00  0.00     0.023 C 
BRANCH  25  26
ATOM     26  C   UNL     1       5.743   8.211   1.971  1.00  0.00     0.023 C 
BRANCH  26  27
ATOM     27  C   UNL     1       5.139   9.301   2.844  1.00  0.00     0.116 C 
BRANCH  27  28
ATOM     28  N   UNL     1       6.100  10.280   3.322  1.00  0.00    -0.352 N 
ATOM     29  C   UNL     1       5.971  11.266   4.287  1.00  0.00     0.251 C 
ATOM     30  H   UNL     1       6.985  10.236   2.892  1.00  0.00     0.163 HD
ATOM     31  O   UNL     1       6.882  12.058   4.460  1.00  0.00    -0.269 OA
BRANCH  29  32
ATOM     32  C   UNL     1       4.803  11.268   5.210  1.00  0.00     0.039 A 
ATOM     33  C   UNL     1       5.054  11.566   6.556  1.00  0.00     0.014 A 
ATOM     34  C   UNL     1       3.554  10.785   4.831  1.00  0.00     0.014 A 
ATOM     35  C   UNL     1       4.171  11.120   7.534  1.00  0.00     0.010 A 
ATOM     36  C   UNL     1       2.722  10.254   5.797  1.00  0.00     0.010 A 
ATOM     37  C   UNL     1       3.078  10.352   7.143  1.00  0.00    -0.014 A 
BRANCH  37  38
ATOM     38  C   UNL     1       2.331   9.508   8.063  1.00  0.00     0.031 A 
ATOM     39  C   UNL     1       1.010   9.928   8.554  1.00  0.00     0.074 A 
ATOM     40  C   UNL     1       2.851   8.316   8.428  1.00  0.00     0.049 A 
ATOM     41  N   UNL     1       0.469   9.490   9.639  1.00  0.00    -0.248 NA
ATOM     42  C   UNL     1       0.221  10.958   7.888  1.00  0.00     0.031 C 
ATOM     43  C   UNL     1       2.188   7.218   9.122  1.00  0.00     0.029 A 
ATOM     44  N   UNL     1       4.196   7.962   8.430  1.00  0.00    -0.354 N 
ATOM     45  C   UNL     1      -0.831   9.935   9.658  1.00  0.00     0.074 A 
ATOM     46  C   UNL     1      -0.893  10.941   8.625  1.00  0.00     0.031 C 
ATOM     47  C   UNL     1       3.123   6.438   9.691  1.00  0.00     0.029 A 
ATOM     48  C   UNL     1       4.407   7.097   9.513  1.00  0.00     0.049 A 
ATOM     49  H   UNL     1       4.878   8.264   7.787  1.00  0.00     0.167 HD
ATOM     50  C   UNL     1      -1.737   9.289  10.445  1.00  0.00     0.031 A 
ATOM     51  C   UNL     1       5.238   7.462  10.534  1.00  0.00     0.031 A 
ATOM     52  C   UNL     1      -1.078   8.344  11.351  1.00  0.00     0.049 A 
ATOM     53  C   UNL     1       4.536   7.610  11.869  1.00  0.00     0.074 A 
ATOM     54  C   UNL     1      -0.941   6.966  11.353  1.00  0.00     0.029 A 
ATOM     55  N   UNL     1      -0.172   8.830  12.289  1.00  0.00    -0.354 N 
ATOM     56  N   UNL     1       3.242   7.704  12.014  1.00  0.00    -0.248 NA
ATOM     57  C   UNL     1       5.246   7.710  13.142  1.00  0.00     0.031 C 
ATOM     58  C   UNL     1       0.129   6.635  12.231  1.00  0.00     0.029 A 
ATOM     59  C   UNL     1       0.608   7.806  12.792  1.00  0.00     0.049 A 
ATOM     60  H   UNL     1      -0.097   9.774  12.557  1.00  0.00     0.167 HD
ATOM     61  C   UNL     1       2.939   7.900  13.336  1.00  0.00     0.074 A 
ATOM     62  C   UNL     1       4.228   7.869  14.006  1.00  0.00     0.031 C 
ATOM     63  C   UNL     1       1.657   8.097  13.764  1.00  0.00     0.031 A 
BRANCH  50  64
ATOM     64  C   UNL     1      -3.234   9.318  10.212  1.00  0.00    -0.014 A 
ATOM     65  C   UNL     1      -4.048   8.340  10.815  1.00  0.00     0.009 A 
ATOM     66  C   UNL     1      -3.900  10.202   9.344  1.00  0.00     0.009 A 
ATOM     67  C   UNL     1      -5.415   8.217  10.520  1.00  0.00     0.001 A 
ATOM     68  C   UNL     1      -5.263  10.085   9.037  1.00  0.00     0.001 A 
ATOM     69  C   UNL     1      -6.020   9.083   9.618  1.00  0.00     0.000 A 
ENDBRANCH  50  64
BRANCH  51  70
ATOM     70  C   UNL     1       6.394   8.294  10.090  1.00  0.00    -0.014 A 
ATOM     71  C   UNL     1       7.349   7.708   9.233  1.00  0.00     0.009 A 
ATOM     72  C   UNL     1       6.362   9.691  10.196  1.00  0.00     0.009 A 
ATOM     73  C   UNL     1       8.162   8.499   8.416  1.00  0.00     0.001 A 
ATOM     74  C   UNL     1       7.190  10.480   9.386  1.00  0.00     0.001 A 
ATOM     75  C   UNL     1       8.060   9.886   8.471  1.00  0.00     0.000 A 
ENDBRANCH  51  70
BRANCH  63  76
ATOM     76  C   UNL     1       1.244   8.542  15.149  1.00  0.00    -0.014 A 
ATOM     77  C   UNL     1       2.080   9.213  16.052  1.00  0.00     0.009 A 
ATOM     78  C   UNL     1      -0.110   8.401  15.533  1.00  0.00     0.009 A 
ATOM     79  C   UNL     1       1.603   9.672  17.289  1.00  0.00     0.001 A 
ATOM     80  C   UNL     1      -0.601   8.901  16.741  1.00  0.00     0.001 A 
ATOM     81  C   UNL     1       0.262   9.526  17.628  1.00  0.00     0.000 A 
ENDBRANCH  63  76
ENDBRANCH  37  38
ENDBRANCH  29  32
ENDBRANCH  27  28
ENDBRANCH  26  27
ENDBRANCH  25  26
ENDBRANCH   1  25
TORSDOF 15
