REMARK SMILES C[NH+]1CCN(C(=O)c2ccc3c(c2)N(CC(=O)NCCCCNC(=O)c2ccc(-c4c5nc(c(-c6ccccc6)c6ccc([nH]6)c(-c6ccccc6)c6nc(c(-c7ccccc7)c7ccc4[nH]7)C=C6)C=C5)cc2)C(=O)CO3)CC1
REMARK SMILES IDX 20 1 19 2 18 3 16 4 17 5 15 7 14 8 8 9 9 10 13 11 10 12
REMARK SMILES IDX 12 13 11 14 77 15 74 16 76 17 75 18 6 19 1 20 2 21 3 22
REMARK SMILES IDX 79 23 4 25 78 26 5 27 7 28 21 29 22 30 23 31 24 32 25 34
REMARK SMILES IDX 26 35 27 36 73 37 28 38 72 39 29 40 30 41 31 42 66 43 32 44
REMARK SMILES IDX 71 45 65 46 67 47 33 48 70 49 64 50 63 51 34 53 56 54 41 55
REMARK SMILES IDX 55 56 42 57 45 58 54 59 68 60 43 61 44 62 53 64 69 65 46 66
REMARK SMILES IDX 35 67 36 68 40 69 37 70 39 71 38 72 57 73 58 74 62 75 59 76
REMARK SMILES IDX 61 77 60 78 47 79 48 80 52 81 49 82 51 83 50 84
REMARK H PARENT 18 6 2 24 23 33 67 52 45 63
REMARK Flexibility Score: inf
ROOT
ATOM      1  C   UNL     1      -2.622  -6.677   0.500  1.00  0.00     0.023 C 
ENDROOT
BRANCH   1   2
ATOM      2  C   UNL     1      -1.574  -6.637   1.610  1.00  0.00     0.116 C 
BRANCH   2   3
ATOM      3  N   UNL     1      -0.825  -5.399   1.609  1.00  0.00    -0.355 N 
ATOM      4  C   UNL     1      -0.917  -4.337   2.459  1.00  0.00     0.240 C 
ATOM      5  O   UNL     1      -0.085  -3.435   2.333  1.00  0.00    -0.273 OA
ATOM      6  H   UNL     1      -0.154  -5.310   0.893  1.00  0.00     0.163 HD
BRANCH   4   7
ATOM      7  C   UNL     1      -1.959  -4.292   3.586  1.00  0.00     0.225 C 
BRANCH   7   8
ATOM      8  N   UNL     1      -3.350  -4.369   3.138  1.00  0.00    -0.296 N 
ATOM      9  C   UNL     1      -3.785  -1.284   1.051  1.00  0.00     0.042 A 
ATOM     10  C   UNL     1      -5.012  -1.547   0.440  1.00  0.00     0.018 A 
ATOM     11  C   UNL     1      -3.245  -2.178   1.986  1.00  0.00     0.044 A 
ATOM     12  C   UNL     1      -5.683  -2.730   0.735  1.00  0.00     0.049 A 
ATOM     13  C   UNL     1      -3.905  -3.381   2.274  1.00  0.00     0.087 A 
ATOM     14  C   UNL     1      -5.137  -3.633   1.650  1.00  0.00     0.143 A 
ATOM     15  O   UNL     1      -5.848  -4.789   1.823  1.00  0.00    -0.482 OA
ATOM     16  C   UNL     1      -4.131  -5.441   3.550  1.00  0.00     0.265 C 
ATOM     17  C   UNL     1      -5.569  -5.432   3.050  1.00  0.00     0.330 C 
ATOM     18  O   UNL     1      -3.730  -6.324   4.309  1.00  0.00    -0.270 OA
BRANCH   9  19
ATOM     19  C   UNL     1      -3.104  -0.009   0.736  1.00  0.00     0.254 C 
ATOM     20  C   UNL     1       2.451   0.093   0.058  1.00  0.00     0.332 C 
ATOM     21  N   UNL     1       1.045   0.076  -0.341  1.00  0.00    -0.334 N 
ATOM     22  C   UNL     1       0.331   1.243   0.225  1.00  0.00     0.283 C 
ATOM     23  C   UNL     1       0.394  -1.165   0.130  1.00  0.00     0.283 C 
ATOM     24  H   UNL     1       1.003   0.118  -1.359  1.00  0.00     0.347 HD
ATOM     25  C   UNL     1      -1.171   1.241  -0.119  1.00  0.00     0.181 C 
ATOM     26  C   UNL     1      -1.092  -1.213  -0.268  1.00  0.00     0.181 C 
ATOM     27  N   UNL     1      -1.816  -0.031   0.218  1.00  0.00    -0.327 N 
ATOM     28  O   UNL     1      -3.740   1.023   0.938  1.00  0.00    -0.269 OA
ENDBRANCH   9  19
ENDBRANCH   7   8
ENDBRANCH   4   7
ENDBRANCH   2   3
ENDBRANCH   1   2
BRANCH   1  29
ATOM     29  C   UNL     1      -2.050  -6.740  -0.919  1.00  0.00     0.023 C 
BRANCH  29  30
ATOM     30  C   UNL     1      -1.096  -7.899  -1.190  1.00  0.00     0.116 C 
BRANCH  30  31
ATOM     31  N   UNL     1      -1.690  -9.204  -0.946  1.00  0.00    -0.352 N 
ATOM     32  C   UNL     1      -1.551 -10.364  -1.669  1.00  0.00     0.251 C 
ATOM     33  H   UNL     1      -2.272  -9.264  -0.154  1.00  0.00     0.163 HD
ATOM     34  O   UNL     1      -2.216 -11.355  -1.384  1.00  0.00    -0.269 OA
BRANCH  32  35
ATOM     35  C   UNL     1      -0.624 -10.402  -2.820  1.00  0.00     0.039 A 
ATOM     36  C   UNL     1      -1.073 -10.942  -4.028  1.00  0.00     0.014 A 
ATOM     37  C   UNL     1       0.672  -9.890  -2.717  1.00  0.00     0.014 A 
ATOM     38  C   UNL     1      -0.247 -10.902  -5.153  1.00  0.00     0.010 A 
ATOM     39  C   UNL     1       1.466  -9.785  -3.855  1.00  0.00     0.010 A 
ATOM     40  C   UNL     1       1.013 -10.287  -5.085  1.00  0.00    -0.014 A 
BRANCH  40  41
ATOM     41  C   UNL     1       1.869 -10.149  -6.290  1.00  0.00     0.031 A 
ATOM     42  C   UNL     1       3.198 -10.849  -6.359  1.00  0.00     0.074 A 
ATOM     43  C   UNL     1       1.480  -9.342  -7.296  1.00  0.00     0.049 A 
ATOM     44  N   UNL     1       4.108 -10.801  -7.299  1.00  0.00    -0.248 NA
ATOM     45  C   UNL     1       3.563 -11.693  -5.210  1.00  0.00     0.031 C 
ATOM     46  C   UNL     1       0.230  -8.582  -7.340  1.00  0.00     0.029 A 
ATOM     47  N   UNL     1       2.103  -9.025  -8.477  1.00  0.00    -0.354 N 
ATOM     48  C   UNL     1       5.155 -11.596  -6.850  1.00  0.00     0.074 A 
ATOM     49  C   UNL     1       4.791 -12.069  -5.532  1.00  0.00     0.031 C 
ATOM     50  C   UNL     1       0.163  -7.914  -8.502  1.00  0.00     0.029 A 
ATOM     51  C   UNL     1       1.381  -8.162  -9.265  1.00  0.00     0.049 A 
ATOM     52  H   UNL     1       2.984  -9.381  -8.734  1.00  0.00     0.167 HD
ATOM     53  C   UNL     1       6.307 -11.922  -7.484  1.00  0.00     0.031 A 
ATOM     54  C   UNL     1       1.669  -7.629 -10.467  1.00  0.00     0.031 A 
ATOM     55  C   UNL     1       6.670 -11.455  -8.796  1.00  0.00     0.049 A 
ATOM     56  C   UNL     1       2.969  -7.977 -11.136  1.00  0.00     0.074 A 
ATOM     57  C   UNL     1       7.794 -11.764  -9.541  1.00  0.00     0.029 A 
ATOM     58  N   UNL     1       5.916 -10.574  -9.556  1.00  0.00    -0.354 N 
ATOM     59  N   UNL     1       3.922  -8.777 -10.723  1.00  0.00    -0.248 NA
ATOM     60  C   UNL     1       3.227  -7.354 -12.442  1.00  0.00     0.031 C 
ATOM     61  C   UNL     1       7.745 -11.031 -10.732  1.00  0.00     0.029 A 
ATOM     62  C   UNL     1       6.562 -10.310 -10.752  1.00  0.00     0.049 A 
ATOM     63  H   UNL     1       5.050 -10.193  -9.285  1.00  0.00     0.167 HD
ATOM     64  C   UNL     1       4.878  -8.777 -11.731  1.00  0.00     0.074 A 
ATOM     65  C   UNL     1       4.384  -7.907 -12.779  1.00  0.00     0.031 C 
ATOM     66  C   UNL     1       6.059  -9.441 -11.784  1.00  0.00     0.031 A 
BRANCH  53  67
ATOM     67  C   UNL     1       7.261 -12.825  -6.753  1.00  0.00    -0.014 A 
ATOM     68  C   UNL     1       6.952 -14.177  -6.524  1.00  0.00     0.009 A 
ATOM     69  C   UNL     1       8.492 -12.325  -6.300  1.00  0.00     0.009 A 
ATOM     70  C   UNL     1       7.836 -14.995  -5.818  1.00  0.00     0.001 A 
ATOM     71  C   UNL     1       9.387 -13.155  -5.622  1.00  0.00     0.001 A 
ATOM     72  C   UNL     1       9.053 -14.485  -5.371  1.00  0.00     0.000 A 
ENDBRANCH  53  67
BRANCH  54  73
ATOM     73  C   UNL     1       0.695  -6.725 -11.133  1.00  0.00    -0.014 A 
ATOM     74  C   UNL     1      -0.008  -7.155 -12.268  1.00  0.00     0.009 A 
ATOM     75  C   UNL     1       0.464  -5.430 -10.642  1.00  0.00     0.009 A 
ATOM     76  C   UNL     1      -0.904  -6.300 -12.913  1.00  0.00     0.001 A 
ATOM     77  C   UNL     1      -0.453  -4.587 -11.272  1.00  0.00     0.001 A 
ATOM     78  C   UNL     1      -1.129  -5.019 -12.412  1.00  0.00     0.000 A 
ENDBRANCH  54  73
BRANCH  66  79
ATOM     79  C   UNL     1       6.880  -9.282 -13.033  1.00  0.00    -0.014 A 
ATOM     80  C   UNL     1       7.560  -8.087 -13.314  1.00  0.00     0.009 A 
ATOM     81  C   UNL     1       7.004 -10.361 -13.923  1.00  0.00     0.009 A 
ATOM     82  C   UNL     1       8.321  -7.966 -14.478  1.00  0.00     0.001 A 
ATOM     83  C   UNL     1       7.789 -10.247 -15.071  1.00  0.00     0.001 A 
ATOM     84  C   UNL     1       8.439  -9.046 -15.352  1.00  0.00     0.000 A 
ENDBRANCH  66  79
ENDBRANCH  40  41
ENDBRANCH  32  35
ENDBRANCH  30  31
ENDBRANCH  29  30
ENDBRANCH   1  29
TORSDOF 13
