REMARK SMILES CC[C@H](C(=O)NCCCCNC(=O)c1ccc(-c2c3nc(c(-c4ccccc4)c4ccc([nH]4)c(-c4ccccc4)c4nc(c(-c5ccccc5)c5ccc2[nH]5)C=C4)C=C3)cc1)[N@@H+](C)[C@H]1CC[C@@H]([NH2+]C)CC1
REMARK SMILES IDX 8 1 7 2 6 3 4 4 5 5 3 7 2 8 1 9 62 10 63 11 64 13 71 14
REMARK SMILES IDX 65 15 70 16 66 17 67 18 68 19 69 20 9 23 10 24 11 25 12 26
REMARK SMILES IDX 13 28 14 29 15 30 61 31 16 32 60 33 17 34 18 35 19 36 54 37
REMARK SMILES IDX 20 38 59 39 53 40 55 41 21 42 58 43 52 44 51 45 22 47 44 48
REMARK SMILES IDX 29 49 43 50 30 51 33 52 42 53 56 54 31 55 32 56 41 58 57 59
REMARK SMILES IDX 34 60 23 61 24 62 28 63 25 64 27 65 26 66 45 67 46 68 50 69
REMARK SMILES IDX 47 70 49 71 48 72 35 73 36 74 40 75 37 76 39 77 38 78
REMARK H PARENT 6 6 62 12 68 21 68 22 11 27 55 46 33 57
REMARK Flexibility Score: inf
ROOT
ATOM      1  C   UNL     1       0.379  -0.971   2.146  1.00  0.00     0.023 C 
ENDROOT
BRANCH   1   2
ATOM      2  C   UNL     1      -0.281  -1.049   0.771  1.00  0.00     0.116 C 
BRANCH   2   3
ATOM      3  N   UNL     1       0.376  -0.189  -0.186  1.00  0.00    -0.351 N 
ATOM      4  C   UNL     1       0.993  -0.420  -1.376  1.00  0.00     0.278 C 
ATOM      5  O   UNL     1       1.351   0.602  -1.980  1.00  0.00    -0.268 OA
ATOM      6  H   UNL     1       0.378   0.760   0.077  1.00  0.00     0.163 HD
BRANCH   4   7
ATOM      7  C   UNL     1       1.247  -1.825  -2.003  1.00  0.00     0.273 C 
BRANCH   7   8
ATOM      8  C   UNL     1       1.460  -3.052  -1.095  1.00  0.00     0.072 C 
ATOM      9  C   UNL     1       2.476  -2.835   0.024  1.00  0.00     0.011 C 
ENDBRANCH   7   8
BRANCH   7  10
ATOM     10  N   UNL     1       0.441  -2.037  -3.246  1.00  0.00    -0.325 N 
ATOM     11  C   UNL     1       1.049  -3.049  -4.117  1.00  0.00     0.333 C 
ATOM     12  H   UNL     1       0.513  -1.088  -3.612  1.00  0.00     0.348 HD
BRANCH  10  13
ATOM     13  C   UNL     1      -1.034  -2.122  -3.250  1.00  0.00     0.184 C 
ATOM     14  C   UNL     1      -1.626  -3.397  -2.619  1.00  0.00     0.071 C 
ATOM     15  C   UNL     1      -1.749  -0.835  -2.789  1.00  0.00     0.071 C 
ATOM     16  C   UNL     1      -3.156  -3.426  -2.700  1.00  0.00     0.071 C 
ATOM     17  C   UNL     1      -3.280  -0.947  -2.812  1.00  0.00     0.071 C 
ATOM     18  C   UNL     1      -3.798  -2.187  -2.060  1.00  0.00     0.182 C 
BRANCH  18  19
ATOM     19  N   UNL     1      -3.505  -2.034  -0.625  1.00  0.00    -0.346 N 
ATOM     20  C   UNL     1      -3.991  -3.130   0.202  1.00  0.00     0.331 C 
ATOM     21  H   UNL     1      -3.940  -1.171  -0.299  1.00  0.00     0.346 HD
ATOM     22  H   UNL     1      -2.490  -2.025  -0.532  1.00  0.00     0.346 HD
ENDBRANCH  18  19
ENDBRANCH  10  13
ENDBRANCH   7  10
ENDBRANCH   4   7
ENDBRANCH   2   3
ENDBRANCH   1   2
BRANCH   1  23
ATOM     23  C   UNL     1      -0.248   0.073   3.072  1.00  0.00     0.023 C 
BRANCH  23  24
ATOM     24  C   UNL     1      -1.718  -0.161   3.404  1.00  0.00     0.116 C 
BRANCH  24  25
ATOM     25  N   UNL     1      -1.988  -1.470   3.978  1.00  0.00    -0.352 N 
ATOM     26  C   UNL     1      -2.981  -1.818   4.864  1.00  0.00     0.251 C 
ATOM     27  H   UNL     1      -1.385  -2.196   3.698  1.00  0.00     0.163 HD
ATOM     28  O   UNL     1      -3.040  -2.947   5.325  1.00  0.00    -0.269 OA
BRANCH  26  29
ATOM     29  C   UNL     1      -3.952  -0.787   5.282  1.00  0.00     0.039 A 
ATOM     30  C   UNL     1      -4.168  -0.584   6.646  1.00  0.00     0.014 A 
ATOM     31  C   UNL     1      -4.612  -0.003   4.332  1.00  0.00     0.014 A 
ATOM     32  C   UNL     1      -5.017   0.443   7.060  1.00  0.00     0.010 A 
ATOM     33  C   UNL     1      -5.394   1.068   4.747  1.00  0.00     0.010 A 
ATOM     34  C   UNL     1      -5.619   1.290   6.114  1.00  0.00    -0.014 A 
BRANCH  34  35
ATOM     35  C   UNL     1      -6.524   2.382   6.544  1.00  0.00     0.031 A 
ATOM     36  C   UNL     1      -7.984   2.328   6.186  1.00  0.00     0.074 A 
ATOM     37  C   UNL     1      -6.031   3.432   7.228  1.00  0.00     0.049 A 
ATOM     38  N   UNL     1      -8.939   3.172   6.484  1.00  0.00    -0.248 NA
ATOM     39  C   UNL     1      -8.425   1.190   5.363  1.00  0.00     0.031 C 
ATOM     40  C   UNL     1      -4.625   3.629   7.587  1.00  0.00     0.029 A 
ATOM     41  N   UNL     1      -6.665   4.532   7.749  1.00  0.00    -0.354 N 
ATOM     42  C   UNL     1     -10.083   2.675   5.873  1.00  0.00     0.074 A 
ATOM     43  C   UNL     1      -9.694   1.493   5.138  1.00  0.00     0.031 C 
ATOM     44  C   UNL     1      -4.510   4.759   8.305  1.00  0.00     0.029 A 
ATOM     45  C   UNL     1      -5.825   5.376   8.434  1.00  0.00     0.049 A 
ATOM     46  H   UNL     1      -7.629   4.700   7.641  1.00  0.00     0.167 HD
ATOM     47  C   UNL     1     -11.352   3.142   5.939  1.00  0.00     0.031 A 
ATOM     48  C   UNL     1      -6.093   6.512   9.104  1.00  0.00     0.031 A 
ATOM     49  C   UNL     1     -11.744   4.306   6.685  1.00  0.00     0.049 A 
ATOM     50  C   UNL     1      -7.513   6.999   9.182  1.00  0.00     0.074 A 
ATOM     51  C   UNL     1     -13.011   4.832   6.865  1.00  0.00     0.029 A 
ATOM     52  N   UNL     1     -10.867   5.125   7.379  1.00  0.00    -0.354 N 
ATOM     53  N   UNL     1      -8.597   6.474   8.666  1.00  0.00    -0.248 NA
ATOM     54  C   UNL     1      -7.746   8.227   9.956  1.00  0.00     0.031 C 
ATOM     55  C   UNL     1     -12.895   5.993   7.637  1.00  0.00     0.029 A 
ATOM     56  C   UNL     1     -11.562   6.162   7.977  1.00  0.00     0.049 A 
ATOM     57  H   UNL     1      -9.893   4.990   7.438  1.00  0.00     0.167 HD
ATOM     58  C   UNL     1      -9.644   7.291   9.071  1.00  0.00     0.074 A 
ATOM     59  C   UNL     1      -9.066   8.334   9.895  1.00  0.00     0.031 C 
ATOM     60  C   UNL     1     -10.966   7.191   8.788  1.00  0.00     0.031 A 
BRANCH  47  61
ATOM     61  C   UNL     1     -12.403   2.381   5.181  1.00  0.00    -0.014 A 
ATOM     62  C   UNL     1     -12.810   1.101   5.592  1.00  0.00     0.009 A 
ATOM     63  C   UNL     1     -12.999   2.950   4.045  1.00  0.00     0.009 A 
ATOM     64  C   UNL     1     -13.760   0.389   4.857  1.00  0.00     0.001 A 
ATOM     65  C   UNL     1     -13.970   2.248   3.329  1.00  0.00     0.001 A 
ATOM     66  C   UNL     1     -14.342   0.964   3.728  1.00  0.00     0.000 A 
ENDBRANCH  47  61
BRANCH  48  67
ATOM     67  C   UNL     1      -5.001   7.247   9.795  1.00  0.00    -0.014 A 
ATOM     68  C   UNL     1      -4.923   7.248  11.197  1.00  0.00     0.009 A 
ATOM     69  C   UNL     1      -4.042   7.960   9.061  1.00  0.00     0.009 A 
ATOM     70  C   UNL     1      -3.924   7.974  11.850  1.00  0.00     0.001 A 
ATOM     71  C   UNL     1      -3.028   8.663   9.716  1.00  0.00     0.001 A 
ATOM     72  C   UNL     1      -2.976   8.678  11.109  1.00  0.00     0.000 A 
ENDBRANCH  48  67
BRANCH  60  73
ATOM     73  C   UNL     1     -11.873   8.221   9.397  1.00  0.00    -0.014 A 
ATOM     74  C   UNL     1     -11.880   9.547   8.937  1.00  0.00     0.009 A 
ATOM     75  C   UNL     1     -12.748   7.853  10.430  1.00  0.00     0.009 A 
ATOM     76  C   UNL     1     -12.719  10.493   9.528  1.00  0.00     0.001 A 
ATOM     77  C   UNL     1     -13.607   8.794  10.999  1.00  0.00     0.001 A 
ATOM     78  C   UNL     1     -13.583  10.116  10.555  1.00  0.00     0.000 A 
ENDBRANCH  60  73
ENDBRANCH  34  35
ENDBRANCH  26  29
ENDBRANCH  24  25
ENDBRANCH  23  24
ENDBRANCH   1  23
TORSDOF 15
