REMARK SMILES CO[C@@H]1C[C@H](C(=O)NCCCCNC(=O)c2ccc(-c3c4nc(c(-c5ccccc5)c5ccc([nH]5)c(-c5ccccc5)c5nc(c(-c6ccccc6)c6ccc3[nH]6)C=C5)C=C4)cc2)N(C(=O)c2ccn(C)c(=O)c2)C1
REMARK SMILES IDX 10 1 9 2 8 3 6 4 7 5 5 7 3 8 4 9 75 10 64 11 2 12 1 13 65 14
REMARK SMILES IDX 66 15 67 16 68 17 74 18 69 19 72 20 70 21 73 22 71 23 11 24
REMARK SMILES IDX 12 25 13 26 14 27 15 29 16 30 17 31 63 32 18 33 62 34 19 35
REMARK SMILES IDX 20 36 21 37 56 38 22 39 61 40 55 41 57 42 23 43 60 44 54 45
REMARK SMILES IDX 53 46 24 48 46 49 31 50 45 51 32 52 35 53 44 54 58 55 33 56
REMARK SMILES IDX 34 57 43 59 59 60 36 61 25 62 26 63 30 64 27 65 29 66 28 67
REMARK SMILES IDX 47 68 48 69 52 70 49 71 51 72 50 73 37 74 38 75 42 76 39 77
REMARK SMILES IDX 41 78 40 79
REMARK H PARENT 8 6 13 28 57 47 35 58
REMARK Flexibility Score: inf
ROOT
ATOM      1  C   UNL     1      -0.437  -1.310   1.001  1.00  0.00     0.023 C 
ENDROOT
BRANCH   1   2
ATOM      2  C   UNL     1      -0.929  -2.641   0.434  1.00  0.00     0.116 C 
BRANCH   2   3
ATOM      3  N   UNL     1      -2.070  -2.457  -0.438  1.00  0.00    -0.354 N 
ATOM      4  C   UNL     1      -2.159  -2.361  -1.790  1.00  0.00     0.242 C 
ATOM      5  O   UNL     1      -3.270  -2.047  -2.237  1.00  0.00    -0.273 OA
ATOM      6  H   UNL     1      -2.933  -2.390   0.032  1.00  0.00     0.163 HD
BRANCH   4   7
ATOM      7  C   UNL     1      -0.961  -2.488  -2.765  1.00  0.00     0.177 C 
ATOM      8  C   UNL     1       1.351  -1.767  -2.308  1.00  0.00     0.139 C 
ATOM      9  C   UNL     1      -0.033  -1.274  -2.746  1.00  0.00     0.069 C 
ATOM     10  C   UNL     1       1.272  -3.295  -2.302  1.00  0.00     0.152 C 
ATOM     11  N   UNL     1      -0.099  -3.655  -2.612  1.00  0.00    -0.324 N 
BRANCH   8  12
ATOM     12  O   UNL     1       1.683  -1.293  -1.006  1.00  0.00    -0.380 OA
ATOM     13  C   UNL     1       2.148   0.052  -0.997  1.00  0.00     0.195 C 
ENDBRANCH   8  12
BRANCH  11  14
ATOM     14  C   UNL     1      -0.386  -4.965  -2.932  1.00  0.00     0.254 C 
ATOM     15  O   UNL     1       0.334  -5.903  -2.592  1.00  0.00    -0.269 OA
BRANCH  14  16
ATOM     16  C   UNL     1      -1.567  -5.231  -3.798  1.00  0.00     0.046 A 
ATOM     17  C   UNL     1      -2.617  -6.133  -3.389  1.00  0.00     0.032 A 
ATOM     18  C   UNL     1      -1.536  -4.744  -5.047  1.00  0.00     0.085 A 
ATOM     19  C   UNL     1      -3.604  -6.430  -4.244  1.00  0.00     0.089 A 
ATOM     20  C   UNL     1      -2.646  -5.029  -5.987  1.00  0.00     0.251 A 
ATOM     21  N   UNL     1      -3.641  -5.883  -5.516  1.00  0.00    -0.319 N 
ATOM     22  O   UNL     1      -2.620  -4.515  -7.101  1.00  0.00    -0.269 OA
ATOM     23  C   UNL     1      -4.743  -6.233  -6.398  1.00  0.00     0.153 C 
ENDBRANCH  14  16
ENDBRANCH  11  14
ENDBRANCH   4   7
ENDBRANCH   2   3
ENDBRANCH   1   2
BRANCH   1  24
ATOM     24  C   UNL     1      -1.135  -0.840   2.273  1.00  0.00     0.023 C 
BRANCH  24  25
ATOM     25  C   UNL     1      -0.919  -1.733   3.488  1.00  0.00     0.116 C 
BRANCH  25  26
ATOM     26  N   UNL     1       0.481  -1.958   3.829  1.00  0.00    -0.352 N 
ATOM     27  C   UNL     1       1.051  -2.103   5.073  1.00  0.00     0.251 C 
ATOM     28  H   UNL     1       1.101  -2.013   3.066  1.00  0.00     0.163 HD
ATOM     29  O   UNL     1       2.263  -2.223   5.199  1.00  0.00    -0.269 OA
BRANCH  27  30
ATOM     30  C   UNL     1       0.182  -2.055   6.267  1.00  0.00     0.039 A 
ATOM     31  C   UNL     1       0.521  -1.195   7.314  1.00  0.00     0.014 A 
ATOM     32  C   UNL     1      -1.002  -2.794   6.311  1.00  0.00     0.014 A 
ATOM     33  C   UNL     1      -0.380  -1.001   8.362  1.00  0.00     0.010 A 
ATOM     34  C   UNL     1      -1.933  -2.534   7.307  1.00  0.00     0.010 A 
ATOM     35  C   UNL     1      -1.636  -1.628   8.337  1.00  0.00    -0.014 A 
BRANCH  35  36
ATOM     36  C   UNL     1      -2.666  -1.343   9.366  1.00  0.00     0.031 A 
ATOM     37  C   UNL     1      -3.173  -2.450  10.247  1.00  0.00     0.074 A 
ATOM     38  C   UNL     1      -3.215  -0.115   9.439  1.00  0.00     0.049 A 
ATOM     39  N   UNL     1      -4.140  -2.426  11.129  1.00  0.00    -0.248 NA
ATOM     40  C   UNL     1      -2.535  -3.767  10.089  1.00  0.00     0.031 C 
ATOM     41  C   UNL     1      -2.856   1.032   8.600  1.00  0.00     0.029 A 
ATOM     42  N   UNL     1      -4.203   0.372  10.258  1.00  0.00    -0.354 N 
ATOM     43  C   UNL     1      -4.251  -3.728  11.599  1.00  0.00     0.074 A 
ATOM     44  C   UNL     1      -3.284  -4.524  10.877  1.00  0.00     0.031 C 
ATOM     45  C   UNL     1      -3.588   2.095   8.972  1.00  0.00     0.029 A 
ATOM     46  C   UNL     1      -4.491   1.698  10.046  1.00  0.00     0.049 A 
ATOM     47  H   UNL     1      -4.663  -0.178  10.933  1.00  0.00     0.167 HD
ATOM     48  C   UNL     1      -5.071  -4.215  12.559  1.00  0.00     0.031 A 
ATOM     49  C   UNL     1      -5.383   2.504  10.650  1.00  0.00     0.031 A 
ATOM     50  C   UNL     1      -6.001  -3.417  13.309  1.00  0.00     0.049 A 
ATOM     51  C   UNL     1      -6.251   1.950  11.744  1.00  0.00     0.074 A 
ATOM     52  C   UNL     1      -6.816  -3.799  14.360  1.00  0.00     0.029 A 
ATOM     53  N   UNL     1      -6.232  -2.068  13.091  1.00  0.00    -0.354 N 
ATOM     54  N   UNL     1      -6.295   0.732  12.224  1.00  0.00    -0.248 NA
ATOM     55  C   UNL     1      -7.184   2.888  12.386  1.00  0.00     0.031 C 
ATOM     56  C   UNL     1      -7.564  -2.686  14.759  1.00  0.00     0.029 A 
ATOM     57  C   UNL     1      -7.186  -1.604  13.980  1.00  0.00     0.049 A 
ATOM     58  H   UNL     1      -5.784  -1.520  12.406  1.00  0.00     0.167 HD
ATOM     59  C   UNL     1      -7.241   0.761  13.241  1.00  0.00     0.074 A 
ATOM     60  C   UNL     1      -7.736   2.121  13.315  1.00  0.00     0.031 C 
ATOM     61  C   UNL     1      -7.661  -0.247  14.041  1.00  0.00     0.031 A 
BRANCH  48  62
ATOM     62  C   UNL     1      -4.990  -5.686  12.849  1.00  0.00    -0.014 A 
ATOM     63  C   UNL     1      -3.877  -6.238  13.504  1.00  0.00     0.009 A 
ATOM     64  C   UNL     1      -6.045  -6.531  12.472  1.00  0.00     0.009 A 
ATOM     65  C   UNL     1      -3.804  -7.612  13.738  1.00  0.00     0.001 A 
ATOM     66  C   UNL     1      -5.982  -7.901  12.732  1.00  0.00     0.001 A 
ATOM     67  C   UNL     1      -4.857  -8.442  13.354  1.00  0.00     0.000 A 
ENDBRANCH  48  62
BRANCH  49  68
ATOM     68  C   UNL     1      -5.477   3.935  10.263  1.00  0.00    -0.014 A 
ATOM     69  C   UNL     1      -4.966   4.928  11.112  1.00  0.00     0.009 A 
ATOM     70  C   UNL     1      -6.077   4.315   9.054  1.00  0.00     0.009 A 
ATOM     71  C   UNL     1      -5.076   6.278  10.770  1.00  0.00     0.001 A 
ATOM     72  C   UNL     1      -6.166   5.665   8.704  1.00  0.00     0.001 A 
ATOM     73  C   UNL     1      -5.673   6.644   9.565  1.00  0.00     0.000 A 
ENDBRANCH  49  68
BRANCH  61  74
ATOM     74  C   UNL     1      -8.681   0.091  15.088  1.00  0.00    -0.014 A 
ATOM     75  C   UNL     1     -10.026   0.296  14.750  1.00  0.00     0.009 A 
ATOM     76  C   UNL     1      -8.294   0.166  16.435  1.00  0.00     0.009 A 
ATOM     77  C   UNL     1     -10.962   0.597  15.741  1.00  0.00     0.001 A 
ATOM     78  C   UNL     1      -9.236   0.444  17.426  1.00  0.00     0.001 A 
ATOM     79  C   UNL     1     -10.567   0.666  17.077  1.00  0.00     0.000 A 
ENDBRANCH  61  74
ENDBRANCH  35  36
ENDBRANCH  27  30
ENDBRANCH  25  26
ENDBRANCH  24  25
ENDBRANCH   1  24
TORSDOF 14
