REMARK SMILES O=C(NCCCCNC(=O)[C@H](CO)NC(=O)[C@H](CS)NC(=O)[C@H](Cc1c[nH]c2ccccc12)NC(=O)c1ccc(F)cc1)c1ccc(-c2c3nc(c(-c4ccccc4)c4ccc([nH]4)c(-c4ccccc4)c4nc(c(-c5ccccc5)c5ccc2[nH]5)C=C4)C=C3)cc1
REMARK SMILES IDX 8 1 9 2 10 3 7 5 6 6 5 7 4 8 3 9 1 10 2 11 44 13 45 14 91 15
REMARK SMILES IDX 46 16 90 17 47 18 48 19 49 20 84 21 50 22 89 23 83 24 85 25
REMARK SMILES IDX 51 26 88 27 82 28 81 29 52 31 74 32 59 33 73 34 60 35 63 36
REMARK SMILES IDX 72 37 86 38 61 39 62 40 71 42 87 43 64 44 53 45 54 46 58 47
REMARK SMILES IDX 55 48 57 49 56 50 75 51 76 52 80 53 77 54 79 55 78 56 65 57
REMARK SMILES IDX 66 58 70 59 67 60 69 61 68 62 11 63 14 64 15 65 16 67 17 68
REMARK SMILES IDX 20 69 21 70 22 72 23 73 34 74 35 75 36 77 37 78 38 79 43 80
REMARK SMILES IDX 39 81 42 82 40 83 41 84 24 85 25 86 26 87 33 88 27 89 28 90
REMARK SMILES IDX 32 91 29 93 31 94 30 95 18 96 19 97 12 99 13 100
REMARK H PARENT 8 4 3 12 85 30 63 41 14 66 20 71 34 76 27 92 19 98 13 101
REMARK Flexibility Score: inf
ROOT
ATOM      1  N   UNL     1       1.883  -9.779  -3.895  1.00  0.00    -0.354 N 
ATOM      2  C   UNL     1       2.913  -9.940  -4.777  1.00  0.00     0.244 C 
ATOM      3  O   UNL     1       2.706 -10.647  -5.766  1.00  0.00    -0.273 OA
ATOM      4  H   UNL     1       1.086 -10.329  -4.071  1.00  0.00     0.163 HD
ENDROOT
BRANCH   1   5
ATOM      5  C   UNL     1       1.797  -8.914  -2.739  1.00  0.00     0.116 C 
BRANCH   5   6
ATOM      6  C   UNL     1       1.300  -7.524  -3.130  1.00  0.00     0.023 C 
BRANCH   6   7
ATOM      7  C   UNL     1      -0.184  -7.463  -3.480  1.00  0.00     0.023 C 
BRANCH   7   8
ATOM      8  C   UNL     1      -1.098  -8.027  -2.409  1.00  0.00     0.116 C 
BRANCH   8   9
ATOM      9  N   UNL     1      -0.866  -7.465  -1.088  1.00  0.00    -0.352 N 
ATOM     10  O   UNL     1      -1.481  -6.900   1.020  1.00  0.00    -0.269 OA
ATOM     11  C   UNL     1      -1.744  -7.458  -0.022  1.00  0.00     0.251 C 
ATOM     12  H   UNL     1       0.011  -7.044  -0.937  1.00  0.00     0.163 HD
BRANCH  11  13
ATOM     13  C   UNL     1      -3.047  -8.116  -0.236  1.00  0.00     0.039 A 
ATOM     14  C   UNL     1      -3.086  -9.448  -0.649  1.00  0.00     0.014 A 
ATOM     15  C   UNL     1      -4.206  -7.342  -0.171  1.00  0.00     0.014 A 
ATOM     16  C   UNL     1      -4.271  -9.965  -1.147  1.00  0.00     0.010 A 
ATOM     17  C   UNL     1      -5.415  -7.896  -0.590  1.00  0.00     0.010 A 
ATOM     18  C   UNL     1      -5.447  -9.195  -1.121  1.00  0.00    -0.014 A 
BRANCH  18  19
ATOM     19  C   UNL     1      -6.707  -9.789  -1.623  1.00  0.00     0.031 A 
ATOM     20  C   UNL     1      -7.397  -9.239  -2.839  1.00  0.00     0.074 A 
ATOM     21  C   UNL     1      -7.204 -10.863  -0.983  1.00  0.00     0.049 A 
ATOM     22  N   UNL     1      -8.494  -9.658  -3.419  1.00  0.00    -0.248 NA
ATOM     23  C   UNL     1      -6.789  -8.065  -3.484  1.00  0.00     0.031 C 
ATOM     24  C   UNL     1      -6.611 -11.485   0.205  1.00  0.00     0.029 A 
ATOM     25  N   UNL     1      -8.298 -11.639  -1.255  1.00  0.00    -0.354 N 
ATOM     26  C   UNL     1      -8.727  -8.781  -4.472  1.00  0.00     0.074 A 
ATOM     27  C   UNL     1      -7.663  -7.800  -4.446  1.00  0.00     0.031 C 
ATOM     28  C   UNL     1      -7.311 -12.583   0.520  1.00  0.00     0.029 A 
ATOM     29  C   UNL     1      -8.437 -12.703  -0.398  1.00  0.00     0.049 A 
ATOM     30  H   UNL     1      -8.923 -11.454  -1.992  1.00  0.00     0.167 HD
ATOM     31  C   UNL     1      -9.738  -8.794  -5.374  1.00  0.00     0.031 A 
ATOM     32  C   UNL     1      -9.373 -13.665  -0.348  1.00  0.00     0.031 A 
ATOM     33  C   UNL     1     -10.784  -9.783  -5.402  1.00  0.00     0.049 A 
ATOM     34  C   UNL     1     -10.483 -13.649  -1.354  1.00  0.00     0.074 A 
ATOM     35  C   UNL     1     -11.835  -9.903  -6.296  1.00  0.00     0.029 A 
ATOM     36  N   UNL     1     -10.912 -10.823  -4.494  1.00  0.00    -0.354 N 
ATOM     37  N   UNL     1     -10.679 -12.823  -2.352  1.00  0.00    -0.248 NA
ATOM     38  C   UNL     1     -11.502 -14.698  -1.223  1.00  0.00     0.031 C 
ATOM     39  C   UNL     1     -12.623 -10.991  -5.902  1.00  0.00     0.029 A 
ATOM     40  C   UNL     1     -12.034 -11.578  -4.793  1.00  0.00     0.049 A 
ATOM     41  H   UNL     1     -10.296 -10.999  -3.746  1.00  0.00     0.167 HD
ATOM     42  C   UNL     1     -11.833 -13.263  -2.984  1.00  0.00     0.074 A 
ATOM     43  C   UNL     1     -12.281 -14.439  -2.264  1.00  0.00     0.031 C 
ATOM     44  C   UNL     1     -12.465 -12.741  -4.063  1.00  0.00     0.031 A 
BRANCH  31  45
ATOM     45  C   UNL     1      -9.783  -7.681  -6.383  1.00  0.00    -0.014 A 
ATOM     46  C   UNL     1      -8.873  -7.618  -7.450  1.00  0.00     0.009 A 
ATOM     47  C   UNL     1     -10.779  -6.697  -6.283  1.00  0.00     0.009 A 
ATOM     48  C   UNL     1      -8.941  -6.573  -8.377  1.00  0.00     0.001 A 
ATOM     49  C   UNL     1     -10.860  -5.668  -7.224  1.00  0.00     0.001 A 
ATOM     50  C   UNL     1      -9.936  -5.602  -8.265  1.00  0.00     0.000 A 
ENDBRANCH  31  45
BRANCH  32  51
ATOM     51  C   UNL     1      -9.287 -14.721   0.690  1.00  0.00    -0.014 A 
ATOM     52  C   UNL     1      -8.944 -16.035   0.340  1.00  0.00     0.009 A 
ATOM     53  C   UNL     1      -9.514 -14.413   2.041  1.00  0.00     0.009 A 
ATOM     54  C   UNL     1      -8.845 -17.023   1.321  1.00  0.00     0.001 A 
ATOM     55  C   UNL     1      -9.387 -15.397   3.022  1.00  0.00     0.001 A 
ATOM     56  C   UNL     1      -9.061 -16.702   2.660  1.00  0.00     0.000 A 
ENDBRANCH  32  51
BRANCH  44  57
ATOM     57  C   UNL     1     -13.686 -13.468  -4.545  1.00  0.00    -0.014 A 
ATOM     58  C   UNL     1     -14.897 -13.407  -3.838  1.00  0.00     0.009 A 
ATOM     59  C   UNL     1     -13.624 -14.216  -5.731  1.00  0.00     0.009 A 
ATOM     60  C   UNL     1     -16.012 -14.115  -4.291  1.00  0.00     0.001 A 
ATOM     61  C   UNL     1     -14.747 -14.900  -6.195  1.00  0.00     0.001 A 
ATOM     62  C   UNL     1     -15.937 -14.858  -5.469  1.00  0.00     0.000 A 
ENDBRANCH  44  57
ENDBRANCH  18  19
ENDBRANCH  11  13
ENDBRANCH   8   9
ENDBRANCH   7   8
ENDBRANCH   6   7
ENDBRANCH   5   6
ENDBRANCH   1   5
BRANCH   2  63
ATOM     63  C   UNL     1       4.321  -9.400  -4.463  1.00  0.00     0.197 C 
BRANCH  63  64
ATOM     64  N   UNL     1       4.315  -7.959  -4.180  1.00  0.00    -0.340 N 
ATOM     65  C   UNL     1       4.345  -6.859  -4.976  1.00  0.00     0.244 C 
ATOM     66  H   UNL     1       4.283  -7.748  -3.219  1.00  0.00     0.164 HD
ATOM     67  O   UNL     1       4.168  -5.787  -4.383  1.00  0.00    -0.273 OA
BRANCH  65  68
ATOM     68  C   UNL     1       4.800  -6.894  -6.444  1.00  0.00     0.181 C 
BRANCH  68  69
ATOM     69  N   UNL     1       4.637  -8.114  -7.211  1.00  0.00    -0.342 N 
ATOM     70  C   UNL     1       5.622  -8.705  -7.943  1.00  0.00     0.243 C 
ATOM     71  H   UNL     1       3.752  -8.545  -7.201  1.00  0.00     0.164 HD
ATOM     72  O   UNL     1       5.302  -8.976  -9.110  1.00  0.00    -0.273 OA
BRANCH  70  73
ATOM     73  C   UNL     1       6.989  -9.235  -7.368  1.00  0.00     0.176 C 
BRANCH  73  74
ATOM     74  N   UNL     1       8.011  -9.214  -8.432  1.00  0.00    -0.340 N 
ATOM     75  C   UNL     1       8.624 -10.258  -9.073  1.00  0.00     0.251 C 
ATOM     76  H   UNL     1       8.293  -8.317  -8.725  1.00  0.00     0.164 HD
ATOM     77  O   UNL     1       9.665 -10.065  -9.694  1.00  0.00    -0.269 OA
BRANCH  75  78
ATOM     78  C   UNL     1       8.059 -11.623  -9.022  1.00  0.00     0.040 A 
ATOM     79  C   UNL     1       6.777 -11.876  -9.526  1.00  0.00     0.017 A 
ATOM     80  C   UNL     1       8.866 -12.681  -8.587  1.00  0.00     0.017 A 
ATOM     81  C   UNL     1       6.290 -13.184  -9.562  1.00  0.00     0.040 A 
ATOM     82  C   UNL     1       8.376 -13.989  -8.629  1.00  0.00     0.040 A 
ATOM     83  C   UNL     1       7.093 -14.227  -9.115  1.00  0.00     0.123 A 
ATOM     84  F   UNL     1       6.633 -15.484  -9.172  1.00  0.00    -0.207 F 
ENDBRANCH  75  78
ENDBRANCH  73  74
BRANCH  73  85
ATOM     85  C   UNL     1       7.666  -8.956  -6.007  1.00  0.00     0.072 C 
BRANCH  85  86
ATOM     86  C   UNL     1       7.788  -7.596  -5.377  1.00  0.00    -0.020 A 
ATOM     87  C   UNL     1       7.581  -7.382  -4.021  1.00  0.00     0.087 A 
ATOM     88  C   UNL     1       8.079  -6.300  -5.938  1.00  0.00     0.003 A 
ATOM     89  N   UNL     1       7.575  -6.039  -3.776  1.00  0.00    -0.361 N 
ATOM     90  C   UNL     1       7.817  -5.354  -4.939  1.00  0.00     0.046 A 
ATOM     91  C   UNL     1       8.403  -5.814  -7.221  1.00  0.00     0.010 A 
ATOM     92  H   UNL     1       7.419  -5.624  -2.897  1.00  0.00     0.166 HD
ATOM     93  C   UNL     1       7.796  -3.974  -5.173  1.00  0.00     0.026 A 
ATOM     94  C   UNL     1       8.389  -4.436  -7.472  1.00  0.00     0.001 A 
ATOM     95  C   UNL     1       8.072  -3.531  -6.465  1.00  0.00     0.002 A 
ENDBRANCH  85  86
ENDBRANCH  73  85
ENDBRANCH  70  73
ENDBRANCH  68  69
BRANCH  68  96
ATOM     96  C   UNL     1       4.363  -5.632  -7.216  1.00  0.00     0.101 C 
BRANCH  96  97
ATOM     97  S   UNL     1       2.588  -5.598  -7.615  1.00  0.00    -0.177 SA
ATOM     98  H   UNL     1       2.284  -6.647  -8.425  1.00  0.00     0.102 HD
ENDBRANCH  96  97
ENDBRANCH  68  96
ENDBRANCH  65  68
ENDBRANCH  63  64
BRANCH  63  99
ATOM     99  C   UNL     1       4.968 -10.175  -3.292  1.00  0.00     0.191 C 
BRANCH  99 100
ATOM    100  O   UNL     1       4.617 -11.548  -3.220  1.00  0.00    -0.394 OA
ATOM    101  H   UNL     1       3.662 -11.631  -3.069  1.00  0.00     0.210 HD
ENDBRANCH  99 100
ENDBRANCH  63  99
ENDBRANCH   2  63
TORSDOF 23
