REMARK SMILES CC[NH+]1CCC2(CC1)OC[C@@H](C(=O)NCCCCNC(=O)c1ccc(-c3c4nc(c(-c5ccccc5)c5ccc([nH]5)c(-c5ccccc5)c5nc(c(-c6ccccc6)c6ccc3[nH]6)C=C5)C=C4)cc1)N2C(=O)c1ccc(Cl)c([N+](=O)[O-])c1
REMARK SMILES IDX 16 1 15 2 14 3 12 4 13 5 11 7 3 8 4 9 8 10 5 12 7 13 6 14
REMARK SMILES IDX 9 15 70 16 10 17 2 18 1 19 71 20 72 21 73 22 74 23 82 24
REMARK SMILES IDX 75 25 78 26 76 27 77 28 79 29 80 30 81 31 17 32 18 33 19 34
REMARK SMILES IDX 20 35 21 37 22 38 23 39 69 40 24 41 68 42 25 43 26 44 27 45
REMARK SMILES IDX 62 46 28 47 67 48 61 49 63 50 29 51 66 52 60 53 59 54 30 56
REMARK SMILES IDX 52 57 37 58 51 59 38 60 41 61 50 62 64 63 39 64 40 65 49 67
REMARK SMILES IDX 65 68 42 69 31 70 32 71 36 72 33 73 35 74 34 75 53 76 54 77
REMARK SMILES IDX 58 78 55 79 57 80 56 81 43 82 44 83 48 84 45 85 47 86 46 87
REMARK H PARENT 14 6 3 11 19 36 63 55 41 66
REMARK Flexibility Score: inf
ROOT
ATOM      1  C   UNL     1       1.238  -4.270   7.190  1.00  0.00     0.023 C 
ENDROOT
BRANCH   1   2
ATOM      2  C   UNL     1      -0.264  -4.371   6.986  1.00  0.00     0.116 C 
BRANCH   2   3
ATOM      3  N   UNL     1      -0.964  -3.499   7.897  1.00  0.00    -0.354 N 
ATOM      4  C   UNL     1      -1.552  -2.293   7.663  1.00  0.00     0.245 C 
ATOM      5  O   UNL     1      -2.193  -1.802   8.599  1.00  0.00    -0.273 OA
ATOM      6  H   UNL     1      -1.026  -3.823   8.824  1.00  0.00     0.163 HD
BRANCH   4   7
ATOM      7  C   UNL     1      -1.661  -1.690   6.250  1.00  0.00     0.203 C 
ATOM      8  N   UNL     1       0.441  -1.005   1.615  1.00  0.00    -0.335 N 
ATOM      9  C   UNL     1      -0.513  -0.175   2.347  1.00  0.00     0.267 C 
ATOM     10  C   UNL     1       0.838  -2.275   2.208  1.00  0.00     0.267 C 
ATOM     11  H   UNL     1       1.304  -0.473   1.725  1.00  0.00     0.348 HD
ATOM     12  C   UNL     1      -1.569  -0.920   3.132  1.00  0.00     0.120 C 
ATOM     13  C   UNL     1      -0.156  -2.981   3.109  1.00  0.00     0.120 C 
ATOM     14  C   UNL     1      -1.009  -2.068   3.981  1.00  0.00     0.155 C 
ATOM     15  O   UNL     1      -2.169  -2.898   4.283  1.00  0.00    -0.352 OA
ATOM     16  N   UNL     1      -0.524  -1.677   5.322  1.00  0.00    -0.295 N 
ATOM     17  C   UNL     1      -2.739  -2.477   5.524  1.00  0.00     0.198 C 
BRANCH   8  18
ATOM     18  C   UNL     1       0.160  -1.078   0.182  1.00  0.00     0.258 C 
ATOM     19  C   UNL     1       0.749   0.144  -0.514  1.00  0.00     0.071 C 
ENDBRANCH   8  18
BRANCH  16  20
ATOM     20  C   UNL     1       0.613  -1.013   5.784  1.00  0.00     0.257 C 
ATOM     21  O   UNL     1       0.679  -0.544   6.921  1.00  0.00    -0.269 OA
BRANCH  20  22
ATOM     22  C   UNL     1       1.850  -0.865   4.996  1.00  0.00     0.047 A 
ATOM     23  C   UNL     1       2.859  -1.830   5.037  1.00  0.00     0.016 A 
ATOM     24  C   UNL     1       2.088   0.325   4.309  1.00  0.00     0.101 A 
ATOM     25  C   UNL     1       4.024  -1.668   4.279  1.00  0.00     0.028 A 
ATOM     26  C   UNL     1       3.202   0.440   3.449  1.00  0.00     0.288 A 
ATOM     27  C   UNL     1       4.187  -0.555   3.442  1.00  0.00     0.118 A 
ATOM     28  Cl  UNL     1       5.636  -0.542   2.504  1.00  0.00    -0.077 Cl
BRANCH  26  29
ATOM     29  N   UNL     1       3.209   1.580   2.522  1.00  0.00     0.064 N 
ATOM     30  O   UNL     1       3.946   1.548   1.531  1.00  0.00    -0.258 OA
ATOM     31  O   UNL     1       2.422   2.508   2.764  1.00  0.00    -0.258 OA
ENDBRANCH  26  29
ENDBRANCH  20  22
ENDBRANCH  16  20
ENDBRANCH   4   7
ENDBRANCH   2   3
ENDBRANCH   1   2
BRANCH   1  32
ATOM     32  C   UNL     1       1.756  -4.790   8.524  1.00  0.00     0.023 C 
BRANCH  32  33
ATOM     33  C   UNL     1       1.308  -6.196   8.874  1.00  0.00     0.116 C 
BRANCH  33  34
ATOM     34  N   UNL     1       1.696  -7.178   7.873  1.00  0.00    -0.352 N 
ATOM     35  C   UNL     1       2.312  -8.394   8.052  1.00  0.00     0.251 C 
ATOM     36  H   UNL     1       1.488  -6.939   6.941  1.00  0.00     0.163 HD
ATOM     37  O   UNL     1       2.707  -9.034   7.090  1.00  0.00    -0.269 OA
BRANCH  35  38
ATOM     38  C   UNL     1       2.524  -8.897   9.426  1.00  0.00     0.039 A 
ATOM     39  C   UNL     1       3.769  -9.429   9.764  1.00  0.00     0.014 A 
ATOM     40  C   UNL     1       1.510  -8.806  10.384  1.00  0.00     0.014 A 
ATOM     41  C   UNL     1       4.016  -9.810  11.083  1.00  0.00     0.010 A 
ATOM     42  C   UNL     1       1.792  -9.088  11.715  1.00  0.00     0.010 A 
ATOM     43  C   UNL     1       3.043  -9.607  12.077  1.00  0.00    -0.014 A 
BRANCH  43  44
ATOM     44  C   UNL     1       3.318  -9.944  13.495  1.00  0.00     0.031 A 
ATOM     45  C   UNL     1       2.503 -10.997  14.195  1.00  0.00     0.074 A 
ATOM     46  C   UNL     1       4.276  -9.275  14.165  1.00  0.00     0.049 A 
ATOM     47  N   UNL     1       2.599 -11.431  15.426  1.00  0.00    -0.248 NA
ATOM     48  C   UNL     1       1.421 -11.628  13.421  1.00  0.00     0.031 C 
ATOM     49  C   UNL     1       5.100  -8.195  13.617  1.00  0.00     0.029 A 
ATOM     50  N   UNL     1       4.723  -9.409  15.455  1.00  0.00    -0.354 N 
ATOM     51  C   UNL     1       1.588 -12.373  15.574  1.00  0.00     0.074 A 
ATOM     52  C   UNL     1       0.849 -12.400  14.332  1.00  0.00     0.031 C 
ATOM     53  C   UNL     1       5.982  -7.799  14.548  1.00  0.00     0.029 A 
ATOM     54  C   UNL     1       5.760  -8.564  15.770  1.00  0.00     0.049 A 
ATOM     55  H   UNL     1       4.338 -10.051  16.095  1.00  0.00     0.167 HD
ATOM     56  C   UNL     1       1.314 -13.165  16.638  1.00  0.00     0.031 A 
ATOM     57  C   UNL     1       6.456  -8.425  16.913  1.00  0.00     0.031 A 
ATOM     58  C   UNL     1       2.050 -13.140  17.873  1.00  0.00     0.049 A 
ATOM     59  C   UNL     1       6.124  -9.309  18.084  1.00  0.00     0.074 A 
ATOM     60  C   UNL     1       1.884 -13.936  18.992  1.00  0.00     0.029 A 
ATOM     61  N   UNL     1       3.091 -12.268  18.152  1.00  0.00    -0.354 N 
ATOM     62  N   UNL     1       5.215 -10.249  18.180  1.00  0.00    -0.248 NA
ATOM     63  C   UNL     1       6.930  -9.121  19.298  1.00  0.00     0.031 C 
ATOM     64  C   UNL     1       2.787 -13.507  19.971  1.00  0.00     0.029 A 
ATOM     65  C   UNL     1       3.562 -12.491  19.436  1.00  0.00     0.049 A 
ATOM     66  H   UNL     1       3.444 -11.591  17.530  1.00  0.00     0.167 HD
ATOM     67  C   UNL     1       5.362 -10.787  19.453  1.00  0.00     0.074 A 
ATOM     68  C   UNL     1       6.460 -10.081  20.081  1.00  0.00     0.031 C 
ATOM     69  C   UNL     1       4.652 -11.776  20.049  1.00  0.00     0.031 A 
BRANCH  56  70
ATOM     70  C   UNL     1       0.160 -14.122  16.507  1.00  0.00    -0.014 A 
ATOM     71  C   UNL     1       0.217 -15.218  15.630  1.00  0.00     0.009 A 
ATOM     72  C   UNL     1      -0.991 -13.942  17.290  1.00  0.00     0.009 A 
ATOM     73  C   UNL     1      -0.869 -16.089  15.511  1.00  0.00     0.001 A 
ATOM     74  C   UNL     1      -2.061 -14.833  17.194  1.00  0.00     0.001 A 
ATOM     75  C   UNL     1      -2.004 -15.899  16.298  1.00  0.00     0.000 A 
ENDBRANCH  56  70
BRANCH  57  76
ATOM     76  C   UNL     1       7.556  -7.428  17.002  1.00  0.00    -0.014 A 
ATOM     77  C   UNL     1       8.892  -7.846  17.105  1.00  0.00     0.009 A 
ATOM     78  C   UNL     1       7.275  -6.053  17.000  1.00  0.00     0.009 A 
ATOM     79  C   UNL     1       9.920  -6.910  17.237  1.00  0.00     0.001 A 
ATOM     80  C   UNL     1       8.308  -5.118  17.099  1.00  0.00     0.001 A 
ATOM     81  C   UNL     1       9.628  -5.547  17.230  1.00  0.00     0.000 A 
ENDBRANCH  57  76
BRANCH  69  82
ATOM     82  C   UNL     1       5.073 -12.181  21.435  1.00  0.00    -0.014 A 
ATOM     83  C   UNL     1       4.885 -11.332  22.537  1.00  0.00     0.009 A 
ATOM     84  C   UNL     1       5.654 -13.442  21.641  1.00  0.00     0.009 A 
ATOM     85  C   UNL     1       5.316 -11.719  23.808  1.00  0.00     0.001 A 
ATOM     86  C   UNL     1       6.051 -13.841  22.918  1.00  0.00     0.001 A 
ATOM     87  C   UNL     1       5.895 -12.973  23.997  1.00  0.00     0.000 A 
ENDBRANCH  69  82
ENDBRANCH  43  44
ENDBRANCH  35  38
ENDBRANCH  33  34
ENDBRANCH  32  33
ENDBRANCH   1  32
TORSDOF 15
