REMARK SMILES CC(C)c1cc(OCC(=O)NCCCCNC(=O)c2ccc(-c3c4nc(c(-c5ccccc5)c5ccc([nH]5)c(-c5ccccc5)c5nc(c(-c6ccccc6)c6ccc3[nH]6)C=C5)C=C4)cc2)nc(Nc2ccc(F)cc2F)n1
REMARK SMILES IDX 12 1 11 2 9 3 10 4 8 6 7 7 6 8 4 9 5 10 78 11 68 12 67 13
REMARK SMILES IDX 2 14 1 15 3 16 69 17 70 19 71 20 76 21 72 22 75 23 77 24
REMARK SMILES IDX 73 25 74 26 13 27 14 28 15 29 16 30 17 31 18 33 19 34 20 35
REMARK SMILES IDX 66 36 21 37 65 38 22 39 23 40 24 41 59 42 25 43 64 44 58 45
REMARK SMILES IDX 60 46 26 47 63 48 57 49 56 50 27 52 49 53 34 54 48 55 35 56
REMARK SMILES IDX 38 57 47 58 61 59 36 60 37 61 46 63 62 64 39 65 28 66 29 67
REMARK SMILES IDX 33 68 30 69 32 70 31 71 50 72 51 73 55 74 52 75 54 76 53 77
REMARK SMILES IDX 40 78 41 79 45 80 42 81 44 82 43 83
REMARK H PARENT 11 5 69 18 16 32 60 51 38 62
REMARK Flexibility Score: inf
ROOT
ATOM      1  C   UNL     1      -4.471  -3.223  -1.141  1.00  0.00     0.116 C 
ENDROOT
BRANCH   1   2
ATOM      2  N   UNL     1      -3.072  -3.541  -0.928  1.00  0.00    -0.353 N 
ATOM      3  C   UNL     1      -2.392  -3.603   0.252  1.00  0.00     0.258 C 
ATOM      4  O   UNL     1      -1.197  -3.906   0.234  1.00  0.00    -0.271 OA
ATOM      5  H   UNL     1      -2.548  -3.737  -1.738  1.00  0.00     0.163 HD
BRANCH   3   6
ATOM      6  C   UNL     1      -3.122  -3.317   1.571  1.00  0.00     0.331 C 
BRANCH   6   7
ATOM      7  O   UNL     1      -3.730  -2.044   1.705  1.00  0.00    -0.467 OA
BRANCH   7   8
ATOM      8  C   UNL     1      -2.925  -0.940   1.678  1.00  0.00     0.218 A 
ATOM      9  C   UNL     1      -0.912   0.249   1.589  1.00  0.00     0.052 A 
ATOM     10  C   UNL     1      -1.549  -0.965   1.704  1.00  0.00     0.092 A 
ATOM     11  N   UNL     1      -1.601   1.395   1.483  1.00  0.00    -0.217 NA
ATOM     12  C   UNL     1      -2.939   1.345   1.514  1.00  0.00     0.230 A 
ATOM     13  N   UNL     1      -3.630   0.204   1.615  1.00  0.00    -0.177 NA
BRANCH   9  14
ATOM     14  C   UNL     1       0.599   0.319   1.508  1.00  0.00     0.032 C 
ATOM     15  C   UNL     1       1.050   0.124   0.060  1.00  0.00     0.014 C 
ATOM     16  C   UNL     1       1.150   1.633   2.069  1.00  0.00     0.014 C 
ENDBRANCH   9  14
BRANCH  12  17
ATOM     17  N   UNL     1      -3.664   2.534   1.552  1.00  0.00    -0.322 N 
ATOM     18  H   UNL     1      -4.636   2.448   1.680  1.00  0.00     0.170 HD
BRANCH  17  19
ATOM     19  C   UNL     1      -3.166   3.836   1.428  1.00  0.00     0.077 A 
ATOM     20  C   UNL     1      -3.469   4.786   2.414  1.00  0.00     0.032 A 
ATOM     21  C   UNL     1      -2.259   4.202   0.416  1.00  0.00     0.149 A 
ATOM     22  C   UNL     1      -2.870   6.050   2.391  1.00  0.00     0.041 A 
ATOM     23  C   UNL     1      -1.671   5.461   0.377  1.00  0.00     0.080 A 
ATOM     24  F   UNL     1      -1.974   3.345  -0.578  1.00  0.00    -0.205 F 
ATOM     25  C   UNL     1      -1.977   6.372   1.375  1.00  0.00     0.126 A 
ATOM     26  F   UNL     1      -1.400   7.581   1.364  1.00  0.00    -0.207 F 
ENDBRANCH  17  19
ENDBRANCH  12  17
ENDBRANCH   7   8
ENDBRANCH   6   7
ENDBRANCH   3   6
ENDBRANCH   1   2
BRANCH   1  27
ATOM     27  C   UNL     1      -4.660  -1.870  -1.824  1.00  0.00     0.023 C 
BRANCH  27  28
ATOM     28  C   UNL     1      -4.037  -1.753  -3.218  1.00  0.00     0.023 C 
BRANCH  28  29
ATOM     29  C   UNL     1      -4.432  -2.839  -4.214  1.00  0.00     0.116 C 
BRANCH  29  30
ATOM     30  N   UNL     1      -5.864  -2.897  -4.462  1.00  0.00    -0.352 N 
ATOM     31  C   UNL     1      -6.539  -2.967  -5.656  1.00  0.00     0.251 C 
ATOM     32  H   UNL     1      -6.431  -2.883  -3.657  1.00  0.00     0.163 HD
ATOM     33  O   UNL     1      -7.765  -2.885  -5.675  1.00  0.00    -0.269 OA
BRANCH  31  34
ATOM     34  C   UNL     1      -5.794  -3.107  -6.926  1.00  0.00     0.039 A 
ATOM     35  C   UNL     1      -6.151  -2.297  -8.008  1.00  0.00     0.014 A 
ATOM     36  C   UNL     1      -4.745  -4.021  -7.053  1.00  0.00     0.014 A 
ATOM     37  C   UNL     1      -5.411  -2.354  -9.191  1.00  0.00     0.010 A 
ATOM     38  C   UNL     1      -3.962  -4.023  -8.205  1.00  0.00     0.010 A 
ATOM     39  C   UNL     1      -4.285  -3.188  -9.286  1.00  0.00    -0.014 A 
BRANCH  39  40
ATOM     40  C   UNL     1      -3.427  -3.187 -10.500  1.00  0.00     0.031 A 
ATOM     41  C   UNL     1      -3.287  -4.430 -11.335  1.00  0.00     0.074 A 
ATOM     42  C   UNL     1      -2.720  -2.083 -10.816  1.00  0.00     0.049 A 
ATOM     43  N   UNL     1      -2.543  -4.634 -12.393  1.00  0.00    -0.248 NA
ATOM     44  C   UNL     1      -4.065  -5.606 -10.913  1.00  0.00     0.031 C 
ATOM     45  C   UNL     1      -2.733  -0.824 -10.069  1.00  0.00     0.029 A 
ATOM     46  N   UNL     1      -1.844  -1.846 -11.847  1.00  0.00    -0.354 N 
ATOM     47  C   UNL     1      -2.750  -5.961 -12.751  1.00  0.00     0.074 A 
ATOM     48  C   UNL     1      -3.650  -6.527 -11.770  1.00  0.00     0.031 C 
ATOM     49  C   UNL     1      -1.928   0.059 -10.680  1.00  0.00     0.029 A 
ATOM     50  C   UNL     1      -1.306  -0.582 -11.834  1.00  0.00     0.049 A 
ATOM     51  H   UNL     1      -1.623  -2.519 -12.531  1.00  0.00     0.167 HD
ATOM     52  C   UNL     1      -2.249  -6.643 -13.809  1.00  0.00     0.031 A 
ATOM     53  C   UNL     1      -0.404  -0.005 -12.650  1.00  0.00     0.031 A 
ATOM     54  C   UNL     1      -1.360  -6.079 -14.790  1.00  0.00     0.049 A 
ATOM     55  C   UNL     1       0.153  -0.792 -13.805  1.00  0.00     0.074 A 
ATOM     56  C   UNL     1      -0.849  -6.673 -15.931  1.00  0.00     0.029 A 
ATOM     57  N   UNL     1      -0.841  -4.795 -14.741  1.00  0.00    -0.354 N 
ATOM     58  N   UNL     1      -0.115  -2.021 -14.174  1.00  0.00    -0.248 NA
ATOM     59  C   UNL     1       1.129  -0.105 -14.663  1.00  0.00     0.031 C 
ATOM     60  C   UNL     1       0.027  -5.770 -16.539  1.00  0.00     0.029 A 
ATOM     61  C   UNL     1       0.009  -4.589 -15.815  1.00  0.00     0.049 A 
ATOM     62  H   UNL     1      -1.047  -4.128 -14.047  1.00  0.00     0.167 HD
ATOM     63  C   UNL     1       0.635  -2.244 -15.322  1.00  0.00     0.074 A 
ATOM     64  C   UNL     1       1.353  -1.017 -15.598  1.00  0.00     0.031 C 
ATOM     65  C   UNL     1       0.719  -3.364 -16.080  1.00  0.00     0.031 A 
BRANCH  52  66
ATOM     66  C   UNL     1      -2.644  -8.088 -13.955  1.00  0.00    -0.014 A 
ATOM     67  C   UNL     1      -3.957  -8.457 -14.291  1.00  0.00     0.009 A 
ATOM     68  C   UNL     1      -1.677  -9.093 -13.797  1.00  0.00     0.009 A 
ATOM     69  C   UNL     1      -4.300  -9.804 -14.429  1.00  0.00     0.001 A 
ATOM     70  C   UNL     1      -2.016 -10.437 -13.967  1.00  0.00     0.001 A 
ATOM     71  C   UNL     1      -3.329 -10.792 -14.273  1.00  0.00     0.000 A 
ENDBRANCH  52  66
BRANCH  53  72
ATOM     72  C   UNL     1       0.032   1.397 -12.412  1.00  0.00    -0.014 A 
ATOM     73  C   UNL     1      -0.321   2.418 -13.308  1.00  0.00     0.009 A 
ATOM     74  C   UNL     1       0.820   1.720 -11.295  1.00  0.00     0.009 A 
ATOM     75  C   UNL     1       0.133   3.724 -13.109  1.00  0.00     0.001 A 
ATOM     76  C   UNL     1       1.244   3.033 -11.081  1.00  0.00     0.001 A 
ATOM     77  C   UNL     1       0.910   4.031 -11.994  1.00  0.00     0.000 A 
ENDBRANCH  53  72
BRANCH  65  78
ATOM     78  C   UNL     1       1.588  -3.304 -17.306  1.00  0.00    -0.014 A 
ATOM     79  C   UNL     1       2.987  -3.255 -17.211  1.00  0.00     0.009 A 
ATOM     80  C   UNL     1       0.994  -3.340 -18.578  1.00  0.00     0.009 A 
ATOM     81  C   UNL     1       3.772  -3.205 -18.366  1.00  0.00     0.001 A 
ATOM     82  C   UNL     1       1.782  -3.323 -19.730  1.00  0.00     0.001 A 
ATOM     83  C   UNL     1       3.169  -3.245 -19.623  1.00  0.00     0.000 A 
ENDBRANCH  65  78
ENDBRANCH  39  40
ENDBRANCH  31  34
ENDBRANCH  29  30
ENDBRANCH  28  29
ENDBRANCH  27  28
ENDBRANCH   1  27
TORSDOF 16
