REMARK SMILES CN1C(=O)C[C@@H](C(=O)NCCCCNC(=O)c2ccc(-c3c4nc(c(-c5ccccc5)c5ccc([nH]5)c(-c5ccccc5)c5nc(c(-c6ccccc6)c6ccc3[nH]6)C=C5)C=C4)cc2)C12CCN(C(=O)c1ccccc1-n1cccn1)CC2
REMARK SMILES IDX 11 1 10 2 9 3 7 4 8 5 6 7 1 8 2 9 3 10 65 11 4 12 5 13 66 14
REMARK SMILES IDX 83 15 67 16 82 17 68 18 69 19 70 20 71 21 72 22 76 23 73 24
REMARK SMILES IDX 75 25 74 26 77 27 78 28 81 29 79 30 80 31 12 32 13 33 14 34
REMARK SMILES IDX 15 35 16 37 17 38 18 39 64 40 19 41 63 42 20 43 21 44 22 45
REMARK SMILES IDX 57 46 23 47 62 48 56 49 58 50 24 51 61 52 55 53 54 54 25 56
REMARK SMILES IDX 47 57 32 58 46 59 33 60 36 61 45 62 59 63 34 64 35 65 44 67
REMARK SMILES IDX 60 68 37 69 26 70 27 71 31 72 28 73 30 74 29 75 48 76 49 77
REMARK SMILES IDX 53 78 50 79 52 80 51 81 38 82 39 83 43 84 40 85 42 86 41 87
REMARK H PARENT 9 6 14 36 58 55 36 66
REMARK Flexibility Score: inf
ROOT
ATOM      1  C   UNL     1      -2.516   1.025   0.641  1.00  0.00     0.023 C 
ENDROOT
BRANCH   1   2
ATOM      2  C   UNL     1      -2.035   1.310   2.068  1.00  0.00     0.116 C 
BRANCH   2   3
ATOM      3  N   UNL     1      -2.434   0.313   3.051  1.00  0.00    -0.356 N 
ATOM      4  C   UNL     1      -1.775  -0.665   3.725  1.00  0.00     0.226 C 
ATOM      5  O   UNL     1      -2.451  -1.307   4.540  1.00  0.00    -0.275 OA
ATOM      6  H   UNL     1      -3.391   0.357   3.276  1.00  0.00     0.163 HD
BRANCH   4   7
ATOM      7  C   UNL     1      -0.305  -1.060   3.526  1.00  0.00     0.113 C 
ATOM      8  C   UNL     1       1.112  -0.164   0.179  1.00  0.00     0.147 C 
ATOM      9  N   UNL     1       0.686  -0.331   1.553  1.00  0.00    -0.339 N 
ATOM     10  C   UNL     1       1.149   0.547   2.532  1.00  0.00     0.223 C 
ATOM     11  C   UNL     1       0.108  -1.562   2.122  1.00  0.00     0.058 C 
ATOM     12  O   UNL     1       1.824   1.546   2.349  1.00  0.00    -0.275 OA
ATOM     13  C   UNL     1       0.649   0.081   3.869  1.00  0.00     0.116 C 
ATOM     14  C   UNL     1      -1.089  -2.151   1.344  1.00  0.00     0.051 C 
ATOM     15  C   UNL     1       1.244  -2.634   2.176  1.00  0.00     0.051 C 
ATOM     16  C   UNL     1      -1.510  -3.523   1.851  1.00  0.00     0.122 C 
ATOM     17  C   UNL     1       0.774  -4.053   2.509  1.00  0.00     0.122 C 
ATOM     18  N   UNL     1      -0.385  -4.428   1.707  1.00  0.00    -0.338 N 
ATOM     19  C   UNL     1      -0.345  -5.551   0.883  1.00  0.00     0.256 C 
ATOM     20  O   UNL     1       0.638  -6.279   0.771  1.00  0.00    -0.269 OA
BRANCH  19  21
ATOM     21  C   UNL     1      -1.564  -5.943   0.131  1.00  0.00     0.065 A 
ATOM     22  C   UNL     1      -2.243  -7.066   0.633  1.00  0.00     0.016 A 
ATOM     23  C   UNL     1      -2.112  -5.225  -0.944  1.00  0.00     0.077 A 
ATOM     24  C   UNL     1      -3.474  -7.449   0.098  1.00  0.00     0.001 A 
ATOM     25  C   UNL     1      -3.383  -5.586  -1.434  1.00  0.00     0.029 A 
ATOM     26  C   UNL     1      -4.052  -6.699  -0.922  1.00  0.00     0.002 A 
BRANCH  23  27
ATOM     27  N   UNL     1      -1.444  -4.153  -1.585  1.00  0.00    -0.240 N 
ATOM     28  C   UNL     1      -0.090  -3.940  -1.729  1.00  0.00     0.115 A 
ATOM     29  N   UNL     1      -2.160  -3.167  -2.193  1.00  0.00    -0.177 NA
ATOM     30  C   UNL     1       0.064  -2.769  -2.433  1.00  0.00     0.042 A 
ATOM     31  C   UNL     1      -1.244  -2.326  -2.672  1.00  0.00     0.135 A 
ENDBRANCH  23  27
ENDBRANCH  19  21
ENDBRANCH   4   7
ENDBRANCH   2   3
ENDBRANCH   1   2
BRANCH   1  32
ATOM     32  C   UNL     1      -4.026   1.131   0.448  1.00  0.00     0.023 C 
BRANCH  32  33
ATOM     33  C   UNL     1      -4.590   2.510   0.757  1.00  0.00     0.116 C 
BRANCH  33  34
ATOM     34  N   UNL     1      -3.915   3.575   0.027  1.00  0.00    -0.352 N 
ATOM     35  C   UNL     1      -4.458   4.679  -0.578  1.00  0.00     0.251 C 
ATOM     36  H   UNL     1      -2.936   3.490  -0.042  1.00  0.00     0.163 HD
ATOM     37  O   UNL     1      -3.771   5.416  -1.278  1.00  0.00    -0.269 OA
BRANCH  35  38
ATOM     38  C   UNL     1      -5.894   4.947  -0.396  1.00  0.00     0.039 A 
ATOM     39  C   UNL     1      -6.685   5.199  -1.518  1.00  0.00     0.014 A 
ATOM     40  C   UNL     1      -6.458   4.879   0.880  1.00  0.00     0.014 A 
ATOM     41  C   UNL     1      -8.065   5.316  -1.365  1.00  0.00     0.010 A 
ATOM     42  C   UNL     1      -7.837   4.905   1.017  1.00  0.00     0.010 A 
ATOM     43  C   UNL     1      -8.652   5.132  -0.102  1.00  0.00    -0.014 A 
BRANCH  43  44
ATOM     44  C   UNL     1     -10.119   5.183   0.080  1.00  0.00     0.031 A 
ATOM     45  C   UNL     1     -10.725   6.244   0.953  1.00  0.00     0.074 A 
ATOM     46  C   UNL     1     -10.892   4.226  -0.468  1.00  0.00     0.049 A 
ATOM     47  N   UNL     1     -11.974   6.410   1.305  1.00  0.00    -0.248 NA
ATOM     48  C   UNL     1      -9.797   7.226   1.539  1.00  0.00     0.031 C 
ATOM     49  C   UNL     1     -10.412   3.107  -1.282  1.00  0.00     0.029 A 
ATOM     50  N   UNL     1     -12.249   4.037  -0.409  1.00  0.00    -0.354 N 
ATOM     51  C   UNL     1     -11.976   7.497   2.168  1.00  0.00     0.074 A 
ATOM     52  C   UNL     1     -10.601   7.912   2.336  1.00  0.00     0.031 C 
ATOM     53  C   UNL     1     -11.461   2.363  -1.665  1.00  0.00     0.029 A 
ATOM     54  C   UNL     1     -12.679   2.930  -1.097  1.00  0.00     0.049 A 
ATOM     55  H   UNL     1     -12.856   4.638   0.081  1.00  0.00     0.167 HD
ATOM     56  C   UNL     1     -13.031   8.114   2.749  1.00  0.00     0.031 A 
ATOM     57  C   UNL     1     -13.918   2.427  -1.249  1.00  0.00     0.031 A 
ATOM     58  C   UNL     1     -14.398   7.708   2.568  1.00  0.00     0.049 A 
ATOM     59  C   UNL     1     -15.078   3.138  -0.613  1.00  0.00     0.074 A 
ATOM     60  C   UNL     1     -15.547   8.299   3.062  1.00  0.00     0.029 A 
ATOM     61  N   UNL     1     -14.798   6.604   1.831  1.00  0.00    -0.354 N 
ATOM     62  N   UNL     1     -15.075   4.210   0.142  1.00  0.00    -0.248 NA
ATOM     63  C   UNL     1     -16.413   2.579  -0.863  1.00  0.00     0.031 C 
ATOM     64  C   UNL     1     -16.641   7.526   2.656  1.00  0.00     0.029 A 
ATOM     65  C   UNL     1     -16.176   6.484   1.870  1.00  0.00     0.049 A 
ATOM     66  H   UNL     1     -14.191   5.995   1.351  1.00  0.00     0.167 HD
ATOM     67  C   UNL     1     -16.405   4.466   0.442  1.00  0.00     0.074 A 
ATOM     68  C   UNL     1     -17.189   3.447  -0.228  1.00  0.00     0.031 C 
ATOM     69  C   UNL     1     -16.933   5.456   1.203  1.00  0.00     0.031 A 
BRANCH  56  70
ATOM     70  C   UNL     1     -12.730   9.291   3.635  1.00  0.00    -0.014 A 
ATOM     71  C   UNL     1     -12.241  10.495   3.102  1.00  0.00     0.009 A 
ATOM     72  C   UNL     1     -12.928   9.194   5.020  1.00  0.00     0.009 A 
ATOM     73  C   UNL     1     -11.907  11.559   3.942  1.00  0.00     0.001 A 
ATOM     74  C   UNL     1     -12.623  10.270   5.856  1.00  0.00     0.001 A 
ATOM     75  C   UNL     1     -12.101  11.446   5.318  1.00  0.00     0.000 A 
ENDBRANCH  56  70
BRANCH  57  76
ATOM     76  C   UNL     1     -14.119   1.200  -2.060  1.00  0.00    -0.014 A 
ATOM     77  C   UNL     1     -14.695   1.277  -3.337  1.00  0.00     0.009 A 
ATOM     78  C   UNL     1     -13.712  -0.052  -1.573  1.00  0.00     0.009 A 
ATOM     79  C   UNL     1     -14.877   0.123  -4.102  1.00  0.00     0.001 A 
ATOM     80  C   UNL     1     -13.872  -1.201  -2.350  1.00  0.00     0.001 A 
ATOM     81  C   UNL     1     -14.460  -1.114  -3.611  1.00  0.00     0.000 A 
ENDBRANCH  57  76
BRANCH  69  82
ATOM     82  C   UNL     1     -18.428   5.495   1.333  1.00  0.00    -0.014 A 
ATOM     83  C   UNL     1     -19.113   4.562   2.127  1.00  0.00     0.009 A 
ATOM     84  C   UNL     1     -19.156   6.506   0.687  1.00  0.00     0.009 A 
ATOM     85  C   UNL     1     -20.502   4.625   2.247  1.00  0.00     0.001 A 
ATOM     86  C   UNL     1     -20.542   6.582   0.830  1.00  0.00     0.001 A 
ATOM     87  C   UNL     1     -21.214   5.636   1.603  1.00  0.00     0.000 A 
ENDBRANCH  69  82
ENDBRANCH  43  44
ENDBRANCH  35  38
ENDBRANCH  33  34
ENDBRANCH  32  33
ENDBRANCH   1  32
TORSDOF 13
