REMARK SMILES CC1(C)[C@H](C(=O)Nc2ccc(NC(=O)C[NH+]3CCCCC3)cc2)[C@@H]1C(=O)NCCCCNC(=O)c1ccc(-c2c3nc(c(-c4ccccc4)c4ccc([nH]4)c(-c4ccccc4)c4nc(c(-c5ccccc5)c5ccc2[nH]5)C=C4)C=C3)cc1
REMARK SMILES IDX 28 1 27 2 25 3 26 4 24 6 1 7 2 8 3 9 4 10 5 11 6 12 7 13
REMARK SMILES IDX 8 15 9 16 23 17 10 18 22 19 11 20 12 21 13 22 14 24 15 25
REMARK SMILES IDX 16 26 17 27 21 28 18 30 20 31 19 32 29 33 30 34 31 35 32 36
REMARK SMILES IDX 33 37 34 39 35 40 36 41 82 42 37 43 81 44 38 45 39 46 40 47
REMARK SMILES IDX 75 48 41 49 80 50 74 51 76 52 42 53 79 54 73 55 72 56 43 58
REMARK SMILES IDX 65 59 50 60 64 61 51 62 54 63 63 64 77 65 52 66 53 67 62 69
REMARK SMILES IDX 78 70 55 71 44 72 45 73 49 74 46 75 48 76 47 77 66 78 67 79
REMARK SMILES IDX 71 80 68 81 70 82 69 83 56 84 57 85 61 86 58 87 60 88 59 89
REMARK H PARENT 27 5 7 14 12 23 16 29 32 38 76 57 54 68
REMARK Flexibility Score: inf
ROOT
ATOM      1  C   UNL     1      -3.855   0.783   0.058  1.00  0.00     0.116 C 
ENDROOT
BRANCH   1   2
ATOM      2  N   UNL     1      -2.944   1.089   1.141  1.00  0.00    -0.356 N 
ATOM      3  C   UNL     1      -1.660   0.640   1.325  1.00  0.00     0.224 C 
ATOM      4  O   UNL     1      -1.028   1.000   2.307  1.00  0.00    -0.275 OA
ATOM      5  H   UNL     1      -3.289   1.697   1.834  1.00  0.00     0.163 HD
BRANCH   3   6
ATOM      6  C   UNL     1      -1.137  -0.394   0.406  1.00  0.00     0.098 C 
ATOM      7  C   UNL     1       0.920  -1.901  -0.135  1.00  0.00     0.013 C 
ATOM      8  C   UNL     1       0.335  -0.502  -0.018  1.00  0.00    -0.011 C 
ATOM      9  C   UNL     1       1.367   0.475   0.449  1.00  0.00     0.013 C 
ATOM     10  C   UNL     1      -0.737  -0.182  -1.034  1.00  0.00     0.098 C 
BRANCH  10  11
ATOM     11  C   UNL     1      -1.085   0.975  -1.907  1.00  0.00     0.228 C 
ATOM     12  O   UNL     1      -1.577   0.678  -3.002  1.00  0.00    -0.274 OA
ATOM     13  N   UNL     1      -1.117   2.312  -1.620  1.00  0.00    -0.326 N 
ATOM     14  H   UNL     1      -1.640   2.838  -2.267  1.00  0.00     0.169 HD
BRANCH  13  15
ATOM     15  C   UNL     1      -0.567   3.079  -0.608  1.00  0.00     0.041 A 
ATOM     16  C   UNL     1      -1.429   3.763   0.237  1.00  0.00     0.028 A 
ATOM     17  C   UNL     1       0.800   3.298  -0.517  1.00  0.00     0.028 A 
ATOM     18  C   UNL     1      -0.920   4.476   1.319  1.00  0.00     0.028 A 
ATOM     19  C   UNL     1       1.310   4.055   0.545  1.00  0.00     0.028 A 
ATOM     20  C   UNL     1       0.452   4.636   1.486  1.00  0.00     0.041 A 
BRANCH  20  21
ATOM     21  N   UNL     1       1.040   5.306   2.573  1.00  0.00    -0.321 N 
ATOM     22  C   UNL     1       0.564   6.253   3.442  1.00  0.00     0.279 C 
ATOM     23  H   UNL     1       1.974   5.045   2.742  1.00  0.00     0.170 HD
ATOM     24  O   UNL     1       1.261   6.531   4.427  1.00  0.00    -0.268 OA
BRANCH  22  25
ATOM     25  C   UNL     1      -0.759   6.998   3.205  1.00  0.00     0.363 C 
BRANCH  25  26
ATOM     26  N   UNL     1      -0.844   7.479   1.817  1.00  0.00    -0.327 N 
ATOM     27  C   UNL     1      -2.213   7.728   1.371  1.00  0.00     0.262 C 
ATOM     28  C   UNL     1       0.021   8.638   1.574  1.00  0.00     0.262 C 
ATOM     29  H   UNL     1      -0.493   6.712   1.244  1.00  0.00     0.348 HD
ATOM     30  C   UNL     1      -2.212   7.941  -0.144  1.00  0.00     0.062 C 
ATOM     31  C   UNL     1       0.089   8.936   0.075  1.00  0.00     0.062 C 
ATOM     32  C   UNL     1      -1.301   9.100  -0.535  1.00  0.00     0.012 C 
ENDBRANCH  25  26
ENDBRANCH  22  25
ENDBRANCH  20  21
ENDBRANCH  13  15
ENDBRANCH  10  11
ENDBRANCH   3   6
ENDBRANCH   1   2
BRANCH   1  33
ATOM     33  C   UNL     1      -5.304   0.666   0.521  1.00  0.00     0.023 C 
BRANCH  33  34
ATOM     34  C   UNL     1      -5.914   1.924   1.145  1.00  0.00     0.023 C 
BRANCH  34  35
ATOM     35  C   UNL     1      -5.814   3.206   0.326  1.00  0.00     0.116 C 
BRANCH  35  36
ATOM     36  N   UNL     1      -6.414   3.102  -0.992  1.00  0.00    -0.352 N 
ATOM     37  C   UNL     1      -7.322   3.921  -1.618  1.00  0.00     0.251 C 
ATOM     38  H   UNL     1      -6.124   2.323  -1.520  1.00  0.00     0.163 HD
ATOM     39  O   UNL     1      -7.781   3.591  -2.709  1.00  0.00    -0.269 OA
BRANCH  37  40
ATOM     40  C   UNL     1      -7.777   5.181  -0.987  1.00  0.00     0.039 A 
ATOM     41  C   UNL     1      -9.135   5.509  -1.065  1.00  0.00     0.014 A 
ATOM     42  C   UNL     1      -6.887   6.058  -0.363  1.00  0.00     0.014 A 
ATOM     43  C   UNL     1      -9.605   6.687  -0.477  1.00  0.00     0.010 A 
ATOM     44  C   UNL     1      -7.368   7.196   0.286  1.00  0.00     0.010 A 
ATOM     45  C   UNL     1      -8.730   7.531   0.223  1.00  0.00    -0.014 A 
BRANCH  45  46
ATOM     46  C   UNL     1      -9.219   8.784   0.854  1.00  0.00     0.031 A 
ATOM     47  C   UNL     1      -8.741  10.121   0.351  1.00  0.00     0.074 A 
ATOM     48  C   UNL     1     -10.067   8.729   1.900  1.00  0.00     0.049 A 
ATOM     49  N   UNL     1      -9.035  11.321   0.785  1.00  0.00    -0.248 NA
ATOM     50  C   UNL     1      -7.788  10.106  -0.770  1.00  0.00     0.031 C 
ATOM     51  C   UNL     1     -10.583   7.503   2.511  1.00  0.00     0.029 A 
ATOM     52  N   UNL     1     -10.646   9.735   2.634  1.00  0.00    -0.354 N 
ATOM     53  C   UNL     1      -8.290  12.198   0.005  1.00  0.00     0.074 A 
ATOM     54  C   UNL     1      -7.493  11.391  -0.892  1.00  0.00     0.031 C 
ATOM     55  C   UNL     1     -11.425   7.829   3.506  1.00  0.00     0.029 A 
ATOM     56  C   UNL     1     -11.485   9.282   3.623  1.00  0.00     0.049 A 
ATOM     57  H   UNL     1     -10.476  10.690   2.466  1.00  0.00     0.167 HD
ATOM     58  C   UNL     1      -8.285  13.552   0.015  1.00  0.00     0.031 A 
ATOM     59  C   UNL     1     -12.225   9.961   4.521  1.00  0.00     0.031 A 
ATOM     60  C   UNL     1      -9.091  14.361   0.888  1.00  0.00     0.049 A 
ATOM     61  C   UNL     1     -12.213  11.465   4.503  1.00  0.00     0.074 A 
ATOM     62  C   UNL     1      -9.190  15.741   0.940  1.00  0.00     0.029 A 
ATOM     63  N   UNL     1      -9.944  13.862   1.860  1.00  0.00    -0.354 N 
ATOM     64  N   UNL     1     -11.547  12.277   3.719  1.00  0.00    -0.248 NA
ATOM     65  C   UNL     1     -13.073  12.143   5.484  1.00  0.00     0.031 C 
ATOM     66  C   UNL     1     -10.075  16.078   1.970  1.00  0.00     0.029 A 
ATOM     67  C   UNL     1     -10.566  14.907   2.523  1.00  0.00     0.049 A 
ATOM     68  H   UNL     1     -10.087  12.907   2.050  1.00  0.00     0.167 HD
ATOM     69  C   UNL     1     -11.937  13.560   4.085  1.00  0.00     0.074 A 
ATOM     70  C   UNL     1     -12.903  13.416   5.154  1.00  0.00     0.031 C 
ATOM     71  C   UNL     1     -11.533  14.750   3.577  1.00  0.00     0.031 A 
BRANCH  58  72
ATOM     72  C   UNL     1      -7.369  14.243  -0.957  1.00  0.00    -0.014 A 
ATOM     73  C   UNL     1      -7.627  14.228  -2.337  1.00  0.00     0.009 A 
ATOM     74  C   UNL     1      -6.244  14.938  -0.485  1.00  0.00     0.009 A 
ATOM     75  C   UNL     1      -6.755  14.858  -3.228  1.00  0.00     0.001 A 
ATOM     76  C   UNL     1      -5.391  15.592  -1.376  1.00  0.00     0.001 A 
ATOM     77  C   UNL     1      -5.641  15.542  -2.746  1.00  0.00     0.000 A 
ENDBRANCH  58  72
BRANCH  59  78
ATOM     78  C   UNL     1     -13.076   9.227   5.494  1.00  0.00    -0.014 A 
ATOM     79  C   UNL     1     -14.473   9.236   5.363  1.00  0.00     0.009 A 
ATOM     80  C   UNL     1     -12.498   8.528   6.564  1.00  0.00     0.009 A 
ATOM     81  C   UNL     1     -15.276   8.585   6.303  1.00  0.00     0.001 A 
ATOM     82  C   UNL     1     -13.302   7.855   7.487  1.00  0.00     0.001 A 
ATOM     83  C   UNL     1     -14.690   7.893   7.361  1.00  0.00     0.000 A 
ENDBRANCH  59  78
BRANCH  71  84
ATOM     84  C   UNL     1     -12.177  15.989   4.133  1.00  0.00    -0.014 A 
ATOM     85  C   UNL     1     -11.877  16.458   5.420  1.00  0.00     0.009 A 
ATOM     86  C   UNL     1     -13.078  16.714   3.336  1.00  0.00     0.009 A 
ATOM     87  C   UNL     1     -12.495  17.610   5.912  1.00  0.00     0.001 A 
ATOM     88  C   UNL     1     -13.672  17.880   3.820  1.00  0.00     0.001 A 
ATOM     89  C   UNL     1     -13.389  18.321   5.112  1.00  0.00     0.000 A 
ENDBRANCH  71  84
ENDBRANCH  45  46
ENDBRANCH  37  40
ENDBRANCH  35  36
ENDBRANCH  34  35
ENDBRANCH  33  34
ENDBRANCH   1  33
TORSDOF 16
