REMARK SMILES O=C(NCCCCNC(=O)c1cccc2nc(Cl)c(Cl)nc12)c1ccc(-c2c3nc(c(-c4ccccc4)c4ccc([nH]4)c(-c4ccccc4)c4nc(c(-c5ccccc5)c5ccc2[nH]5)C=C4)C=C3)cc1
REMARK SMILES IDX 4 1 3 2 1 3 2 4 23 6 24 7 70 8 25 9 69 10 26 11 27 12 28 13
REMARK SMILES IDX 63 14 29 15 68 16 62 17 64 18 30 19 67 20 61 21 60 22 31 24
REMARK SMILES IDX 53 25 38 26 52 27 39 28 42 29 51 30 65 31 40 32 41 33 50 35
REMARK SMILES IDX 66 36 43 37 32 38 33 39 37 40 34 41 36 42 35 43 54 44 55 45
REMARK SMILES IDX 59 46 56 47 58 48 57 49 44 50 45 51 49 52 46 53 48 54 47 55
REMARK SMILES IDX 5 56 6 57 7 58 8 59 9 60 10 62 11 63 12 64 22 65 13 66 15 67
REMARK SMILES IDX 21 68 14 69 16 70 19 71 17 72 20 73 18 74
REMARK H PARENT 3 5 64 23 42 34 8 61
REMARK Flexibility Score: inf
ROOT
ATOM      1  C   UNL     1       4.592   0.653  -1.101  1.00  0.00     0.116 C 
ENDROOT
BRANCH   1   2
ATOM      2  N   UNL     1       3.163   0.720  -0.846  1.00  0.00    -0.352 N 
ATOM      3  O   UNL     1       1.188   0.180   0.092  1.00  0.00    -0.269 OA
ATOM      4  C   UNL     1       2.412   0.067   0.102  1.00  0.00     0.251 C 
ATOM      5  H   UNL     1       2.658   1.323  -1.439  1.00  0.00     0.163 HD
BRANCH   4   6
ATOM      6  C   UNL     1       3.061  -0.797   1.114  1.00  0.00     0.039 A 
ATOM      7  C   UNL     1       2.461  -2.019   1.434  1.00  0.00     0.014 A 
ATOM      8  C   UNL     1       4.240  -0.413   1.757  1.00  0.00     0.014 A 
ATOM      9  C   UNL     1       3.069  -2.871   2.359  1.00  0.00     0.010 A 
ATOM     10  C   UNL     1       4.892  -1.301   2.608  1.00  0.00     0.010 A 
ATOM     11  C   UNL     1       4.304  -2.531   2.935  1.00  0.00    -0.014 A 
BRANCH  11  12
ATOM     12  C   UNL     1       4.969  -3.439   3.906  1.00  0.00     0.031 A 
ATOM     13  C   UNL     1       5.189  -2.999   5.328  1.00  0.00     0.074 A 
ATOM     14  C   UNL     1       5.397  -4.652   3.507  1.00  0.00     0.049 A 
ATOM     15  N   UNL     1       5.741  -3.655   6.319  1.00  0.00    -0.248 NA
ATOM     16  C   UNL     1       4.756  -1.637   5.681  1.00  0.00     0.031 C 
ATOM     17  C   UNL     1       5.290  -5.181   2.146  1.00  0.00     0.029 A 
ATOM     18  N   UNL     1       5.999  -5.665   4.212  1.00  0.00    -0.354 N 
ATOM     19  C   UNL     1       5.724  -2.785   7.402  1.00  0.00     0.074 A 
ATOM     20  C   UNL     1       5.177  -1.533   6.932  1.00  0.00     0.031 C 
ATOM     21  C   UNL     1       5.764  -6.437   2.127  1.00  0.00     0.029 A 
ATOM     22  C   UNL     1       6.239  -6.790   3.462  1.00  0.00     0.049 A 
ATOM     23  H   UNL     1       6.237  -5.591   5.165  1.00  0.00     0.167 HD
ATOM     24  C   UNL     1       6.095  -3.017   8.683  1.00  0.00     0.031 A 
ATOM     25  C   UNL     1       6.768  -7.979   3.808  1.00  0.00     0.031 A 
ATOM     26  C   UNL     1       6.629  -4.265   9.156  1.00  0.00     0.049 A 
ATOM     27  C   UNL     1       7.173  -8.219   5.235  1.00  0.00     0.074 A 
ATOM     28  C   UNL     1       7.001  -4.608  10.444  1.00  0.00     0.029 A 
ATOM     29  N   UNL     1       6.864  -5.376   8.361  1.00  0.00    -0.354 N 
ATOM     30  N   UNL     1       7.102  -7.403   6.259  1.00  0.00    -0.248 NA
ATOM     31  C   UNL     1       7.715  -9.546   5.558  1.00  0.00     0.031 C 
ATOM     32  C   UNL     1       7.508  -5.910  10.419  1.00  0.00     0.029 A 
ATOM     33  C   UNL     1       7.392  -6.401   9.128  1.00  0.00     0.049 A 
ATOM     34  H   UNL     1       6.681  -5.429   7.395  1.00  0.00     0.167 HD
ATOM     35  C   UNL     1       7.582  -8.118   7.349  1.00  0.00     0.074 A 
ATOM     36  C   UNL     1       7.912  -9.444   6.867  1.00  0.00     0.031 C 
ATOM     37  C   UNL     1       7.738  -7.710   8.632  1.00  0.00     0.031 A 
BRANCH  24  38
ATOM     38  C   UNL     1       5.915  -1.896   9.671  1.00  0.00    -0.014 A 
ATOM     39  C   UNL     1       7.034  -1.287  10.259  1.00  0.00     0.009 A 
ATOM     40  C   UNL     1       4.632  -1.473  10.057  1.00  0.00     0.009 A 
ATOM     41  C   UNL     1       6.872  -0.280  11.213  1.00  0.00     0.001 A 
ATOM     42  C   UNL     1       4.474  -0.443  10.986  1.00  0.00     0.001 A 
ATOM     43  C   UNL     1       5.593   0.147  11.569  1.00  0.00     0.000 A 
ENDBRANCH  24  38
BRANCH  25  44
ATOM     44  C   UNL     1       6.887  -9.047   2.780  1.00  0.00    -0.014 A 
ATOM     45  C   UNL     1       7.818  -8.935   1.735  1.00  0.00     0.009 A 
ATOM     46  C   UNL     1       6.023 -10.153   2.803  1.00  0.00     0.009 A 
ATOM     47  C   UNL     1       7.863  -9.893   0.720  1.00  0.00     0.001 A 
ATOM     48  C   UNL     1       6.090 -11.124   1.801  1.00  0.00     0.001 A 
ATOM     49  C   UNL     1       7.002 -10.988   0.755  1.00  0.00     0.000 A 
ENDBRANCH  25  44
BRANCH  37  50
ATOM     50  C   UNL     1       8.302  -8.698   9.616  1.00  0.00    -0.014 A 
ATOM     51  C   UNL     1       7.495  -9.193  10.653  1.00  0.00     0.009 A 
ATOM     52  C   UNL     1       9.653  -9.074   9.568  1.00  0.00     0.009 A 
ATOM     53  C   UNL     1       8.031 -10.037  11.627  1.00  0.00     0.001 A 
ATOM     54  C   UNL     1      10.179  -9.943  10.526  1.00  0.00     0.001 A 
ATOM     55  C   UNL     1       9.371 -10.416  11.559  1.00  0.00     0.000 A 
ENDBRANCH  37  50
ENDBRANCH  11  12
ENDBRANCH   4   6
ENDBRANCH   1   2
BRANCH   1  56
ATOM     56  C   UNL     1       4.938   0.490  -2.576  1.00  0.00     0.023 C 
BRANCH  56  57
ATOM     57  C   UNL     1       4.447   1.603  -3.502  1.00  0.00     0.023 C 
BRANCH  57  58
ATOM     58  C   UNL     1       4.801   3.022  -3.068  1.00  0.00     0.116 C 
BRANCH  58  59
ATOM     59  N   UNL     1       6.233   3.232  -2.940  1.00  0.00    -0.352 N 
ATOM     60  C   UNL     1       7.052   4.094  -3.623  1.00  0.00     0.253 C 
ATOM     61  H   UNL     1       6.680   2.675  -2.264  1.00  0.00     0.163 HD
ATOM     62  O   UNL     1       8.254   4.143  -3.360  1.00  0.00    -0.269 OA
BRANCH  60  63
ATOM     63  C   UNL     1       6.479   5.015  -4.617  1.00  0.00     0.067 A 
ATOM     64  C   UNL     1       5.578   5.991  -4.164  1.00  0.00     0.016 A 
ATOM     65  C   UNL     1       6.877   4.925  -5.957  1.00  0.00     0.103 A 
ATOM     66  C   UNL     1       5.010   6.868  -5.073  1.00  0.00     0.003 A 
ATOM     67  C   UNL     1       6.303   5.853  -6.866  1.00  0.00     0.091 A 
ATOM     68  N   UNL     1       7.761   3.996  -6.405  1.00  0.00    -0.230 NA
ATOM     69  C   UNL     1       5.378   6.787  -6.415  1.00  0.00     0.031 A 
ATOM     70  N   UNL     1       6.623   5.866  -8.173  1.00  0.00    -0.231 NA
ATOM     71  C   UNL     1       8.094   4.036  -7.715  1.00  0.00     0.167 A 
ATOM     72  C   UNL     1       7.535   4.955  -8.583  1.00  0.00     0.167 A 
ATOM     73  Cl  UNL     1       9.248   2.854  -8.176  1.00  0.00    -0.059 Cl
ATOM     74  Cl  UNL     1       7.909   5.059 -10.254  1.00  0.00    -0.059 Cl
ENDBRANCH  60  63
ENDBRANCH  58  59
ENDBRANCH  57  58
ENDBRANCH  56  57
ENDBRANCH   1  56
TORSDOF 11
