REMARK SMILES O=C(NCCCCNC(=O)[C@@H]1CN(C(=O)CCC(F)(F)F)C[C@H]1c1ccc2c(c1)OCO2)c1ccc(-c2c3nc(c(-c4ccccc4)c4ccc([nH]4)c(-c4ccccc4)c4nc(c(-c5ccccc5)c5ccc2[nH]5)C=C4)C=C3)cc1
REMARK SMILES IDX 6 1 5 2 4 3 3 4 1 5 2 6 33 8 34 9 80 10 35 11 79 12 36 13
REMARK SMILES IDX 37 14 38 15 73 16 39 17 78 18 72 19 74 20 40 21 77 22 71 23
REMARK SMILES IDX 70 24 41 26 63 27 48 28 62 29 49 30 52 31 61 32 75 33 50 34
REMARK SMILES IDX 51 35 60 37 76 38 53 39 42 40 43 41 47 42 44 43 46 44 45 45
REMARK SMILES IDX 64 46 65 47 69 48 66 49 68 50 67 51 54 52 55 53 59 54 56 55
REMARK SMILES IDX 58 56 57 57 7 58 8 59 9 60 10 62 11 63 12 64 23 65 13 66
REMARK SMILES IDX 22 67 24 68 25 69 29 70 26 71 28 72 27 73 30 74 32 75 31 76
REMARK SMILES IDX 14 77 15 78 16 79 17 80 18 81 19 82 20 83 21 84
REMARK H PARENT 3 7 74 25 52 36 8 61
REMARK Flexibility Score: inf
ROOT
ATOM      1  C   UNL     1       4.457   0.728   3.748  1.00  0.00     0.023 C 
ENDROOT
BRANCH   1   2
ATOM      2  C   UNL     1       4.903   1.227   2.373  1.00  0.00     0.023 C 
BRANCH   2   3
ATOM      3  C   UNL     1       4.602   0.282   1.220  1.00  0.00     0.116 C 
BRANCH   3   4
ATOM      4  N   UNL     1       3.183   0.011   1.065  1.00  0.00    -0.352 N 
ATOM      5  O   UNL     1       1.221  -0.141  -0.044  1.00  0.00    -0.269 OA
ATOM      6  C   UNL     1       2.438  -0.028  -0.091  1.00  0.00     0.251 C 
ATOM      7  H   UNL     1       2.689  -0.168   1.898  1.00  0.00     0.163 HD
BRANCH   6   8
ATOM      8  C   UNL     1       3.124   0.101  -1.393  1.00  0.00     0.039 A 
ATOM      9  C   UNL     1       4.275  -0.642  -1.665  1.00  0.00     0.014 A 
ATOM     10  C   UNL     1       2.612   0.986  -2.345  1.00  0.00     0.014 A 
ATOM     11  C   UNL     1       4.988  -0.404  -2.833  1.00  0.00     0.010 A 
ATOM     12  C   UNL     1       3.288   1.168  -3.554  1.00  0.00     0.010 A 
ATOM     13  C   UNL     1       4.495   0.494  -3.793  1.00  0.00    -0.014 A 
BRANCH  13  14
ATOM     14  C   UNL     1       5.226   0.657  -5.072  1.00  0.00     0.031 A 
ATOM     15  C   UNL     1       5.888   1.955  -5.433  1.00  0.00     0.074 A 
ATOM     16  C   UNL     1       5.302  -0.399  -5.904  1.00  0.00     0.049 A 
ATOM     17  N   UNL     1       6.581   2.252  -6.504  1.00  0.00    -0.248 NA
ATOM     18  C   UNL     1       5.751   3.065  -4.478  1.00  0.00     0.031 C 
ATOM     19  C   UNL     1       4.688  -1.708  -5.663  1.00  0.00     0.029 A 
ATOM     20  N   UNL     1       5.938  -0.546  -7.109  1.00  0.00    -0.354 N 
ATOM     21  C   UNL     1       6.944   3.585  -6.363  1.00  0.00     0.074 A 
ATOM     22  C   UNL     1       6.381   4.046  -5.112  1.00  0.00     0.031 C 
ATOM     23  C   UNL     1       5.013  -2.536  -6.666  1.00  0.00     0.029 A 
ATOM     24  C   UNL     1       5.807  -1.803  -7.644  1.00  0.00     0.049 A 
ATOM     25  H   UNL     1       6.441   0.178  -7.546  1.00  0.00     0.167 HD
ATOM     26  C   UNL     1       7.681   4.352  -7.202  1.00  0.00     0.031 A 
ATOM     27  C   UNL     1       6.260  -2.310  -8.804  1.00  0.00     0.031 A 
ATOM     28  C   UNL     1       8.242   3.889  -8.444  1.00  0.00     0.049 A 
ATOM     29  C   UNL     1       7.059  -1.434  -9.720  1.00  0.00     0.074 A 
ATOM     30  C   UNL     1       9.037   4.581  -9.343  1.00  0.00     0.029 A 
ATOM     31  N   UNL     1       8.063   2.617  -8.967  1.00  0.00    -0.354 N 
ATOM     32  N   UNL     1       7.425  -0.186  -9.554  1.00  0.00    -0.248 NA
ATOM     33  C   UNL     1       7.506  -2.035 -10.983  1.00  0.00     0.031 C 
ATOM     34  C   UNL     1       9.300   3.741 -10.431  1.00  0.00     0.029 A 
ATOM     35  C   UNL     1       8.709   2.512 -10.187  1.00  0.00     0.049 A 
ATOM     36  H   UNL     1       7.552   1.896  -8.534  1.00  0.00     0.167 HD
ATOM     37  C   UNL     1       8.151   0.147 -10.687  1.00  0.00     0.074 A 
ATOM     38  C   UNL     1       8.194  -1.037 -11.522  1.00  0.00     0.031 C 
ATOM     39  C   UNL     1       8.728   1.330 -11.010  1.00  0.00     0.031 A 
BRANCH  26  40
ATOM     40  C   UNL     1       7.899   5.789  -6.817  1.00  0.00    -0.014 A 
ATOM     41  C   UNL     1       8.782   6.143  -5.785  1.00  0.00     0.009 A 
ATOM     42  C   UNL     1       7.241   6.805  -7.528  1.00  0.00     0.009 A 
ATOM     43  C   UNL     1       8.979   7.486  -5.455  1.00  0.00     0.001 A 
ATOM     44  C   UNL     1       7.458   8.148  -7.210  1.00  0.00     0.001 A 
ATOM     45  C   UNL     1       8.320   8.486  -6.169  1.00  0.00     0.000 A 
ENDBRANCH  26  40
BRANCH  27  46
ATOM     46  C   UNL     1       5.947  -3.716  -9.159  1.00  0.00    -0.014 A 
ATOM     47  C   UNL     1       6.943  -4.702  -9.122  1.00  0.00     0.009 A 
ATOM     48  C   UNL     1       4.636  -4.084  -9.500  1.00  0.00     0.009 A 
ATOM     49  C   UNL     1       6.634  -6.028  -9.432  1.00  0.00     0.001 A 
ATOM     50  C   UNL     1       4.324  -5.414  -9.783  1.00  0.00     0.001 A 
ATOM     51  C   UNL     1       5.325  -6.384  -9.755  1.00  0.00     0.000 A 
ENDBRANCH  27  46
BRANCH  39  52
ATOM     52  C   UNL     1       9.461   1.390 -12.317  1.00  0.00    -0.014 A 
ATOM     53  C   UNL     1       8.765   1.446 -13.534  1.00  0.00     0.009 A 
ATOM     54  C   UNL     1      10.864   1.411 -12.329  1.00  0.00     0.009 A 
ATOM     55  C   UNL     1       9.463   1.490 -14.743  1.00  0.00     0.001 A 
ATOM     56  C   UNL     1      11.558   1.479 -13.538  1.00  0.00     0.001 A 
ATOM     57  C   UNL     1      10.858   1.510 -14.743  1.00  0.00     0.000 A 
ENDBRANCH  39  52
ENDBRANCH  13  14
ENDBRANCH   6   8
ENDBRANCH   3   4
ENDBRANCH   2   3
ENDBRANCH   1   2
BRANCH   1  58
ATOM     58  C   UNL     1       5.084  -0.599   4.186  1.00  0.00     0.116 C 
BRANCH  58  59
ATOM     59  N   UNL     1       6.521  -0.476   4.365  1.00  0.00    -0.356 N 
ATOM     60  C   UNL     1       7.289  -0.368   5.479  1.00  0.00     0.225 C 
ATOM     61  H   UNL     1       7.031  -0.470   3.523  1.00  0.00     0.163 HD
ATOM     62  O   UNL     1       8.504  -0.229   5.305  1.00  0.00    -0.275 OA
BRANCH  60  63
ATOM     63  C   UNL     1       6.737  -0.466   6.892  1.00  0.00     0.107 C 
ATOM     64  C   UNL     1       6.266  -1.884   7.168  1.00  0.00     0.133 C 
ATOM     65  C   UNL     1       5.576   0.483   7.252  1.00  0.00     0.053 C 
ATOM     66  N   UNL     1       5.021  -1.771   7.897  1.00  0.00    -0.341 N 
ATOM     67  C   UNL     1       4.626  -0.388   8.090  1.00  0.00     0.128 C 
BRANCH  65  68
ATOM     68  C   UNL     1       6.056   1.803   7.848  1.00  0.00    -0.038 A 
ATOM     69  C   UNL     1       7.000   2.578   7.120  1.00  0.00     0.008 A 
ATOM     70  C   UNL     1       5.585   2.307   9.070  1.00  0.00     0.054 A 
ATOM     71  C   UNL     1       7.504   3.785   7.615  1.00  0.00     0.051 A 
ATOM     72  C   UNL     1       6.107   3.497   9.540  1.00  0.00     0.166 A 
ATOM     73  C   UNL     1       7.045   4.212   8.837  1.00  0.00     0.165 A 
ATOM     74  O   UNL     1       5.779   4.092  10.718  1.00  0.00    -0.454 OA
ATOM     75  O   UNL     1       7.430   5.343   9.484  1.00  0.00    -0.454 OA
ATOM     76  C   UNL     1       6.658   5.235  10.697  1.00  0.00     0.468 C 
ENDBRANCH  65  68
BRANCH  66  77
ATOM     77  C   UNL     1       4.265  -2.789   8.428  1.00  0.00     0.222 C 
ATOM     78  O   UNL     1       3.165  -2.584   8.943  1.00  0.00    -0.275 OA
BRANCH  77  79
ATOM     79  C   UNL     1       4.824  -4.198   8.385  1.00  0.00     0.109 C 
BRANCH  79  80
ATOM     80  C   UNL     1       4.053  -5.093   7.424  1.00  0.00     0.125 C 
BRANCH  80  81
ATOM     81  C   UNL     1       4.345  -4.771   5.978  1.00  0.00     0.389 C 
ATOM     82  F   UNL     1       5.672  -4.832   5.728  1.00  0.00    -0.171 F 
ATOM     83  F   UNL     1       3.738  -5.655   5.158  1.00  0.00    -0.171 F 
ATOM     84  F   UNL     1       3.921  -3.538   5.633  1.00  0.00    -0.171 F 
ENDBRANCH  80  81
ENDBRANCH  79  80
ENDBRANCH  77  79
ENDBRANCH  66  77
ENDBRANCH  60  63
ENDBRANCH  58  59
ENDBRANCH   1  58
TORSDOF 16
