REMARK SMILES C[C@@H]1CC[N@@H+]1[C@@H]1CCC[C@@H]1C(=O)NCCCCNC(=O)c1ccc(-c2c3nc(c(-c4ccccc4)c4ccc([nH]4)c(-c4ccccc4)c4nc(c(-c5ccccc5)c5ccc2[nH]5)C=C4)C=C3)cc1
REMARK SMILES IDX 16 1 15 2 14 3 13 4 11 5 12 6 10 8 6 9 7 10 8 11 9 12 5 13
REMARK SMILES IDX 1 14 2 15 3 16 4 17 17 19 18 20 19 21 20 23 21 24 22 25
REMARK SMILES IDX 68 26 23 27 67 28 24 29 25 30 26 31 61 32 27 33 66 34 60 35
REMARK SMILES IDX 62 36 28 37 65 38 59 39 58 40 29 42 51 43 36 44 50 45 37 46
REMARK SMILES IDX 40 47 49 48 63 49 38 50 39 51 48 53 64 54 41 55 30 56 31 57
REMARK SMILES IDX 35 58 32 59 34 60 33 61 52 62 53 63 57 64 54 65 56 66 55 67
REMARK SMILES IDX 42 68 43 69 47 70 44 71 46 72 45 73
REMARK H PARENT 13 7 5 18 18 22 62 41 40 52
REMARK Flexibility Score: inf
ROOT
ATOM      1  C   UNL     1       4.056   0.234   3.239  1.00  0.00     0.023 C 
ENDROOT
BRANCH   1   2
ATOM      2  C   UNL     1       4.297  -0.480   1.908  1.00  0.00     0.023 C 
BRANCH   2   3
ATOM      3  C   UNL     1       3.075  -0.467   1.000  1.00  0.00     0.116 C 
BRANCH   3   4
ATOM      4  N   UNL     1       3.220   0.322  -0.192  1.00  0.00    -0.356 N 
ATOM      5  C   UNL     1       2.606   0.142  -1.392  1.00  0.00     0.229 C 
ATOM      6  O   UNL     1       2.417   1.173  -2.052  1.00  0.00    -0.275 OA
ATOM      7  H   UNL     1       3.840   1.085  -0.133  1.00  0.00     0.163 HD
BRANCH   5   8
ATOM      8  C   UNL     1       2.332  -1.217  -2.046  1.00  0.00     0.136 C 
ATOM      9  C   UNL     1       1.812  -2.530  -1.407  1.00  0.00     0.196 C 
ATOM     10  C   UNL     1       3.071  -3.304  -0.922  1.00  0.00     0.066 C 
ATOM     11  C   UNL     1       4.269  -2.602  -1.562  1.00  0.00     0.007 C 
ATOM     12  C   UNL     1       3.688  -1.681  -2.626  1.00  0.00     0.020 C 
BRANCH   9  13
ATOM     13  N   UNL     1       0.458  -2.818  -0.902  1.00  0.00    -0.329 N 
ATOM     14  C   UNL     1      -0.313  -0.457  -0.139  1.00  0.00     0.075 C 
ATOM     15  C   UNL     1      -0.331  -1.954   0.003  1.00  0.00     0.186 C 
ATOM     16  C   UNL     1       0.238  -2.732   1.205  1.00  0.00     0.126 C 
ATOM     17  C   UNL     1       0.429  -3.861   0.170  1.00  0.00     0.268 C 
ATOM     18  H   UNL     1       0.103  -2.896  -1.855  1.00  0.00     0.348 HD
ENDBRANCH   9  13
ENDBRANCH   5   8
ENDBRANCH   3   4
ENDBRANCH   2   3
ENDBRANCH   1   2
BRANCH   1  19
ATOM     19  C   UNL     1       2.881  -0.284   4.070  1.00  0.00     0.116 C 
BRANCH  19  20
ATOM     20  N   UNL     1       3.060  -1.638   4.569  1.00  0.00    -0.352 N 
ATOM     21  C   UNL     1       2.774  -2.113   5.829  1.00  0.00     0.251 C 
ATOM     22  H   UNL     1       3.429  -2.291   3.932  1.00  0.00     0.163 HD
ATOM     23  O   UNL     1       3.031  -3.270   6.143  1.00  0.00    -0.269 OA
BRANCH  21  24
ATOM     24  C   UNL     1       2.192  -1.185   6.821  1.00  0.00     0.039 A 
ATOM     25  C   UNL     1       2.886  -0.951   8.011  1.00  0.00     0.014 A 
ATOM     26  C   UNL     1       1.021  -0.480   6.530  1.00  0.00     0.014 A 
ATOM     27  C   UNL     1       2.449   0.055   8.874  1.00  0.00     0.010 A 
ATOM     28  C   UNL     1       0.623   0.562   7.363  1.00  0.00     0.010 A 
ATOM     29  C   UNL     1       1.341   0.849   8.536  1.00  0.00    -0.014 A 
BRANCH  29  30
ATOM     30  C   UNL     1       0.936   2.001   9.382  1.00  0.00     0.031 A 
ATOM     31  C   UNL     1      -0.389   1.994  10.089  1.00  0.00     0.074 A 
ATOM     32  C   UNL     1       1.732   3.087   9.458  1.00  0.00     0.049 A 
ATOM     33  N   UNL     1      -0.937   2.930  10.823  1.00  0.00    -0.248 NA
ATOM     34  C   UNL     1      -1.219   0.789   9.931  1.00  0.00     0.031 C 
ATOM     35  C   UNL     1       3.023   3.244   8.783  1.00  0.00     0.029 A 
ATOM     36  N   UNL     1       1.566   4.271  10.134  1.00  0.00    -0.354 N 
ATOM     37  C   UNL     1      -2.180   2.436  11.197  1.00  0.00     0.074 A 
ATOM     38  C   UNL     1      -2.323   1.137  10.576  1.00  0.00     0.031 C 
ATOM     39  C   UNL     1       3.539   4.444   9.096  1.00  0.00     0.029 A 
ATOM     40  C   UNL     1       2.605   5.154   9.964  1.00  0.00     0.049 A 
ATOM     41  H   UNL     1       0.776   4.468  10.687  1.00  0.00     0.167 HD
ATOM     42  C   UNL     1      -3.112   3.003  11.998  1.00  0.00     0.031 A 
ATOM     43  C   UNL     1       2.785   6.397  10.449  1.00  0.00     0.031 A 
ATOM     44  C   UNL     1      -2.967   4.285  12.634  1.00  0.00     0.049 A 
ATOM     45  C   UNL     1       1.738   7.000  11.343  1.00  0.00     0.074 A 
ATOM     46  C   UNL     1      -3.831   4.911  13.516  1.00  0.00     0.029 A 
ATOM     47  N   UNL     1      -1.890   5.137  12.454  1.00  0.00    -0.354 N 
ATOM     48  N   UNL     1       0.602   6.487  11.746  1.00  0.00    -0.248 NA
ATOM     49  C   UNL     1       2.005   8.352  11.856  1.00  0.00     0.031 C 
ATOM     50  C   UNL     1      -3.294   6.162  13.839  1.00  0.00     0.029 A 
ATOM     51  C   UNL     1      -2.076   6.293  13.193  1.00  0.00     0.049 A 
ATOM     52  H   UNL     1      -1.109   4.949  11.885  1.00  0.00     0.167 HD
ATOM     53  C   UNL     1       0.032   7.440  12.580  1.00  0.00     0.074 A 
ATOM     54  C   UNL     1       0.953   8.556  12.636  1.00  0.00     0.031 C 
ATOM     55  C   UNL     1      -1.150   7.394  13.241  1.00  0.00     0.031 A 
BRANCH  42  56
ATOM     56  C   UNL     1      -4.381   2.234  12.232  1.00  0.00    -0.014 A 
ATOM     57  C   UNL     1      -4.394   1.085  13.039  1.00  0.00     0.009 A 
ATOM     58  C   UNL     1      -5.585   2.684  11.668  1.00  0.00     0.009 A 
ATOM     59  C   UNL     1      -5.582   0.383  13.249  1.00  0.00     0.001 A 
ATOM     60  C   UNL     1      -6.776   1.995  11.901  1.00  0.00     0.001 A 
ATOM     61  C   UNL     1      -6.772   0.841  12.684  1.00  0.00     0.000 A 
ENDBRANCH  42  56
BRANCH  43  62
ATOM     62  C   UNL     1       4.017   7.157  10.115  1.00  0.00    -0.014 A 
ATOM     63  C   UNL     1       5.007   7.369  11.088  1.00  0.00     0.009 A 
ATOM     64  C   UNL     1       4.203   7.686   8.829  1.00  0.00     0.009 A 
ATOM     65  C   UNL     1       6.145   8.120  10.786  1.00  0.00     0.001 A 
ATOM     66  C   UNL     1       5.355   8.415   8.524  1.00  0.00     0.001 A 
ATOM     67  C   UNL     1       6.320   8.639   9.505  1.00  0.00     0.000 A 
ENDBRANCH  43  62
BRANCH  55  68
ATOM     68  C   UNL     1      -1.500   8.569  14.107  1.00  0.00    -0.014 A 
ATOM     69  C   UNL     1      -1.915   9.787  13.547  1.00  0.00     0.009 A 
ATOM     70  C   UNL     1      -1.454   8.440  15.504  1.00  0.00     0.009 A 
ATOM     71  C   UNL     1      -2.251  10.863  14.371  1.00  0.00     0.001 A 
ATOM     72  C   UNL     1      -1.813   9.510  16.325  1.00  0.00     0.001 A 
ATOM     73  C   UNL     1      -2.204  10.722  15.758  1.00  0.00     0.000 A 
ENDBRANCH  55  68
ENDBRANCH  29  30
ENDBRANCH  21  24
ENDBRANCH  19  20
ENDBRANCH   1  19
TORSDOF 12
