REMARK SMILES CC(C)[C@H](NC(=O)[C@H](Cc1ccccc1)n1c(=O)[nH]c2ccccc2c1=O)C(=O)NCCCCNC(=O)c1ccc(-c2c3nc(c(-c4ccccc4)c4ccc([nH]4)c(-c4ccccc4)c4nc(c(-c5ccccc5)c5ccc2[nH]5)C=C4)C=C3)cc1
REMARK SMILES IDX 31 1 30 2 28 3 29 4 4 6 2 7 1 8 3 9 5 10 6 11 7 13 8 14
REMARK SMILES IDX 16 15 17 16 26 17 18 18 19 19 25 20 27 21 20 22 24 24 21 25
REMARK SMILES IDX 23 26 22 27 9 28 10 29 11 30 15 31 12 32 14 33 13 34 32 35
REMARK SMILES IDX 33 36 34 37 35 38 36 39 37 41 38 42 39 43 85 44 40 45 84 46
REMARK SMILES IDX 41 47 42 48 43 49 78 50 44 51 83 52 77 53 79 54 45 55 82 56
REMARK SMILES IDX 76 57 75 58 46 60 68 61 53 62 67 63 54 64 57 65 66 66 80 67
REMARK SMILES IDX 55 68 56 69 65 71 81 72 58 73 47 74 48 75 52 76 49 77 51 78
REMARK SMILES IDX 50 79 69 80 70 81 74 82 71 83 73 84 72 85 59 86 60 87 64 88
REMARK SMILES IDX 61 89 63 90 62 91
REMARK H PARENT 30 5 5 12 19 23 35 40 79 59 57 70
REMARK Flexibility Score: inf
ROOT
ATOM      1  C   UNL     1      -0.593  -0.825  -0.792  1.00  0.00     0.116 C 
ENDROOT
BRANCH   1   2
ATOM      2  N   UNL     1      -0.556   0.756  -0.671  1.00  0.00    -0.354 N 
ATOM      3  C   UNL     1      -1.200   1.740  -1.324  1.00  0.00     0.242 C 
ATOM      4  O   UNL     1      -1.024   2.893  -0.906  1.00  0.00    -0.273 OA
ATOM      5  H   UNL     1       0.063   1.083   0.021  1.00  0.00     0.163 HD
BRANCH   3   6
ATOM      6  C   UNL     1      -2.321   1.448  -2.325  1.00  0.00     0.173 C 
BRANCH   6   7
ATOM      7  C   UNL     1      -3.647   1.248  -1.486  1.00  0.00     0.015 C 
ATOM      8  C   UNL     1      -4.212  -0.177  -1.438  1.00  0.00     0.010 C 
ATOM      9  C   UNL     1      -3.573   1.770  -0.032  1.00  0.00     0.010 C 
ENDBRANCH   6   7
BRANCH   6  10
ATOM     10  N   UNL     1      -2.100   0.422  -3.357  1.00  0.00    -0.342 N 
ATOM     11  C   UNL     1      -1.179   0.273  -4.353  1.00  0.00     0.244 C 
ATOM     12  H   UNL     1      -2.755  -0.313  -3.320  1.00  0.00     0.164 HD
ATOM     13  O   UNL     1      -1.455  -0.588  -5.201  1.00  0.00    -0.273 OA
BRANCH  11  14
ATOM     14  C   UNL     1       0.194   0.973  -4.406  1.00  0.00     0.189 C 
BRANCH  14  15
ATOM     15  N   UNL     1      -0.080   2.428  -4.573  1.00  0.00    -0.247 N 
ATOM     16  C   UNL     1       0.059   3.325  -3.547  1.00  0.00     0.329 A 
ATOM     17  C   UNL     1      -0.471   2.894  -5.835  1.00  0.00     0.264 A 
ATOM     18  O   UNL     1       0.942   3.271  -2.699  1.00  0.00    -0.248 OA
ATOM     19  N   UNL     1      -0.868   4.338  -3.519  1.00  0.00    -0.307 N 
ATOM     20  C   UNL     1      -1.099   4.240  -5.888  1.00  0.00     0.064 A 
ATOM     21  O   UNL     1      -0.351   2.257  -6.878  1.00  0.00    -0.268 OA
ATOM     22  C   UNL     1      -1.459   4.826  -4.680  1.00  0.00     0.055 A 
ATOM     23  H   UNL     1      -1.122   4.731  -2.652  1.00  0.00     0.171 HD
ATOM     24  C   UNL     1      -1.345   4.921  -7.083  1.00  0.00     0.016 A 
ATOM     25  C   UNL     1      -2.226   5.990  -4.647  1.00  0.00     0.027 A 
ATOM     26  C   UNL     1      -1.998   6.159  -7.049  1.00  0.00     0.001 A 
ATOM     27  C   UNL     1      -2.483   6.666  -5.840  1.00  0.00     0.002 A 
ENDBRANCH  14  15
BRANCH  14  28
ATOM     28  C   UNL     1       1.247   0.407  -3.370  1.00  0.00     0.071 C 
BRANCH  28  29
ATOM     29  C   UNL     1       0.864  -0.617  -2.290  1.00  0.00    -0.045 A 
ATOM     30  C   UNL     1      -0.324  -1.944  -2.602  1.00  0.00     0.004 A 
ATOM     31  C   UNL     1       1.431  -0.313  -0.593  1.00  0.00     0.004 A 
ATOM     32  C   UNL     1      -1.041  -2.866  -1.234  1.00  0.00     0.000 A 
ATOM     33  C   UNL     1       0.672  -1.227   0.786  1.00  0.00     0.000 A 
ATOM     34  C   UNL     1      -0.537  -2.531   0.462  1.00  0.00     0.000 A 
ENDBRANCH  28  29
ENDBRANCH  14  28
ENDBRANCH  11  14
ENDBRANCH   6  10
ENDBRANCH   3   6
ENDBRANCH   1   2
BRANCH   1  35
ATOM     35  C   UNL     1       1.009  -2.300  -0.974  1.00  0.00     0.023 C 
BRANCH  35  36
ATOM     36  C   UNL     1       2.593  -2.524  -0.380  1.00  0.00     0.023 C 
BRANCH  36  37
ATOM     37  C   UNL     1       2.909  -2.779   1.086  1.00  0.00     0.116 C 
BRANCH  37  38
ATOM     38  N   UNL     1       2.021  -3.706   1.782  1.00  0.00    -0.352 N 
ATOM     39  C   UNL     1       2.218  -4.262   3.023  1.00  0.00     0.251 C 
ATOM     40  H   UNL     1       1.193  -3.959   1.312  1.00  0.00     0.163 HD
ATOM     41  O   UNL     1       1.378  -4.942   3.593  1.00  0.00    -0.269 OA
BRANCH  39  42
ATOM     42  C   UNL     1       3.560  -4.066   3.581  1.00  0.00     0.039 A 
ATOM     43  C   UNL     1       4.462  -5.120   3.423  1.00  0.00     0.014 A 
ATOM     44  C   UNL     1       3.976  -2.764   3.857  1.00  0.00     0.014 A 
ATOM     45  C   UNL     1       5.821  -4.846   3.472  1.00  0.00     0.010 A 
ATOM     46  C   UNL     1       5.328  -2.480   3.780  1.00  0.00     0.010 A 
ATOM     47  C   UNL     1       6.259  -3.519   3.603  1.00  0.00    -0.014 A 
BRANCH  47  48
ATOM     48  C   UNL     1       7.702  -3.207   3.635  1.00  0.00     0.031 A 
ATOM     49  C   UNL     1       8.270  -2.617   4.891  1.00  0.00     0.074 A 
ATOM     50  C   UNL     1       8.475  -3.436   2.556  1.00  0.00     0.049 A 
ATOM     51  N   UNL     1       9.495  -2.245   5.148  1.00  0.00    -0.248 NA
ATOM     52  C   UNL     1       7.325  -2.378   5.998  1.00  0.00     0.031 C 
ATOM     53  C   UNL     1       8.015  -3.978   1.274  1.00  0.00     0.029 A 
ATOM     54  N   UNL     1       9.821  -3.254   2.374  1.00  0.00    -0.354 N 
ATOM     55  C   UNL     1       9.456  -1.716   6.430  1.00  0.00     0.074 A 
ATOM     56  C   UNL     1       8.080  -1.726   6.863  1.00  0.00     0.031 C 
ATOM     57  C   UNL     1       9.073  -4.135   0.459  1.00  0.00     0.029 A 
ATOM     58  C   UNL     1      10.273  -3.665   1.143  1.00  0.00     0.049 A 
ATOM     59  H   UNL     1      10.410  -2.865   3.062  1.00  0.00     0.167 HD
ATOM     60  C   UNL     1      10.483  -1.297   7.201  1.00  0.00     0.031 A 
ATOM     61  C   UNL     1      11.520  -3.666   0.636  1.00  0.00     0.031 A 
ATOM     62  C   UNL     1      11.850  -1.310   6.767  1.00  0.00     0.049 A 
ATOM     63  C   UNL     1      12.645  -3.157   1.499  1.00  0.00     0.074 A 
ATOM     64  C   UNL     1      12.982  -0.947   7.470  1.00  0.00     0.029 A 
ATOM     65  N   UNL     1      12.264  -1.712   5.505  1.00  0.00    -0.354 N 
ATOM     66  N   UNL     1      12.606  -2.719   2.735  1.00  0.00    -0.248 NA
ATOM     67  C   UNL     1      13.986  -3.149   0.899  1.00  0.00     0.031 C 
ATOM     68  C   UNL     1      14.078  -1.072   6.612  1.00  0.00     0.029 A 
ATOM     69  C   UNL     1      13.635  -1.578   5.398  1.00  0.00     0.049 A 
ATOM     70  H   UNL     1      11.670  -2.043   4.793  1.00  0.00     0.167 HD
ATOM     71  C   UNL     1      13.918  -2.411   3.071  1.00  0.00     0.074 A 
ATOM     72  C   UNL     1      14.729  -2.730   1.913  1.00  0.00     0.031 C 
ATOM     73  C   UNL     1      14.411  -1.909   4.230  1.00  0.00     0.031 A 
BRANCH  60  74
ATOM     74  C   UNL     1      10.145  -0.791   8.575  1.00  0.00    -0.014 A 
ATOM     75  C   UNL     1       9.631  -1.649   9.563  1.00  0.00     0.009 A 
ATOM     76  C   UNL     1      10.319   0.566   8.880  1.00  0.00     0.009 A 
ATOM     77  C   UNL     1       9.251  -1.147  10.809  1.00  0.00     0.001 A 
ATOM     78  C   UNL     1       9.974   1.058  10.140  1.00  0.00     0.001 A 
ATOM     79  C   UNL     1       9.428   0.204  11.098  1.00  0.00     0.000 A 
ENDBRANCH  60  74
BRANCH  61  80
ATOM     80  C   UNL     1      11.779  -4.181  -0.736  1.00  0.00    -0.014 A 
ATOM     81  C   UNL     1      12.516  -5.360  -0.929  1.00  0.00     0.009 A 
ATOM     82  C   UNL     1      11.302  -3.492  -1.862  1.00  0.00     0.009 A 
ATOM     83  C   UNL     1      12.794  -5.821  -2.219  1.00  0.00     0.001 A 
ATOM     84  C   UNL     1      11.555  -3.972  -3.150  1.00  0.00     0.001 A 
ATOM     85  C   UNL     1      12.310  -5.130  -3.328  1.00  0.00     0.000 A 
ENDBRANCH  61  80
BRANCH  73  86
ATOM     86  C   UNL     1      15.897  -1.707   4.314  1.00  0.00    -0.014 A 
ATOM     87  C   UNL     1      16.534  -0.678   3.604  1.00  0.00     0.009 A 
ATOM     88  C   UNL     1      16.657  -2.518   5.172  1.00  0.00     0.009 A 
ATOM     89  C   UNL     1      17.910  -0.486   3.730  1.00  0.00     0.001 A 
ATOM     90  C   UNL     1      18.025  -2.300   5.322  1.00  0.00     0.001 A 
ATOM     91  C   UNL     1      18.652  -1.291   4.595  1.00  0.00     0.000 A 
ENDBRANCH  73  86
ENDBRANCH  47  48
ENDBRANCH  39  42
ENDBRANCH  37  38
ENDBRANCH  36  37
ENDBRANCH  35  36
ENDBRANCH   1  35
TORSDOF 17
