REMARK SMILES C[C@@H](CO)CCCC[C@@H](C)C(=O)NCCCCNC(=O)c1ccc(-c2c3nc(c(-c4ccccc4)c4ccc([nH]4)c(-c4ccccc4)c4nc(c(-c5ccccc5)c5ccc2[nH]5)C=C4)C=C3)cc1
REMARK SMILES IDX 11 1 12 2 13 3 9 5 10 6 8 7 7 8 6 9 5 10 2 11 1 12 3 13 4 14
REMARK SMILES IDX 14 16 15 17 16 18 17 19 18 20 19 21 20 23 21 24 22 25 68 26
REMARK SMILES IDX 23 27 67 28 24 29 25 30 26 31 61 32 27 33 66 34 60 35 62 36
REMARK SMILES IDX 28 37 65 38 59 39 58 40 29 42 51 43 36 44 50 45 37 46 40 47
REMARK SMILES IDX 49 48 63 49 38 50 39 51 48 53 64 54 41 55 30 56 31 57 35 58
REMARK SMILES IDX 32 59 34 60 33 61 52 62 53 63 57 64 54 65 56 66 55 67 42 68
REMARK SMILES IDX 43 69 47 70 44 71 46 72 45 73
REMARK H PARENT 13 4 4 15 18 22 62 41 40 52
REMARK Flexibility Score: inf
ROOT
ATOM      1  C   UNL     1      -3.639   0.458   5.053  1.00  0.00     0.222 C 
ATOM      2  O   UNL     1      -4.320   1.480   4.929  1.00  0.00    -0.275 OA
ATOM      3  N   UNL     1      -3.339   0.061   6.317  1.00  0.00    -0.356 N 
ATOM      4  H   UNL     1      -3.763   0.598   7.025  1.00  0.00     0.163 HD
ENDROOT
BRANCH   1   5
ATOM      5  C   UNL     1      -3.206  -0.338   3.824  1.00  0.00     0.075 C 
ATOM      6  C   UNL     1      -3.939  -1.678   3.768  1.00  0.00     0.018 C 
BRANCH   5   7
ATOM      7  C   UNL     1      -1.678  -0.419   3.665  1.00  0.00     0.013 C 
BRANCH   7   8
ATOM      8  C   UNL     1      -1.192  -1.189   2.433  1.00  0.00     0.001 C 
BRANCH   8   9
ATOM      9  C   UNL     1      -1.573  -0.562   1.092  1.00  0.00     0.000 C 
BRANCH   9  10
ATOM     10  C   UNL     1      -1.024   0.852   0.861  1.00  0.00     0.005 C 
BRANCH  10  11
ATOM     11  C   UNL     1       0.510   0.987   0.963  1.00  0.00     0.011 C 
ATOM     12  C   UNL     1       1.219   0.118  -0.080  1.00  0.00     0.010 C 
BRANCH  11  13
ATOM     13  C   UNL     1       0.939   2.457   0.840  1.00  0.00     0.159 C 
BRANCH  13  14
ATOM     14  O   UNL     1       0.492   3.046  -0.373  1.00  0.00    -0.396 OA
ATOM     15  H   UNL     1       0.881   2.572  -1.125  1.00  0.00     0.210 HD
ENDBRANCH  13  14
ENDBRANCH  11  13
ENDBRANCH  10  11
ENDBRANCH   9  10
ENDBRANCH   8   9
ENDBRANCH   7   8
ENDBRANCH   5   7
ENDBRANCH   1   5
BRANCH   3  16
ATOM     16  C   UNL     1      -2.501  -1.016   6.801  1.00  0.00     0.116 C 
BRANCH  16  17
ATOM     17  C   UNL     1      -1.172  -0.482   7.334  1.00  0.00     0.023 C 
BRANCH  17  18
ATOM     18  C   UNL     1      -1.290   0.300   8.645  1.00  0.00     0.023 C 
BRANCH  18  19
ATOM     19  C   UNL     1      -2.003  -0.439   9.771  1.00  0.00     0.116 C 
BRANCH  19  20
ATOM     20  N   UNL     1      -1.425  -1.744  10.049  1.00  0.00    -0.352 N 
ATOM     21  C   UNL     1      -1.240  -2.369  11.255  1.00  0.00     0.251 C 
ATOM     22  H   UNL     1      -1.125  -2.251   9.260  1.00  0.00     0.163 HD
ATOM     23  O   UNL     1      -0.614  -3.425  11.310  1.00  0.00    -0.269 OA
BRANCH  21  24
ATOM     24  C   UNL     1      -1.762  -1.754  12.491  1.00  0.00     0.039 A 
ATOM     25  C   UNL     1      -0.940  -1.724  13.619  1.00  0.00     0.014 A 
ATOM     26  C   UNL     1      -3.047  -1.206  12.542  1.00  0.00     0.014 A 
ATOM     27  C   UNL     1      -1.388  -1.099  14.782  1.00  0.00     0.010 A 
ATOM     28  C   UNL     1      -3.461  -0.511  13.675  1.00  0.00     0.010 A 
ATOM     29  C   UNL     1      -2.640  -0.460  14.810  1.00  0.00    -0.014 A 
BRANCH  29  30
ATOM     30  C   UNL     1      -3.086   0.264  16.025  1.00  0.00     0.031 A 
ATOM     31  C   UNL     1      -4.285  -0.207  16.800  1.00  0.00     0.074 A 
ATOM     32  C   UNL     1      -2.414   1.363  16.421  1.00  0.00     0.049 A 
ATOM     33  N   UNL     1      -4.782   0.267  17.916  1.00  0.00    -0.248 NA
ATOM     34  C   UNL     1      -5.039  -1.341  16.242  1.00  0.00     0.031 C 
ATOM     35  C   UNL     1      -1.271   1.955  15.722  1.00  0.00     0.029 A 
ATOM     36  N   UNL     1      -2.589   2.171  17.515  1.00  0.00    -0.354 N 
ATOM     37  C   UNL     1      -5.905  -0.505  18.186  1.00  0.00     0.074 A 
ATOM     38  C   UNL     1      -6.052  -1.437  17.090  1.00  0.00     0.031 C 
ATOM     39  C   UNL     1      -0.816   3.000  16.431  1.00  0.00     0.029 A 
ATOM     40  C   UNL     1      -1.654   3.173  17.613  1.00  0.00     0.049 A 
ATOM     41  H   UNL     1      -3.315   2.046  18.168  1.00  0.00     0.167 HD
ATOM     42  C   UNL     1      -6.726  -0.461  19.262  1.00  0.00     0.031 A 
ATOM     43  C   UNL     1      -1.482   4.117  18.556  1.00  0.00     0.031 A 
ATOM     44  C   UNL     1      -6.579   0.466  20.353  1.00  0.00     0.049 A 
ATOM     45  C   UNL     1      -2.404   4.141  19.743  1.00  0.00     0.074 A 
ATOM     46  C   UNL     1      -7.327   0.559  21.514  1.00  0.00     0.029 A 
ATOM     47  N   UNL     1      -5.621   1.466  20.415  1.00  0.00    -0.354 N 
ATOM     48  N   UNL     1      -3.409   3.350  20.026  1.00  0.00    -0.248 NA
ATOM     49  C   UNL     1      -2.150   5.180  20.751  1.00  0.00     0.031 C 
ATOM     50  C   UNL     1      -6.855   1.649  22.253  1.00  0.00     0.029 A 
ATOM     51  C   UNL     1      -5.772   2.195  21.583  1.00  0.00     0.049 A 
ATOM     52  H   UNL     1      -4.934   1.633  19.729  1.00  0.00     0.167 HD
ATOM     53  C   UNL     1      -3.891   3.776  21.258  1.00  0.00     0.074 A 
ATOM     54  C   UNL     1      -3.050   4.879  21.675  1.00  0.00     0.031 C 
ATOM     55  C   UNL     1      -4.934   3.297  21.979  1.00  0.00     0.031 A 
BRANCH  42  56
ATOM     56  C   UNL     1      -7.863  -1.446  19.305  1.00  0.00    -0.014 A 
ATOM     57  C   UNL     1      -7.630  -2.820  19.481  1.00  0.00     0.009 A 
ATOM     58  C   UNL     1      -9.187  -0.992  19.200  1.00  0.00     0.009 A 
ATOM     59  C   UNL     1      -8.696  -3.722  19.511  1.00  0.00     0.001 A 
ATOM     60  C   UNL     1     -10.252  -1.893  19.262  1.00  0.00     0.001 A 
ATOM     61  C   UNL     1     -10.006  -3.257  19.406  1.00  0.00     0.000 A 
ENDBRANCH  42  56
BRANCH  43  62
ATOM     62  C   UNL     1      -0.369   5.096  18.438  1.00  0.00    -0.014 A 
ATOM     63  C   UNL     1       0.725   5.043  19.315  1.00  0.00     0.009 A 
ATOM     64  C   UNL     1      -0.400   6.093  17.451  1.00  0.00     0.009 A 
ATOM     65  C   UNL     1       1.749   5.988  19.228  1.00  0.00     0.001 A 
ATOM     66  C   UNL     1       0.642   7.018  17.346  1.00  0.00     0.001 A 
ATOM     67  C   UNL     1       1.709   6.971  18.241  1.00  0.00     0.000 A 
ENDBRANCH  43  62
BRANCH  55  68
ATOM     68  C   UNL     1      -5.198   3.949  23.309  1.00  0.00    -0.014 A 
ATOM     69  C   UNL     1      -5.691   5.260  23.398  1.00  0.00     0.009 A 
ATOM     70  C   UNL     1      -4.955   3.233  24.491  1.00  0.00     0.009 A 
ATOM     71  C   UNL     1      -5.886   5.858  24.645  1.00  0.00     0.001 A 
ATOM     72  C   UNL     1      -5.184   3.821  25.736  1.00  0.00     0.001 A 
ATOM     73  C   UNL     1      -5.635   5.137  25.811  1.00  0.00     0.000 A 
ENDBRANCH  55  68
ENDBRANCH  29  30
ENDBRANCH  21  24
ENDBRANCH  19  20
ENDBRANCH  18  19
ENDBRANCH  17  18
ENDBRANCH  16  17
ENDBRANCH   3  16
TORSDOF 18
