REMARK SMILES O=C(NCCCCNC(=O)c1ccc([C@@H]2CC(O)=Nc3c2c(=O)[nH]n3C2CCCCCCC2)cc1)c1ccc(-c2c3nc(c(-c4ccccc4)c4ccc([nH]4)c(-c4ccccc4)c4nc(c(-c5ccccc5)c5ccc2[nH]5)C=C4)C=C3)cc1
REMARK SMILES IDX 8 1 9 2 10 3 7 5 6 6 5 7 4 8 3 9 1 10 2 11 36 13 37 14 83 15
REMARK SMILES IDX 38 16 82 17 39 18 40 19 41 20 76 21 42 22 81 23 75 24 77 25
REMARK SMILES IDX 43 26 80 27 74 28 73 29 44 31 66 32 51 33 65 34 52 35 55 36
REMARK SMILES IDX 64 37 78 38 53 39 54 40 63 42 79 43 56 44 45 45 46 46 50 47
REMARK SMILES IDX 47 48 49 49 48 50 67 51 68 52 72 53 69 54 71 55 70 56 57 57
REMARK SMILES IDX 58 58 62 59 59 60 61 61 60 62 11 63 12 64 35 65 13 66 34 67
REMARK SMILES IDX 14 68 15 69 16 70 21 71 17 72 20 73 22 74 19 75 25 76 23 77
REMARK SMILES IDX 24 78 18 80 26 82 27 83 28 84 29 85 30 86 31 87 33 89 32 90
REMARK H PARENT 8 4 3 12 77 30 55 41 24 79 18 81
REMARK Flexibility Score: 80.00
ROOT
ATOM      1  N   UNL     1       6.482   2.714  -3.114  1.00  0.00    -0.352 N 
ATOM      2  C   UNL     1       7.310   3.455  -3.922  1.00  0.00     0.251 C 
ATOM      3  O   UNL     1       8.529   3.369  -3.816  1.00  0.00    -0.269 OA
ATOM      4  H   UNL     1       6.930   2.214  -2.394  1.00  0.00     0.163 HD
ENDROOT
BRANCH   1   5
ATOM      5  C   UNL     1       5.034   2.564  -3.173  1.00  0.00     0.116 C 
BRANCH   5   6
ATOM      6  C   UNL     1       4.595   1.109  -3.300  1.00  0.00     0.023 C 
BRANCH   6   7
ATOM      7  C   UNL     1       5.050   0.182  -2.170  1.00  0.00     0.023 C 
BRANCH   7   8
ATOM      8  C   UNL     1       4.734   0.676  -0.759  1.00  0.00     0.116 C 
BRANCH   8   9
ATOM      9  N   UNL     1       3.326   0.899  -0.508  1.00  0.00    -0.352 N 
ATOM     10  O   UNL     1       1.273   0.721   0.279  1.00  0.00    -0.269 OA
ATOM     11  C   UNL     1       2.309   0.125  -0.027  1.00  0.00     0.251 C 
ATOM     12  H   UNL     1       3.038   1.812  -0.736  1.00  0.00     0.163 HD
BRANCH  11  13
ATOM     13  C   UNL     1       2.331  -1.360   0.068  1.00  0.00     0.039 A 
ATOM     14  C   UNL     1       3.429  -2.186  -0.176  1.00  0.00     0.014 A 
ATOM     15  C   UNL     1       1.089  -1.960   0.352  1.00  0.00     0.014 A 
ATOM     16  C   UNL     1       3.267  -3.567  -0.253  1.00  0.00     0.010 A 
ATOM     17  C   UNL     1       0.922  -3.335   0.285  1.00  0.00     0.010 A 
ATOM     18  C   UNL     1       2.004  -4.133  -0.070  1.00  0.00    -0.014 A 
BRANCH  18  19
ATOM     19  C   UNL     1       1.877  -5.586  -0.082  1.00  0.00     0.031 A 
ATOM     20  C   UNL     1       2.586  -6.260   1.046  1.00  0.00     0.074 A 
ATOM     21  C   UNL     1       1.065  -6.247  -0.934  1.00  0.00     0.049 A 
ATOM     22  N   UNL     1       3.514  -7.157   0.982  1.00  0.00    -0.248 NA
ATOM     23  C   UNL     1       2.311  -5.784   2.414  1.00  0.00     0.031 C 
ATOM     24  C   UNL     1       0.118  -5.678  -1.898  1.00  0.00     0.029 A 
ATOM     25  N   UNL     1       0.824  -7.585  -1.035  1.00  0.00    -0.354 N 
ATOM     26  C   UNL     1       3.816  -7.495   2.301  1.00  0.00     0.074 A 
ATOM     27  C   UNL     1       3.156  -6.523   3.133  1.00  0.00     0.031 C 
ATOM     28  C   UNL     1      -0.755  -6.635  -2.289  1.00  0.00     0.029 A 
ATOM     29  C   UNL     1      -0.350  -7.906  -1.713  1.00  0.00     0.049 A 
ATOM     30  H   UNL     1       1.428  -8.266  -0.661  1.00  0.00     0.167 HD
ATOM     31  C   UNL     1       4.385  -8.691   2.618  1.00  0.00     0.031 A 
ATOM     32  C   UNL     1      -0.976  -9.112  -1.744  1.00  0.00     0.031 A 
ATOM     33  C   UNL     1       5.022  -9.293   1.477  1.00  0.00     0.049 A 
ATOM     34  C   UNL     1       0.005 -10.137  -1.324  1.00  0.00     0.074 A 
ATOM     35  C   UNL     1       6.058  -8.942   0.636  1.00  0.00     0.029 A 
ATOM     36  N   UNL     1       4.331 -10.287   0.828  1.00  0.00    -0.354 N 
ATOM     37  N   UNL     1       1.046 -10.463  -2.033  1.00  0.00    -0.248 NA
ATOM     38  C   UNL     1       0.083 -10.457   0.092  1.00  0.00     0.031 C 
ATOM     39  C   UNL     1       5.642  -9.379  -0.656  1.00  0.00     0.029 A 
ATOM     40  C   UNL     1       4.420 -10.037  -0.514  1.00  0.00     0.049 A 
ATOM     41  H   UNL     1       3.860 -11.040   1.251  1.00  0.00     0.167 HD
ATOM     42  C   UNL     1       2.069 -10.594  -1.107  1.00  0.00     0.074 A 
ATOM     43  C   UNL     1       1.399 -10.665   0.193  1.00  0.00     0.031 C 
ATOM     44  C   UNL     1       3.365 -10.343  -1.452  1.00  0.00     0.031 A 
BRANCH  31  45
ATOM     45  C   UNL     1       3.950  -9.514   3.811  1.00  0.00    -0.014 A 
ATOM     46  C   UNL     1       4.517 -10.792   3.982  1.00  0.00     0.009 A 
ATOM     47  C   UNL     1       2.797  -9.232   4.567  1.00  0.00     0.009 A 
ATOM     48  C   UNL     1       3.891 -11.770   4.765  1.00  0.00     0.001 A 
ATOM     49  C   UNL     1       2.191 -10.194   5.382  1.00  0.00     0.001 A 
ATOM     50  C   UNL     1       2.718 -11.474   5.450  1.00  0.00     0.000 A 
ENDBRANCH  31  45
BRANCH  32  51
ATOM     51  C   UNL     1      -2.427  -9.411  -1.798  1.00  0.00    -0.014 A 
ATOM     52  C   UNL     1      -2.895 -10.693  -2.137  1.00  0.00     0.009 A 
ATOM     53  C   UNL     1      -3.349  -8.513  -1.230  1.00  0.00     0.009 A 
ATOM     54  C   UNL     1      -4.224 -11.068  -1.886  1.00  0.00     0.001 A 
ATOM     55  C   UNL     1      -4.675  -8.887  -0.980  1.00  0.00     0.001 A 
ATOM     56  C   UNL     1      -5.109 -10.170  -1.295  1.00  0.00     0.000 A 
ENDBRANCH  32  51
BRANCH  44  57
ATOM     57  C   UNL     1       3.682 -10.129  -2.911  1.00  0.00    -0.014 A 
ATOM     58  C   UNL     1       3.146  -9.074  -3.672  1.00  0.00     0.009 A 
ATOM     59  C   UNL     1       4.676 -10.930  -3.490  1.00  0.00     0.009 A 
ATOM     60  C   UNL     1       3.575  -8.850  -4.985  1.00  0.00     0.001 A 
ATOM     61  C   UNL     1       5.119 -10.693  -4.792  1.00  0.00     0.001 A 
ATOM     62  C   UNL     1       4.566  -9.657  -5.541  1.00  0.00     0.000 A 
ENDBRANCH  44  57
ENDBRANCH  18  19
ENDBRANCH  11  13
ENDBRANCH   8   9
ENDBRANCH   7   8
ENDBRANCH   6   7
ENDBRANCH   5   6
ENDBRANCH   1   5
BRANCH   2  63
ATOM     63  C   UNL     1       6.719   4.338  -4.944  1.00  0.00     0.039 A 
ATOM     64  C   UNL     1       7.107   4.186  -6.275  1.00  0.00     0.014 A 
ATOM     65  C   UNL     1       5.748   5.275  -4.589  1.00  0.00     0.014 A 
ATOM     66  C   UNL     1       6.442   4.902  -7.271  1.00  0.00     0.005 A 
ATOM     67  C   UNL     1       5.074   5.974  -5.584  1.00  0.00     0.005 A 
ATOM     68  C   UNL     1       5.394   5.776  -6.939  1.00  0.00    -0.040 A 
BRANCH  68  69
ATOM     69  C   UNL     1       4.585   6.434  -8.045  1.00  0.00     0.068 C 
ATOM     70  C   UNL     1       4.619   7.971  -7.951  1.00  0.00     0.110 C 
ATOM     71  C   UNL     1       3.178   5.982  -8.024  1.00  0.00     0.071 A 
ATOM     72  C   UNL     1       3.473   8.496  -7.125  1.00  0.00     0.188 C 
ATOM     73  C   UNL     1       2.156   6.693  -7.521  1.00  0.00     0.160 A 
ATOM     74  C   UNL     1       2.602   4.759  -8.605  1.00  0.00     0.270 A 
ATOM     75  N   UNL     1       2.346   7.905  -6.915  1.00  0.00    -0.198 NA
ATOM     76  N   UNL     1       0.961   6.034  -7.757  1.00  0.00    -0.264 N 
ATOM     77  O   UNL     1       3.229   3.856  -9.137  1.00  0.00    -0.268 OA
ATOM     78  N   UNL     1       1.237   4.853  -8.427  1.00  0.00    -0.262 N 
ATOM     79  H   UNL     1       0.571   4.192  -8.726  1.00  0.00     0.191 HD
BRANCH  72  80
ATOM     80  O   UNL     1       3.650   9.731  -6.623  1.00  0.00    -0.496 OA
ATOM     81  H   UNL     1       4.460  10.181  -6.762  1.00  0.00     0.294 HD
ENDBRANCH  72  80
BRANCH  76  82
ATOM     82  C   UNL     1      -0.404   6.564  -7.692  1.00  0.00     0.107 C 
BRANCH  82  83
ATOM     83  C   UNL     1      -0.703   7.011  -6.255  1.00  0.00     0.027 C 
BRANCH  83  84
ATOM     84  C   UNL     1      -2.026   7.724  -6.002  1.00  0.00     0.002 C 
BRANCH  84  85
ATOM     85  C   UNL     1      -2.207   9.117  -6.604  1.00  0.00     0.000 C 
BRANCH  85  86
ATOM     86  C   UNL     1      -0.937   9.951  -6.774  1.00  0.00     0.000 C 
BRANCH  86  87
ATOM     87  C   UNL     1      -0.499  10.090  -8.228  1.00  0.00     0.000 CG0
ATOM     88  G   UNL     1       0.052   8.866  -8.961  1.00  0.00     0.000 G0
ENDBRANCH  86  87
ENDBRANCH  85  86
ENDBRANCH  84  85
ENDBRANCH  83  84
ENDBRANCH  82  83
BRANCH  82  89
ATOM     89  C   UNL     1      -0.691   7.531  -8.863  1.00  0.00     0.027 C 
BRANCH  89  90
ATOM     90  C   UNL     1       0.052   8.866  -8.961  1.00  0.00     0.002 CG0
ATOM     91  G   UNL     1      -0.499  10.090  -8.228  1.00  0.00     0.000 G0
ENDBRANCH  89  90
ENDBRANCH  82  89
ENDBRANCH  76  82
ENDBRANCH  68  69
ENDBRANCH   2  63
TORSDOF 14
