REMARK SMILES CO[C@@H]1C[C@H](C(=O)NCCCCNC(=O)c2ccc(-c3c4nc(c(-c5ccccc5)c5ccc([nH]5)c(-c5ccccc5)c5nc(c(-c6ccccc6)c6ccc3[nH]6)C=C5)C=C4)cc2)N(C(=O)[C@H](CC(C)C)NC(N)=O)C1
REMARK SMILES IDX 9 1 8 2 6 3 7 4 5 6 3 7 4 8 76 9 64 10 2 11 1 12 65 13 66 14
REMARK SMILES IDX 67 15 72 16 73 17 74 19 75 20 68 23 69 24 70 25 71 26 10 27
REMARK SMILES IDX 11 28 12 29 13 30 14 31 15 33 16 34 17 35 63 36 18 37 62 38
REMARK SMILES IDX 19 39 20 40 21 41 56 42 22 43 61 44 55 45 57 46 23 47 60 48
REMARK SMILES IDX 54 49 53 50 24 52 46 53 31 54 45 55 32 56 35 57 44 58 58 59
REMARK SMILES IDX 33 60 34 61 43 63 59 64 36 65 25 66 26 67 30 68 27 69 29 70
REMARK SMILES IDX 28 71 47 72 48 73 52 74 49 75 51 76 50 77 37 78 38 79 42 80
REMARK SMILES IDX 39 81 41 82 40 83
REMARK H PARENT 8 5 72 18 74 21 74 22 13 32 57 51 35 62
REMARK Flexibility Score: inf
ROOT
ATOM      1  C   UNL     1      -4.128  -5.691  -0.145  1.00  0.00     0.116 C 
ENDROOT
BRANCH   1   2
ATOM      2  N   UNL     1      -3.232  -6.610  -0.815  1.00  0.00    -0.354 N 
ATOM      3  C   UNL     1      -3.282  -7.143  -2.064  1.00  0.00     0.242 C 
ATOM      4  O   UNL     1      -2.746  -8.252  -2.195  1.00  0.00    -0.273 OA
ATOM      5  H   UNL     1      -2.459  -6.896  -0.277  1.00  0.00     0.163 HD
BRANCH   3   6
ATOM      6  C   UNL     1      -3.971  -6.493  -3.294  1.00  0.00     0.177 C 
ATOM      7  C   UNL     1      -6.367  -6.155  -3.111  1.00  0.00     0.139 C 
ATOM      8  C   UNL     1      -5.317  -7.148  -3.603  1.00  0.00     0.069 C 
ATOM      9  C   UNL     1      -5.671  -4.791  -3.230  1.00  0.00     0.152 C 
ATOM     10  N   UNL     1      -4.238  -5.058  -3.331  1.00  0.00    -0.326 N 
BRANCH   7  11
ATOM     11  O   UNL     1      -6.740  -6.393  -1.758  1.00  0.00    -0.380 OA
ATOM     12  C   UNL     1      -7.595  -7.519  -1.583  1.00  0.00     0.195 C 
ENDBRANCH   7  11
BRANCH  10  13
ATOM     13  C   UNL     1      -3.393  -4.030  -3.710  1.00  0.00     0.246 C 
ATOM     14  O   UNL     1      -3.706  -2.852  -3.493  1.00  0.00    -0.272 OA
BRANCH  13  15
ATOM     15  C   UNL     1      -2.117  -4.346  -4.540  1.00  0.00     0.173 C 
BRANCH  15  16
ATOM     16  N   UNL     1      -2.071  -3.304  -5.576  1.00  0.00    -0.327 N 
ATOM     17  C   UNL     1      -1.780  -3.571  -6.873  1.00  0.00     0.312 C 
ATOM     18  H   UNL     1      -2.258  -2.373  -5.317  1.00  0.00     0.166 HD
ATOM     19  N   UNL     1      -1.681  -2.460  -7.637  1.00  0.00    -0.352 N 
ATOM     20  O   UNL     1      -1.601  -4.687  -7.339  1.00  0.00    -0.249 OA
ATOM     21  H   UNL     1      -1.830  -1.573  -7.237  1.00  0.00     0.161 HD
ATOM     22  H   UNL     1      -1.460  -2.538  -8.593  1.00  0.00     0.161 HD
ENDBRANCH  15  16
BRANCH  15  23
ATOM     23  C   UNL     1      -0.808  -4.282  -3.739  1.00  0.00     0.038 C 
BRANCH  23  24
ATOM     24  C   UNL     1      -0.426  -5.580  -3.013  1.00  0.00    -0.015 C 
ATOM     25  C   UNL     1      -0.154  -6.746  -3.967  1.00  0.00     0.007 C 
ATOM     26  C   UNL     1       0.793  -5.365  -2.117  1.00  0.00     0.007 C 
ENDBRANCH  23  24
ENDBRANCH  15  23
ENDBRANCH  13  15
ENDBRANCH  10  13
ENDBRANCH   3   6
ENDBRANCH   1   2
BRANCH   1  27
ATOM     27  C   UNL     1      -5.169  -6.488   0.643  1.00  0.00     0.023 C 
BRANCH  27  28
ATOM     28  C   UNL     1      -4.769  -6.825   2.074  1.00  0.00     0.023 C 
BRANCH  28  29
ATOM     29  C   UNL     1      -4.731  -5.625   3.009  1.00  0.00     0.116 C 
BRANCH  29  30
ATOM     30  N   UNL     1      -5.996  -4.905   3.094  1.00  0.00    -0.352 N 
ATOM     31  C   UNL     1      -6.609  -4.362   4.201  1.00  0.00     0.251 C 
ATOM     32  H   UNL     1      -6.478  -4.792   2.243  1.00  0.00     0.163 HD
ATOM     33  O   UNL     1      -7.716  -3.856   4.125  1.00  0.00    -0.269 OA
BRANCH  31  34
ATOM     34  C   UNL     1      -5.916  -4.451   5.502  1.00  0.00     0.039 A 
ATOM     35  C   UNL     1      -6.604  -4.970   6.599  1.00  0.00     0.014 A 
ATOM     36  C   UNL     1      -4.566  -4.111   5.602  1.00  0.00     0.014 A 
ATOM     37  C   UNL     1      -5.908  -5.236   7.779  1.00  0.00     0.010 A 
ATOM     38  C   UNL     1      -3.856  -4.468   6.739  1.00  0.00     0.010 A 
ATOM     39  C   UNL     1      -4.519  -5.035   7.838  1.00  0.00    -0.014 A 
BRANCH  39  40
ATOM     40  C   UNL     1      -3.732  -5.406   9.039  1.00  0.00     0.031 A 
ATOM     41  C   UNL     1      -2.974  -4.348   9.790  1.00  0.00     0.074 A 
ATOM     42  C   UNL     1      -3.629  -6.701   9.399  1.00  0.00     0.049 A 
ATOM     43  N   UNL     1      -2.155  -4.481  10.802  1.00  0.00    -0.248 NA
ATOM     44  C   UNL     1      -3.126  -2.962   9.317  1.00  0.00     0.031 C 
ATOM     45  C   UNL     1      -4.267  -7.830   8.716  1.00  0.00     0.029 A 
ATOM     46  N   UNL     1      -2.938  -7.286  10.430  1.00  0.00    -0.354 N 
ATOM     47  C   UNL     1      -1.671  -3.205  11.060  1.00  0.00     0.074 A 
ATOM     48  C   UNL     1      -2.244  -2.322  10.069  1.00  0.00     0.031 C 
ATOM     49  C   UNL     1      -3.969  -8.965   9.370  1.00  0.00     0.029 A 
ATOM     50  C   UNL     1      -3.090  -8.650  10.491  1.00  0.00     0.049 A 
ATOM     51  H   UNL     1      -2.386  -6.776  11.066  1.00  0.00     0.167 HD
ATOM     52  C   UNL     1      -0.843  -2.797  12.050  1.00  0.00     0.031 A 
ATOM     53  C   UNL     1      -2.579  -9.545  11.356  1.00  0.00     0.031 A 
ATOM     54  C   UNL     1      -0.305  -3.667  13.059  1.00  0.00     0.049 A 
ATOM     55  C   UNL     1      -1.688  -9.064  12.466  1.00  0.00     0.074 A 
ATOM     56  C   UNL     1       0.484  -3.342  14.147  1.00  0.00     0.029 A 
ATOM     57  N   UNL     1      -0.512  -5.037  13.106  1.00  0.00    -0.354 N 
ATOM     58  N   UNL     1      -1.292  -7.844  12.737  1.00  0.00    -0.248 NA
ATOM     59  C   UNL     1      -1.182 -10.083  13.396  1.00  0.00     0.031 C 
ATOM     60  C   UNL     1       0.783  -4.522  14.835  1.00  0.00     0.029 A 
ATOM     61  C   UNL     1       0.144  -5.574  14.199  1.00  0.00     0.049 A 
ATOM     62  H   UNL     1      -1.047  -5.550  12.458  1.00  0.00     0.167 HD
ATOM     63  C   UNL     1      -0.515  -7.944  13.883  1.00  0.00     0.074 A 
ATOM     64  C   UNL     1      -0.506  -9.342  14.263  1.00  0.00     0.031 C 
ATOM     65  C   UNL     1       0.135  -6.967  14.561  1.00  0.00     0.031 A 
BRANCH  52  66
ATOM     66  C   UNL     1      -0.479  -1.340  12.084  1.00  0.00    -0.014 A 
ATOM     67  C   UNL     1      -1.426  -0.363  12.432  1.00  0.00     0.009 A 
ATOM     68  C   UNL     1       0.829  -0.939  11.777  1.00  0.00     0.009 A 
ATOM     69  C   UNL     1      -1.081   0.990  12.428  1.00  0.00     0.001 A 
ATOM     70  C   UNL     1       1.179   0.413  11.803  1.00  0.00     0.001 A 
ATOM     71  C   UNL     1       0.222   1.376  12.117  1.00  0.00     0.000 A 
ENDBRANCH  52  66
BRANCH  53  72
ATOM     72  C   UNL     1      -2.923 -10.985  11.232  1.00  0.00    -0.014 A 
ATOM     73  C   UNL     1      -3.790 -11.586  12.158  1.00  0.00     0.009 A 
ATOM     74  C   UNL     1      -2.388 -11.767  10.198  1.00  0.00     0.009 A 
ATOM     75  C   UNL     1      -4.092 -12.946  12.067  1.00  0.00     0.001 A 
ATOM     76  C   UNL     1      -2.711 -13.122  10.094  1.00  0.00     0.001 A 
ATOM     77  C   UNL     1      -3.555 -13.712  11.034  1.00  0.00     0.000 A 
ENDBRANCH  53  72
BRANCH  65  78
ATOM     78  C   UNL     1       0.877  -7.371  15.801  1.00  0.00    -0.014 A 
ATOM     79  C   UNL     1       2.094  -8.064  15.726  1.00  0.00     0.009 A 
ATOM     80  C   UNL     1       0.370  -7.012  17.060  1.00  0.00     0.009 A 
ATOM     81  C   UNL     1       2.776  -8.416  16.892  1.00  0.00     0.001 A 
ATOM     82  C   UNL     1       1.067  -7.343  18.222  1.00  0.00     0.001 A 
ATOM     83  C   UNL     1       2.265  -8.051  18.137  1.00  0.00     0.000 A 
ENDBRANCH  65  78
ENDBRANCH  39  40
ENDBRANCH  31  34
ENDBRANCH  29  30
ENDBRANCH  28  29
ENDBRANCH  27  28
ENDBRANCH   1  27
TORSDOF 17
