REMARK SMILES O=C(NCCCCNC(=O)c1ccc(N2C(=O)C[C@H]([NH+]3CCN(c4ccc(F)cc4)CC3)C2=O)cc1)c1ccc(-c2c3nc(c(-c4ccccc4)c4ccc([nH]4)c(-c4ccccc4)c4nc(c(-c5ccccc5)c5ccc2[nH]5)C=C4)C=C3)cc1
REMARK SMILES IDX 6 1 5 2 4 3 3 4 1 5 2 6 37 8 38 9 84 10 39 11 83 12 40 13
REMARK SMILES IDX 41 14 42 15 77 16 43 17 82 18 76 19 78 20 44 21 81 22 75 23
REMARK SMILES IDX 74 24 45 26 67 27 52 28 66 29 53 30 56 31 65 32 79 33 54 34
REMARK SMILES IDX 55 35 64 37 80 38 57 39 46 40 47 41 51 42 48 43 50 44 49 45
REMARK SMILES IDX 68 46 69 47 73 48 70 49 72 50 71 51 58 52 59 53 63 54 60 55
REMARK SMILES IDX 62 56 61 57 7 58 8 59 9 60 10 62 11 63 12 64 36 65 13 66
REMARK SMILES IDX 35 67 14 68 15 69 16 70 33 71 17 72 18 73 19 74 34 75 20 76
REMARK SMILES IDX 21 77 32 78 22 80 31 81 23 82 24 83 25 84 30 85 26 86 29 87
REMARK SMILES IDX 27 88 28 89
REMARK H PARENT 3 7 78 25 56 36 8 61 20 79
REMARK Flexibility Score: inf
ROOT
ATOM      1  C   UNL     1       4.382  -3.405  -1.898  1.00  0.00     0.023 C 
ENDROOT
BRANCH   1   2
ATOM      2  C   UNL     1       4.828  -2.544  -0.722  1.00  0.00     0.023 C 
BRANCH   2   3
ATOM      3  C   UNL     1       4.494  -1.066  -0.849  1.00  0.00     0.116 C 
BRANCH   3   4
ATOM      4  N   UNL     1       3.063  -0.797  -0.888  1.00  0.00    -0.352 N 
ATOM      5  O   UNL     1       1.078   0.006  -0.162  1.00  0.00    -0.269 OA
ATOM      6  C   UNL     1       2.300  -0.010  -0.055  1.00  0.00     0.251 C 
ATOM      7  H   UNL     1       2.570  -1.244  -1.613  1.00  0.00     0.163 HD
BRANCH   6   8
ATOM      8  C   UNL     1       2.963   0.786   0.999  1.00  0.00     0.039 A 
ATOM      9  C   UNL     1       4.122   1.506   0.713  1.00  0.00     0.014 A 
ATOM     10  C   UNL     1       2.454   0.763   2.300  1.00  0.00     0.014 A 
ATOM     11  C   UNL     1       4.886   2.015   1.754  1.00  0.00     0.010 A 
ATOM     12  C   UNL     1       3.164   1.385   3.332  1.00  0.00     0.010 A 
ATOM     13  C   UNL     1       4.415   1.969   3.077  1.00  0.00    -0.014 A 
BRANCH  13  14
ATOM     14  C   UNL     1       5.243   2.568   4.156  1.00  0.00     0.031 A 
ATOM     15  C   UNL     1       5.778   1.735   5.292  1.00  0.00     0.074 A 
ATOM     16  C   UNL     1       5.559   3.876   4.076  1.00  0.00     0.049 A 
ATOM     17  N   UNL     1       6.566   2.096   6.275  1.00  0.00    -0.248 NA
ATOM     18  C   UNL     1       5.375   0.322   5.339  1.00  0.00     0.031 C 
ATOM     19  C   UNL     1       5.104   4.790   3.024  1.00  0.00     0.029 A 
ATOM     20  N   UNL     1       6.361   4.656   4.867  1.00  0.00    -0.354 N 
ATOM     21  C   UNL     1       6.729   0.967   7.070  1.00  0.00     0.074 A 
ATOM     22  C   UNL     1       5.937  -0.085   6.470  1.00  0.00     0.031 C 
ATOM     23  C   UNL     1       5.690   5.983   3.194  1.00  0.00     0.029 A 
ATOM     24  C   UNL     1       6.495   5.944   4.408  1.00  0.00     0.049 A 
ATOM     25  H   UNL     1       6.798   4.326   5.686  1.00  0.00     0.167 HD
ATOM     26  C   UNL     1       7.472   0.819   8.194  1.00  0.00     0.031 A 
ATOM     27  C   UNL     1       7.179   6.987   4.911  1.00  0.00     0.031 A 
ATOM     28  C   UNL     1       8.261   1.868   8.789  1.00  0.00     0.049 A 
ATOM     29  C   UNL     1       7.960   6.803   6.178  1.00  0.00     0.074 A 
ATOM     30  C   UNL     1       9.078   1.804   9.905  1.00  0.00     0.029 A 
ATOM     31  N   UNL     1       8.325   3.173   8.323  1.00  0.00    -0.354 N 
ATOM     32  N   UNL     1       8.135   5.718   6.891  1.00  0.00    -0.248 NA
ATOM     33  C   UNL     1       8.642   7.991   6.705  1.00  0.00     0.031 C 
ATOM     34  C   UNL     1       9.582   3.085  10.154  1.00  0.00     0.029 A 
ATOM     35  C   UNL     1       9.142   3.930   9.149  1.00  0.00     0.049 A 
ATOM     36  H   UNL     1       7.860   3.511   7.524  1.00  0.00     0.167 HD
ATOM     37  C   UNL     1       8.972   6.084   7.936  1.00  0.00     0.074 A 
ATOM     38  C   UNL     1       9.285   7.487   7.748  1.00  0.00     0.031 C 
ATOM     39  C   UNL     1       9.442   5.326   8.956  1.00  0.00     0.031 A 
BRANCH  26  40
ATOM     40  C   UNL     1       7.436  -0.519   8.885  1.00  0.00    -0.014 A 
ATOM     41  C   UNL     1       8.030  -1.659   8.320  1.00  0.00     0.009 A 
ATOM     42  C   UNL     1       6.834  -0.629  10.150  1.00  0.00     0.009 A 
ATOM     43  C   UNL     1       7.986  -2.887   8.987  1.00  0.00     0.001 A 
ATOM     44  C   UNL     1       6.820  -1.849  10.829  1.00  0.00     0.001 A 
ATOM     45  C   UNL     1       7.386  -2.979  10.243  1.00  0.00     0.000 A 
ENDBRANCH  26  40
BRANCH  27  46
ATOM     46  C   UNL     1       7.146   8.301   4.216  1.00  0.00    -0.014 A 
ATOM     47  C   UNL     1       8.303   8.820   3.615  1.00  0.00     0.009 A 
ATOM     48  C   UNL     1       5.956   9.043   4.152  1.00  0.00     0.009 A 
ATOM     49  C   UNL     1       8.274  10.069   2.990  1.00  0.00     0.001 A 
ATOM     50  C   UNL     1       5.922  10.274   3.496  1.00  0.00     0.001 A 
ATOM     51  C   UNL     1       7.083  10.791   2.926  1.00  0.00     0.000 A 
ENDBRANCH  27  46
BRANCH  39  52
ATOM     52  C   UNL     1      10.387   5.991   9.920  1.00  0.00    -0.014 A 
ATOM     53  C   UNL     1       9.952   6.984  10.811  1.00  0.00     0.009 A 
ATOM     54  C   UNL     1      11.736   5.603   9.942  1.00  0.00     0.009 A 
ATOM     55  C   UNL     1      10.859   7.609  11.670  1.00  0.00     0.001 A 
ATOM     56  C   UNL     1      12.633   6.203  10.827  1.00  0.00     0.001 A 
ATOM     57  C   UNL     1      12.197   7.215  11.680  1.00  0.00     0.000 A 
ENDBRANCH  39  52
ENDBRANCH  13  14
ENDBRANCH   6   8
ENDBRANCH   3   4
ENDBRANCH   2   3
ENDBRANCH   1   2
BRANCH   1  58
ATOM     58  C   UNL     1       4.827  -2.898  -3.266  1.00  0.00     0.116 C 
BRANCH  58  59
ATOM     59  N   UNL     1       6.276  -2.820  -3.387  1.00  0.00    -0.352 N 
ATOM     60  C   UNL     1       7.084  -3.445  -4.303  1.00  0.00     0.251 C 
ATOM     61  H   UNL     1       6.732  -2.246  -2.731  1.00  0.00     0.163 HD
ATOM     62  O   UNL     1       8.305  -3.392  -4.219  1.00  0.00    -0.269 OA
BRANCH  60  63
ATOM     63  C   UNL     1       6.445  -4.213  -5.382  1.00  0.00     0.039 A 
ATOM     64  C   UNL     1       6.618  -5.593  -5.419  1.00  0.00     0.016 A 
ATOM     65  C   UNL     1       5.613  -3.570  -6.300  1.00  0.00     0.016 A 
ATOM     66  C   UNL     1       5.883  -6.348  -6.335  1.00  0.00     0.027 A 
ATOM     67  C   UNL     1       4.899  -4.329  -7.227  1.00  0.00     0.027 A 
ATOM     68  C   UNL     1       5.006  -5.729  -7.242  1.00  0.00     0.052 A 
BRANCH  68  69
ATOM     69  N   UNL     1       4.253  -6.504  -8.159  1.00  0.00    -0.245 N 
ATOM     70  C   UNL     1       3.905  -6.076  -9.417  1.00  0.00     0.240 C 
ATOM     71  C   UNL     1       3.763  -7.766  -7.886  1.00  0.00     0.292 C 
ATOM     72  O   UNL     1       4.098  -4.990  -9.941  1.00  0.00    -0.274 OA
ATOM     73  C   UNL     1       3.294  -7.217 -10.162  1.00  0.00     0.176 C 
ATOM     74  C   UNL     1       2.950  -8.234  -9.091  1.00  0.00     0.284 C 
ATOM     75  O   UNL     1       3.869  -8.401  -6.843  1.00  0.00    -0.267 OA
BRANCH  74  76
ATOM     76  N   UNL     1       1.536  -8.463  -8.739  1.00  0.00    -0.321 N 
ATOM     77  C   UNL     1       0.762  -7.321  -8.218  1.00  0.00     0.284 C 
ATOM     78  C   UNL     1       0.759  -9.159  -9.785  1.00  0.00     0.284 C 
ATOM     79  H   UNL     1       1.661  -9.083  -7.939  1.00  0.00     0.348 HD
ATOM     80  C   UNL     1       0.178  -6.346  -9.266  1.00  0.00     0.178 C 
ATOM     81  C   UNL     1       0.150  -8.275 -10.897  1.00  0.00     0.178 C 
ATOM     82  N   UNL     1      -0.496  -7.087 -10.333  1.00  0.00    -0.360 N 
BRANCH  82  83
ATOM     83  C   UNL     1      -1.626  -6.561 -10.925  1.00  0.00     0.037 A 
ATOM     84  C   UNL     1      -1.702  -5.219 -11.325  1.00  0.00     0.029 A 
ATOM     85  C   UNL     1      -2.767  -7.363 -11.084  1.00  0.00     0.029 A 
ATOM     86  C   UNL     1      -2.883  -4.692 -11.855  1.00  0.00     0.041 A 
ATOM     87  C   UNL     1      -3.954  -6.839 -11.596  1.00  0.00     0.041 A 
ATOM     88  C   UNL     1      -4.001  -5.506 -11.975  1.00  0.00     0.123 A 
ATOM     89  F   UNL     1      -5.142  -4.997 -12.456  1.00  0.00    -0.207 F 
ENDBRANCH  82  83
ENDBRANCH  74  76
ENDBRANCH  68  69
ENDBRANCH  60  63
ENDBRANCH  58  59
ENDBRANCH   1  58
TORSDOF 14
