REMARK SMILES CC[C@@H](C)N(CC)c1cc(C(=O)NCCCCNC(=O)c2ccc(-c3c4nc(c(-c5ccccc5)c5ccc([nH]5)c(-c5ccccc5)c5nc(c(-c6ccccc6)c6ccc3[nH]6)C=C5)C=C4)cc2)c2ccccc2n1
REMARK SMILES IDX 15 1 14 2 13 3 11 4 12 5 10 7 8 8 9 9 75 10 74 11 69 12
REMARK SMILES IDX 73 13 70 14 72 15 71 16 5 17 3 18 4 19 2 20 1 21 6 22 7 23
REMARK SMILES IDX 16 24 17 25 18 26 19 27 20 29 21 30 22 31 68 32 23 33 67 34
REMARK SMILES IDX 24 35 25 36 26 37 61 38 27 39 66 40 60 41 62 42 28 43 65 44
REMARK SMILES IDX 59 45 58 46 29 48 51 49 36 50 50 51 37 52 40 53 49 54 63 55
REMARK SMILES IDX 38 56 39 57 48 59 64 60 41 61 30 62 31 63 35 64 32 65 34 66
REMARK SMILES IDX 33 67 52 68 53 69 57 70 54 71 56 72 55 73 42 74 43 75 47 76
REMARK SMILES IDX 44 77 46 78 45 79
REMARK H PARENT 13 6 18 28 62 47 40 58
REMARK Flexibility Score: inf
ROOT
ATOM      1  C   UNL     1      -6.472  -6.534   2.699  1.00  0.00     0.023 C 
ENDROOT
BRANCH   1   2
ATOM      2  C   UNL     1      -5.809  -5.524   3.645  1.00  0.00     0.116 C 
BRANCH   2   3
ATOM      3  N   UNL     1      -4.481  -5.998   3.951  1.00  0.00    -0.352 N 
ATOM      4  C   UNL     1      -3.270  -5.863   3.326  1.00  0.00     0.252 C 
ATOM      5  O   UNL     1      -2.415  -6.688   3.667  1.00  0.00    -0.269 OA
ATOM      6  H   UNL     1      -4.436  -6.528   4.779  1.00  0.00     0.163 HD
BRANCH   4   7
ATOM      7  C   UNL     1      -2.855  -4.751   2.412  1.00  0.00     0.052 A 
ATOM      8  C   UNL     1      -0.914  -3.376   1.914  1.00  0.00     0.130 A 
ATOM      9  C   UNL     1      -1.518  -4.380   2.639  1.00  0.00     0.061 A 
ATOM     10  N   UNL     1      -1.661  -2.633   1.090  1.00  0.00    -0.231 NA
ATOM     11  C   UNL     1      -2.921  -2.969   0.812  1.00  0.00     0.073 A 
ATOM     12  C   UNL     1      -3.563  -4.082   1.381  1.00  0.00     0.013 A 
ATOM     13  C   UNL     1      -3.575  -2.182  -0.129  1.00  0.00     0.029 A 
ATOM     14  C   UNL     1      -4.808  -4.430   0.809  1.00  0.00     0.011 A 
ATOM     15  C   UNL     1      -4.859  -2.477  -0.576  1.00  0.00     0.002 A 
ATOM     16  C   UNL     1      -5.473  -3.625  -0.119  1.00  0.00     0.001 A 
BRANCH   8  17
ATOM     17  N   UNL     1       0.446  -3.123   2.011  1.00  0.00    -0.354 N 
BRANCH  17  18
ATOM     18  C   UNL     1       0.969  -1.758   1.774  1.00  0.00     0.080 C 
ATOM     19  C   UNL     1       0.423  -0.807   2.843  1.00  0.00     0.031 C 
BRANCH  18  20
ATOM     20  C   UNL     1       0.759  -1.259   0.329  1.00  0.00     0.021 C 
ATOM     21  C   UNL     1       1.490   0.039   0.015  1.00  0.00     0.006 C 
ENDBRANCH  18  20
ENDBRANCH  17  18
BRANCH  17  22
ATOM     22  C   UNL     1       1.372  -4.251   1.832  1.00  0.00     0.115 C 
ATOM     23  C   UNL     1       1.704  -4.951   3.144  1.00  0.00     0.027 C 
ENDBRANCH  17  22
ENDBRANCH   8  17
ENDBRANCH   4   7
ENDBRANCH   2   3
ENDBRANCH   1   2
BRANCH   1  24
ATOM     24  C   UNL     1      -7.338  -7.593   3.364  1.00  0.00     0.023 C 
BRANCH  24  25
ATOM     25  C   UNL     1      -8.603  -7.036   3.988  1.00  0.00     0.116 C 
BRANCH  25  26
ATOM     26  N   UNL     1      -9.418  -6.245   3.074  1.00  0.00    -0.352 N 
ATOM     27  C   UNL     1     -10.772  -6.027   3.121  1.00  0.00     0.251 C 
ATOM     28  H   UNL     1      -8.938  -5.814   2.331  1.00  0.00     0.163 HD
ATOM     29  O   UNL     1     -11.339  -5.386   2.243  1.00  0.00    -0.269 OA
BRANCH  27  30
ATOM     30  C   UNL     1     -11.538  -6.629   4.225  1.00  0.00     0.039 A 
ATOM     31  C   UNL     1     -12.668  -7.390   3.923  1.00  0.00     0.014 A 
ATOM     32  C   UNL     1     -11.079  -6.516   5.539  1.00  0.00     0.014 A 
ATOM     33  C   UNL     1     -13.308  -8.088   4.944  1.00  0.00     0.010 A 
ATOM     34  C   UNL     1     -11.648  -7.299   6.529  1.00  0.00     0.010 A 
ATOM     35  C   UNL     1     -12.783  -8.071   6.246  1.00  0.00    -0.014 A 
BRANCH  35  36
ATOM     36  C   UNL     1     -13.442  -8.807   7.347  1.00  0.00     0.031 A 
ATOM     37  C   UNL     1     -14.019  -8.042   8.505  1.00  0.00     0.074 A 
ATOM     38  C   UNL     1     -13.473 -10.152   7.329  1.00  0.00     0.049 A 
ATOM     39  N   UNL     1     -14.627  -8.493   9.571  1.00  0.00    -0.248 NA
ATOM     40  C   UNL     1     -13.859  -6.577   8.480  1.00  0.00     0.031 C 
ATOM     41  C   UNL     1     -12.894 -11.005   6.288  1.00  0.00     0.029 A 
ATOM     42  N   UNL     1     -14.027 -11.038   8.216  1.00  0.00    -0.354 N 
ATOM     43  C   UNL     1     -14.889  -7.374  10.351  1.00  0.00     0.074 A 
ATOM     44  C   UNL     1     -14.319  -6.235   9.672  1.00  0.00     0.031 C 
ATOM     45  C   UNL     1     -13.172 -12.289   6.569  1.00  0.00     0.029 A 
ATOM     46  C   UNL     1     -13.921 -12.348   7.819  1.00  0.00     0.049 A 
ATOM     47  H   UNL     1     -14.459 -10.762   9.056  1.00  0.00     0.167 HD
ATOM     48  C   UNL     1     -15.574  -7.295  11.516  1.00  0.00     0.031 A 
ATOM     49  C   UNL     1     -14.397 -13.468   8.394  1.00  0.00     0.031 A 
ATOM     50  C   UNL     1     -16.173  -8.425  12.168  1.00  0.00     0.049 A 
ATOM     51  C   UNL     1     -15.184 -13.354   9.669  1.00  0.00     0.074 A 
ATOM     52  C   UNL     1     -16.954  -8.451  13.309  1.00  0.00     0.029 A 
ATOM     53  N   UNL     1     -16.059  -9.734  11.725  1.00  0.00    -0.354 N 
ATOM     54  N   UNL     1     -15.498 -12.281  10.355  1.00  0.00    -0.248 NA
ATOM     55  C   UNL     1     -15.700 -14.606  10.237  1.00  0.00     0.031 C 
ATOM     56  C   UNL     1     -17.283  -9.785  13.578  1.00  0.00     0.029 A 
ATOM     57  C   UNL     1     -16.745 -10.580  12.578  1.00  0.00     0.049 A 
ATOM     58  H   UNL     1     -15.565 -10.019  10.923  1.00  0.00     0.167 HD
ATOM     59  C   UNL     1     -16.277 -12.724  11.415  1.00  0.00     0.074 A 
ATOM     60  C   UNL     1     -16.395 -14.162  11.275  1.00  0.00     0.031 C 
ATOM     61  C   UNL     1     -16.850 -12.007  12.413  1.00  0.00     0.031 A 
BRANCH  48  62
ATOM     62  C   UNL     1     -15.699  -5.935  12.143  1.00  0.00    -0.014 A 
ATOM     63  C   UNL     1     -16.477  -4.926  11.549  1.00  0.00     0.009 A 
ATOM     64  C   UNL     1     -15.014  -5.650  13.333  1.00  0.00     0.009 A 
ATOM     65  C   UNL     1     -16.522  -3.647  12.106  1.00  0.00     0.001 A 
ATOM     66  C   UNL     1     -15.087  -4.379  13.905  1.00  0.00     0.001 A 
ATOM     67  C   UNL     1     -15.829  -3.375  13.284  1.00  0.00     0.000 A 
ENDBRANCH  48  62
BRANCH  49  68
ATOM     68  C   UNL     1     -14.209 -14.783   7.731  1.00  0.00    -0.014 A 
ATOM     69  C   UNL     1     -15.295 -15.417   7.107  1.00  0.00     0.009 A 
ATOM     70  C   UNL     1     -12.954 -15.410   7.714  1.00  0.00     0.009 A 
ATOM     71  C   UNL     1     -15.134 -16.664   6.500  1.00  0.00     0.001 A 
ATOM     72  C   UNL     1     -12.792 -16.647   7.085  1.00  0.00     0.001 A 
ATOM     73  C   UNL     1     -13.882 -17.276   6.487  1.00  0.00     0.000 A 
ENDBRANCH  49  68
BRANCH  61  74
ATOM     74  C   UNL     1     -17.691 -12.763  13.399  1.00  0.00    -0.014 A 
ATOM     75  C   UNL     1     -17.108 -13.594  14.368  1.00  0.00     0.009 A 
ATOM     76  C   UNL     1     -19.086 -12.613  13.376  1.00  0.00     0.009 A 
ATOM     77  C   UNL     1     -17.913 -14.289  15.273  1.00  0.00     0.001 A 
ATOM     78  C   UNL     1     -19.885 -13.287  14.300  1.00  0.00     0.001 A 
ATOM     79  C   UNL     1     -19.298 -14.132  15.241  1.00  0.00     0.000 A 
ENDBRANCH  61  74
ENDBRANCH  35  36
ENDBRANCH  27  30
ENDBRANCH  25  26
ENDBRANCH  24  25
ENDBRANCH   1  24
TORSDOF 15
