REMARK SMILES CCc1ccc(-c2cc(Cl)cc3c2O[C@H](C(F)(F)F)C(C(=O)NCCCCNC(=O)c2ccc(-c4c5nc(c(-c6ccccc6)c6ccc([nH]6)c(-c6ccccc6)c6nc(c(-c7ccccc7)c7ccc4[nH]7)C=C6)C=C5)cc2)=C3)cc1
REMARK SMILES IDX 25 1 24 2 23 3 21 4 22 5 20 7 7 8 8 9 13 10 9 11 12 12 14 13
REMARK SMILES IDX 10 14 11 15 79 16 15 17 6 18 3 19 4 20 81 21 5 22 80 23 2 24
REMARK SMILES IDX 1 25 16 26 17 27 18 28 19 29 26 30 27 31 28 32 29 33 30 35
REMARK SMILES IDX 31 36 32 37 78 38 33 39 77 40 34 41 35 42 36 43 71 44 37 45
REMARK SMILES IDX 76 46 70 47 72 48 38 49 75 50 69 51 68 52 39 54 61 55 46 56
REMARK SMILES IDX 60 57 47 58 50 59 59 60 73 61 48 62 49 63 58 65 74 66 51 67
REMARK SMILES IDX 40 68 41 69 45 70 42 71 44 72 43 73 62 74 63 75 67 76 64 77
REMARK SMILES IDX 66 78 65 79 52 80 53 81 57 82 54 83 56 84 55 85
REMARK H PARENT 23 6 28 34 72 53 50 64
REMARK Flexibility Score: inf
ROOT
ATOM      1  C   UNL     1      -0.596   8.258  12.226  1.00  0.00     0.023 C 
ENDROOT
BRANCH   1   2
ATOM      2  C   UNL     1      -0.084   8.497  10.798  1.00  0.00     0.116 C 
BRANCH   2   3
ATOM      3  N   UNL     1       0.964   7.547  10.495  1.00  0.00    -0.352 N 
ATOM      4  C   UNL     1       1.155   6.773   9.403  1.00  0.00     0.251 C 
ATOM      5  O   UNL     1       1.769   5.721   9.550  1.00  0.00    -0.270 OA
ATOM      6  H   UNL     1       1.648   7.448  11.196  1.00  0.00     0.163 HD
BRANCH   4   7
ATOM      7  C   UNL     1       0.724   7.285   8.067  1.00  0.00     0.067 C 
ATOM      8  C   UNL     1       1.425   3.931   5.857  1.00  0.00     0.026 A 
ATOM      9  C   UNL     1       2.718   3.466   6.225  1.00  0.00     0.033 A 
ATOM     10  C   UNL     1       1.093   5.235   6.274  1.00  0.00     0.135 A 
ATOM     11  C   UNL     1       3.674   4.284   6.820  1.00  0.00     0.042 A 
ATOM     12  C   UNL     1       2.121   6.085   6.761  1.00  0.00     0.019 A 
ATOM     13  O   UNL     1      -0.207   5.724   6.298  1.00  0.00    -0.475 OA
ATOM     14  Cl  UNL     1       5.190   3.626   7.291  1.00  0.00    -0.084 Cl
ATOM     15  C   UNL     1       3.408   5.622   7.020  1.00  0.00     0.032 A 
ATOM     16  C   UNL     1       1.749   7.446   7.206  1.00  0.00     0.025 C 
ATOM     17  C   UNL     1      -0.505   6.608   7.471  1.00  0.00     0.314 C 
BRANCH   8  18
ATOM     18  C   UNL     1       0.695   3.023   4.928  1.00  0.00    -0.015 A 
ATOM     19  C   UNL     1       0.419   1.085   2.830  1.00  0.00    -0.048 A 
ATOM     20  C   UNL     1       0.500   0.693   4.172  1.00  0.00     0.004 A 
ATOM     21  C   UNL     1       0.335   2.457   2.564  1.00  0.00     0.004 A 
ATOM     22  C   UNL     1       0.617   1.642   5.201  1.00  0.00     0.009 A 
ATOM     23  C   UNL     1       0.470   3.411   3.596  1.00  0.00     0.009 A 
BRANCH  19  24
ATOM     24  C   UNL     1       0.386   0.015   1.755  1.00  0.00     0.032 C 
ATOM     25  C   UNL     1       1.061   0.343   0.425  1.00  0.00     0.009 C 
ENDBRANCH  19  24
ENDBRANCH   8  18
BRANCH  17  26
ATOM     26  C   UNL     1      -1.530   7.711   7.115  1.00  0.00     0.429 C 
ATOM     27  F   UNL     1      -1.639   7.916   5.784  1.00  0.00    -0.167 F 
ATOM     28  F   UNL     1      -2.762   7.411   7.591  1.00  0.00    -0.167 F 
ATOM     29  F   UNL     1      -1.202   8.914   7.661  1.00  0.00    -0.167 F 
ENDBRANCH  17  26
ENDBRANCH   4   7
ENDBRANCH   2   3
ENDBRANCH   1   2
BRANCH   1  30
ATOM     30  C   UNL     1       0.463   8.378  13.332  1.00  0.00     0.023 C 
BRANCH  30  31
ATOM     31  C   UNL     1       1.227   9.695  13.351  1.00  0.00     0.116 C 
BRANCH  31  32
ATOM     32  N   UNL     1       0.360  10.821  13.661  1.00  0.00    -0.352 N 
ATOM     33  C   UNL     1       0.449  11.728  14.686  1.00  0.00     0.251 C 
ATOM     34  H   UNL     1      -0.398  10.950  13.046  1.00  0.00     0.163 HD
ATOM     35  O   UNL     1      -0.488  12.492  14.913  1.00  0.00    -0.269 OA
BRANCH  33  36
ATOM     36  C   UNL     1       1.657  11.773  15.535  1.00  0.00     0.039 A 
ATOM     37  C   UNL     1       1.507  11.863  16.921  1.00  0.00     0.014 A 
ATOM     38  C   UNL     1       2.935  11.729  14.970  1.00  0.00     0.014 A 
ATOM     39  C   UNL     1       2.636  11.844  17.743  1.00  0.00     0.010 A 
ATOM     40  C   UNL     1       4.054  11.633  15.793  1.00  0.00     0.010 A 
ATOM     41  C   UNL     1       3.918  11.690  17.189  1.00  0.00    -0.014 A 
BRANCH  41  42
ATOM     42  C   UNL     1       5.122  11.577  18.053  1.00  0.00     0.031 A 
ATOM     43  C   UNL     1       6.212  12.612  17.981  1.00  0.00     0.074 A 
ATOM     44  C   UNL     1       5.265  10.505  18.858  1.00  0.00     0.049 A 
ATOM     45  N   UNL     1       7.356  12.651  18.617  1.00  0.00    -0.248 NA
ATOM     46  C   UNL     1       6.003  13.738  17.055  1.00  0.00     0.031 C 
ATOM     47  C   UNL     1       4.306   9.405  18.988  1.00  0.00     0.029 A 
ATOM     48  N   UNL     1       6.282  10.157  19.713  1.00  0.00    -0.354 N 
ATOM     49  C   UNL     1       8.009  13.786  18.151  1.00  0.00     0.074 A 
ATOM     50  C   UNL     1       7.155  14.386  17.151  1.00  0.00     0.031 C 
ATOM     51  C   UNL     1       4.769   8.519  19.884  1.00  0.00     0.029 A 
ATOM     52  C   UNL     1       6.075   8.961  20.360  1.00  0.00     0.049 A 
ATOM     53  H   UNL     1       7.084  10.711  19.851  1.00  0.00     0.167 HD
ATOM     54  C   UNL     1       9.207  14.290  18.532  1.00  0.00     0.031 A 
ATOM     55  C   UNL     1       6.855   8.288  21.228  1.00  0.00     0.031 A 
ATOM     56  C   UNL     1      10.048  13.705  19.542  1.00  0.00     0.049 A 
ATOM     57  C   UNL     1       8.181   8.873  21.630  1.00  0.00     0.074 A 
ATOM     58  C   UNL     1      11.240  14.189  20.054  1.00  0.00     0.029 A 
ATOM     59  N   UNL     1       9.792  12.506  20.187  1.00  0.00    -0.354 N 
ATOM     60  N   UNL     1       8.739   9.997  21.251  1.00  0.00    -0.248 NA
ATOM     61  C   UNL     1       8.981   8.100  22.592  1.00  0.00     0.031 C 
ATOM     62  C   UNL     1      11.739  13.250  20.960  1.00  0.00     0.029 A 
ATOM     63  C   UNL     1      10.823  12.215  21.065  1.00  0.00     0.049 A 
ATOM     64  H   UNL     1       8.997  11.944  20.042  1.00  0.00     0.167 HD
ATOM     65  C   UNL     1       9.936  10.080  21.950  1.00  0.00     0.074 A 
ATOM     66  C   UNL     1      10.014   8.905  22.791  1.00  0.00     0.031 C 
ATOM     67  C   UNL     1      10.887  11.045  21.900  1.00  0.00     0.031 A 
BRANCH  54  68
ATOM     68  C   UNL     1       9.695  15.537  17.846  1.00  0.00    -0.014 A 
ATOM     69  C   UNL     1       9.089  16.782  18.071  1.00  0.00     0.009 A 
ATOM     70  C   UNL     1      10.824  15.472  17.014  1.00  0.00     0.009 A 
ATOM     71  C   UNL     1       9.587  17.933  17.454  1.00  0.00     0.001 A 
ATOM     72  C   UNL     1      11.338  16.628  16.422  1.00  0.00     0.001 A 
ATOM     73  C   UNL     1      10.714  17.855  16.637  1.00  0.00     0.000 A 
ENDBRANCH  54  68
BRANCH  55  74
ATOM     74  C   UNL     1       6.413   6.976  21.775  1.00  0.00    -0.014 A 
ATOM     75  C   UNL     1       6.105   6.833  23.137  1.00  0.00     0.009 A 
ATOM     76  C   UNL     1       6.333   5.849  20.943  1.00  0.00     0.009 A 
ATOM     77  C   UNL     1       5.767   5.583  23.661  1.00  0.00     0.001 A 
ATOM     78  C   UNL     1       5.961   4.607  21.462  1.00  0.00     0.001 A 
ATOM     79  C   UNL     1       5.693   4.472  22.822  1.00  0.00     0.000 A 
ENDBRANCH  55  74
BRANCH  67  80
ATOM     80  C   UNL     1      12.074  10.893  22.809  1.00  0.00    -0.014 A 
ATOM     81  C   UNL     1      13.049   9.908  22.585  1.00  0.00     0.009 A 
ATOM     82  C   UNL     1      12.240  11.780  23.885  1.00  0.00     0.009 A 
ATOM     83  C   UNL     1      14.145   9.792  23.442  1.00  0.00     0.001 A 
ATOM     84  C   UNL     1      13.354  11.683  24.720  1.00  0.00     0.001 A 
ATOM     85  C   UNL     1      14.300  10.683  24.504  1.00  0.00     0.000 A 
ENDBRANCH  67  80
ENDBRANCH  41  42
ENDBRANCH  33  36
ENDBRANCH  31  32
ENDBRANCH  30  31
ENDBRANCH   1  30
TORSDOF 14
