REMARK SMILES COc1ccc2c(c1)O[C@@]1(CCC(=O)N([C@@H](C)C(=O)NCCCCNC(=O)c3ccc(-c4c5nc(c(-c6ccccc6)c6ccc([nH]6)c(-c6ccccc6)c6nc(c(-c7ccccc7)c7ccc4[nH]7)C=C6)C=C5)cc3)CC1)CC2=O
REMARK SMILES IDX 21 1 20 2 18 3 19 4 16 6 17 7 15 8 76 9 77 10 10 11 3 12
REMARK SMILES IDX 4 13 8 14 5 15 7 16 6 17 9 18 79 19 78 20 80 21 2 22 1 23
REMARK SMILES IDX 11 24 13 26 14 27 12 28 22 30 23 31 24 32 25 33 26 34 27 36
REMARK SMILES IDX 28 37 29 38 75 39 30 40 74 41 31 42 32 43 33 44 68 45 34 46
REMARK SMILES IDX 73 47 67 48 69 49 35 50 72 51 66 52 65 53 36 55 58 56 43 57
REMARK SMILES IDX 57 58 44 59 47 60 56 61 70 62 45 63 46 64 55 66 71 67 48 68
REMARK SMILES IDX 37 69 38 70 42 71 39 72 41 73 40 74 59 75 60 76 64 77 61 78
REMARK SMILES IDX 63 79 62 80 49 81 50 82 54 83 51 84 53 85 52 86
REMARK H PARENT 20 5 25 35 69 54 47 65
REMARK Flexibility Score: 90.00
ROOT
ATOM      1  C   UNL     1      -3.596   0.651  -4.394  1.00  0.00     0.116 C 
ENDROOT
BRANCH   1   2
ATOM      2  N   UNL     1      -3.003  -0.122  -3.336  1.00  0.00    -0.354 N 
ATOM      3  C   UNL     1      -3.076   0.203  -2.023  1.00  0.00     0.242 C 
ATOM      4  O   UNL     1      -2.108  -0.085  -1.322  1.00  0.00    -0.273 OA
ATOM      5  H   UNL     1      -2.513  -0.940  -3.581  1.00  0.00     0.163 HD
BRANCH   3   6
ATOM      6  C   UNL     1      -4.348   0.882  -1.493  1.00  0.00     0.171 C 
ATOM      7  C   UNL     1      -5.647   0.616  -2.296  1.00  0.00     0.042 C 
BRANCH   6   8
ATOM      8  N   UNL     1      -4.168   2.276  -0.939  1.00  0.00    -0.331 N 
BRANCH   8   9
ATOM      9  C   UNL     1      -3.317   2.654   0.232  1.00  0.00     0.124 C 
BRANCH   9  10
ATOM     10  C   UNL     1      -4.021   2.551   1.690  1.00  0.00     0.070 C 
BRANCH  10  11
ATOM     11  C   UNL     1      -4.922   1.311   1.706  1.00  0.00     0.118 C 
ATOM     12  C   UNL     1      -1.124  -1.576   1.630  1.00  0.00     0.122 A 
ATOM     13  C   UNL     1      -1.840  -2.735   1.973  1.00  0.00     0.047 A 
ATOM     14  C   UNL     1      -1.812  -0.379   1.546  1.00  0.00     0.093 A 
ATOM     15  C   UNL     1      -3.212  -2.679   2.313  1.00  0.00     0.019 A 
ATOM     16  C   UNL     1      -3.179  -0.374   1.780  1.00  0.00     0.134 A 
ATOM     17  C   UNL     1      -3.855  -1.451   2.288  1.00  0.00     0.060 A 
ATOM     18  O   UNL     1      -3.973   0.466   1.060  1.00  0.00    -0.486 OA
ATOM     19  C   UNL     1      -5.241  -1.073   2.628  1.00  0.00     0.170 C 
ATOM     20  C   UNL     1      -5.439   0.459   2.904  1.00  0.00     0.129 C 
ATOM     21  O   UNL     1      -6.129  -1.912   2.697  1.00  0.00    -0.294 OA
BRANCH  12  22
ATOM     22  O   UNL     1       0.208  -1.724   1.342  1.00  0.00    -0.497 OA
ATOM     23  C   UNL     1       0.801  -0.679   0.564  1.00  0.00     0.278 C 
ENDBRANCH  12  22
BRANCH  11  24
ATOM     24  C   UNL     1      -6.238   1.739   0.908  1.00  0.00     0.059 CG0
ATOM     25  G   UNL     1      -6.331   2.897  -0.138  1.00  0.00     0.000 G0
ENDBRANCH  11  24
ENDBRANCH  10  11
ENDBRANCH   9  10
ENDBRANCH   8   9
BRANCH   8  26
ATOM     26  C   UNL     1      -5.205   3.143  -1.106  1.00  0.00     0.223 C 
ATOM     27  O   UNL     1      -5.188   4.052  -1.926  1.00  0.00    -0.275 OA
BRANCH  26  28
ATOM     28  C   UNL     1      -6.331   2.897  -0.138  1.00  0.00     0.104 CG0
ATOM     29  G   UNL     1      -6.238   1.739   0.908  1.00  0.00     0.000 G0
ENDBRANCH  26  28
ENDBRANCH   8  26
ENDBRANCH   6   8
ENDBRANCH   3   6
ENDBRANCH   1   2
BRANCH   1  30
ATOM     30  C   UNL     1      -2.551   1.001  -5.433  1.00  0.00     0.023 C 
BRANCH  30  31
ATOM     31  C   UNL     1      -1.889  -0.216  -6.064  1.00  0.00     0.023 C 
BRANCH  31  32
ATOM     32  C   UNL     1      -2.856  -1.321  -6.462  1.00  0.00     0.116 C 
BRANCH  32  33
ATOM     33  N   UNL     1      -3.945  -0.850  -7.310  1.00  0.00    -0.352 N 
ATOM     34  C   UNL     1      -4.381  -1.367  -8.513  1.00  0.00     0.251 C 
ATOM     35  H   UNL     1      -4.432  -0.060  -6.981  1.00  0.00     0.163 HD
ATOM     36  O   UNL     1      -5.252  -0.844  -9.161  1.00  0.00    -0.269 OA
BRANCH  34  37
ATOM     37  C   UNL     1      -3.678  -2.571  -8.991  1.00  0.00     0.039 A 
ATOM     38  C   UNL     1      -3.619  -3.692  -8.164  1.00  0.00     0.014 A 
ATOM     39  C   UNL     1      -2.907  -2.470 -10.148  1.00  0.00     0.014 A 
ATOM     40  C   UNL     1      -2.636  -4.638  -8.399  1.00  0.00     0.010 A 
ATOM     41  C   UNL     1      -1.996  -3.482 -10.439  1.00  0.00     0.010 A 
ATOM     42  C   UNL     1      -1.815  -4.543  -9.538  1.00  0.00    -0.014 A 
BRANCH  42  43
ATOM     43  C   UNL     1      -0.784  -5.579  -9.777  1.00  0.00     0.031 A 
ATOM     44  C   UNL     1       0.678  -5.234  -9.817  1.00  0.00     0.074 A 
ATOM     45  C   UNL     1      -1.189  -6.853  -9.931  1.00  0.00     0.049 A 
ATOM     46  N   UNL     1       1.699  -6.024 -10.034  1.00  0.00    -0.248 NA
ATOM     47  C   UNL     1       1.049  -3.826  -9.594  1.00  0.00     0.031 C 
ATOM     48  C   UNL     1      -2.584  -7.299  -9.894  1.00  0.00     0.029 A 
ATOM     49  N   UNL     1      -0.475  -8.006 -10.122  1.00  0.00    -0.354 N 
ATOM     50  C   UNL     1       2.824  -5.208 -10.013  1.00  0.00     0.074 A 
ATOM     51  C   UNL     1       2.363  -3.858  -9.776  1.00  0.00     0.031 C 
ATOM     52  C   UNL     1      -2.620  -8.633  -9.992  1.00  0.00     0.029 A 
ATOM     53  C   UNL     1      -1.263  -9.127 -10.191  1.00  0.00     0.049 A 
ATOM     54  H   UNL     1       0.506  -8.028 -10.202  1.00  0.00     0.167 HD
ATOM     55  C   UNL     1       4.121  -5.561 -10.177  1.00  0.00     0.031 A 
ATOM     56  C   UNL     1      -0.941 -10.414 -10.415  1.00  0.00     0.031 A 
ATOM     57  C   UNL     1       4.565  -6.915 -10.389  1.00  0.00     0.049 A 
ATOM     58  C   UNL     1       0.498 -10.774 -10.621  1.00  0.00     0.074 A 
ATOM     59  C   UNL     1       5.862  -7.381 -10.515  1.00  0.00     0.029 A 
ATOM     60  N   UNL     1       3.729  -8.016 -10.507  1.00  0.00    -0.354 N 
ATOM     61  N   UNL     1       1.551  -9.994 -10.584  1.00  0.00    -0.248 NA
ATOM     62  C   UNL     1       0.795 -12.183 -10.903  1.00  0.00     0.031 C 
ATOM     63  C   UNL     1       5.808  -8.751 -10.782  1.00  0.00     0.029 A 
ATOM     64  C   UNL     1       4.482  -9.154 -10.744  1.00  0.00     0.049 A 
ATOM     65  H   UNL     1       2.748  -7.992 -10.433  1.00  0.00     0.167 HD
ATOM     66  C   UNL     1       2.640 -10.816 -10.833  1.00  0.00     0.074 A 
ATOM     67  C   UNL     1       2.119 -12.160 -10.996  1.00  0.00     0.031 C 
ATOM     68  C   UNL     1       3.950 -10.483 -10.921  1.00  0.00     0.031 A 
BRANCH  55  69
ATOM     69  C   UNL     1       5.165  -4.476 -10.164  1.00  0.00    -0.014 A 
ATOM     70  C   UNL     1       5.878  -4.192 -11.341  1.00  0.00     0.009 A 
ATOM     71  C   UNL     1       5.516  -3.805  -8.983  1.00  0.00     0.009 A 
ATOM     72  C   UNL     1       6.926  -3.269 -11.335  1.00  0.00     0.001 A 
ATOM     73  C   UNL     1       6.545  -2.859  -8.986  1.00  0.00     0.001 A 
ATOM     74  C   UNL     1       7.255  -2.599 -10.158  1.00  0.00     0.000 A 
ENDBRANCH  55  69
BRANCH  56  75
ATOM     75  C   UNL     1      -2.029 -11.423 -10.451  1.00  0.00    -0.014 A 
ATOM     76  C   UNL     1      -2.986 -11.399 -11.481  1.00  0.00     0.009 A 
ATOM     77  C   UNL     1      -2.190 -12.332  -9.396  1.00  0.00     0.009 A 
ATOM     78  C   UNL     1      -4.105 -12.231 -11.430  1.00  0.00     0.001 A 
ATOM     79  C   UNL     1      -3.295 -13.186  -9.366  1.00  0.00     0.001 A 
ATOM     80  C   UNL     1      -4.258 -13.124 -10.372  1.00  0.00     0.000 A 
ENDBRANCH  56  75
BRANCH  68  81
ATOM     81  C   UNL     1       4.931 -11.584 -11.210  1.00  0.00    -0.014 A 
ATOM     82  C   UNL     1       5.849 -11.976 -10.222  1.00  0.00     0.009 A 
ATOM     83  C   UNL     1       5.020 -12.155 -12.488  1.00  0.00     0.009 A 
ATOM     84  C   UNL     1       6.849 -12.904 -10.513  1.00  0.00     0.001 A 
ATOM     85  C   UNL     1       6.003 -13.107 -12.767  1.00  0.00     0.001 A 
ATOM     86  C   UNL     1       6.923 -13.471 -11.784  1.00  0.00     0.000 A 
ENDBRANCH  68  81
ENDBRANCH  42  43
ENDBRANCH  34  37
ENDBRANCH  32  33
ENDBRANCH  31  32
ENDBRANCH  30  31
ENDBRANCH   1  30
TORSDOF 13
