REMARK SMILES C[C@@H](O)[C@@H](NC(=O)CN(C)C(=O)c1cccs1)C(=O)NCCCCNC(=O)c1ccc(-c2c3nc(c(-c4ccccc4)c4ccc([nH]4)c(-c4ccccc4)c4nc(c(-c5ccccc5)c5ccc2[nH]5)C=C4)C=C3)cc1
REMARK SMILES IDX 21 1 20 2 18 3 19 4 4 6 2 7 1 8 3 9 5 11 6 12 7 14 8 15 9 16
REMARK SMILES IDX 10 17 11 18 12 19 13 20 14 21 17 22 15 23 16 24 22 25 23 26
REMARK SMILES IDX 24 27 25 28 26 29 27 31 28 32 29 33 75 34 30 35 74 36 31 37
REMARK SMILES IDX 32 38 33 39 68 40 34 41 73 42 67 43 69 44 35 45 72 46 66 47
REMARK SMILES IDX 65 48 36 50 58 51 43 52 57 53 44 54 47 55 56 56 70 57 45 58
REMARK SMILES IDX 46 59 55 61 71 62 48 63 37 64 38 65 42 66 39 67 41 68 40 69
REMARK SMILES IDX 59 70 60 71 64 72 61 73 63 74 62 75 49 76 50 77 54 78 51 79
REMARK SMILES IDX 53 80 52 81
REMARK H PARENT 20 5 3 10 5 13 25 30 69 49 47 60
REMARK Flexibility Score: inf
ROOT
ATOM      1  C   UNL     1       0.626   3.846  -0.885  1.00  0.00     0.116 C 
ENDROOT
BRANCH   1   2
ATOM      2  N   UNL     1      -0.592   3.316  -1.465  1.00  0.00    -0.354 N 
ATOM      3  C   UNL     1      -1.312   2.186  -1.146  1.00  0.00     0.245 C 
ATOM      4  O   UNL     1      -2.470   2.160  -1.587  1.00  0.00    -0.273 OA
ATOM      5  H   UNL     1      -0.964   3.848  -2.205  1.00  0.00     0.163 HD
BRANCH   3   6
ATOM      6  C   UNL     1      -0.806   1.010  -0.237  1.00  0.00     0.200 C 
BRANCH   6   7
ATOM      7  C   UNL     1       0.651   0.523  -0.477  1.00  0.00     0.143 C 
ATOM      8  C   UNL     1       0.945  -0.846   0.159  1.00  0.00     0.041 C 
BRANCH   7   9
ATOM      9  O   UNL     1       0.868   0.316  -1.881  1.00  0.00    -0.391 OA
ATOM     10  H   UNL     1       0.272  -0.379  -2.201  1.00  0.00     0.211 HD
ENDBRANCH   7   9
ENDBRANCH   6   7
BRANCH   6  11
ATOM     11  N   UNL     1      -1.316   0.747   1.133  1.00  0.00    -0.341 N 
ATOM     12  C   UNL     1      -1.732   1.405   2.239  1.00  0.00     0.240 C 
ATOM     13  H   UNL     1      -1.369  -0.224   1.286  1.00  0.00     0.164 HD
ATOM     14  O   UNL     1      -1.998   0.686   3.211  1.00  0.00    -0.273 OA
BRANCH  12  15
ATOM     15  C   UNL     1      -2.165   2.855   2.255  1.00  0.00     0.219 C 
BRANCH  15  16
ATOM     16  N   UNL     1      -1.205   3.815   1.734  1.00  0.00    -0.332 N 
ATOM     17  C   UNL     1      -1.887   4.683   0.771  1.00  0.00     0.147 C 
BRANCH  16  18
ATOM     18  C   UNL     1      -0.035   3.984   2.585  1.00  0.00     0.264 C 
ATOM     19  O   UNL     1      -0.140   3.515   3.724  1.00  0.00    -0.268 OA
BRANCH  18  20
ATOM     20  C   UNL     1       1.323   4.482   2.186  1.00  0.00     0.092 A 
ATOM     21  C   UNL     1       1.933   5.710   1.947  1.00  0.00     0.025 A 
ATOM     22  S   UNL     1       2.609   3.297   2.299  1.00  0.00    -0.139 S 
ATOM     23  C   UNL     1       3.353   5.693   1.801  1.00  0.00     0.012 A 
ATOM     24  C   UNL     1       3.848   4.434   1.987  1.00  0.00     0.065 A 
ENDBRANCH  18  20
ENDBRANCH  16  18
ENDBRANCH  15  16
ENDBRANCH  12  15
ENDBRANCH   6  11
ENDBRANCH   3   6
ENDBRANCH   1   2
BRANCH   1  25
ATOM     25  C   UNL     1       0.933   5.383  -1.019  1.00  0.00     0.023 C 
BRANCH  25  26
ATOM     26  C   UNL     1       0.144   6.725  -0.668  1.00  0.00     0.023 C 
BRANCH  26  27
ATOM     27  C   UNL     1      -0.618   7.431   0.559  1.00  0.00     0.116 C 
BRANCH  27  28
ATOM     28  N   UNL     1      -0.595   7.005   1.966  1.00  0.00    -0.352 N 
ATOM     29  C   UNL     1      -0.319   7.708   3.130  1.00  0.00     0.251 C 
ATOM     30  H   UNL     1      -0.813   6.056   2.107  1.00  0.00     0.163 HD
ATOM     31  O   UNL     1      -0.115   7.152   4.194  1.00  0.00    -0.269 OA
BRANCH  29  32
ATOM     32  C   UNL     1      -0.340   9.161   3.058  1.00  0.00     0.039 A 
ATOM     33  C   UNL     1       0.782   9.943   3.346  1.00  0.00     0.014 A 
ATOM     34  C   UNL     1      -1.540   9.704   2.616  1.00  0.00     0.014 A 
ATOM     35  C   UNL     1       0.720  11.309   3.078  1.00  0.00     0.010 A 
ATOM     36  C   UNL     1      -1.574  11.034   2.288  1.00  0.00     0.010 A 
ATOM     37  C   UNL     1      -0.443  11.841   2.501  1.00  0.00    -0.014 A 
BRANCH  37  38
ATOM     38  C   UNL     1      -0.573  13.236   2.040  1.00  0.00     0.031 A 
ATOM     39  C   UNL     1      -1.659  14.077   2.638  1.00  0.00     0.074 A 
ATOM     40  C   UNL     1       0.083  13.606   0.926  1.00  0.00     0.049 A 
ATOM     41  N   UNL     1      -2.210  15.165   2.174  1.00  0.00    -0.248 NA
ATOM     42  C   UNL     1      -2.259  13.575   3.888  1.00  0.00     0.031 C 
ATOM     43  C   UNL     1       1.105  12.815   0.234  1.00  0.00     0.029 A 
ATOM     44  N   UNL     1      -0.061  14.721   0.145  1.00  0.00    -0.354 N 
ATOM     45  C   UNL     1      -3.250  15.452   3.049  1.00  0.00     0.074 A 
ATOM     46  C   UNL     1      -3.285  14.398   4.038  1.00  0.00     0.031 C 
ATOM     47  C   UNL     1       1.494  13.471  -0.870  1.00  0.00     0.029 A 
ATOM     48  C   UNL     1       0.714  14.696  -0.989  1.00  0.00     0.049 A 
ATOM     49  H   UNL     1      -0.660  15.467   0.374  1.00  0.00     0.167 HD
ATOM     50  C   UNL     1      -4.091  16.511   3.028  1.00  0.00     0.031 A 
ATOM     51  C   UNL     1       0.763  15.557  -2.021  1.00  0.00     0.031 A 
ATOM     52  C   UNL     1      -4.020  17.551   2.039  1.00  0.00     0.049 A 
ATOM     53  C   UNL     1      -0.160  16.742  -2.006  1.00  0.00     0.074 A 
ATOM     54  C   UNL     1      -4.747  18.725   1.964  1.00  0.00     0.029 A 
ATOM     55  N   UNL     1      -3.162  17.536   0.948  1.00  0.00    -0.354 N 
ATOM     56  N   UNL     1      -1.082  17.058  -1.127  1.00  0.00    -0.248 NA
ATOM     57  C   UNL     1      -0.033  17.691  -3.119  1.00  0.00     0.031 C 
ATOM     58  C   UNL     1      -4.360  19.398   0.801  1.00  0.00     0.029 A 
ATOM     59  C   UNL     1      -3.357  18.669   0.179  1.00  0.00     0.049 A 
ATOM     60  H   UNL     1      -2.511  16.825   0.751  1.00  0.00     0.167 HD
ATOM     61  C   UNL     1      -1.635  18.251  -1.570  1.00  0.00     0.074 A 
ATOM     62  C   UNL     1      -0.927  18.611  -2.784  1.00  0.00     0.031 C 
ATOM     63  C   UNL     1      -2.639  18.984  -1.029  1.00  0.00     0.031 A 
BRANCH  50  64
ATOM     64  C   UNL     1      -5.141  16.586   4.102  1.00  0.00    -0.014 A 
ATOM     65  C   UNL     1      -4.791  16.778   5.450  1.00  0.00     0.009 A 
ATOM     66  C   UNL     1      -6.499  16.477   3.767  1.00  0.00     0.009 A 
ATOM     67  C   UNL     1      -5.774  16.811   6.441  1.00  0.00     0.001 A 
ATOM     68  C   UNL     1      -7.482  16.544   4.756  1.00  0.00     0.001 A 
ATOM     69  C   UNL     1      -7.119  16.700   6.093  1.00  0.00     0.000 A 
ENDBRANCH  50  64
BRANCH  51  70
ATOM     70  C   UNL     1       1.733  15.342  -3.125  1.00  0.00    -0.014 A 
ATOM     71  C   UNL     1       2.860  16.171  -3.237  1.00  0.00     0.009 A 
ATOM     72  C   UNL     1       1.563  14.301  -4.051  1.00  0.00     0.009 A 
ATOM     73  C   UNL     1       3.785  15.976  -4.265  1.00  0.00     0.001 A 
ATOM     74  C   UNL     1       2.505  14.092  -5.063  1.00  0.00     0.001 A 
ATOM     75  C   UNL     1       3.610  14.934  -5.173  1.00  0.00     0.000 A 
ENDBRANCH  51  70
BRANCH  63  76
ATOM     76  C   UNL     1      -3.013  20.248  -1.746  1.00  0.00    -0.014 A 
ATOM     77  C   UNL     1      -3.723  20.210  -2.955  1.00  0.00     0.009 A 
ATOM     78  C   UNL     1      -2.692  21.491  -1.178  1.00  0.00     0.009 A 
ATOM     79  C   UNL     1      -4.080  21.395  -3.598  1.00  0.00     0.001 A 
ATOM     80  C   UNL     1      -3.077  22.674  -1.808  1.00  0.00     0.001 A 
ATOM     81  C   UNL     1      -3.763  22.625  -3.021  1.00  0.00     0.000 A 
ENDBRANCH  63  76
ENDBRANCH  37  38
ENDBRANCH  29  32
ENDBRANCH  27  28
ENDBRANCH  26  27
ENDBRANCH  25  26
ENDBRANCH   1  25
TORSDOF 18
