REMARK SMILES CCc1ccc(C(=O)NCCCCNC(=O)c2ccc(-c3c4nc(c(-c5ccccc5)c5ccc([nH]5)c(-c5ccccc5)c5nc(c(-c6ccccc6)c6ccc3[nH]6)C=C5)C=C4)cc2)cc1S(=O)(=O)CC[NH+]1CCCC1
REMARK SMILES IDX 10 1 9 2 7 3 8 4 6 6 3 7 4 8 66 9 5 10 65 11 2 12 1 13 67 14
REMARK SMILES IDX 68 15 69 16 70 17 71 18 72 19 73 20 76 21 74 23 75 24 11 25
REMARK SMILES IDX 12 26 13 27 14 28 15 29 16 31 17 32 18 33 64 34 19 35 63 36
REMARK SMILES IDX 20 37 21 38 22 39 57 40 23 41 62 42 56 43 58 44 24 45 61 46
REMARK SMILES IDX 55 47 54 48 25 50 47 51 32 52 46 53 33 54 36 55 45 56 59 57
REMARK SMILES IDX 34 58 35 59 44 61 60 62 37 63 26 64 27 65 31 66 28 67 30 68
REMARK SMILES IDX 29 69 48 70 49 71 53 72 50 73 52 74 51 75 38 76 39 77 43 78
REMARK SMILES IDX 40 79 42 80 41 81
REMARK H PARENT 9 5 72 22 14 30 58 49 36 60
REMARK Flexibility Score: inf
ROOT
ATOM      1  C   UNL     1      -0.170   7.589   0.142  1.00  0.00     0.116 C 
ENDROOT
BRANCH   1   2
ATOM      2  N   UNL     1       1.257   7.389   0.012  1.00  0.00    -0.352 N 
ATOM      3  C   UNL     1       2.097   6.423   0.504  1.00  0.00     0.251 C 
ATOM      4  O   UNL     1       3.305   6.625   0.365  1.00  0.00    -0.269 OA
ATOM      5  H   UNL     1       1.709   8.074  -0.531  1.00  0.00     0.163 HD
BRANCH   3   6
ATOM      6  C   UNL     1       1.646   5.127   1.102  1.00  0.00     0.041 A 
ATOM      7  C   UNL     1       1.012   2.377   1.538  1.00  0.00    -0.030 A 
ATOM      8  C   UNL     1       2.316   2.896   1.757  1.00  0.00     0.006 A 
ATOM      9  C   UNL     1      -0.015   3.337   1.453  1.00  0.00     0.071 A 
ATOM     10  C   UNL     1       2.636   4.225   1.470  1.00  0.00     0.014 A 
ATOM     11  C   UNL     1       0.334   4.698   1.262  1.00  0.00     0.034 A 
BRANCH   7  12
ATOM     12  C   UNL     1       0.878   0.689   1.277  1.00  0.00     0.033 C 
ATOM     13  C   UNL     1       1.055  -0.672  -0.439  1.00  0.00     0.009 C 
ENDBRANCH   7  12
BRANCH   9  14
ATOM     14  S   UNL     1      -1.778   3.110   1.632  1.00  0.00     0.184 S 
ATOM     15  O   UNL     1      -2.025   3.044   3.061  1.00  0.00    -0.223 OA
ATOM     16  O   UNL     1      -2.402   4.170   0.849  1.00  0.00    -0.223 OA
BRANCH  14  17
ATOM     17  C   UNL     1      -2.348   1.628   0.913  1.00  0.00     0.203 C 
BRANCH  17  18
ATOM     18  C   UNL     1      -1.683   1.334  -0.406  1.00  0.00     0.279 C 
BRANCH  18  19
ATOM     19  N   UNL     1      -0.465   0.617  -0.202  1.00  0.00    -0.334 N 
ATOM     20  C   UNL     1      -0.393  -0.935   0.899  1.00  0.00     0.262 C 
ATOM     21  C   UNL     1       1.286   1.254  -0.640  1.00  0.00     0.262 C 
ATOM     22  H   UNL     1      -0.907   0.529  -1.117  1.00  0.00     0.348 HD
ATOM     23  C   UNL     1       1.526  -1.254   1.409  1.00  0.00     0.067 C 
ATOM     24  C   UNL     1       2.615   0.147   0.436  1.00  0.00     0.067 C 
ENDBRANCH  18  19
ENDBRANCH  17  18
ENDBRANCH  14  17
ENDBRANCH   9  14
ENDBRANCH   3   6
ENDBRANCH   1   2
BRANCH   1  25
ATOM     25  C   UNL     1      -0.509   8.033   1.566  1.00  0.00     0.023 C 
BRANCH  25  26
ATOM     26  C   UNL     1      -0.266   9.524   1.804  1.00  0.00     0.023 C 
BRANCH  26  27
ATOM     27  C   UNL     1      -1.142  10.435   0.957  1.00  0.00     0.116 C 
BRANCH  27  28
ATOM     28  N   UNL     1      -2.566  10.177   1.120  1.00  0.00    -0.352 N 
ATOM     29  C   UNL     1      -3.600  11.065   0.966  1.00  0.00     0.251 C 
ATOM     30  H   UNL     1      -2.815   9.258   1.371  1.00  0.00     0.163 HD
ATOM     31  O   UNL     1      -4.754  10.756   1.237  1.00  0.00    -0.269 OA
BRANCH  29  32
ATOM     32  C   UNL     1      -3.280  12.425   0.501  1.00  0.00     0.039 A 
ATOM     33  C   UNL     1      -3.675  13.514   1.278  1.00  0.00     0.014 A 
ATOM     34  C   UNL     1      -2.517  12.602  -0.656  1.00  0.00     0.014 A 
ATOM     35  C   UNL     1      -3.256  14.794   0.918  1.00  0.00     0.010 A 
ATOM     36  C   UNL     1      -2.037  13.865  -0.966  1.00  0.00     0.010 A 
ATOM     37  C   UNL     1      -2.410  14.973  -0.188  1.00  0.00    -0.014 A 
BRANCH  37  38
ATOM     38  C   UNL     1      -1.925  16.315  -0.582  1.00  0.00     0.031 A 
ATOM     39  C   UNL     1      -2.335  16.884  -1.911  1.00  0.00     0.074 A 
ATOM     40  C   UNL     1      -1.062  16.980   0.209  1.00  0.00     0.049 A 
ATOM     41  N   UNL     1      -1.937  17.983  -2.498  1.00  0.00    -0.248 NA
ATOM     42  C   UNL     1      -3.296  16.094  -2.700  1.00  0.00     0.031 C 
ATOM     43  C   UNL     1      -0.568  16.517   1.508  1.00  0.00     0.029 A 
ATOM     44  N   UNL     1      -0.438  18.188   0.027  1.00  0.00    -0.354 N 
ATOM     45  C   UNL     1      -2.577  18.001  -3.730  1.00  0.00     0.074 A 
ATOM     46  C   UNL     1      -3.347  16.782  -3.830  1.00  0.00     0.031 C 
ATOM     47  C   UNL     1       0.267  17.441   2.014  1.00  0.00     0.029 A 
ATOM     48  C   UNL     1       0.400  18.536   1.058  1.00  0.00     0.049 A 
ATOM     49  H   UNL     1      -0.577  18.752  -0.768  1.00  0.00     0.167 HD
ATOM     50  C   UNL     1      -2.542  18.958  -4.686  1.00  0.00     0.031 A 
ATOM     51  C   UNL     1       1.194  19.613   1.209  1.00  0.00     0.031 A 
ATOM     52  C   UNL     1      -1.791  20.178  -4.575  1.00  0.00     0.049 A 
ATOM     53  C   UNL     1       1.224  20.657   0.127  1.00  0.00     0.074 A 
ATOM     54  C   UNL     1      -1.729  21.236  -5.463  1.00  0.00     0.029 A 
ATOM     55  N   UNL     1      -0.973  20.502  -3.504  1.00  0.00    -0.354 N 
ATOM     56  N   UNL     1       0.570  20.689  -1.009  1.00  0.00    -0.248 NA
ATOM     57  C   UNL     1       2.092  21.821   0.354  1.00  0.00     0.031 C 
ATOM     58  C   UNL     1      -0.836  22.181  -4.951  1.00  0.00     0.029 A 
ATOM     59  C   UNL     1      -0.389  21.737  -3.717  1.00  0.00     0.049 A 
ATOM     60  H   UNL     1      -0.829  19.937  -2.710  1.00  0.00     0.167 HD
ATOM     61  C   UNL     1       0.916  21.890  -1.613  1.00  0.00     0.074 A 
ATOM     62  C   UNL     1       1.834  22.561  -0.715  1.00  0.00     0.031 C 
ATOM     63  C   UNL     1       0.507  22.396  -2.802  1.00  0.00     0.031 A 
BRANCH  50  64
ATOM     64  C   UNL     1      -3.337  18.713  -5.938  1.00  0.00    -0.014 A 
ATOM     65  C   UNL     1      -4.742  18.721  -5.923  1.00  0.00     0.009 A 
ATOM     66  C   UNL     1      -2.673  18.496  -7.155  1.00  0.00     0.009 A 
ATOM     67  C   UNL     1      -5.464  18.477  -7.093  1.00  0.00     0.001 A 
ATOM     68  C   UNL     1      -3.398  18.284  -8.329  1.00  0.00     0.001 A 
ATOM     69  C   UNL     1      -4.791  18.263  -8.295  1.00  0.00     0.000 A 
ENDBRANCH  50  64
BRANCH  51  70
ATOM     70  C   UNL     1       2.015  19.770   2.438  1.00  0.00    -0.014 A 
ATOM     71  C   UNL     1       1.700  20.761   3.381  1.00  0.00     0.009 A 
ATOM     72  C   UNL     1       3.121  18.939   2.673  1.00  0.00     0.009 A 
ATOM     73  C   UNL     1       2.495  20.937   4.517  1.00  0.00     0.001 A 
ATOM     74  C   UNL     1       3.896  19.097   3.824  1.00  0.00     0.001 A 
ATOM     75  C   UNL     1       3.589  20.103   4.739  1.00  0.00     0.000 A 
ENDBRANCH  51  70
BRANCH  63  76
ATOM     76  C   UNL     1       0.996  23.765  -3.178  1.00  0.00    -0.014 A 
ATOM     77  C   UNL     1       2.319  23.985  -3.589  1.00  0.00     0.009 A 
ATOM     78  C   UNL     1       0.091  24.840  -3.184  1.00  0.00     0.009 A 
ATOM     79  C   UNL     1       2.732  25.262  -3.976  1.00  0.00     0.001 A 
ATOM     80  C   UNL     1       0.499  26.107  -3.599  1.00  0.00     0.001 A 
ATOM     81  C   UNL     1       1.821  26.319  -3.988  1.00  0.00     0.000 A 
ENDBRANCH  63  76
ENDBRANCH  37  38
ENDBRANCH  29  32
ENDBRANCH  27  28
ENDBRANCH  26  27
ENDBRANCH  25  26
ENDBRANCH   1  25
TORSDOF 16
