REMARK SMILES C[C@@H](C(=O)NCCCCNC(=O)c1ccc(-c2c3nc(c(-c4ccccc4)c4ccc([nH]4)c(-c4ccccc4)c4nc(c(-c5ccccc5)c5ccc2[nH]5)C=C4)C=C3)cc1)c1ccc(Cc2ccsc2)cc1F
REMARK SMILES IDX 7 1 6 2 5 3 3 4 4 5 2 7 1 8 61 9 62 10 72 11 63 12 71 13
REMARK SMILES IDX 73 14 64 15 65 16 66 17 67 18 70 19 68 20 69 21 8 22 9 23
REMARK SMILES IDX 10 24 11 25 12 27 13 28 14 29 60 30 15 31 59 32 16 33 17 34
REMARK SMILES IDX 18 35 53 36 19 37 58 38 52 39 54 40 20 41 57 42 51 43 50 44
REMARK SMILES IDX 21 46 43 47 28 48 42 49 29 50 32 51 41 52 55 53 30 54 31 55
REMARK SMILES IDX 40 57 56 58 33 59 22 60 23 61 27 62 24 63 26 64 25 65 44 66
REMARK SMILES IDX 45 67 49 68 46 69 48 70 47 71 34 72 35 73 39 74 36 75 38 76
REMARK SMILES IDX 37 77
REMARK H PARENT 5 6 10 26 54 45 32 56
REMARK Flexibility Score: inf
ROOT
ATOM      1  C   UNL     1       4.161   0.839   0.709  1.00  0.00     0.023 C 
ENDROOT
BRANCH   1   2
ATOM      2  C   UNL     1       3.407   0.025   1.763  1.00  0.00     0.116 C 
BRANCH   2   3
ATOM      3  N   UNL     1       2.394   0.827   2.415  1.00  0.00    -0.356 N 
ATOM      4  C   UNL     1       1.042   0.855   2.244  1.00  0.00     0.227 C 
ATOM      5  O   UNL     1       0.436   1.713   2.891  1.00  0.00    -0.274 OA
ATOM      6  H   UNL     1       2.738   1.454   3.092  1.00  0.00     0.163 HD
BRANCH   4   7
ATOM      7  C   UNL     1       0.349  -0.163   1.319  1.00  0.00     0.108 C 
ATOM      8  C   UNL     1       0.690   0.045  -0.161  1.00  0.00     0.023 C 
BRANCH   7   9
ATOM      9  C   UNL     1      -1.169  -0.155   1.453  1.00  0.00    -0.000 A 
ATOM     10  C   UNL     1      -1.910   1.017   1.247  1.00  0.00     0.008 A 
ATOM     11  C   UNL     1      -1.871  -1.337   1.707  1.00  0.00     0.127 A 
ATOM     12  C   UNL     1      -3.304   0.999   1.290  1.00  0.00     0.004 A 
ATOM     13  C   UNL     1      -3.266  -1.360   1.767  1.00  0.00     0.043 A 
ATOM     14  F   UNL     1      -1.203  -2.490   1.860  1.00  0.00    -0.207 F 
ATOM     15  C   UNL     1      -4.004  -0.186   1.557  1.00  0.00    -0.041 A 
BRANCH  15  16
ATOM     16  C   UNL     1      -5.513  -0.203   1.549  1.00  0.00     0.072 C 
BRANCH  16  17
ATOM     17  C   UNL     1      -6.000   0.322   2.870  1.00  0.00    -0.033 A 
ATOM     18  C   UNL     1      -5.876   1.679   3.336  1.00  0.00     0.015 A 
ATOM     19  C   UNL     1      -6.718  -0.427   3.787  1.00  0.00     0.068 A 
ATOM     20  C   UNL     1      -6.467   1.886   4.562  1.00  0.00     0.065 A 
ATOM     21  S   UNL     1      -7.201   0.468   5.162  1.00  0.00    -0.152 S 
ENDBRANCH  16  17
ENDBRANCH  15  16
ENDBRANCH   7   9
ENDBRANCH   4   7
ENDBRANCH   2   3
ENDBRANCH   1   2
BRANCH   1  22
ATOM     22  C   UNL     1       4.933   2.043   1.256  1.00  0.00     0.023 C 
BRANCH  22  23
ATOM     23  C   UNL     1       5.925   1.725   2.366  1.00  0.00     0.116 C 
BRANCH  23  24
ATOM     24  N   UNL     1       6.926   0.751   1.962  1.00  0.00    -0.352 N 
ATOM     25  C   UNL     1       8.273   0.741   2.215  1.00  0.00     0.251 C 
ATOM     26  H   UNL     1       6.589  -0.007   1.433  1.00  0.00     0.163 HD
ATOM     27  O   UNL     1       8.991  -0.097   1.667  1.00  0.00    -0.269 OA
BRANCH  25  28
ATOM     28  C   UNL     1       8.871   1.742   3.123  1.00  0.00     0.039 A 
ATOM     29  C   UNL     1      10.097   2.314   2.776  1.00  0.00     0.014 A 
ATOM     30  C   UNL     1       8.247   2.097   4.322  1.00  0.00     0.014 A 
ATOM     31  C   UNL     1      10.683   3.260   3.618  1.00  0.00     0.010 A 
ATOM     32  C   UNL     1       8.789   3.103   5.116  1.00  0.00     0.010 A 
ATOM     33  C   UNL     1      10.027   3.673   4.789  1.00  0.00    -0.014 A 
BRANCH  33  34
ATOM     34  C   UNL     1      10.655   4.654   5.708  1.00  0.00     0.031 A 
ATOM     35  C   UNL     1      11.047   4.236   7.101  1.00  0.00     0.074 A 
ATOM     36  C   UNL     1      10.852   5.924   5.304  1.00  0.00     0.049 A 
ATOM     37  N   UNL     1      11.617   4.941   8.046  1.00  0.00    -0.248 NA
ATOM     38  C   UNL     1      10.734   2.852   7.494  1.00  0.00     0.031 C 
ATOM     39  C   UNL     1      10.482   6.466   3.995  1.00  0.00     0.029 A 
ATOM     40  N   UNL     1      11.421   6.989   5.956  1.00  0.00    -0.354 N 
ATOM     41  C   UNL     1      11.710   4.094   9.144  1.00  0.00     0.074 A 
ATOM     42  C   UNL     1      11.086   2.845   8.771  1.00  0.00     0.031 C 
ATOM     43  C   UNL     1      10.873   7.749   3.925  1.00  0.00     0.029 A 
ATOM     44  C   UNL     1      11.488   8.129   5.193  1.00  0.00     0.049 A 
ATOM     45  H   UNL     1      11.751   6.940   6.883  1.00  0.00     0.167 HD
ATOM     46  C   UNL     1      12.284   4.324  10.349  1.00  0.00     0.031 A 
ATOM     47  C   UNL     1      11.997   9.341   5.481  1.00  0.00     0.031 A 
ATOM     48  C   UNL     1      12.920   5.560  10.716  1.00  0.00     0.049 A 
ATOM     49  C   UNL     1      12.631   9.571   6.825  1.00  0.00     0.074 A 
ATOM     50  C   UNL     1      13.584   5.874  11.889  1.00  0.00     0.029 A 
ATOM     51  N   UNL     1      12.970   6.688   9.913  1.00  0.00    -0.354 N 
ATOM     52  N   UNL     1      12.780   8.736   7.825  1.00  0.00    -0.248 NA
ATOM     53  C   UNL     1      13.189  10.909   7.069  1.00  0.00     0.031 C 
ATOM     54  C   UNL     1      13.988   7.211  11.817  1.00  0.00     0.029 A 
ATOM     55  C   UNL     1      13.635   7.708  10.572  1.00  0.00     0.049 A 
ATOM     56  H   UNL     1      12.588   6.755   9.007  1.00  0.00     0.167 HD
ATOM     57  C   UNL     1      13.485   9.433   8.799  1.00  0.00     0.074 A 
ATOM     58  C   UNL     1      13.743  10.754   8.263  1.00  0.00     0.031 C 
ATOM     59  C   UNL     1      13.889   9.015  10.023  1.00  0.00     0.031 A 
BRANCH  46  60
ATOM     60  C   UNL     1      12.238   3.210  11.361  1.00  0.00    -0.014 A 
ATOM     61  C   UNL     1      12.969   2.024  11.178  1.00  0.00     0.009 A 
ATOM     62  C   UNL     1      11.469   3.358  12.525  1.00  0.00     0.009 A 
ATOM     63  C   UNL     1      12.893   0.993  12.118  1.00  0.00     0.001 A 
ATOM     64  C   UNL     1      11.422   2.340  13.479  1.00  0.00     0.001 A 
ATOM     65  C   UNL     1      12.124   1.154  13.269  1.00  0.00     0.000 A 
ENDBRANCH  46  60
BRANCH  47  66
ATOM     66  C   UNL     1      11.970  10.425   4.463  1.00  0.00    -0.014 A 
ATOM     67  C   UNL     1      13.159  10.866   3.861  1.00  0.00     0.009 A 
ATOM     68  C   UNL     1      10.760  11.036   4.099  1.00  0.00     0.009 A 
ATOM     69  C   UNL     1      13.142  11.918   2.944  1.00  0.00     0.001 A 
ATOM     70  C   UNL     1      10.742  12.067   3.157  1.00  0.00     0.001 A 
ATOM     71  C   UNL     1      11.934  12.516   2.589  1.00  0.00     0.000 A 
ENDBRANCH  47  66
BRANCH  59  72
ATOM     72  C   UNL     1      14.705   9.976  10.843  1.00  0.00    -0.014 A 
ATOM     73  C   UNL     1      14.141  11.133  11.402  1.00  0.00     0.009 A 
ATOM     74  C   UNL     1      16.062   9.700  11.077  1.00  0.00     0.009 A 
ATOM     75  C   UNL     1      14.931  12.018  12.139  1.00  0.00     0.001 A 
ATOM     76  C   UNL     1      16.840  10.568  11.844  1.00  0.00     0.001 A 
ATOM     77  C   UNL     1      16.278  11.732  12.363  1.00  0.00     0.000 A 
ENDBRANCH  59  72
ENDBRANCH  33  34
ENDBRANCH  25  28
ENDBRANCH  23  24
ENDBRANCH  22  23
ENDBRANCH   1  22
TORSDOF 14
