REMARK SMILES O=C(NCCCCNC(=O)[C@@]1([NH2+]C2CC2)CCC[C@@H](Sc2ncn[nH]2)C1)c1ccc(-c2c3nc(c(-c4ccccc4)c4ccc([nH]4)c(-c4ccccc4)c4nc(c(-c5ccccc5)c5ccc2[nH]5)C=C4)C=C3)cc1
REMARK SMILES IDX 5 1 4 2 3 3 1 4 2 5 27 7 28 8 74 9 29 10 73 11 30 12 31 13
REMARK SMILES IDX 32 14 67 15 33 16 72 17 66 18 68 19 34 20 71 21 65 22 64 23
REMARK SMILES IDX 35 25 57 26 42 27 56 28 43 29 46 30 55 31 69 32 44 33 45 34
REMARK SMILES IDX 54 36 70 37 47 38 36 39 37 40 41 41 38 42 40 43 39 44 58 45
REMARK SMILES IDX 59 46 63 47 60 48 62 49 61 50 48 51 49 52 53 53 50 54 52 55
REMARK SMILES IDX 51 56 6 57 7 58 8 59 9 60 10 62 11 63 16 64 26 65 17 66
REMARK SMILES IDX 19 67 18 68 12 69 13 72 14 73 15 74 20 75 21 76 22 77 25 78
REMARK SMILES IDX 23 79 24 80
REMARK H PARENT 3 6 68 24 46 35 8 61 12 70 12 71 25 81
REMARK Flexibility Score: inf
ROOT
ATOM      1  C   UNL     1       5.293   2.231  -0.907  1.00  0.00     0.023 C 
ENDROOT
BRANCH   1   2
ATOM      2  C   UNL     1       4.774   1.428   0.283  1.00  0.00     0.116 C 
BRANCH   2   3
ATOM      3  N   UNL     1       3.332   1.233   0.274  1.00  0.00    -0.352 N 
ATOM      4  O   UNL     1       1.352   0.222  -0.089  1.00  0.00    -0.269 OA
ATOM      5  C   UNL     1       2.572   0.130  -0.052  1.00  0.00     0.251 C 
ATOM      6  H   UNL     1       2.811   2.022   0.548  1.00  0.00     0.163 HD
BRANCH   5   7
ATOM      7  C   UNL     1       3.217  -1.160  -0.396  1.00  0.00     0.039 A 
ATOM      8  C   UNL     1       4.258  -1.679   0.372  1.00  0.00     0.014 A 
ATOM      9  C   UNL     1       2.741  -1.885  -1.494  1.00  0.00     0.014 A 
ATOM     10  C   UNL     1       4.936  -2.817  -0.055  1.00  0.00     0.010 A 
ATOM     11  C   UNL     1       3.363  -3.082  -1.869  1.00  0.00     0.010 A 
ATOM     12  C   UNL     1       4.493  -3.539  -1.175  1.00  0.00    -0.014 A 
BRANCH  12  13
ATOM     13  C   UNL     1       5.192  -4.795  -1.554  1.00  0.00     0.031 A 
ATOM     14  C   UNL     1       5.926  -4.922  -2.862  1.00  0.00     0.074 A 
ATOM     15  C   UNL     1       5.196  -5.821  -0.680  1.00  0.00     0.049 A 
ATOM     16  N   UNL     1       6.619  -5.936  -3.319  1.00  0.00    -0.248 NA
ATOM     17  C   UNL     1       5.874  -3.773  -3.780  1.00  0.00     0.031 C 
ATOM     18  C   UNL     1       4.515  -5.827   0.618  1.00  0.00     0.029 A 
ATOM     19  N   UNL     1       5.810  -7.047  -0.736  1.00  0.00    -0.354 N 
ATOM     20  C   UNL     1       7.067  -5.558  -4.579  1.00  0.00     0.074 A 
ATOM     21  C   UNL     1       6.554  -4.227  -4.825  1.00  0.00     0.031 C 
ATOM     22  C   UNL     1       4.790  -6.973   1.255  1.00  0.00     0.029 A 
ATOM     23  C   UNL     1       5.612  -7.810   0.390  1.00  0.00     0.049 A 
ATOM     24  H   UNL     1       6.341  -7.350  -1.507  1.00  0.00     0.167 HD
ATOM     25  C   UNL     1       7.837  -6.255  -5.449  1.00  0.00     0.031 A 
ATOM     26  C   UNL     1       6.029  -9.054   0.691  1.00  0.00     0.031 A 
ATOM     27  C   UNL     1       8.360  -7.574  -5.200  1.00  0.00     0.049 A 
ATOM     28  C   UNL     1       6.861  -9.807  -0.304  1.00  0.00     0.074 A 
ATOM     29  C   UNL     1       9.188  -8.338  -6.006  1.00  0.00     0.029 A 
ATOM     30  N   UNL     1       8.103  -8.326  -4.066  1.00  0.00    -0.354 N 
ATOM     31  N   UNL     1       7.308  -9.414  -1.471  1.00  0.00    -0.248 NA
ATOM     32  C   UNL     1       7.241 -11.179   0.060  1.00  0.00     0.031 C 
ATOM     33  C   UNL     1       9.390  -9.573  -5.382  1.00  0.00     0.029 A 
ATOM     34  C   UNL     1       8.730  -9.558  -4.164  1.00  0.00     0.049 A 
ATOM     35  H   UNL     1       7.556  -8.030  -3.303  1.00  0.00     0.167 HD
ATOM     36  C   UNL     1       8.030 -10.485  -1.977  1.00  0.00     0.074 A 
ATOM     37  C   UNL     1       7.985 -11.533  -0.978  1.00  0.00     0.031 C 
ATOM     38  C   UNL     1       8.668 -10.593  -3.167  1.00  0.00     0.031 A 
BRANCH  25  39
ATOM     39  C   UNL     1       8.155  -5.621  -6.775  1.00  0.00    -0.014 A 
ATOM     40  C   UNL     1       9.101  -4.591  -6.884  1.00  0.00     0.009 A 
ATOM     41  C   UNL     1       7.562  -6.126  -7.944  1.00  0.00     0.009 A 
ATOM     42  C   UNL     1       9.434  -4.068  -8.136  1.00  0.00     0.001 A 
ATOM     43  C   UNL     1       7.913  -5.616  -9.195  1.00  0.00     0.001 A 
ATOM     44  C   UNL     1       8.846  -4.585  -9.290  1.00  0.00     0.000 A 
ENDBRANCH  25  39
BRANCH  26  45
ATOM     45  C   UNL     1       5.635  -9.675   1.981  1.00  0.00    -0.014 A 
ATOM     46  C   UNL     1       6.588  -9.923   2.980  1.00  0.00     0.009 A 
ATOM     47  C   UNL     1       4.297 -10.029   2.216  1.00  0.00     0.009 A 
ATOM     48  C   UNL     1       6.212 -10.533   4.179  1.00  0.00     0.001 A 
ATOM     49  C   UNL     1       3.918 -10.609   3.428  1.00  0.00     0.001 A 
ATOM     50  C   UNL     1       4.878 -10.871   4.403  1.00  0.00     0.000 A 
ENDBRANCH  26  45
BRANCH  38  51
ATOM     51  C   UNL     1       9.378 -11.887  -3.441  1.00  0.00    -0.014 A 
ATOM     52  C   UNL     1       8.662 -13.055  -3.743  1.00  0.00     0.009 A 
ATOM     53  C   UNL     1      10.780 -11.932  -3.413  1.00  0.00     0.009 A 
ATOM     54  C   UNL     1       9.337 -14.255  -3.977  1.00  0.00     0.001 A 
ATOM     55  C   UNL     1      11.453 -13.127  -3.673  1.00  0.00     0.001 A 
ATOM     56  C   UNL     1      10.731 -14.288  -3.945  1.00  0.00     0.000 A 
ENDBRANCH  38  51
ENDBRANCH  12  13
ENDBRANCH   5   7
ENDBRANCH   2   3
ENDBRANCH   1   2
BRANCH   1  57
ATOM     57  C   UNL     1       4.935   3.721  -0.939  1.00  0.00     0.023 C 
BRANCH  57  58
ATOM     58  C   UNL     1       5.095   4.482   0.376  1.00  0.00     0.116 C 
BRANCH  58  59
ATOM     59  N   UNL     1       6.402   4.371   0.992  1.00  0.00    -0.351 N 
ATOM     60  C   UNL     1       6.856   4.943   2.153  1.00  0.00     0.281 C 
ATOM     61  H   UNL     1       7.052   3.808   0.512  1.00  0.00     0.163 HD
ATOM     62  O   UNL     1       7.902   4.464   2.612  1.00  0.00    -0.268 OA
BRANCH  60  63
ATOM     63  C   UNL     1       6.190   6.203   2.810  1.00  0.00     0.176 C 
ATOM     64  C   UNL     1       6.710   6.408   4.257  1.00  0.00     0.079 C 
ATOM     65  C   UNL     1       6.712   7.426   1.989  1.00  0.00     0.094 C 
ATOM     66  C   UNL     1       6.175   7.689   4.897  1.00  0.00     0.008 C 
ATOM     67  C   UNL     1       6.383   8.798   2.608  1.00  0.00     0.061 C 
ATOM     68  C   UNL     1       6.639   8.909   4.119  1.00  0.00     0.015 C 
BRANCH  63  69
ATOM     69  N   UNL     1       4.708   6.165   2.768  1.00  0.00    -0.331 N 
ATOM     70  H   UNL     1       4.451   6.228   1.783  1.00  0.00     0.347 HD
ATOM     71  H   UNL     1       4.462   6.924   3.403  1.00  0.00     0.347 HD
BRANCH  69  72
ATOM     72  C   UNL     1       3.930   5.050   3.320  1.00  0.00     0.183 C 
ATOM     73  C   UNL     1       4.492   3.839   4.004  1.00  0.00     0.071 C 
ATOM     74  C   UNL     1       3.732   4.865   4.795  1.00  0.00     0.071 C 
ENDBRANCH  69  72
ENDBRANCH  63  69
BRANCH  67  75
ATOM     75  S   UNL     1       7.206  10.181   1.708  1.00  0.00    -0.083 SA
BRANCH  75  76
ATOM     76  C   UNL     1       8.821  10.102   2.304  1.00  0.00     0.183 A 
ATOM     77  N   UNL     1       9.657   9.097   2.259  1.00  0.00    -0.210 NA
ATOM     78  N   UNL     1       9.373  11.135   2.997  1.00  0.00    -0.254 N 
ATOM     79  C   UNL     1      10.735   9.573   2.954  1.00  0.00     0.247 A 
ATOM     80  N   UNL     1      10.603  10.812   3.440  1.00  0.00    -0.162 NA
ATOM     81  H   UNL     1       8.933  12.001   3.154  1.00  0.00     0.192 HD
ENDBRANCH  75  76
ENDBRANCH  67  75
ENDBRANCH  60  63
ENDBRANCH  58  59
ENDBRANCH  57  58
ENDBRANCH   1  57
TORSDOF 15
