REMARK SMILES CCN(CC)c1ncc(NC(=O)c2ccc(C)cc2)cc1C(=O)NCCCCNC(=O)c1ccc(-c2c3nc(c(-c4ccccc4)c4ccc([nH]4)c(-c4ccccc4)c4nc(c(-c5ccccc5)c5ccc2[nH]5)C=C4)C=C3)cc1
REMARK SMILES IDX 26 1 25 2 24 3 22 4 23 5 21 7 6 8 7 9 8 10 20 11 9 12 3 13
REMARK SMILES IDX 2 14 1 15 4 16 5 17 10 18 11 19 12 21 13 22 14 23 19 24
REMARK SMILES IDX 15 25 18 26 16 27 17 28 27 29 28 30 29 31 30 32 31 34 32 35
REMARK SMILES IDX 33 36 79 37 34 38 78 39 35 40 36 41 37 42 72 43 38 44 77 45
REMARK SMILES IDX 71 46 73 47 39 48 76 49 70 50 69 51 40 53 62 54 47 55 61 56
REMARK SMILES IDX 48 57 51 58 60 59 74 60 49 61 50 62 59 64 75 65 52 66 41 67
REMARK SMILES IDX 42 68 46 69 43 70 45 71 44 72 63 73 64 74 68 75 65 76 67 77
REMARK SMILES IDX 66 78 53 79 54 80 58 81 55 82 57 83 56 84
REMARK H PARENT 24 6 10 20 29 33 73 52 51 63
REMARK Flexibility Score: inf
ROOT
ATOM      1  C   UNL     1       5.604   0.241  -1.431  1.00  0.00     0.023 C 
ENDROOT
BRANCH   1   2
ATOM      2  C   UNL     1       5.181   1.580  -0.823  1.00  0.00     0.116 C 
BRANCH   2   3
ATOM      3  N   UNL     1       3.762   1.728  -0.525  1.00  0.00    -0.352 N 
ATOM      4  C   UNL     1       2.945   1.549   0.575  1.00  0.00     0.255 C 
ATOM      5  O   UNL     1       1.837   2.079   0.486  1.00  0.00    -0.269 OA
ATOM      6  H   UNL     1       3.254   2.034  -1.311  1.00  0.00     0.163 HD
BRANCH   4   7
ATOM      7  C   UNL     1       3.314   0.787   1.807  1.00  0.00     0.084 A 
ATOM      8  C   UNL     1       2.346   0.103   2.576  1.00  0.00     0.141 A 
ATOM      9  N   UNL     1       2.690  -0.511   3.739  1.00  0.00    -0.236 NA
ATOM     10  C   UNL     1       3.969  -0.474   4.165  1.00  0.00     0.139 A 
ATOM     11  C   UNL     1       4.623   0.825   2.309  1.00  0.00     0.045 A 
ATOM     12  C   UNL     1       4.988   0.135   3.466  1.00  0.00     0.060 A 
BRANCH   8  13
ATOM     13  N   UNL     1       1.004   0.002   2.249  1.00  0.00    -0.357 N 
BRANCH  13  14
ATOM     14  C   UNL     1       0.592  -1.111   1.399  1.00  0.00     0.114 C 
ATOM     15  C   UNL     1       0.508  -0.700  -0.061  1.00  0.00     0.027 C 
ENDBRANCH  13  14
BRANCH  13  16
ATOM     16  C   UNL     1       0.041   0.500   3.239  1.00  0.00     0.114 C 
ATOM     17  C   UNL     1      -0.204  -0.451   4.410  1.00  0.00     0.027 C 
ENDBRANCH  13  16
ENDBRANCH   8  13
BRANCH  12  18
ATOM     18  N   UNL     1       6.344   0.157   3.836  1.00  0.00    -0.321 N 
ATOM     19  C   UNL     1       7.074  -0.580   4.741  1.00  0.00     0.255 C 
ATOM     20  H   UNL     1       6.876   0.831   3.353  1.00  0.00     0.170 HD
ATOM     21  O   UNL     1       8.207  -0.202   5.039  1.00  0.00    -0.269 OA
BRANCH  19  22
ATOM     22  C   UNL     1       6.575  -1.844   5.324  1.00  0.00     0.040 A 
ATOM     23  C   UNL     1       6.774  -2.066   6.690  1.00  0.00     0.014 A 
ATOM     24  C   UNL     1       5.968  -2.830   4.538  1.00  0.00     0.014 A 
ATOM     25  C   UNL     1       6.293  -3.235   7.283  1.00  0.00     0.004 A 
ATOM     26  C   UNL     1       5.470  -3.989   5.139  1.00  0.00     0.004 A 
ATOM     27  C   UNL     1       5.611  -4.189   6.518  1.00  0.00    -0.051 A 
ATOM     28  C   UNL     1       5.080  -5.432   7.171  1.00  0.00     0.044 C 
ENDBRANCH  19  22
ENDBRANCH  12  18
ENDBRANCH   4   7
ENDBRANCH   2   3
ENDBRANCH   1   2
BRANCH   1  29
ATOM     29  C   UNL     1       5.171  -0.007  -2.882  1.00  0.00     0.023 C 
BRANCH  29  30
ATOM     30  C   UNL     1       5.628   1.035  -3.901  1.00  0.00     0.116 C 
BRANCH  30  31
ATOM     31  N   UNL     1       7.024   0.966  -4.312  1.00  0.00    -0.352 N 
ATOM     32  C   UNL     1       7.795   1.900  -5.002  1.00  0.00     0.251 C 
ATOM     33  H   UNL     1       7.492   0.136  -4.066  1.00  0.00     0.163 HD
ATOM     34  O   UNL     1       8.920   1.621  -5.354  1.00  0.00    -0.269 OA
BRANCH  32  35
ATOM     35  C   UNL     1       7.285   3.290  -5.176  1.00  0.00     0.039 A 
ATOM     36  C   UNL     1       8.164   4.342  -4.888  1.00  0.00     0.014 A 
ATOM     37  C   UNL     1       5.934   3.551  -5.379  1.00  0.00     0.014 A 
ATOM     38  C   UNL     1       7.647   5.579  -4.515  1.00  0.00     0.010 A 
ATOM     39  C   UNL     1       5.412   4.739  -4.905  1.00  0.00     0.010 A 
ATOM     40  C   UNL     1       6.268   5.718  -4.393  1.00  0.00    -0.014 A 
BRANCH  40  41
ATOM     41  C   UNL     1       5.640   6.773  -3.606  1.00  0.00     0.031 A 
ATOM     42  C   UNL     1       4.909   7.869  -4.265  1.00  0.00     0.074 A 
ATOM     43  C   UNL     1       5.681   6.702  -2.256  1.00  0.00     0.049 A 
ATOM     44  N   UNL     1       4.629   8.994  -3.700  1.00  0.00    -0.248 NA
ATOM     45  C   UNL     1       4.513   7.816  -5.669  1.00  0.00     0.031 C 
ATOM     46  C   UNL     1       4.886   7.457  -1.292  1.00  0.00     0.029 A 
ATOM     47  N   UNL     1       6.656   6.069  -1.481  1.00  0.00    -0.354 N 
ATOM     48  C   UNL     1       3.778   9.674  -4.535  1.00  0.00     0.074 A 
ATOM     49  C   UNL     1       3.850   8.970  -5.792  1.00  0.00     0.031 C 
ATOM     50  C   UNL     1       5.526   7.463  -0.112  1.00  0.00     0.029 A 
ATOM     51  C   UNL     1       6.829   6.855  -0.327  1.00  0.00     0.049 A 
ATOM     52  H   UNL     1       7.130   5.235  -1.700  1.00  0.00     0.167 HD
ATOM     53  C   UNL     1       2.998  10.665  -4.020  1.00  0.00     0.031 A 
ATOM     54  C   UNL     1       8.020   7.466  -0.061  1.00  0.00     0.031 A 
ATOM     55  C   UNL     1       3.416  11.027  -2.665  1.00  0.00     0.049 A 
ATOM     56  C   UNL     1       7.931   8.974   0.030  1.00  0.00     0.074 A 
ATOM     57  C   UNL     1       2.893  10.780  -1.406  1.00  0.00     0.029 A 
ATOM     58  N   UNL     1       4.699  11.527  -2.467  1.00  0.00    -0.354 N 
ATOM     59  N   UNL     1       6.949   9.682  -0.456  1.00  0.00    -0.248 NA
ATOM     60  C   UNL     1       8.966   9.803   0.641  1.00  0.00     0.031 C 
ATOM     61  C   UNL     1       3.909  11.056  -0.450  1.00  0.00     0.029 A 
ATOM     62  C   UNL     1       5.028  11.512  -1.126  1.00  0.00     0.049 A 
ATOM     63  H   UNL     1       5.292  11.847  -3.184  1.00  0.00     0.167 HD
ATOM     64  C   UNL     1       7.195  11.014  -0.246  1.00  0.00     0.074 A 
ATOM     65  C   UNL     1       8.464  11.037   0.459  1.00  0.00     0.031 C 
ATOM     66  C   UNL     1       6.338  11.983  -0.687  1.00  0.00     0.031 A 
BRANCH  53  67
ATOM     67  C   UNL     1       1.702  11.139  -4.647  1.00  0.00    -0.014 A 
ATOM     68  C   UNL     1       0.833  11.960  -3.902  1.00  0.00     0.009 A 
ATOM     69  C   UNL     1       1.218  10.737  -5.905  1.00  0.00     0.009 A 
ATOM     70  C   UNL     1      -0.445  12.313  -4.367  1.00  0.00     0.001 A 
ATOM     71  C   UNL     1      -0.051  11.092  -6.382  1.00  0.00     0.001 A 
ATOM     72  C   UNL     1      -0.890  11.872  -5.606  1.00  0.00     0.000 A 
ENDBRANCH  53  67
BRANCH  54  73
ATOM     73  C   UNL     1       9.206   6.721  -0.570  1.00  0.00    -0.014 A 
ATOM     74  C   UNL     1       9.493   5.456  -0.018  1.00  0.00     0.009 A 
ATOM     75  C   UNL     1       9.809   7.072  -1.786  1.00  0.00     0.009 A 
ATOM     76  C   UNL     1      10.263   4.525  -0.720  1.00  0.00     0.001 A 
ATOM     77  C   UNL     1      10.593   6.141  -2.479  1.00  0.00     0.001 A 
ATOM     78  C   UNL     1      10.789   4.859  -1.965  1.00  0.00     0.000 A 
ENDBRANCH  54  73
BRANCH  66  79
ATOM     79  C   UNL     1       6.602  13.473  -0.714  1.00  0.00    -0.014 A 
ATOM     80  C   UNL     1       7.870  14.063  -0.634  1.00  0.00     0.009 A 
ATOM     81  C   UNL     1       5.519  14.350  -0.961  1.00  0.00     0.009 A 
ATOM     82  C   UNL     1       8.042  15.451  -0.748  1.00  0.00     0.001 A 
ATOM     83  C   UNL     1       5.690  15.727  -1.122  1.00  0.00     0.001 A 
ATOM     84  C   UNL     1       6.955  16.281  -1.003  1.00  0.00     0.000 A 
ENDBRANCH  66  79
ENDBRANCH  40  41
ENDBRANCH  32  35
ENDBRANCH  30  31
ENDBRANCH  29  30
ENDBRANCH   1  29
TORSDOF 16
