REMARK SMILES CC(C)COc1cccc(N2C[C@@H](C(=O)NCCCCNC(=O)c3ccc(-c4c5nc(c(-c6ccccc6)c6ccc([nH]6)c(-c6ccccc6)c6nc(c(-c7ccccc7)c7ccc4[nH]7)C=C6)C=C5)cc3)CC2=O)c1
REMARK SMILES IDX 17 1 16 2 14 3 15 4 13 6 11 7 12 8 73 9 72 10 74 11 10 12
REMARK SMILES IDX 6 13 7 14 75 15 8 16 9 17 5 18 4 19 2 20 1 21 3 22 18 23
REMARK SMILES IDX 19 24 20 25 21 26 22 27 23 29 24 30 25 31 71 32 26 33 70 34
REMARK SMILES IDX 27 35 28 36 29 37 64 38 30 39 69 40 63 41 65 42 31 43 68 44
REMARK SMILES IDX 62 45 61 46 32 48 54 49 39 50 53 51 40 52 43 53 52 54 66 55
REMARK SMILES IDX 41 56 42 57 51 59 67 60 44 61 33 62 34 63 38 64 35 65 37 66
REMARK SMILES IDX 36 67 55 68 56 69 60 70 57 71 59 72 58 73 45 74 46 75 50 76
REMARK SMILES IDX 47 77 49 78 48 79
REMARK H PARENT 16 5 21 28 65 47 43 58
REMARK Flexibility Score: inf
ROOT
ATOM      1  C   UNL     1       4.065   0.466   2.876  1.00  0.00     0.116 C 
ENDROOT
BRANCH   1   2
ATOM      2  N   UNL     1       4.689   1.559   3.604  1.00  0.00    -0.356 N 
ATOM      3  C   UNL     1       4.636   2.907   3.458  1.00  0.00     0.225 C 
ATOM      4  O   UNL     1       5.281   3.581   4.266  1.00  0.00    -0.275 OA
ATOM      5  H   UNL     1       5.261   1.263   4.348  1.00  0.00     0.163 HD
BRANCH   3   6
ATOM      6  C   UNL     1       3.829   3.604   2.383  1.00  0.00     0.107 C 
ATOM      7  N   UNL     1       1.841   3.248   1.207  1.00  0.00    -0.311 N 
ATOM      8  C   UNL     1       2.325   3.429   2.545  1.00  0.00     0.139 C 
ATOM      9  C   UNL     1       2.859   3.024   0.277  1.00  0.00     0.227 C 
ATOM     10  C   UNL     1       4.182   3.176   0.967  1.00  0.00     0.116 C 
ATOM     11  O   UNL     1       2.750   2.743  -0.901  1.00  0.00    -0.274 OA
BRANCH   7  12
ATOM     12  C   UNL     1       0.492   2.983   0.909  1.00  0.00     0.047 A 
ATOM     13  C   UNL     1      -1.017   1.513  -0.300  1.00  0.00     0.121 A 
ATOM     14  C   UNL     1      -1.984   2.515  -0.272  1.00  0.00     0.046 A 
ATOM     15  C   UNL     1       0.190   1.752   0.331  1.00  0.00     0.072 A 
ATOM     16  C   UNL     1      -1.737   3.720   0.407  1.00  0.00     0.006 A 
ATOM     17  C   UNL     1      -0.491   3.960   1.001  1.00  0.00     0.026 A 
BRANCH  13  18
ATOM     18  O   UNL     1      -1.250   0.407  -1.068  1.00  0.00    -0.493 OA
BRANCH  18  19
ATOM     19  C   UNL     1      -0.704  -0.846  -0.625  1.00  0.00     0.232 C 
BRANCH  19  20
ATOM     20  C   UNL     1       0.556  -1.315  -1.403  1.00  0.00     0.020 C 
ATOM     21  C   UNL     1       1.887  -0.903  -0.759  1.00  0.00     0.011 C 
ATOM     22  C   UNL     1       0.561  -2.845  -1.497  1.00  0.00     0.011 C 
ENDBRANCH  19  20
ENDBRANCH  18  19
ENDBRANCH  13  18
ENDBRANCH   7  12
ENDBRANCH   3   6
ENDBRANCH   1   2
BRANCH   1  23
ATOM     23  C   UNL     1       5.097  -0.445   2.208  1.00  0.00     0.023 C 
BRANCH  23  24
ATOM     24  C   UNL     1       6.050  -1.172   3.164  1.00  0.00     0.023 C 
BRANCH  24  25
ATOM     25  C   UNL     1       5.387  -2.020   4.246  1.00  0.00     0.116 C 
BRANCH  25  26
ATOM     26  N   UNL     1       4.531  -3.064   3.709  1.00  0.00    -0.352 N 
ATOM     27  C   UNL     1       4.426  -4.385   4.075  1.00  0.00     0.251 C 
ATOM     28  H   UNL     1       3.938  -2.784   2.974  1.00  0.00     0.163 HD
ATOM     29  O   UNL     1       3.719  -5.144   3.418  1.00  0.00    -0.269 OA
BRANCH  27  30
ATOM     30  C   UNL     1       5.185  -4.906   5.234  1.00  0.00     0.039 A 
ATOM     31  C   UNL     1       5.840  -6.134   5.107  1.00  0.00     0.014 A 
ATOM     32  C   UNL     1       5.250  -4.202   6.439  1.00  0.00     0.014 A 
ATOM     33  C   UNL     1       6.614  -6.622   6.162  1.00  0.00     0.010 A 
ATOM     34  C   UNL     1       6.078  -4.655   7.465  1.00  0.00     0.010 A 
ATOM     35  C   UNL     1       6.770  -5.869   7.337  1.00  0.00    -0.014 A 
BRANCH  35  36
ATOM     36  C   UNL     1       7.665  -6.333   8.429  1.00  0.00     0.031 A 
ATOM     37  C   UNL     1       7.107  -6.678   9.783  1.00  0.00     0.074 A 
ATOM     38  C   UNL     1       8.994  -6.395   8.217  1.00  0.00     0.049 A 
ATOM     39  N   UNL     1       7.738  -7.080  10.858  1.00  0.00    -0.248 NA
ATOM     40  C   UNL     1       5.654  -6.532   9.960  1.00  0.00     0.031 C 
ATOM     41  C   UNL     1       9.671  -6.044   6.966  1.00  0.00     0.029 A 
ATOM     42  N   UNL     1      10.016  -6.776   9.051  1.00  0.00    -0.354 N 
ATOM     43  C   UNL     1       6.764  -7.221  11.838  1.00  0.00     0.074 A 
ATOM     44  C   UNL     1       5.509  -6.812  11.247  1.00  0.00     0.031 C 
ATOM     45  C   UNL     1      10.989  -6.257   7.105  1.00  0.00     0.029 A 
ATOM     46  C   UNL     1      11.256  -6.723   8.462  1.00  0.00     0.049 A 
ATOM     47  H   UNL     1       9.874  -7.059   9.983  1.00  0.00     0.167 HD
ATOM     48  C   UNL     1       6.897  -7.668  13.111  1.00  0.00     0.031 A 
ATOM     49  C   UNL     1      12.473  -7.017   8.957  1.00  0.00     0.031 A 
ATOM     50  C   UNL     1       8.143  -8.080  13.700  1.00  0.00     0.049 A 
ATOM     51  C   UNL     1      12.594  -7.504  10.373  1.00  0.00     0.074 A 
ATOM     52  C   UNL     1       8.369  -8.601  14.963  1.00  0.00     0.029 A 
ATOM     53  N   UNL     1       9.375  -8.015  13.069  1.00  0.00    -0.354 N 
ATOM     54  N   UNL     1      11.653  -7.702  11.263  1.00  0.00    -0.248 NA
ATOM     55  C   UNL     1      13.949  -7.823  10.847  1.00  0.00     0.031 C 
ATOM     56  C   UNL     1       9.745  -8.803  15.114  1.00  0.00     0.029 A 
ATOM     57  C   UNL     1      10.369  -8.463  13.925  1.00  0.00     0.049 A 
ATOM     58  H   UNL     1       9.523  -7.697  12.149  1.00  0.00     0.167 HD
ATOM     59  C   UNL     1      12.296  -8.192  12.392  1.00  0.00     0.074 A 
ATOM     60  C   UNL     1      13.705  -8.282  12.066  1.00  0.00     0.031 C 
ATOM     61  C   UNL     1      11.768  -8.539  13.591  1.00  0.00     0.031 A 
BRANCH  48  62
ATOM     62  C   UNL     1       5.654  -7.726  13.955  1.00  0.00    -0.014 A 
ATOM     63  C   UNL     1       4.641  -8.665  13.696  1.00  0.00     0.009 A 
ATOM     64  C   UNL     1       5.506  -6.854  15.045  1.00  0.00     0.009 A 
ATOM     65  C   UNL     1       3.490  -8.702  14.486  1.00  0.00     0.001 A 
ATOM     66  C   UNL     1       4.367  -6.913  15.851  1.00  0.00     0.001 A 
ATOM     67  C   UNL     1       3.356  -7.830  15.565  1.00  0.00     0.000 A 
ENDBRANCH  48  62
BRANCH  49  68
ATOM     68  C   UNL     1      13.679  -6.880   8.098  1.00  0.00    -0.014 A 
ATOM     69  C   UNL     1      14.366  -8.019   7.650  1.00  0.00     0.009 A 
ATOM     70  C   UNL     1      14.155  -5.612   7.730  1.00  0.00     0.009 A 
ATOM     71  C   UNL     1      15.521  -7.890   6.876  1.00  0.00     0.001 A 
ATOM     72  C   UNL     1      15.293  -5.487   6.930  1.00  0.00     0.001 A 
ATOM     73  C   UNL     1      15.981  -6.625   6.513  1.00  0.00     0.000 A 
ENDBRANCH  49  68
BRANCH  61  74
ATOM     74  C   UNL     1      12.716  -9.075  14.627  1.00  0.00    -0.014 A 
ATOM     75  C   UNL     1      13.646  -8.242  15.268  1.00  0.00     0.009 A 
ATOM     76  C   UNL     1      12.662 -10.433  14.981  1.00  0.00     0.009 A 
ATOM     77  C   UNL     1      14.530  -8.766  16.213  1.00  0.00     0.001 A 
ATOM     78  C   UNL     1      13.527 -10.948  15.948  1.00  0.00     0.001 A 
ATOM     79  C   UNL     1      14.467 -10.117  16.554  1.00  0.00     0.000 A 
ENDBRANCH  61  74
ENDBRANCH  35  36
ENDBRANCH  27  30
ENDBRANCH  25  26
ENDBRANCH  24  25
ENDBRANCH  23  24
ENDBRANCH   1  23
TORSDOF 15
