REMARK SMILES C[C@H](Sc1ccnc(C(=O)NCCCCNC(=O)c2ccc(-c3c4nc(c(-c5ccccc5)c5ccc([nH]5)c(-c5ccccc5)c5nc(c(-c6ccccc6)c6ccc3[nH]6)C=C5)C=C4)cc2)c1)[C@@H](C)O
REMARK SMILES IDX 12 1 11 2 9 3 10 4 8 6 4 7 5 8 67 9 6 10 7 11 3 12 2 13 1 14
REMARK SMILES IDX 68 15 69 16 70 17 13 19 14 20 15 21 16 22 17 23 18 25 19 26
REMARK SMILES IDX 20 27 66 28 21 29 65 30 22 31 23 32 24 33 59 34 25 35 64 36
REMARK SMILES IDX 58 37 60 38 26 39 63 40 57 41 56 42 27 44 49 45 34 46 48 47
REMARK SMILES IDX 35 48 38 49 47 50 61 51 36 52 37 53 46 55 62 56 39 57 28 58
REMARK SMILES IDX 29 59 33 60 30 61 32 62 31 63 50 64 51 65 55 66 52 67 54 68
REMARK SMILES IDX 53 69 40 70 41 71 45 72 42 73 44 74 43 75
REMARK H PARENT 11 5 70 18 16 24 60 43 38 54
REMARK Flexibility Score: inf
ROOT
ATOM      1  C   UNL     1       2.774   3.308   3.123  1.00  0.00     0.116 C 
ENDROOT
BRANCH   1   2
ATOM      2  N   UNL     1       3.226   2.525   4.253  1.00  0.00    -0.351 N 
ATOM      3  C   UNL     1       3.262   1.174   4.513  1.00  0.00     0.269 C 
ATOM      4  O   UNL     1       3.639   0.862   5.646  1.00  0.00    -0.268 OA
ATOM      5  H   UNL     1       3.581   3.073   4.990  1.00  0.00     0.163 HD
BRANCH   3   6
ATOM      6  C   UNL     1       2.953   0.096   3.500  1.00  0.00     0.129 A 
ATOM      7  C   UNL     1       2.166  -0.750   1.383  1.00  0.00     0.011 A 
ATOM      8  C   UNL     1       2.871  -1.921   1.637  1.00  0.00     0.035 A 
ATOM      9  C   UNL     1       2.181   0.261   2.356  1.00  0.00     0.049 A 
ATOM     10  C   UNL     1       3.515  -2.058   2.851  1.00  0.00     0.113 A 
ATOM     11  N   UNL     1       3.580  -1.079   3.769  1.00  0.00    -0.251 NA
BRANCH   7  12
ATOM     12  S   UNL     1       1.555  -0.318  -0.245  1.00  0.00    -0.120 SA
BRANCH  12  13
ATOM     13  C   UNL     1       0.392  -1.639  -0.841  1.00  0.00     0.077 C 
ATOM     14  C   UNL     1       0.646  -3.057  -0.338  1.00  0.00     0.022 C 
BRANCH  13  15
ATOM     15  C   UNL     1      -1.101  -1.242  -0.700  1.00  0.00     0.124 C 
ATOM     16  C   UNL     1      -1.467   0.091  -1.351  1.00  0.00     0.039 C 
BRANCH  15  17
ATOM     17  O   UNL     1      -1.926  -2.243  -1.315  1.00  0.00    -0.392 OA
ATOM     18  H   UNL     1      -1.735  -2.280  -2.265  1.00  0.00     0.210 HD
ENDBRANCH  15  17
ENDBRANCH  13  15
ENDBRANCH  12  13
ENDBRANCH   7  12
ENDBRANCH   3   6
ENDBRANCH   1   2
BRANCH   1  19
ATOM     19  C   UNL     1       1.321   3.737   3.338  1.00  0.00     0.023 C 
BRANCH  19  20
ATOM     20  C   UNL     1       1.163   4.923   4.299  1.00  0.00     0.023 C 
BRANCH  20  21
ATOM     21  C   UNL     1       1.802   6.226   3.825  1.00  0.00     0.116 C 
BRANCH  21  22
ATOM     22  N   UNL     1       1.319   6.662   2.524  1.00  0.00    -0.352 N 
ATOM     23  C   UNL     1       1.183   7.941   2.046  1.00  0.00     0.251 C 
ATOM     24  H   UNL     1       1.055   5.944   1.904  1.00  0.00     0.163 HD
ATOM     25  O   UNL     1       0.662   8.147   0.955  1.00  0.00    -0.269 OA
BRANCH  23  26
ATOM     26  C   UNL     1       1.630   9.074   2.880  1.00  0.00     0.039 A 
ATOM     27  C   UNL     1       0.744  10.129   3.108  1.00  0.00     0.014 A 
ATOM     28  C   UNL     1       2.901   9.076   3.459  1.00  0.00     0.014 A 
ATOM     29  C   UNL     1       1.109  11.159   3.976  1.00  0.00     0.010 A 
ATOM     30  C   UNL     1       3.240  10.071   4.371  1.00  0.00     0.010 A 
ATOM     31  C   UNL     1       2.345  11.118   4.641  1.00  0.00    -0.014 A 
BRANCH  31  32
ATOM     32  C   UNL     1       2.715  12.155   5.634  1.00  0.00     0.031 A 
ATOM     33  C   UNL     1       3.868  13.080   5.367  1.00  0.00     0.074 A 
ATOM     34  C   UNL     1       2.052  12.219   6.806  1.00  0.00     0.049 A 
ATOM     35  N   UNL     1       4.379  14.005   6.139  1.00  0.00    -0.248 NA
ATOM     36  C   UNL     1       4.553  12.929   4.073  1.00  0.00     0.031 C 
ATOM     37  C   UNL     1       0.942  11.350   7.203  1.00  0.00     0.029 A 
ATOM     38  N   UNL     1       2.224  13.051   7.883  1.00  0.00    -0.354 N 
ATOM     39  C   UNL     1       5.452  14.533   5.433  1.00  0.00     0.074 A 
ATOM     40  C   UNL     1       5.548  13.796   4.192  1.00  0.00     0.031 C 
ATOM     41  C   UNL     1       0.518  11.710   8.425  1.00  0.00     0.029 A 
ATOM     42  C   UNL     1       1.347  12.808   8.912  1.00  0.00     0.049 A 
ATOM     43  H   UNL     1       2.912  13.755   7.916  1.00  0.00     0.167 HD
ATOM     44  C   UNL     1       6.272  15.553   5.778  1.00  0.00     0.031 A 
ATOM     45  C   UNL     1       1.226  13.401  10.114  1.00  0.00     0.031 A 
ATOM     46  C   UNL     1       6.170  16.296   7.005  1.00  0.00     0.049 A 
ATOM     47  C   UNL     1       2.154  14.528  10.474  1.00  0.00     0.074 A 
ATOM     48  C   UNL     1       6.920  17.382   7.420  1.00  0.00     0.029 A 
ATOM     49  N   UNL     1       5.258  16.029   8.013  1.00  0.00    -0.354 N 
ATOM     50  N   UNL     1       3.121  15.059   9.766  1.00  0.00    -0.248 NA
ATOM     51  C   UNL     1       1.964  15.143  11.795  1.00  0.00     0.031 C 
ATOM     52  C   UNL     1       6.489  17.747   8.700  1.00  0.00     0.029 A 
ATOM     53  C   UNL     1       5.438  16.918   9.059  1.00  0.00     0.049 A 
ATOM     54  H   UNL     1       4.582  15.314   7.989  1.00  0.00     0.167 HD
ATOM     55  C   UNL     1       3.637  16.087  10.544  1.00  0.00     0.074 A 
ATOM     56  C   UNL     1       2.865  16.115  11.770  1.00  0.00     0.031 C 
ATOM     57  C   UNL     1       4.659  16.933  10.269  1.00  0.00     0.031 A 
BRANCH  44  58
ATOM     58  C   UNL     1       7.358  15.925   4.807  1.00  0.00    -0.014 A 
ATOM     59  C   UNL     1       7.057  16.568   3.596  1.00  0.00     0.009 A 
ATOM     60  C   UNL     1       8.700  15.663   5.123  1.00  0.00     0.009 A 
ATOM     61  C   UNL     1       8.076  16.911   2.705  1.00  0.00     0.001 A 
ATOM     62  C   UNL     1       9.719  16.030   4.243  1.00  0.00     0.001 A 
ATOM     63  C   UNL     1       9.406  16.646   3.031  1.00  0.00     0.000 A 
ENDBRANCH  44  58
BRANCH  45  64
ATOM     64  C   UNL     1       0.177  12.954  11.066  1.00  0.00    -0.014 A 
ATOM     65  C   UNL     1      -0.934  13.769  11.333  1.00  0.00     0.009 A 
ATOM     66  C   UNL     1       0.288  11.720  11.726  1.00  0.00     0.009 A 
ATOM     67  C   UNL     1      -1.897  13.370  12.263  1.00  0.00     0.001 A 
ATOM     68  C   UNL     1      -0.690  11.312  12.634  1.00  0.00     0.001 A 
ATOM     69  C   UNL     1      -1.776  12.142  12.910  1.00  0.00     0.000 A 
ENDBRANCH  45  64
BRANCH  57  70
ATOM     70  C   UNL     1       4.977  17.981  11.296  1.00  0.00    -0.014 A 
ATOM     71  C   UNL     1       5.620  17.649  12.498  1.00  0.00     0.009 A 
ATOM     72  C   UNL     1       4.662  19.324  11.038  1.00  0.00     0.009 A 
ATOM     73  C   UNL     1       5.915  18.641  13.436  1.00  0.00     0.001 A 
ATOM     74  C   UNL     1       4.982  20.316  11.965  1.00  0.00     0.001 A 
ATOM     75  C   UNL     1       5.600  19.973  13.166  1.00  0.00     0.000 A 
ENDBRANCH  57  70
ENDBRANCH  31  32
ENDBRANCH  23  26
ENDBRANCH  21  22
ENDBRANCH  20  21
ENDBRANCH  19  20
ENDBRANCH   1  19
TORSDOF 15
