REMARK SMILES C[C@@H](C(=O)NCCCCNC(=O)c1ccc(-c2c3nc(c(-c4ccccc4)c4ccc([nH]4)c(-c4ccccc4)c4nc(c(-c5ccccc5)c5ccc2[nH]5)C=C4)C=C3)cc1)c1ccc2c3cc(Cl)ccc3n(C(=O)c3cocn3)c2c1
REMARK SMILES IDX 7 1 6 2 5 3 3 4 4 5 2 7 1 8 61 9 62 10 81 11 63 12 80 13
REMARK SMILES IDX 64 14 72 15 65 16 71 17 66 18 70 19 67 20 69 21 68 22 73 23
REMARK SMILES IDX 74 24 75 25 76 26 79 27 77 28 78 29 8 30 9 31 10 32 11 33
REMARK SMILES IDX 12 35 13 36 14 37 60 38 15 39 59 40 16 41 17 42 18 43 53 44
REMARK SMILES IDX 19 45 58 46 52 47 54 48 20 49 57 50 51 51 50 52 21 54 43 55
REMARK SMILES IDX 28 56 42 57 29 58 32 59 41 60 55 61 30 62 31 63 40 65 56 66
REMARK SMILES IDX 33 67 22 68 23 69 27 70 24 71 26 72 25 73 44 74 45 75 49 76
REMARK SMILES IDX 46 77 48 78 47 79 34 80 35 81 39 82 36 83 38 84 37 85
REMARK H PARENT 5 6 10 34 54 53 32 64
REMARK Flexibility Score: inf
ROOT
ATOM      1  C   UNL     1       4.298  -0.423  -1.002  1.00  0.00     0.023 C 
ENDROOT
BRANCH   1   2
ATOM      2  C   UNL     1       3.543   0.725  -1.673  1.00  0.00     0.116 C 
BRANCH   2   3
ATOM      3  N   UNL     1       2.482   0.222  -2.518  1.00  0.00    -0.356 N 
ATOM      4  C   UNL     1       1.142   0.131  -2.277  1.00  0.00     0.227 C 
ATOM      5  O   UNL     1       0.471  -0.455  -3.129  1.00  0.00    -0.274 OA
ATOM      6  H   UNL     1       2.771  -0.105  -3.401  1.00  0.00     0.163 HD
BRANCH   4   7
ATOM      7  C   UNL     1       0.540   0.780  -1.018  1.00  0.00     0.105 C 
ATOM      8  C   UNL     1       0.959   0.056   0.271  1.00  0.00     0.023 C 
BRANCH   7   9
ATOM      9  C   UNL     1      -0.983   0.852  -1.107  1.00  0.00    -0.034 A 
ATOM     10  C   UNL     1      -1.628   2.042  -1.450  1.00  0.00     0.005 A 
ATOM     11  C   UNL     1      -1.749  -0.296  -0.856  1.00  0.00     0.032 A 
ATOM     12  C   UNL     1      -3.025   2.095  -1.552  1.00  0.00     0.011 A 
ATOM     13  C   UNL     1      -3.151  -0.219  -0.884  1.00  0.00     0.058 A 
ATOM     14  C   UNL     1      -3.798   0.947  -1.271  1.00  0.00     0.008 A 
ATOM     15  N   UNL     1      -4.110  -1.193  -0.592  1.00  0.00    -0.274 N 
ATOM     16  C   UNL     1      -5.193   0.668  -1.282  1.00  0.00     0.009 A 
ATOM     17  C   UNL     1      -5.379  -0.643  -0.819  1.00  0.00     0.057 A 
ATOM     18  C   UNL     1      -6.317   1.456  -1.613  1.00  0.00     0.031 A 
ATOM     19  C   UNL     1      -6.676  -1.141  -0.585  1.00  0.00     0.029 A 
ATOM     20  C   UNL     1      -7.597   0.935  -1.433  1.00  0.00     0.041 A 
ATOM     21  C   UNL     1      -7.776  -0.338  -0.912  1.00  0.00     0.023 A 
ATOM     22  Cl  UNL     1      -8.967   1.899  -1.829  1.00  0.00    -0.084 Cl
BRANCH  15  23
ATOM     23  C   UNL     1      -3.787  -2.478  -0.077  1.00  0.00     0.284 C 
ATOM     24  O   UNL     1      -2.796  -2.525   0.652  1.00  0.00    -0.266 OA
BRANCH  23  25
ATOM     25  C   UNL     1      -4.508  -3.709  -0.384  1.00  0.00     0.167 A 
ATOM     26  C   UNL     1      -5.339  -3.994  -1.446  1.00  0.00     0.231 A 
ATOM     27  N   UNL     1      -4.326  -4.873   0.353  1.00  0.00    -0.211 NA
ATOM     28  O   UNL     1      -5.694  -5.309  -1.377  1.00  0.00    -0.451 OA
ATOM     29  C   UNL     1      -5.035  -5.773  -0.283  1.00  0.00     0.308 A 
ENDBRANCH  23  25
ENDBRANCH  15  23
ENDBRANCH   7   9
ENDBRANCH   4   7
ENDBRANCH   2   3
ENDBRANCH   1   2
BRANCH   1  30
ATOM     30  C   UNL     1       5.062  -1.333  -1.968  1.00  0.00     0.023 C 
BRANCH  30  31
ATOM     31  C   UNL     1       6.046  -0.620  -2.888  1.00  0.00     0.116 C 
BRANCH  31  32
ATOM     32  N   UNL     1       7.039   0.158  -2.163  1.00  0.00    -0.352 N 
ATOM     33  C   UNL     1       8.395   0.243  -2.378  1.00  0.00     0.251 C 
ATOM     34  H   UNL     1       6.693   0.698  -1.416  1.00  0.00     0.163 HD
ATOM     35  O   UNL     1       9.113   0.856  -1.602  1.00  0.00    -0.269 OA
BRANCH  33  36
ATOM     36  C   UNL     1       8.978  -0.455  -3.542  1.00  0.00     0.039 A 
ATOM     37  C   UNL     1      10.040  -1.337  -3.333  1.00  0.00     0.014 A 
ATOM     38  C   UNL     1       8.436  -0.281  -4.818  1.00  0.00     0.014 A 
ATOM     39  C   UNL     1      10.502  -2.120  -4.393  1.00  0.00     0.010 A 
ATOM     40  C   UNL     1       8.858  -1.102  -5.858  1.00  0.00     0.010 A 
ATOM     41  C   UNL     1       9.879  -2.043  -5.649  1.00  0.00    -0.014 A 
BRANCH  41  42
ATOM     42  C   UNL     1      10.231  -2.978  -6.746  1.00  0.00     0.031 A 
ATOM     43  C   UNL     1      10.838  -2.461  -8.018  1.00  0.00     0.074 A 
ATOM     44  C   UNL     1       9.898  -4.280  -6.634  1.00  0.00     0.049 A 
ATOM     45  N   UNL     1      11.091  -3.103  -9.129  1.00  0.00    -0.248 NA
ATOM     46  C   UNL     1      11.182  -1.030  -8.056  1.00  0.00     0.031 C 
ATOM     47  C   UNL     1       9.263  -4.898  -5.467  1.00  0.00     0.029 A 
ATOM     48  N   UNL     1      10.022  -5.314  -7.528  1.00  0.00    -0.354 N 
ATOM     49  C   UNL     1      11.598  -2.153 -10.006  1.00  0.00     0.074 A 
ATOM     50  C   UNL     1      11.593  -0.885  -9.308  1.00  0.00     0.031 C 
ATOM     51  C   UNL     1       9.055  -6.200  -5.716  1.00  0.00     0.029 A 
ATOM     52  C   UNL     1       9.499  -6.501  -7.073  1.00  0.00     0.049 A 
ATOM     53  H   UNL     1      10.446  -5.215  -8.411  1.00  0.00     0.167 HD
ATOM     54  C   UNL     1      12.034  -2.325 -11.275  1.00  0.00     0.031 A 
ATOM     55  C   UNL     1       9.365  -7.692  -7.687  1.00  0.00     0.031 A 
ATOM     56  C   UNL     1      12.061  -3.590 -11.959  1.00  0.00     0.049 A 
ATOM     57  C   UNL     1       9.845  -7.847  -9.103  1.00  0.00     0.074 A 
ATOM     58  C   UNL     1      12.577  -3.879 -13.211  1.00  0.00     0.029 A 
ATOM     59  N   UNL     1      11.542  -4.771 -11.457  1.00  0.00    -0.354 N 
ATOM     60  N   UNL     1      10.412  -6.960  -9.884  1.00  0.00    -0.248 NA
ATOM     61  C   UNL     1       9.667  -9.169  -9.722  1.00  0.00     0.031 C 
ATOM     62  C   UNL     1      12.319  -5.224 -13.489  1.00  0.00     0.029 A 
ATOM     63  C   UNL     1      11.687  -5.783 -12.390  1.00  0.00     0.049 A 
ATOM     64  H   UNL     1      11.132  -4.876 -10.568  1.00  0.00     0.167 HD
ATOM     65  C   UNL     1      10.673  -7.620 -11.077  1.00  0.00     0.074 A 
ATOM     66  C   UNL     1      10.223  -8.986 -10.911  1.00  0.00     0.031 C 
ATOM     67  C   UNL     1      11.233  -7.136 -12.211  1.00  0.00     0.031 A 
BRANCH  54  68
ATOM     68  C   UNL     1      12.514  -1.115 -12.023  1.00  0.00    -0.014 A 
ATOM     69  C   UNL     1      13.748  -0.517 -11.726  1.00  0.00     0.009 A 
ATOM     70  C   UNL     1      11.752  -0.613 -13.090  1.00  0.00     0.009 A 
ATOM     71  C   UNL     1      14.200   0.574 -12.472  1.00  0.00     0.001 A 
ATOM     72  C   UNL     1      12.218   0.462 -13.848  1.00  0.00     0.001 A 
ATOM     73  C   UNL     1      13.439   1.058 -13.535  1.00  0.00     0.000 A 
ENDBRANCH  54  68
BRANCH  55  74
ATOM     74  C   UNL     1       8.722  -8.831  -6.982  1.00  0.00    -0.014 A 
ATOM     75  C   UNL     1       9.477  -9.945  -6.587  1.00  0.00     0.009 A 
ATOM     76  C   UNL     1       7.341  -8.821  -6.727  1.00  0.00     0.009 A 
ATOM     77  C   UNL     1       8.857 -11.040  -5.979  1.00  0.00     0.001 A 
ATOM     78  C   UNL     1       6.730  -9.905  -6.093  1.00  0.00     0.001 A 
ATOM     79  C   UNL     1       7.486 -11.018  -5.731  1.00  0.00     0.000 A 
ENDBRANCH  55  74
BRANCH  67  80
ATOM     80  C   UNL     1      11.406  -8.092 -13.356  1.00  0.00    -0.014 A 
ATOM     81  C   UNL     1      10.307  -8.502 -14.127  1.00  0.00     0.009 A 
ATOM     82  C   UNL     1      12.689  -8.546 -13.698  1.00  0.00     0.009 A 
ATOM     83  C   UNL     1      10.489  -9.368 -15.206  1.00  0.00     0.001 A 
ATOM     84  C   UNL     1      12.870  -9.391 -14.793  1.00  0.00     0.001 A 
ATOM     85  C   UNL     1      11.770  -9.807 -15.541  1.00  0.00     0.000 A 
ENDBRANCH  67  80
ENDBRANCH  41  42
ENDBRANCH  33  36
ENDBRANCH  31  32
ENDBRANCH  30  31
ENDBRANCH   1  30
TORSDOF 14
