REMARK SMILES Cc1ccc(NC(=O)c2ccc(SCC(=O)NCCCCNC(=O)c3ccc(-c4c5nc(c(-c6ccccc6)c6ccc([nH]6)c(-c6ccccc6)c6nc(c(-c7ccccc7)c7ccc4[nH]7)C=C6)C=C5)cc3)c([N+](=O)[O-])c2)cc1
REMARK SMILES IDX 18 1 17 2 15 3 16 4 14 6 13 7 12 8 9 9 10 10 77 11 11 12
REMARK SMILES IDX 73 13 7 14 6 15 8 17 5 18 1 19 2 20 3 21 79 22 4 23 78 24
REMARK SMILES IDX 74 25 75 26 76 27 19 28 20 29 21 30 22 31 23 32 24 34 25 35
REMARK SMILES IDX 26 36 72 37 27 38 71 39 28 40 29 41 30 42 65 43 31 44 70 45
REMARK SMILES IDX 64 46 66 47 32 48 69 49 63 50 62 51 33 53 55 54 40 55 54 56
REMARK SMILES IDX 41 57 44 58 53 59 67 60 42 61 43 62 52 64 68 65 45 66 34 67
REMARK SMILES IDX 35 68 39 69 36 70 38 71 37 72 56 73 57 74 61 75 58 76 60 77
REMARK SMILES IDX 59 78 46 79 47 80 51 81 48 82 50 83 49 84
REMARK H PARENT 17 5 6 16 22 33 66 52 44 63
REMARK Flexibility Score: inf
ROOT
ATOM      1  C   UNL     1      -0.108  -7.634   3.128  1.00  0.00     0.116 C 
ENDROOT
BRANCH   1   2
ATOM      2  N   UNL     1       0.463  -6.304   3.231  1.00  0.00    -0.355 N 
ATOM      3  C   UNL     1       0.039  -5.218   3.932  1.00  0.00     0.230 C 
ATOM      4  O   UNL     1       0.603  -4.145   3.713  1.00  0.00    -0.274 OA
ATOM      5  H   UNL     1       1.288  -6.166   2.711  1.00  0.00     0.163 HD
BRANCH   3   6
ATOM      6  C   UNL     1      -1.053  -5.330   4.969  1.00  0.00     0.175 C 
BRANCH   6   7
ATOM      7  S   UNL     1      -2.732  -5.412   4.273  1.00  0.00    -0.109 SA
BRANCH   7   8
ATOM      8  C   UNL     1      -2.894  -4.064   3.100  1.00  0.00     0.086 A 
ATOM      9  C   UNL     1      -3.555  -2.183   1.057  1.00  0.00     0.047 A 
ATOM     10  C   UNL     1      -4.015  -3.495   0.978  1.00  0.00     0.015 A 
ATOM     11  C   UNL     1      -2.798  -1.793   2.165  1.00  0.00     0.100 A 
ATOM     12  C   UNL     1      -3.681  -4.417   1.980  1.00  0.00     0.023 A 
ATOM     13  C   UNL     1      -2.471  -2.726   3.172  1.00  0.00     0.283 A 
BRANCH   9  14
ATOM     14  C   UNL     1      -3.986  -1.201   0.026  1.00  0.00     0.255 C 
ATOM     15  N   UNL     1      -3.141  -0.191  -0.375  1.00  0.00    -0.322 N 
ATOM     16  H   UNL     1      -3.586   0.613  -0.729  1.00  0.00     0.170 HD
ATOM     17  O   UNL     1      -5.147  -1.242  -0.376  1.00  0.00    -0.269 OA
BRANCH  15  18
ATOM     18  C   UNL     1      -1.738  -0.138  -0.352  1.00  0.00     0.041 A 
ATOM     19  C   UNL     1       2.546   0.161  -0.025  1.00  0.00     0.044 C 
ATOM     20  C   UNL     1       1.058   0.072  -0.182  1.00  0.00    -0.051 A 
ATOM     21  C   UNL     1       0.448  -1.180  -0.308  1.00  0.00     0.005 A 
ATOM     22  C   UNL     1       0.259   1.221  -0.190  1.00  0.00     0.005 A 
ATOM     23  C   UNL     1      -0.941  -1.284  -0.400  1.00  0.00     0.026 A 
ATOM     24  C   UNL     1      -1.131   1.117  -0.295  1.00  0.00     0.026 A 
ENDBRANCH  15  18
ENDBRANCH   9  14
BRANCH  13  25
ATOM     25  N   UNL     1      -1.780  -2.175   4.325  1.00  0.00     0.063 N 
ATOM     26  O   UNL     1      -2.262  -2.400   5.442  1.00  0.00    -0.258 OA
ATOM     27  O   UNL     1      -0.808  -1.438   4.103  1.00  0.00    -0.258 OA
ENDBRANCH  13  25
ENDBRANCH   7   8
ENDBRANCH   6   7
ENDBRANCH   3   6
ENDBRANCH   1   2
BRANCH   1  28
ATOM     28  C   UNL     1      -0.920  -7.817   1.837  1.00  0.00     0.023 C 
BRANCH  28  29
ATOM     29  C   UNL     1      -0.200  -7.425   0.542  1.00  0.00     0.023 C 
BRANCH  29  30
ATOM     30  C   UNL     1       1.038  -8.252   0.219  1.00  0.00     0.116 C 
BRANCH  30  31
ATOM     31  N   UNL     1       0.768  -9.504  -0.477  1.00  0.00    -0.352 N 
ATOM     32  C   UNL     1       1.644 -10.536  -0.785  1.00  0.00     0.251 C 
ATOM     33  H   UNL     1      -0.163  -9.635  -0.769  1.00  0.00     0.163 HD
ATOM     34  O   UNL     1       1.258 -11.516  -1.399  1.00  0.00    -0.269 OA
BRANCH  32  35
ATOM     35  C   UNL     1       3.021 -10.495  -0.233  1.00  0.00     0.039 A 
ATOM     36  C   UNL     1       3.454 -11.606   0.499  1.00  0.00     0.014 A 
ATOM     37  C   UNL     1       3.745  -9.306  -0.209  1.00  0.00     0.014 A 
ATOM     38  C   UNL     1       4.435 -11.434   1.469  1.00  0.00     0.010 A 
ATOM     39  C   UNL     1       4.649  -9.108   0.817  1.00  0.00     0.010 A 
ATOM     40  C   UNL     1       4.921 -10.150   1.710  1.00  0.00    -0.014 A 
BRANCH  40  41
ATOM     41  C   UNL     1       5.546  -9.772   2.972  1.00  0.00     0.031 A 
ATOM     42  C   UNL     1       6.985  -9.465   3.048  1.00  0.00     0.074 A 
ATOM     43  C   UNL     1       4.769  -9.642   4.072  1.00  0.00     0.049 A 
ATOM     44  N   UNL     1       7.666  -9.478   4.145  1.00  0.00    -0.248 NA
ATOM     45  C   UNL     1       7.803  -9.206   1.866  1.00  0.00     0.031 C 
ATOM     46  C   UNL     1       5.100  -8.991   5.336  1.00  0.00     0.029 A 
ATOM     47  N   UNL     1       3.568 -10.301   4.330  1.00  0.00    -0.354 N 
ATOM     48  C   UNL     1       8.885  -8.912   3.869  1.00  0.00     0.074 A 
ATOM     49  C   UNL     1       8.979  -8.914   2.430  1.00  0.00     0.031 C 
ATOM     50  C   UNL     1       4.281  -9.456   6.293  1.00  0.00     0.029 A 
ATOM     51  C   UNL     1       3.507 -10.542   5.712  1.00  0.00     0.049 A 
ATOM     52  H   UNL     1       2.887 -10.552   3.665  1.00  0.00     0.167 HD
ATOM     53  C   UNL     1       9.595  -8.344   4.882  1.00  0.00     0.031 A 
ATOM     54  C   UNL     1       3.479 -11.818   6.200  1.00  0.00     0.031 A 
ATOM     55  C   UNL     1       9.068  -8.723   6.194  1.00  0.00     0.049 A 
ATOM     56  C   UNL     1       4.668 -12.168   7.070  1.00  0.00     0.074 A 
ATOM     57  C   UNL     1       8.356  -8.045   7.168  1.00  0.00     0.029 A 
ATOM     58  N   UNL     1       9.023 -10.071   6.541  1.00  0.00    -0.354 N 
ATOM     59  N   UNL     1       5.776 -11.479   7.105  1.00  0.00    -0.248 NA
ATOM     60  C   UNL     1       4.721 -13.350   7.930  1.00  0.00     0.031 C 
ATOM     61  C   UNL     1       7.783  -9.012   8.040  1.00  0.00     0.029 A 
ATOM     62  C   UNL     1       8.190 -10.268   7.624  1.00  0.00     0.049 A 
ATOM     63  H   UNL     1       9.518 -10.785   6.078  1.00  0.00     0.167 HD
ATOM     64  C   UNL     1       6.674 -12.097   7.933  1.00  0.00     0.074 A 
ATOM     65  C   UNL     1       5.962 -13.256   8.440  1.00  0.00     0.031 C 
ATOM     66  C   UNL     1       7.936 -11.615   8.119  1.00  0.00     0.031 A 
BRANCH  53  67
ATOM     67  C   UNL     1      10.609  -7.235   4.679  1.00  0.00    -0.014 A 
ATOM     68  C   UNL     1      11.167  -6.593   5.801  1.00  0.00     0.009 A 
ATOM     69  C   UNL     1      10.957  -6.683   3.431  1.00  0.00     0.009 A 
ATOM     70  C   UNL     1      11.990  -5.461   5.680  1.00  0.00     0.001 A 
ATOM     71  C   UNL     1      11.799  -5.570   3.300  1.00  0.00     0.001 A 
ATOM     72  C   UNL     1      12.307  -4.950   4.428  1.00  0.00     0.000 A 
ENDBRANCH  53  67
BRANCH  54  73
ATOM     73  C   UNL     1       2.777 -12.784   5.309  1.00  0.00    -0.014 A 
ATOM     74  C   UNL     1       1.392 -12.620   5.104  1.00  0.00     0.009 A 
ATOM     75  C   UNL     1       3.493 -13.599   4.421  1.00  0.00     0.009 A 
ATOM     76  C   UNL     1       0.765 -13.158   3.976  1.00  0.00     0.001 A 
ATOM     77  C   UNL     1       2.857 -14.148   3.300  1.00  0.00     0.001 A 
ATOM     78  C   UNL     1       1.506 -13.898   3.059  1.00  0.00     0.000 A 
ENDBRANCH  54  73
BRANCH  66  79
ATOM     79  C   UNL     1       9.045 -12.342   8.834  1.00  0.00    -0.014 A 
ATOM     80  C   UNL     1       9.143 -13.739   8.913  1.00  0.00     0.009 A 
ATOM     81  C   UNL     1      10.131 -11.597   9.343  1.00  0.00     0.009 A 
ATOM     82  C   UNL     1      10.246 -14.357   9.518  1.00  0.00     0.001 A 
ATOM     83  C   UNL     1      11.251 -12.211   9.909  1.00  0.00     0.001 A 
ATOM     84  C   UNL     1      11.302 -13.594  10.008  1.00  0.00     0.000 A 
ENDBRANCH  66  79
ENDBRANCH  40  41
ENDBRANCH  32  35
ENDBRANCH  30  31
ENDBRANCH  29  30
ENDBRANCH  28  29
ENDBRANCH   1  28
TORSDOF 16
