REMARK SMILES Cc1ccc(C)c(-n2nc(C)c(/C=C(/C#N)C(=O)NCCCCNC(=O)c3ccc(-c4c5nc(c(-c6ccccc6)c6ccc([nH]6)c(-c6ccccc6)c6nc(c(-c7ccccc7)c7ccc4[nH]7)C=C6)C=C5)cc3)c2Cl)c1
REMARK SMILES IDX 21 1 20 2 19 3 17 4 18 5 14 7 13 8 12 9 8 10 9 11 75 12
REMARK SMILES IDX 10 13 76 14 11 15 7 16 1 17 2 18 3 19 77 20 4 21 5 22 6 23
REMARK SMILES IDX 15 24 16 25 22 26 23 27 24 28 25 29 26 31 27 32 28 33 74 34
REMARK SMILES IDX 29 35 73 36 30 37 31 38 32 39 67 40 33 41 72 42 66 43 68 44
REMARK SMILES IDX 34 45 71 46 65 47 64 48 35 50 57 51 42 52 56 53 43 54 46 55
REMARK SMILES IDX 55 56 69 57 44 58 45 59 54 61 70 62 47 63 36 64 37 65 41 66
REMARK SMILES IDX 38 67 40 68 39 69 58 70 59 71 63 72 60 73 62 74 61 75 48 76
REMARK SMILES IDX 49 77 53 78 50 79 52 80 51 81
REMARK H PARENT 19 6 24 30 68 49 46 60
REMARK Flexibility Score: inf
ROOT
ATOM      1  C   UNL     1      -6.234   9.375  -1.453  1.00  0.00     0.023 C 
ENDROOT
BRANCH   1   2
ATOM      2  C   UNL     1      -5.174   8.968  -0.411  1.00  0.00     0.116 C 
BRANCH   2   3
ATOM      3  N   UNL     1      -5.134   7.523  -0.245  1.00  0.00    -0.351 N 
ATOM      4  C   UNL     1      -4.355   6.539  -0.781  1.00  0.00     0.261 C 
ATOM      5  O   UNL     1      -4.794   5.392  -0.703  1.00  0.00    -0.268 OA
ATOM      6  H   UNL     1      -5.810   7.184   0.385  1.00  0.00     0.163 HD
BRANCH   4   7
ATOM      7  C   UNL     1      -3.024   6.816  -1.421  1.00  0.00     0.117 C 
ATOM      8  C   UNL     1      -1.980   5.972  -1.313  1.00  0.00     0.038 C 
BRANCH   8   9
ATOM      9  C   UNL     1      -1.875   4.732  -0.580  1.00  0.00     0.036 A 
ATOM     10  N   UNL     1      -1.336   2.603  -0.141  1.00  0.00    -0.221 N 
ATOM     11  N   UNL     1      -2.116   2.987   0.899  1.00  0.00    -0.171 NA
ATOM     12  C   UNL     1      -1.151   3.646  -1.024  1.00  0.00     0.140 A 
ATOM     13  C   UNL     1      -2.413   4.273   0.663  1.00  0.00     0.069 A 
ATOM     14  Cl  UNL     1      -0.283   3.418  -2.484  1.00  0.00    -0.061 Cl
ATOM     15  C   UNL     1      -3.211   4.971   1.708  1.00  0.00     0.069 C 
BRANCH  10  16
ATOM     16  C   UNL     1      -0.710   1.331  -0.101  1.00  0.00     0.069 A 
ATOM     17  C   UNL     1       2.876   0.029  -0.039  1.00  0.00     0.044 C 
ATOM     18  C   UNL     1       1.377   0.075  -0.032  1.00  0.00    -0.049 A 
ATOM     19  C   UNL     1       0.642  -1.106   0.098  1.00  0.00     0.004 A 
ATOM     20  C   UNL     1       0.695   1.291  -0.147  1.00  0.00     0.032 A 
ATOM     21  C   UNL     1      -0.753  -1.070   0.141  1.00  0.00     0.006 A 
ATOM     22  C   UNL     1      -1.455   0.146   0.055  1.00  0.00    -0.025 A 
ATOM     23  C   UNL     1      -2.958   0.071   0.063  1.00  0.00     0.047 C 
ENDBRANCH  10  16
ENDBRANCH   8   9
BRANCH   7  24
ATOM     24  C   UNL     1      -3.058   7.979  -2.401  1.00  0.00     0.105 C 
ATOM     25  N   UNL     1      -3.086   8.943  -3.213  1.00  0.00    -0.192 NA
ENDBRANCH   7  24
ENDBRANCH   4   7
ENDBRANCH   2   3
ENDBRANCH   1   2
BRANCH   1  26
ATOM     26  C   UNL     1      -7.701   9.346  -0.974  1.00  0.00     0.023 C 
BRANCH  26  27
ATOM     27  C   UNL     1      -8.245  10.569  -0.209  1.00  0.00     0.116 C 
BRANCH  27  28
ATOM     28  N   UNL     1      -8.088  11.848  -0.928  1.00  0.00    -0.352 N 
ATOM     29  C   UNL     1      -7.507  13.074  -0.634  1.00  0.00     0.251 C 
ATOM     30  H   UNL     1      -8.490  11.828  -1.827  1.00  0.00     0.163 HD
ATOM     31  O   UNL     1      -7.774  14.047  -1.347  1.00  0.00    -0.269 OA
BRANCH  29  32
ATOM     32  C   UNL     1      -6.553  13.259   0.483  1.00  0.00     0.039 A 
ATOM     33  C   UNL     1      -6.006  14.482   0.890  1.00  0.00     0.014 A 
ATOM     34  C   UNL     1      -6.114  12.139   1.130  1.00  0.00     0.014 A 
ATOM     35  C   UNL     1      -4.944  14.478   1.818  1.00  0.00     0.010 A 
ATOM     36  C   UNL     1      -5.490  12.229   2.329  1.00  0.00     0.010 A 
ATOM     37  C   UNL     1      -4.641  13.293   2.487  1.00  0.00    -0.014 A 
BRANCH  37  38
ATOM     38  C   UNL     1      -3.462  13.016   3.305  1.00  0.00     0.031 A 
ATOM     39  C   UNL     1      -3.656  13.126   4.769  1.00  0.00     0.074 A 
ATOM     40  C   UNL     1      -2.440  12.233   2.877  1.00  0.00     0.049 A 
ATOM     41  N   UNL     1      -3.236  14.058   5.557  1.00  0.00    -0.248 NA
ATOM     42  C   UNL     1      -4.538  12.142   5.418  1.00  0.00     0.031 C 
ATOM     43  C   UNL     1      -2.299  11.518   1.600  1.00  0.00     0.029 A 
ATOM     44  N   UNL     1      -1.355  11.796   3.584  1.00  0.00    -0.354 N 
ATOM     45  C   UNL     1      -3.671  13.685   6.825  1.00  0.00     0.074 A 
ATOM     46  C   UNL     1      -4.685  12.688   6.622  1.00  0.00     0.031 C 
ATOM     47  C   UNL     1      -1.303  10.603   1.702  1.00  0.00     0.029 A 
ATOM     48  C   UNL     1      -0.656  10.749   2.996  1.00  0.00     0.049 A 
ATOM     49  H   UNL     1      -1.090  12.193   4.445  1.00  0.00     0.167 HD
ATOM     50  C   UNL     1      -2.974  13.986   7.956  1.00  0.00     0.031 A 
ATOM     51  C   UNL     1       0.349  10.032   3.560  1.00  0.00     0.031 A 
ATOM     52  C   UNL     1      -1.875  14.878   7.679  1.00  0.00     0.049 A 
ATOM     53  C   UNL     1       0.832  10.784   4.746  1.00  0.00     0.074 A 
ATOM     54  C   UNL     1      -1.743  16.122   7.094  1.00  0.00     0.029 A 
ATOM     55  N   UNL     1      -0.616  14.323   7.667  1.00  0.00    -0.354 N 
ATOM     56  N   UNL     1       1.462  11.921   4.681  1.00  0.00    -0.248 NA
ATOM     57  C   UNL     1       0.270  10.461   6.049  1.00  0.00     0.031 C 
ATOM     58  C   UNL     1      -0.530  16.052   6.346  1.00  0.00     0.029 A 
ATOM     59  C   UNL     1       0.029  14.789   6.552  1.00  0.00     0.049 A 
ATOM     60  H   UNL     1      -0.246  13.704   8.337  1.00  0.00     0.167 HD
ATOM     61  C   UNL     1       1.022  12.639   5.785  1.00  0.00     0.074 A 
ATOM     62  C   UNL     1       0.396  11.646   6.652  1.00  0.00     0.031 C 
ATOM     63  C   UNL     1       0.947  14.003   5.754  1.00  0.00     0.031 A 
BRANCH  50  64
ATOM     64  C   UNL     1      -3.022  13.172   9.232  1.00  0.00    -0.014 A 
ATOM     65  C   UNL     1      -2.295  13.637  10.342  1.00  0.00     0.009 A 
ATOM     66  C   UNL     1      -3.545  11.869   9.334  1.00  0.00     0.009 A 
ATOM     67  C   UNL     1      -2.042  12.819  11.450  1.00  0.00     0.001 A 
ATOM     68  C   UNL     1      -3.341  11.066  10.459  1.00  0.00     0.001 A 
ATOM     69  C   UNL     1      -2.562  11.531  11.505  1.00  0.00     0.000 A 
ENDBRANCH  50  64
BRANCH  51  70
ATOM     70  C   UNL     1       0.810   8.653   3.279  1.00  0.00    -0.014 A 
ATOM     71  C   UNL     1       2.095   8.232   3.661  1.00  0.00     0.009 A 
ATOM     72  C   UNL     1      -0.098   7.668   2.854  1.00  0.00     0.009 A 
ATOM     73  C   UNL     1       2.447   6.874   3.647  1.00  0.00     0.001 A 
ATOM     74  C   UNL     1       0.256   6.313   2.836  1.00  0.00     0.001 A 
ATOM     75  C   UNL     1       1.523   5.914   3.245  1.00  0.00     0.000 A 
ENDBRANCH  51  70
BRANCH  63  76
ATOM     76  C   UNL     1       1.625  14.725   4.616  1.00  0.00    -0.014 A 
ATOM     77  C   UNL     1       1.276  14.525   3.269  1.00  0.00     0.009 A 
ATOM     78  C   UNL     1       2.525  15.758   4.923  1.00  0.00     0.009 A 
ATOM     79  C   UNL     1       1.828  15.318   2.259  1.00  0.00     0.001 A 
ATOM     80  C   UNL     1       3.060  16.564   3.916  1.00  0.00     0.001 A 
ATOM     81  C   UNL     1       2.715  16.341   2.584  1.00  0.00     0.000 A 
ENDBRANCH  63  76
ENDBRANCH  37  38
ENDBRANCH  29  32
ENDBRANCH  27  28
ENDBRANCH  26  27
ENDBRANCH   1  26
TORSDOF 14
