REMARK SMILES O=C(NCCCCNC(=O)[C@@]1(C(F)(F)F)CCN(C(=O)Cc2ccn[nH]2)C1)c1ccc(-c2c3nc(c(-c4ccccc4)c4ccc([nH]4)c(-c4ccccc4)c4nc(c(-c5ccccc5)c5ccc2[nH]5)C=C4)C=C3)cc1
REMARK SMILES IDX 6 1 5 2 4 3 3 4 1 5 2 6 28 8 29 9 75 10 30 11 74 12 31 13
REMARK SMILES IDX 32 14 33 15 68 16 34 17 73 18 67 19 69 20 35 21 72 22 66 23
REMARK SMILES IDX 65 24 36 26 58 27 43 28 57 29 44 30 47 31 56 32 70 33 45 34
REMARK SMILES IDX 46 35 55 37 71 38 48 39 37 40 38 41 42 42 39 43 41 44 40 45
REMARK SMILES IDX 59 46 60 47 64 48 61 49 63 50 62 51 49 52 50 53 54 54 51 55
REMARK SMILES IDX 53 56 52 57 7 58 8 59 9 60 10 62 11 63 16 64 27 65 17 66
REMARK SMILES IDX 18 67 12 68 13 69 14 70 15 71 19 72 20 73 21 74 22 75 23 76
REMARK SMILES IDX 26 77 24 78 25 79
REMARK H PARENT 3 7 69 25 47 36 8 61 26 80
REMARK Flexibility Score: inf
ROOT
ATOM      1  C   UNL     1      10.069   0.623   5.480  1.00  0.00     0.023 C 
ENDROOT
BRANCH   1   2
ATOM      2  C   UNL     1      11.402   1.029   6.118  1.00  0.00     0.023 C 
BRANCH   2   3
ATOM      3  C   UNL     1      12.264  -0.134   6.592  1.00  0.00     0.116 C 
BRANCH   3   4
ATOM      4  N   UNL     1      12.588  -1.071   5.528  1.00  0.00    -0.352 N 
ATOM      5  O   UNL     1      13.914  -2.461   4.339  1.00  0.00    -0.269 OA
ATOM      6  C   UNL     1      13.743  -1.791   5.352  1.00  0.00     0.251 C 
ATOM      7  H   UNL     1      11.889  -1.207   4.848  1.00  0.00     0.163 HD
BRANCH   6   8
ATOM      8  C   UNL     1      14.794  -1.722   6.384  1.00  0.00     0.039 A 
ATOM      9  C   UNL     1      14.474  -1.906   7.732  1.00  0.00     0.014 A 
ATOM     10  C   UNL     1      16.109  -1.454   5.995  1.00  0.00     0.014 A 
ATOM     11  C   UNL     1      15.449  -1.710   8.701  1.00  0.00     0.010 A 
ATOM     12  C   UNL     1      17.102  -1.326   6.967  1.00  0.00     0.010 A 
ATOM     13  C   UNL     1      16.774  -1.432   8.327  1.00  0.00    -0.014 A 
BRANCH  13  14
ATOM     14  C   UNL     1      17.817  -1.332   9.373  1.00  0.00     0.031 A 
ATOM     15  C   UNL     1      18.510  -0.033   9.660  1.00  0.00     0.074 A 
ATOM     16  C   UNL     1      18.120  -2.438  10.080  1.00  0.00     0.049 A 
ATOM     17  N   UNL     1      19.442   0.222  10.543  1.00  0.00    -0.248 NA
ATOM     18  C   UNL     1      18.112   1.131   8.852  1.00  0.00     0.031 C 
ATOM     19  C   UNL     1      17.509  -3.756   9.885  1.00  0.00     0.029 A 
ATOM     20  N   UNL     1      19.002  -2.628  11.110  1.00  0.00    -0.354 N 
ATOM     21  C   UNL     1      19.757   1.565  10.386  1.00  0.00     0.074 A 
ATOM     22  C   UNL     1      18.929   2.070   9.311  1.00  0.00     0.031 C 
ATOM     23  C   UNL     1      18.003  -4.606  10.796  1.00  0.00     0.029 A 
ATOM     24  C   UNL     1      19.006  -3.912  11.595  1.00  0.00     0.049 A 
ATOM     25  H   UNL     1      19.576  -1.913  11.469  1.00  0.00     0.167 HD
ATOM     26  C   UNL     1      20.656   2.307  11.076  1.00  0.00     0.031 A 
ATOM     27  C   UNL     1      19.749  -4.478  12.562  1.00  0.00     0.031 A 
ATOM     28  C   UNL     1      21.477   1.798  12.144  1.00  0.00     0.049 A 
ATOM     29  C   UNL     1      20.760  -3.641  13.285  1.00  0.00     0.074 A 
ATOM     30  C   UNL     1      22.396   2.478  12.925  1.00  0.00     0.029 A 
ATOM     31  N   UNL     1      21.482   0.481  12.577  1.00  0.00    -0.354 N 
ATOM     32  N   UNL     1      21.027  -2.366  13.140  1.00  0.00    -0.248 NA
ATOM     33  C   UNL     1      21.574  -4.322  14.300  1.00  0.00     0.031 C 
ATOM     34  C   UNL     1      22.990   1.562  13.800  1.00  0.00     0.029 A 
ATOM     35  C   UNL     1      22.406   0.322  13.597  1.00  0.00     0.049 A 
ATOM     36  H   UNL     1      20.913  -0.235  12.214  1.00  0.00     0.167 HD
ATOM     37  C   UNL     1      22.036  -2.088  14.050  1.00  0.00     0.074 A 
ATOM     38  C   UNL     1      22.315  -3.323  14.758  1.00  0.00     0.031 C 
ATOM     39  C   UNL     1      22.677  -0.917  14.278  1.00  0.00     0.031 A 
BRANCH  26  40
ATOM     40  C   UNL     1      20.823   3.746  10.678  1.00  0.00    -0.014 A 
ATOM     41  C   UNL     1      19.854   4.709  11.000  1.00  0.00     0.009 A 
ATOM     42  C   UNL     1      21.991   4.154  10.016  1.00  0.00     0.009 A 
ATOM     43  C   UNL     1      20.041   6.047  10.643  1.00  0.00     0.001 A 
ATOM     44  C   UNL     1      22.186   5.495   9.679  1.00  0.00     0.001 A 
ATOM     45  C   UNL     1      21.208   6.439   9.987  1.00  0.00     0.000 A 
ENDBRANCH  26  40
BRANCH  27  46
ATOM     46  C   UNL     1      19.568  -5.916  12.879  1.00  0.00    -0.014 A 
ATOM     47  C   UNL     1      18.957  -6.312  14.078  1.00  0.00     0.009 A 
ATOM     48  C   UNL     1      19.979  -6.901  11.966  1.00  0.00     0.009 A 
ATOM     49  C   UNL     1      18.773  -7.667  14.361  1.00  0.00     0.001 A 
ATOM     50  C   UNL     1      19.769  -8.253  12.240  1.00  0.00     0.001 A 
ATOM     51  C   UNL     1      19.172  -8.635  13.440  1.00  0.00     0.000 A 
ENDBRANCH  27  46
BRANCH  39  52
ATOM     52  C   UNL     1      23.731  -0.920  15.345  1.00  0.00    -0.014 A 
ATOM     53  C   UNL     1      24.985  -1.510  15.122  1.00  0.00     0.009 A 
ATOM     54  C   UNL     1      23.475  -0.304  16.580  1.00  0.00     0.009 A 
ATOM     55  C   UNL     1      25.951  -1.511  16.128  1.00  0.00     0.001 A 
ATOM     56  C   UNL     1      24.452  -0.286  17.575  1.00  0.00     0.001 A 
ATOM     57  C   UNL     1      25.686  -0.897  17.352  1.00  0.00     0.000 A 
ENDBRANCH  39  52
ENDBRANCH  13  14
ENDBRANCH   6   8
ENDBRANCH   3   4
ENDBRANCH   2   3
ENDBRANCH   1   2
BRANCH   1  58
ATOM     58  C   UNL     1       9.124  -0.129   6.422  1.00  0.00     0.116 C 
BRANCH  58  59
ATOM     59  N   UNL     1       8.598   0.771   7.428  1.00  0.00    -0.355 N 
ATOM     60  C   UNL     1       7.527   1.604   7.438  1.00  0.00     0.237 C 
ATOM     61  H   UNL     1       9.117   0.781   8.264  1.00  0.00     0.163 HD
ATOM     62  O   UNL     1       7.534   2.427   8.359  1.00  0.00    -0.274 OA
BRANCH  60  63
ATOM     63  C   UNL     1       6.338   1.487   6.493  1.00  0.00     0.163 C 
ATOM     64  C   UNL     1       5.550   0.192   6.756  1.00  0.00     0.050 C 
ATOM     65  C   UNL     1       5.301   2.567   6.857  1.00  0.00     0.146 C 
ATOM     66  C   UNL     1       4.113   0.532   6.387  1.00  0.00     0.121 C 
ATOM     67  N   UNL     1       3.998   1.955   6.638  1.00  0.00    -0.341 N 
BRANCH  63  68
ATOM     68  C   UNL     1       6.705   1.702   5.040  1.00  0.00     0.404 C 
ATOM     69  F   UNL     1       7.349   0.645   4.500  1.00  0.00    -0.170 F 
ATOM     70  F   UNL     1       5.614   1.888   4.260  1.00  0.00    -0.170 F 
ATOM     71  F   UNL     1       7.496   2.784   4.876  1.00  0.00    -0.170 F 
ENDBRANCH  63  68
BRANCH  67  72
ATOM     72  C   UNL     1       2.857   2.732   6.606  1.00  0.00     0.228 C 
ATOM     73  O   UNL     1       2.908   3.954   6.764  1.00  0.00    -0.274 OA
BRANCH  72  74
ATOM     74  C   UNL     1       1.518   2.035   6.412  1.00  0.00     0.155 C 
BRANCH  74  75
ATOM     75  C   UNL     1       1.342   1.577   5.007  1.00  0.00     0.044 A 
ATOM     76  C   UNL     1       1.368   2.252   3.805  1.00  0.00     0.045 A 
ATOM     77  N   UNL     1       1.087   0.271   4.688  1.00  0.00    -0.282 N 
ATOM     78  C   UNL     1       1.172   1.257   2.831  1.00  0.00     0.135 A 
ATOM     79  N   UNL     1       1.017   0.045   3.368  1.00  0.00    -0.184 NA
ATOM     80  H   UNL     1       0.967  -0.435   5.363  1.00  0.00     0.190 HD
ENDBRANCH  74  75
ENDBRANCH  72  74
ENDBRANCH  67  72
ENDBRANCH  60  63
ENDBRANCH  58  59
ENDBRANCH   1  58
TORSDOF 15
