REMARK SMILES CCOC(=O)NC(=O)C[N@H+]1CC[C@@H](C(=O)NCCCCNC(=O)c2ccc(-c3c4nc(c(-c5ccccc5)c5ccc([nH]5)c(-c5ccccc5)c5nc(c(-c6ccccc6)c6ccc3[nH]6)C=C5)C=C4)cc2)[C@@H]1C
REMARK SMILES IDX 17 1 16 2 14 3 15 4 13 6 10 7 11 8 72 9 12 11 73 12 9 13
REMARK SMILES IDX 7 14 4 15 5 16 6 17 8 19 3 20 2 21 1 22 18 23 19 24 20 25
REMARK SMILES IDX 21 26 22 27 23 29 24 30 25 31 71 32 26 33 70 34 27 35 28 36
REMARK SMILES IDX 29 37 64 38 30 39 69 40 63 41 65 42 31 43 68 44 62 45 61 46
REMARK SMILES IDX 32 48 54 49 39 50 53 51 40 52 43 53 52 54 66 55 41 56 42 57
REMARK SMILES IDX 51 59 67 60 44 61 33 62 34 63 38 64 35 65 37 66 36 67 55 68
REMARK SMILES IDX 56 69 60 70 57 71 59 72 58 73 45 74 46 75 50 76 47 77 49 78
REMARK SMILES IDX 48 79
REMARK H PARENT 16 5 10 10 6 18 21 28 65 47 43 58
REMARK Flexibility Score: inf
ROOT
ATOM      1  C   UNL     1      -2.477   2.353   5.024  1.00  0.00     0.116 C 
ENDROOT
BRANCH   1   2
ATOM      2  N   UNL     1      -3.504   3.076   4.306  1.00  0.00    -0.356 N 
ATOM      3  C   UNL     1      -3.515   3.573   3.039  1.00  0.00     0.229 C 
ATOM      4  O   UNL     1      -4.519   4.202   2.692  1.00  0.00    -0.275 OA
ATOM      5  H   UNL     1      -4.329   3.236   4.817  1.00  0.00     0.163 HD
BRANCH   3   6
ATOM      6  C   UNL     1      -2.383   3.329   2.046  1.00  0.00     0.142 C 
ATOM      7  N   UNL     1      -0.029   2.771   2.374  1.00  0.00    -0.324 N 
ATOM      8  C   UNL     1      -0.723   1.590   1.856  1.00  0.00     0.263 C 
ATOM      9  C   UNL     1      -1.010   3.873   2.464  1.00  0.00     0.194 C 
ATOM     10  H   UNL     1       0.709   3.054   1.730  1.00  0.00     0.348 HD
ATOM     11  C   UNL     1      -2.205   1.861   1.734  1.00  0.00     0.081 C 
ATOM     12  C   UNL     1      -0.561   4.978   1.503  1.00  0.00     0.076 C 
BRANCH   7  13
ATOM     13  C   UNL     1       0.725   2.503   3.618  1.00  0.00     0.364 C 
BRANCH  13  14
ATOM     14  C   UNL     1       2.222   2.768   3.490  1.00  0.00     0.284 C 
ATOM     15  C   UNL     1       2.969   0.618   2.320  1.00  0.00     0.414 C 
ATOM     16  O   UNL     1       3.956   0.036   1.889  1.00  0.00    -0.224 OA
ATOM     17  N   UNL     1       3.085   1.831   2.965  1.00  0.00    -0.256 N 
ATOM     18  H   UNL     1       4.026   2.097   3.078  1.00  0.00     0.176 HD
ATOM     19  O   UNL     1       2.713   3.813   3.934  1.00  0.00    -0.268 OA
BRANCH  15  20
ATOM     20  O   UNL     1       1.704   0.172   2.189  1.00  0.00    -0.450 OA
BRANCH  20  21
ATOM     21  C   UNL     1       1.500  -0.957   1.323  1.00  0.00     0.231 C 
ATOM     22  C   UNL     1       1.653  -0.561  -0.138  1.00  0.00     0.049 C 
ENDBRANCH  20  21
ENDBRANCH  15  20
ENDBRANCH  13  14
ENDBRANCH   7  13
ENDBRANCH   3   6
ENDBRANCH   1   2
BRANCH   1  23
ATOM     23  C   UNL     1      -1.759   3.250   6.029  1.00  0.00     0.023 C 
BRANCH  23  24
ATOM     24  C   UNL     1      -2.557   3.527   7.295  1.00  0.00     0.023 C 
BRANCH  24  25
ATOM     25  C   UNL     1      -2.894   2.282   8.099  1.00  0.00     0.116 C 
BRANCH  25  26
ATOM     26  N   UNL     1      -1.718   1.540   8.535  1.00  0.00    -0.352 N 
ATOM     27  C   UNL     1      -1.496   0.951   9.757  1.00  0.00     0.251 C 
ATOM     28  H   UNL     1      -0.994   1.450   7.874  1.00  0.00     0.163 HD
ATOM     29  O   UNL     1      -0.408   0.458  10.033  1.00  0.00    -0.269 OA
BRANCH  27  30
ATOM     30  C   UNL     1      -2.589   0.962  10.747  1.00  0.00     0.039 A 
ATOM     31  C   UNL     1      -2.340   1.461  12.026  1.00  0.00     0.014 A 
ATOM     32  C   UNL     1      -3.877   0.575  10.367  1.00  0.00     0.014 A 
ATOM     33  C   UNL     1      -3.407   1.640  12.906  1.00  0.00     0.010 A 
ATOM     34  C   UNL     1      -4.947   0.847  11.208  1.00  0.00     0.010 A 
ATOM     35  C   UNL     1      -4.723   1.376  12.488  1.00  0.00    -0.014 A 
BRANCH  35  36
ATOM     36  C   UNL     1      -5.880   1.641  13.376  1.00  0.00     0.031 A 
ATOM     37  C   UNL     1      -6.767   0.507  13.809  1.00  0.00     0.074 A 
ATOM     38  C   UNL     1      -6.167   2.905  13.744  1.00  0.00     0.049 A 
ATOM     39  N   UNL     1      -7.850   0.541  14.543  1.00  0.00    -0.248 NA
ATOM     40  C   UNL     1      -6.407  -0.839  13.331  1.00  0.00     0.031 C 
ATOM     41  C   UNL     1      -5.409   4.098  13.357  1.00  0.00     0.029 A 
ATOM     42  N   UNL     1      -7.178   3.397  14.531  1.00  0.00    -0.354 N 
ATOM     43  C   UNL     1      -8.302  -0.771  14.605  1.00  0.00     0.074 A 
ATOM     44  C   UNL     1      -7.419  -1.565  13.780  1.00  0.00     0.031 C 
ATOM     45  C   UNL     1      -5.957   5.176  13.941  1.00  0.00     0.029 A 
ATOM     46  C   UNL     1      -7.129   4.760  14.704  1.00  0.00     0.049 A 
ATOM     47  H   UNL     1      -7.872   2.828  14.934  1.00  0.00     0.167 HD
ATOM     48  C   UNL     1      -9.343  -1.277  15.306  1.00  0.00     0.031 A 
ATOM     49  C   UNL     1      -7.939   5.582  15.397  1.00  0.00     0.031 A 
ATOM     50  C   UNL     1     -10.219  -0.489  16.129  1.00  0.00     0.049 A 
ATOM     51  C   UNL     1      -9.108   4.999  16.142  1.00  0.00     0.074 A 
ATOM     52  C   UNL     1     -11.276  -0.912  16.915  1.00  0.00     0.029 A 
ATOM     53  N   UNL     1     -10.141   0.888  16.269  1.00  0.00    -0.354 N 
ATOM     54  N   UNL     1      -9.484   3.747  16.243  1.00  0.00    -0.248 NA
ATOM     55  C   UNL     1      -9.959   5.944  16.878  1.00  0.00     0.031 C 
ATOM     56  C   UNL     1     -11.873   0.215  17.486  1.00  0.00     0.029 A 
ATOM     57  C   UNL     1     -11.147   1.334  17.109  1.00  0.00     0.049 A 
ATOM     58  H   UNL     1      -9.470   1.464  15.836  1.00  0.00     0.167 HD
ATOM     59  C   UNL     1     -10.594   3.750  17.079  1.00  0.00     0.074 A 
ATOM     60  C   UNL     1     -10.818   5.127  17.470  1.00  0.00     0.031 C 
ATOM     61  C   UNL     1     -11.357   2.708  17.488  1.00  0.00     0.031 A 
BRANCH  48  62
ATOM     62  C   UNL     1      -9.588  -2.758  15.206  1.00  0.00    -0.014 A 
ATOM     63  C   UNL     1      -8.689  -3.684  15.761  1.00  0.00     0.009 A 
ATOM     64  C   UNL     1     -10.747  -3.234  14.574  1.00  0.00     0.009 A 
ATOM     65  C   UNL     1      -8.926  -5.056  15.649  1.00  0.00     0.001 A 
ATOM     66  C   UNL     1     -10.998  -4.605  14.493  1.00  0.00     0.001 A 
ATOM     67  C   UNL     1     -10.083  -5.514  15.021  1.00  0.00     0.000 A 
ENDBRANCH  48  62
BRANCH  49  68
ATOM     68  C   UNL     1      -7.664   7.043  15.440  1.00  0.00    -0.014 A 
ATOM     69  C   UNL     1      -7.247   7.654  16.633  1.00  0.00     0.009 A 
ATOM     70  C   UNL     1      -7.830   7.837  14.295  1.00  0.00     0.009 A 
ATOM     71  C   UNL     1      -7.031   9.033  16.686  1.00  0.00     0.001 A 
ATOM     72  C   UNL     1      -7.582   9.211  14.342  1.00  0.00     0.001 A 
ATOM     73  C   UNL     1      -7.194   9.809  15.540  1.00  0.00     0.000 A 
ENDBRANCH  49  68
BRANCH  61  74
ATOM     74  C   UNL     1     -12.482   3.009  18.439  1.00  0.00    -0.014 A 
ATOM     75  C   UNL     1     -13.630   3.700  18.021  1.00  0.00     0.009 A 
ATOM     76  C   UNL     1     -12.406   2.556  19.766  1.00  0.00     0.009 A 
ATOM     77  C   UNL     1     -14.662   3.964  18.925  1.00  0.00     0.001 A 
ATOM     78  C   UNL     1     -13.454   2.791  20.657  1.00  0.00     0.001 A 
ATOM     79  C   UNL     1     -14.575   3.504  20.238  1.00  0.00     0.000 A 
ENDBRANCH  61  74
ENDBRANCH  35  36
ENDBRANCH  27  30
ENDBRANCH  25  26
ENDBRANCH  24  25
ENDBRANCH  23  24
ENDBRANCH   1  23
TORSDOF 15
