REMARK SMILES O=C(NCCCCNC(=O)c1ccccc1-c1ccc(/C=C2\C(=O)N(c3cccc(Br)c3)C(=O)N=C2O)o1)c1ccc(-c2c3nc(c(-c4ccccc4)c4ccc([nH]4)c(-c4ccccc4)c4nc(c(-c5ccccc5)c5ccc2[nH]5)C=C4)C=C3)cc1
REMARK SMILES IDX 6 1 5 2 4 3 3 4 1 5 2 6 39 8 40 9 86 10 41 11 85 12 42 13
REMARK SMILES IDX 43 14 44 15 79 16 45 17 84 18 78 19 80 20 46 21 83 22 77 23
REMARK SMILES IDX 76 24 47 26 69 27 54 28 68 29 55 30 58 31 67 32 81 33 56 34
REMARK SMILES IDX 57 35 66 37 82 38 59 39 48 40 49 41 53 42 50 43 52 44 51 45
REMARK SMILES IDX 70 46 71 47 75 48 72 49 74 50 73 51 60 52 61 53 65 54 62 55
REMARK SMILES IDX 64 56 63 57 7 58 8 59 9 60 10 62 11 63 12 64 16 65 13 66
REMARK SMILES IDX 15 67 14 68 17 69 18 70 38 71 19 72 20 73 21 74 22 75 23 76
REMARK SMILES IDX 36 77 24 78 25 79 35 80 33 81 34 82 37 83 26 85 27 86 32 87
REMARK SMILES IDX 28 88 30 89 29 90 31 91
REMARK H PARENT 3 7 80 25 58 36 8 61 37 84
REMARK Flexibility Score: inf
ROOT
ATOM      1  C   UNL     1       4.607  -3.757  -1.027  1.00  0.00     0.023 C 
ENDROOT
BRANCH   1   2
ATOM      2  C   UNL     1       5.008  -2.588  -0.135  1.00  0.00     0.023 C 
BRANCH   2   3
ATOM      3  C   UNL     1       4.617  -1.205  -0.642  1.00  0.00     0.116 C 
BRANCH   3   4
ATOM      4  N   UNL     1       3.177  -1.001  -0.735  1.00  0.00    -0.352 N 
ATOM      5  O   UNL     1       1.160  -0.072  -0.316  1.00  0.00    -0.269 OA
ATOM      6  C   UNL     1       2.372  -0.063  -0.127  1.00  0.00     0.251 C 
ATOM      7  H   UNL     1       2.705  -1.633  -1.325  1.00  0.00     0.163 HD
BRANCH   6   8
ATOM      8  C   UNL     1       2.978   0.927   0.794  1.00  0.00     0.039 A 
ATOM      9  C   UNL     1       4.126   1.622   0.420  1.00  0.00     0.014 A 
ATOM     10  C   UNL     1       2.442   1.101   2.073  1.00  0.00     0.014 A 
ATOM     11  C   UNL     1       4.862   2.298   1.386  1.00  0.00     0.010 A 
ATOM     12  C   UNL     1       3.125   1.885   3.012  1.00  0.00     0.010 A 
ATOM     13  C   UNL     1       4.377   2.437   2.697  1.00  0.00    -0.014 A 
BRANCH  13  14
ATOM     14  C   UNL     1       5.198   3.174   3.698  1.00  0.00     0.031 A 
ATOM     15  C   UNL     1       5.720   2.498   4.942  1.00  0.00     0.074 A 
ATOM     16  C   UNL     1       5.530   4.456   3.449  1.00  0.00     0.049 A 
ATOM     17  N   UNL     1       6.507   2.982   5.873  1.00  0.00    -0.248 NA
ATOM     18  C   UNL     1       5.303   1.108   5.180  1.00  0.00     0.031 C 
ATOM     19  C   UNL     1       5.094   5.228   2.281  1.00  0.00     0.029 A 
ATOM     20  N   UNL     1       6.335   5.327   4.138  1.00  0.00    -0.354 N 
ATOM     21  C   UNL     1       6.658   1.970   6.815  1.00  0.00     0.074 A 
ATOM     22  C   UNL     1       5.858   0.853   6.358  1.00  0.00     0.031 C 
ATOM     23  C   UNL     1       5.690   6.428   2.300  1.00  0.00     0.029 A 
ATOM     24  C   UNL     1       6.487   6.542   3.515  1.00  0.00     0.049 A 
ATOM     25  H   UNL     1       6.762   5.103   4.997  1.00  0.00     0.167 HD
ATOM     26  C   UNL     1       7.396   1.966   7.953  1.00  0.00     0.031 A 
ATOM     27  C   UNL     1       7.178   7.637   3.880  1.00  0.00     0.031 A 
ATOM     28  C   UNL     1       8.194   3.076   8.408  1.00  0.00     0.049 A 
ATOM     29  C   UNL     1       7.955   7.617   5.164  1.00  0.00     0.074 A 
ATOM     30  C   UNL     1       9.005   3.153   9.528  1.00  0.00     0.029 A 
ATOM     31  N   UNL     1       8.276   4.306   7.774  1.00  0.00    -0.354 N 
ATOM     32  N   UNL     1       8.116   6.636   6.018  1.00  0.00    -0.248 NA
ATOM     33  C   UNL     1       8.651   8.857   5.529  1.00  0.00     0.031 C 
ATOM     34  C   UNL     1       9.524   4.449   9.607  1.00  0.00     0.029 A 
ATOM     35  C   UNL     1       9.099   5.157   8.495  1.00  0.00     0.049 A 
ATOM     36  H   UNL     1       7.818   4.541   6.935  1.00  0.00     0.167 HD
ATOM     37  C   UNL     1       8.959   7.130   7.005  1.00  0.00     0.074 A 
ATOM     38  C   UNL     1       9.288   8.490   6.631  1.00  0.00     0.031 C 
ATOM     39  C   UNL     1       9.420   6.510   8.118  1.00  0.00     0.031 A 
BRANCH  26  40
ATOM     40  C   UNL     1       7.347   0.731   8.815  1.00  0.00    -0.014 A 
ATOM     41  C   UNL     1       7.934  -0.478   8.408  1.00  0.00     0.009 A 
ATOM     42  C   UNL     1       6.743   0.793  10.082  1.00  0.00     0.009 A 
ATOM     43  C   UNL     1       7.882  -1.606   9.233  1.00  0.00     0.001 A 
ATOM     44  C   UNL     1       6.720  -0.325  10.918  1.00  0.00     0.001 A 
ATOM     45  C   UNL     1       7.280  -1.527  10.488  1.00  0.00     0.000 A 
ENDBRANCH  26  40
BRANCH  27  46
ATOM     46  C   UNL     1       7.161   8.848   3.019  1.00  0.00    -0.014 A 
ATOM     47  C   UNL     1       8.324   9.276   2.361  1.00  0.00     0.009 A 
ATOM     48  C   UNL     1       5.978   9.587   2.855  1.00  0.00     0.009 A 
ATOM     49  C   UNL     1       8.309  10.435   1.581  1.00  0.00     0.001 A 
ATOM     50  C   UNL     1       5.957  10.724   2.046  1.00  0.00     0.001 A 
ATOM     51  C   UNL     1       7.125  11.154   1.420  1.00  0.00     0.000 A 
ENDBRANCH  27  46
BRANCH  39  52
ATOM     52  C   UNL     1      10.378   7.283   8.984  1.00  0.00    -0.014 A 
ATOM     53  C   UNL     1       9.963   8.397   9.732  1.00  0.00     0.009 A 
ATOM     54  C   UNL     1      11.720   6.878   9.059  1.00  0.00     0.009 A 
ATOM     55  C   UNL     1      10.884   9.116  10.497  1.00  0.00     0.001 A 
ATOM     56  C   UNL     1      12.630   7.576   9.853  1.00  0.00     0.001 A 
ATOM     57  C   UNL     1      12.214   8.703  10.560  1.00  0.00     0.000 A 
ENDBRANCH  39  52
ENDBRANCH  13  14
ENDBRANCH   6   8
ENDBRANCH   3   4
ENDBRANCH   2   3
ENDBRANCH   1   2
BRANCH   1  58
ATOM     58  C   UNL     1       5.037  -3.635  -2.482  1.00  0.00     0.116 C 
BRANCH  58  59
ATOM     59  N   UNL     1       6.470  -3.598  -2.696  1.00  0.00    -0.352 N 
ATOM     60  C   UNL     1       7.133  -4.022  -3.826  1.00  0.00     0.252 C 
ATOM     61  H   UNL     1       7.021  -3.236  -1.965  1.00  0.00     0.163 HD
ATOM     62  O   UNL     1       8.339  -3.844  -3.955  1.00  0.00    -0.269 OA
BRANCH  60  63
ATOM     63  C   UNL     1       6.383  -4.766  -4.861  1.00  0.00     0.050 A 
ATOM     64  C   UNL     1       6.616  -6.149  -4.906  1.00  0.00     0.014 A 
ATOM     65  C   UNL     1       5.415  -4.164  -5.689  1.00  0.00     0.030 A 
ATOM     66  C   UNL     1       5.854  -6.955  -5.746  1.00  0.00     0.001 A 
ATOM     67  C   UNL     1       4.651  -4.998  -6.520  1.00  0.00     0.013 A 
ATOM     68  C   UNL     1       4.865  -6.382  -6.544  1.00  0.00     0.001 A 
BRANCH  65  69
ATOM     69  C   UNL     1       5.139  -2.734  -5.644  1.00  0.00     0.135 A 
ATOM     70  C   UNL     1       5.912  -1.597  -5.639  1.00  0.00     0.051 A 
ATOM     71  O   UNL     1       3.835  -2.398  -5.429  1.00  0.00    -0.457 OA
ATOM     72  C   UNL     1       5.035  -0.531  -5.313  1.00  0.00     0.051 A 
ATOM     73  C   UNL     1       3.765  -1.062  -5.103  1.00  0.00     0.128 A 
BRANCH  73  74
ATOM     74  C   UNL     1       2.595  -0.393  -4.637  1.00  0.00     0.066 C 
ATOM     75  C   UNL     1       1.550  -0.966  -4.003  1.00  0.00     0.106 C 
ATOM     76  C   UNL     1       1.405  -2.387  -3.604  1.00  0.00     0.272 C 
ATOM     77  C   UNL     1       0.410  -0.154  -3.601  1.00  0.00     0.228 C 
ATOM     78  O   UNL     1       2.400  -3.067  -3.381  1.00  0.00    -0.268 OA
ATOM     79  N   UNL     1       0.094  -2.824  -3.427  1.00  0.00    -0.226 N 
ATOM     80  N   UNL     1      -0.745  -0.576  -3.270  1.00  0.00    -0.156 NA
ATOM     81  C   UNL     1      -0.989  -1.932  -3.285  1.00  0.00     0.358 C 
ATOM     82  O   UNL     1      -2.142  -2.316  -3.123  1.00  0.00    -0.245 OA
BRANCH  77  83
ATOM     83  O   UNL     1       0.632   1.166  -3.538  1.00  0.00    -0.493 OA
ATOM     84  H   UNL     1       1.470   1.512  -3.774  1.00  0.00     0.295 HD
ENDBRANCH  77  83
BRANCH  79  85
ATOM     85  C   UNL     1      -0.143  -4.248  -3.330  1.00  0.00     0.055 A 
ATOM     86  C   UNL     1      -1.212  -4.846  -4.015  1.00  0.00     0.027 A 
ATOM     87  C   UNL     1       0.725  -5.090  -2.613  1.00  0.00     0.042 A 
ATOM     88  C   UNL     1      -1.379  -6.236  -4.020  1.00  0.00     0.003 A 
ATOM     89  C   UNL     1       0.556  -6.475  -2.619  1.00  0.00     0.020 A 
ATOM     90  C   UNL     1      -0.489  -7.055  -3.328  1.00  0.00     0.016 A 
ATOM     91  Br  UNL     1       1.770  -7.568  -1.665  1.00  0.00    -0.051 Br
ENDBRANCH  79  85
ENDBRANCH  73  74
ENDBRANCH  65  69
ENDBRANCH  60  63
ENDBRANCH  58  59
ENDBRANCH   1  58
TORSDOF 15
