REMARK SMILES COC(=O)c1ccc(Cl)c(-c2ccc(C(=O)NCCCCNC(=O)c3ccc(-c4c5nc(c(-c6ccccc6)c6ccc([nH]6)c(-c6ccccc6)c6nc(c(-c7ccccc7)c7ccc4[nH]7)C=C6)C=C5)cc3)c(F)c2)c1
REMARK SMILES IDX 19 1 18 2 17 3 15 4 16 5 14 7 11 8 12 9 75 10 13 11 73 12
REMARK SMILES IDX 74 13 10 14 5 15 6 16 76 17 7 18 8 19 9 20 3 21 4 22 2 23
REMARK SMILES IDX 1 24 20 25 21 26 22 27 23 28 24 30 25 31 26 32 72 33 27 34
REMARK SMILES IDX 71 35 28 36 29 37 30 38 65 39 31 40 70 41 64 42 66 43 32 44
REMARK SMILES IDX 69 45 63 46 62 47 33 49 55 50 40 51 54 52 41 53 44 54 53 55
REMARK SMILES IDX 67 56 42 57 43 58 52 60 68 61 45 62 34 63 35 64 39 65 36 66
REMARK SMILES IDX 38 67 37 68 56 69 57 70 61 71 58 72 60 73 59 74 46 75 47 76
REMARK SMILES IDX 51 77 48 78 50 79 49 80
REMARK H PARENT 17 6 22 29 66 48 44 59
REMARK Flexibility Score: inf
ROOT
ATOM      1  C   UNL     1       6.000  -8.993  -5.281  1.00  0.00     0.023 C 
ENDROOT
BRANCH   1   2
ATOM      2  C   UNL     1       6.225  -7.696  -6.066  1.00  0.00     0.116 C 
BRANCH   2   3
ATOM      3  N   UNL     1       5.455  -7.702  -7.292  1.00  0.00    -0.352 N 
ATOM      4  C   UNL     1       4.217  -7.215  -7.618  1.00  0.00     0.254 C 
ATOM      5  O   UNL     1       3.858  -7.393  -8.786  1.00  0.00    -0.269 OA
ATOM      6  H   UNL     1       5.913  -8.146  -8.042  1.00  0.00     0.163 HD
BRANCH   4   7
ATOM      7  C   UNL     1       3.308  -6.459  -6.708  1.00  0.00     0.075 A 
ATOM      8  C   UNL     1       1.430  -4.942  -5.194  1.00  0.00    -0.014 A 
ATOM      9  C   UNL     1       1.387  -4.931  -6.590  1.00  0.00     0.010 A 
ATOM     10  C   UNL     1       2.407  -5.725  -4.572  1.00  0.00     0.048 A 
ATOM     11  C   UNL     1       2.317  -5.674  -7.333  1.00  0.00     0.017 A 
ATOM     12  C   UNL     1       3.303  -6.491  -5.317  1.00  0.00     0.136 A 
ATOM     13  F   UNL     1       4.098  -7.289  -4.601  1.00  0.00    -0.206 F 
BRANCH   8  14
ATOM     14  C   UNL     1       0.484  -4.194  -4.359  1.00  0.00     0.001 A 
ATOM     15  C   UNL     1       0.143  -2.395  -2.737  1.00  0.00     0.060 A 
ATOM     16  C   UNL     1      -1.149  -2.862  -2.480  1.00  0.00     0.017 A 
ATOM     17  C   UNL     1       0.943  -3.049  -3.683  1.00  0.00     0.026 A 
ATOM     18  C   UNL     1      -1.635  -3.975  -3.172  1.00  0.00     0.022 A 
ATOM     19  C   UNL     1      -0.826  -4.639  -4.101  1.00  0.00     0.048 A 
ATOM     20  Cl  UNL     1      -1.479  -6.047  -4.865  1.00  0.00    -0.084 Cl
BRANCH  15  21
ATOM     21  C   UNL     1       0.732  -1.238  -2.017  1.00  0.00     0.337 C 
ATOM     22  O   UNL     1       1.653  -0.576  -2.454  1.00  0.00    -0.246 OA
BRANCH  21  23
ATOM     23  O   UNL     1       0.147  -1.102  -0.800  1.00  0.00    -0.465 OA
ATOM     24  C   UNL     1       0.741  -0.086   0.010  1.00  0.00     0.282 C 
ENDBRANCH  21  23
ENDBRANCH  15  21
ENDBRANCH   8  14
ENDBRANCH   4   7
ENDBRANCH   2   3
ENDBRANCH   1   2
BRANCH   1  25
ATOM     25  C   UNL     1       6.888 -10.158  -5.717  1.00  0.00     0.023 C 
BRANCH  25  26
ATOM     26  C   UNL     1       8.383  -9.920  -5.544  1.00  0.00     0.116 C 
BRANCH  26  27
ATOM     27  N   UNL     1       8.764  -9.573  -4.181  1.00  0.00    -0.352 N 
ATOM     28  C   UNL     1       9.925  -9.895  -3.518  1.00  0.00     0.251 C 
ATOM     29  H   UNL     1       8.110  -9.042  -3.672  1.00  0.00     0.163 HD
ATOM     30  O   UNL     1      10.077  -9.619  -2.334  1.00  0.00    -0.269 OA
BRANCH  28  31
ATOM     31  C   UNL     1      10.969 -10.630  -4.255  1.00  0.00     0.039 A 
ATOM     32  C   UNL     1      11.418 -11.850  -3.748  1.00  0.00     0.014 A 
ATOM     33  C   UNL     1      11.415 -10.160  -5.493  1.00  0.00     0.014 A 
ATOM     34  C   UNL     1      12.250 -12.649  -4.532  1.00  0.00     0.010 A 
ATOM     35  C   UNL     1      12.183 -10.990  -6.301  1.00  0.00     0.010 A 
ATOM     36  C   UNL     1      12.592 -12.249  -5.835  1.00  0.00    -0.014 A 
BRANCH  36  37
ATOM     37  C   UNL     1      13.333 -13.155  -6.745  1.00  0.00     0.031 A 
ATOM     38  C   UNL     1      14.693 -12.773  -7.253  1.00  0.00     0.074 A 
ATOM     39  C   UNL     1      12.742 -14.288  -7.176  1.00  0.00     0.049 A 
ATOM     40  N   UNL     1      15.462 -13.404  -8.103  1.00  0.00    -0.248 NA
ATOM     41  C   UNL     1      15.255 -11.506  -6.758  1.00  0.00     0.031 C 
ATOM     42  C   UNL     1      11.406 -14.749  -6.789  1.00  0.00     0.029 A 
ATOM     43  N   UNL     1      13.187 -15.255  -8.043  1.00  0.00    -0.354 N 
ATOM     44  C   UNL     1      16.589 -12.607  -8.253  1.00  0.00     0.074 A 
ATOM     45  C   UNL     1      16.383 -11.424  -7.448  1.00  0.00     0.031 C 
ATOM     46  C   UNL     1      11.154 -15.921  -7.391  1.00  0.00     0.029 A 
ATOM     47  C   UNL     1      12.284 -16.271  -8.245  1.00  0.00     0.049 A 
ATOM     48  H   UNL     1      14.069 -15.223  -8.479  1.00  0.00     0.167 HD
ATOM     49  C   UNL     1      17.705 -12.849  -8.981  1.00  0.00     0.031 A 
ATOM     50  C   UNL     1      12.351 -17.356  -9.039  1.00  0.00     0.031 A 
ATOM     51  C   UNL     1      17.906 -14.026  -9.784  1.00  0.00     0.049 A 
ATOM     52  C   UNL     1      13.581 -17.576  -9.874  1.00  0.00     0.074 A 
ATOM     53  C   UNL     1      19.025 -14.390 -10.511  1.00  0.00     0.029 A 
ATOM     54  N   UNL     1      16.962 -15.023  -9.974  1.00  0.00    -0.354 N 
ATOM     55  N   UNL     1      14.674 -16.855  -9.940  1.00  0.00    -0.248 NA
ATOM     56  C   UNL     1      13.587 -18.761 -10.745  1.00  0.00     0.031 C 
ATOM     57  C   UNL     1      18.734 -15.575 -11.195  1.00  0.00     0.029 A 
ATOM     58  C   UNL     1      17.458 -15.982 -10.842  1.00  0.00     0.049 A 
ATOM     59  H   UNL     1      16.072 -15.046  -9.555  1.00  0.00     0.167 HD
ATOM     60  C   UNL     1      15.504 -17.507 -10.843  1.00  0.00     0.074 A 
ATOM     61  C   UNL     1      14.798 -18.694 -11.280  1.00  0.00     0.031 C 
ATOM     62  C   UNL     1      16.739 -17.152 -11.274  1.00  0.00     0.031 A 
BRANCH  49  63
ATOM     63  C   UNL     1      18.791 -11.810  -8.952  1.00  0.00    -0.014 A 
ATOM     64  C   UNL     1      19.549 -11.582  -7.792  1.00  0.00     0.009 A 
ATOM     65  C   UNL     1      19.087 -11.077 -10.111  1.00  0.00     0.009 A 
ATOM     66  C   UNL     1      20.557 -10.615  -7.784  1.00  0.00     0.001 A 
ATOM     67  C   UNL     1      20.116 -10.133 -10.109  1.00  0.00     0.001 A 
ATOM     68  C   UNL     1      20.843  -9.896  -8.944  1.00  0.00     0.000 A 
ENDBRANCH  49  63
BRANCH  50  69
ATOM     69  C   UNL     1      11.217 -18.317  -9.089  1.00  0.00    -0.014 A 
ATOM     70  C   UNL     1      11.357 -19.613  -8.570  1.00  0.00     0.009 A 
ATOM     71  C   UNL     1       9.991 -17.948  -9.666  1.00  0.00     0.009 A 
ATOM     72  C   UNL     1      10.303 -20.527  -8.650  1.00  0.00     0.001 A 
ATOM     73  C   UNL     1       8.929 -18.853  -9.716  1.00  0.00     0.001 A 
ATOM     74  C   UNL     1       9.089 -20.144  -9.218  1.00  0.00     0.000 A 
ENDBRANCH  50  69
BRANCH  62  75
ATOM     75  C   UNL     1      17.413 -18.065 -12.261  1.00  0.00    -0.014 A 
ATOM     76  C   UNL     1      16.977 -18.142 -13.592  1.00  0.00     0.009 A 
ATOM     77  C   UNL     1      18.532 -18.815 -11.866  1.00  0.00     0.009 A 
ATOM     78  C   UNL     1      17.634 -18.973 -14.502  1.00  0.00     0.001 A 
ATOM     79  C   UNL     1      19.204 -19.620 -12.785  1.00  0.00     0.001 A 
ATOM     80  C   UNL     1      18.750 -19.705 -14.100  1.00  0.00     0.000 A 
ENDBRANCH  62  75
ENDBRANCH  36  37
ENDBRANCH  28  31
ENDBRANCH  26  27
ENDBRANCH  25  26
ENDBRANCH   1  25
TORSDOF 14
