REMARK SMILES CCCCc1ncc(C[N@H+]2C[C@@H]3c4ccccc4OC[C@]3(C(=O)NCCCCNC(=O)c3ccc(-c4c5nc(c(-c6ccccc6)c6ccc([nH]6)c(-c6ccccc6)c6nc(c(-c7ccccc7)c7ccc4[nH]7)C=C6)C=C5)cc3)C2)[nH]1
REMARK SMILES IDX 25 1 24 2 22 3 23 4 21 6 10 7 11 8 80 9 12 11 13 12 20 13
REMARK SMILES IDX 14 14 18 15 19 16 15 17 17 18 16 19 9 20 8 21 5 22 6 23
REMARK SMILES IDX 81 24 7 25 4 27 3 28 2 29 1 30 26 31 27 32 28 33 29 34 30 35
REMARK SMILES IDX 31 37 32 38 33 39 79 40 34 41 78 42 35 43 36 44 37 45 72 46
REMARK SMILES IDX 38 47 77 48 71 49 73 50 39 51 76 52 70 53 69 54 40 56 62 57
REMARK SMILES IDX 47 58 61 59 48 60 51 61 60 62 74 63 49 64 50 65 59 67 75 68
REMARK SMILES IDX 52 69 41 70 42 71 46 72 43 73 45 74 44 75 63 76 64 77 68 78
REMARK SMILES IDX 65 79 67 80 66 81 53 82 54 83 58 84 55 85 57 86 56 87
REMARK H PARENT 24 5 10 10 81 26 29 36 73 55 51 66
REMARK Flexibility Score: inf
ROOT
ATOM      1  C   UNL     1      -4.162  -4.007   1.506  1.00  0.00     0.116 C 
ENDROOT
BRANCH   1   2
ATOM      2  N   UNL     1      -2.850  -4.071   0.883  1.00  0.00    -0.355 N 
ATOM      3  C   UNL     1      -2.184  -2.987   0.344  1.00  0.00     0.236 C 
ATOM      4  O   UNL     1      -0.952  -2.970   0.420  1.00  0.00    -0.274 OA
ATOM      5  H   UNL     1      -2.405  -4.948   0.842  1.00  0.00     0.163 HD
BRANCH   3   6
ATOM      6  C   UNL     1      -3.066  -1.888  -0.340  1.00  0.00     0.144 C 
ATOM      7  N   UNL     1      -4.025  -0.364   1.300  1.00  0.00    -0.328 N 
ATOM      8  C   UNL     1      -4.203   0.306   0.027  1.00  0.00     0.272 C 
ATOM      9  C   UNL     1      -2.839  -1.196   1.103  1.00  0.00     0.284 C 
ATOM     10  H   UNL     1      -4.843  -0.926   1.539  1.00  0.00     0.348 HD
ATOM     11  C   UNL     1      -3.167  -0.379  -0.886  1.00  0.00     0.103 C 
ATOM     12  C   UNL     1      -3.516  -0.126  -2.337  1.00  0.00     0.004 A 
ATOM     13  C   UNL     1      -2.333  -2.408  -1.668  1.00  0.00     0.253 C 
ATOM     14  C   UNL     1      -3.731   1.166  -2.840  1.00  0.00     0.008 A 
ATOM     15  C   UNL     1      -3.516  -1.190  -3.226  1.00  0.00     0.123 A 
ATOM     16  O   UNL     1      -3.250  -2.448  -2.783  1.00  0.00    -0.492 OA
ATOM     17  C   UNL     1      -3.964   1.367  -4.202  1.00  0.00     0.001 A 
ATOM     18  C   UNL     1      -3.763  -1.005  -4.583  1.00  0.00     0.047 A 
ATOM     19  C   UNL     1      -3.979   0.280  -5.075  1.00  0.00     0.004 A 
BRANCH   7  20
ATOM     20  C   UNL     1      -4.007   0.499   2.485  1.00  0.00     0.319 C 
BRANCH  20  21
ATOM     21  C   UNL     1      -2.852   1.430   2.540  1.00  0.00     0.090 A 
ATOM     22  C   UNL     1      -0.728   2.070   2.606  1.00  0.00     0.106 A 
ATOM     23  N   UNL     1      -1.409   3.139   2.243  1.00  0.00    -0.241 NA
ATOM     24  N   UNL     1      -1.592   1.060   2.951  1.00  0.00    -0.341 N 
ATOM     25  C   UNL     1      -2.724   2.760   2.212  1.00  0.00     0.140 A 
ATOM     26  H   UNL     1      -1.353   0.222   3.409  1.00  0.00     0.168 HD
BRANCH  22  27
ATOM     27  C   UNL     1       0.762   1.972   2.650  1.00  0.00     0.075 C 
BRANCH  27  28
ATOM     28  C   UNL     1       1.371   0.566   2.675  1.00  0.00     0.008 C 
BRANCH  28  29
ATOM     29  C   UNL     1       1.106  -0.341   1.469  1.00  0.00    -0.003 C 
ATOM     30  C   UNL     1       1.403   0.275   0.114  1.00  0.00     0.004 C 
ENDBRANCH  28  29
ENDBRANCH  27  28
ENDBRANCH  22  27
ENDBRANCH  20  21
ENDBRANCH   7  20
ENDBRANCH   3   6
ENDBRANCH   1   2
BRANCH   1  31
ATOM     31  C   UNL     1      -4.962  -5.298   1.459  1.00  0.00     0.023 C 
BRANCH  31  32
ATOM     32  C   UNL     1      -4.220  -6.567   1.862  1.00  0.00     0.023 C 
BRANCH  32  33
ATOM     33  C   UNL     1      -3.364  -6.490   3.120  1.00  0.00     0.116 C 
BRANCH  33  34
ATOM     34  N   UNL     1      -4.107  -6.231   4.342  1.00  0.00    -0.352 N 
ATOM     35  C   UNL     1      -4.204  -6.997   5.483  1.00  0.00     0.251 C 
ATOM     36  H   UNL     1      -4.614  -5.388   4.357  1.00  0.00     0.163 HD
ATOM     37  O   UNL     1      -4.912  -6.637   6.418  1.00  0.00    -0.269 OA
BRANCH  35  38
ATOM     38  C   UNL     1      -3.494  -8.291   5.548  1.00  0.00     0.039 A 
ATOM     39  C   UNL     1      -2.142  -8.378   5.216  1.00  0.00     0.014 A 
ATOM     40  C   UNL     1      -4.222  -9.444   5.854  1.00  0.00     0.014 A 
ATOM     41  C   UNL     1      -1.580  -9.626   4.976  1.00  0.00     0.010 A 
ATOM     42  C   UNL     1      -3.621 -10.697   5.712  1.00  0.00     0.010 A 
ATOM     43  C   UNL     1      -2.316 -10.800   5.208  1.00  0.00    -0.014 A 
BRANCH  43  44
ATOM     44  C   UNL     1      -1.701 -12.119   4.906  1.00  0.00     0.031 A 
ATOM     45  C   UNL     1      -2.273 -13.017   3.839  1.00  0.00     0.074 A 
ATOM     46  C   UNL     1      -0.578 -12.481   5.556  1.00  0.00     0.049 A 
ATOM     47  N   UNL     1      -1.849 -14.190   3.439  1.00  0.00    -0.248 NA
ATOM     48  C   UNL     1      -3.473 -12.544   3.127  1.00  0.00     0.031 C 
ATOM     49  C   UNL     1       0.087 -11.686   6.590  1.00  0.00     0.029 A 
ATOM     50  N   UNL     1       0.221 -13.587   5.420  1.00  0.00    -0.354 N 
ATOM     51  C   UNL     1      -2.738 -14.603   2.454  1.00  0.00     0.074 A 
ATOM     52  C   UNL     1      -3.738 -13.567   2.325  1.00  0.00     0.031 C 
ATOM     53  C   UNL     1       1.227 -12.294   6.945  1.00  0.00     0.029 A 
ATOM     54  C   UNL     1       1.335 -13.558   6.224  1.00  0.00     0.049 A 
ATOM     55  H   UNL     1       0.017 -14.330   4.807  1.00  0.00     0.167 HD
ATOM     56  C   UNL     1      -2.717 -15.741   1.719  1.00  0.00     0.031 A 
ATOM     57  C   UNL     1       2.328 -14.452   6.382  1.00  0.00     0.031 A 
ATOM     58  C   UNL     1      -1.709 -16.762   1.834  1.00  0.00     0.049 A 
ATOM     59  C   UNL     1       2.301 -15.726   5.591  1.00  0.00     0.074 A 
ATOM     60  C   UNL     1      -1.596 -17.939   1.114  1.00  0.00     0.029 A 
ATOM     61  N   UNL     1      -0.643 -16.728   2.717  1.00  0.00    -0.354 N 
ATOM     62  N   UNL     1       1.446 -16.102   4.672  1.00  0.00    -0.248 NA
ATOM     63  C   UNL     1       3.364 -16.702   5.866  1.00  0.00     0.031 C 
ATOM     64  C   UNL     1      -0.491 -18.643   1.599  1.00  0.00     0.029 A 
ATOM     65  C   UNL     1       0.117 -17.877   2.580  1.00  0.00     0.049 A 
ATOM     66  H   UNL     1      -0.454 -15.996   3.348  1.00  0.00     0.167 HD
ATOM     67  C   UNL     1       1.866 -17.358   4.258  1.00  0.00     0.074 A 
ATOM     68  C   UNL     1       3.067 -17.669   5.007  1.00  0.00     0.031 C 
ATOM     69  C   UNL     1       1.301 -18.181   3.342  1.00  0.00     0.031 A 
BRANCH  56  70
ATOM     70  C   UNL     1      -3.823 -15.967   0.725  1.00  0.00    -0.014 A 
ATOM     71  C   UNL     1      -4.776 -16.970   0.964  1.00  0.00     0.009 A 
ATOM     72  C   UNL     1      -3.862 -15.268  -0.491  1.00  0.00     0.009 A 
ATOM     73  C   UNL     1      -5.738 -17.279   0.001  1.00  0.00     0.001 A 
ATOM     74  C   UNL     1      -4.842 -15.563  -1.443  1.00  0.00     0.001 A 
ATOM     75  C   UNL     1      -5.772 -16.574  -1.200  1.00  0.00     0.000 A 
ENDBRANCH  56  70
BRANCH  57  76
ATOM     76  C   UNL     1       3.421 -14.159   7.345  1.00  0.00    -0.014 A 
ATOM     77  C   UNL     1       3.162 -14.124   8.725  1.00  0.00     0.009 A 
ATOM     78  C   UNL     1       4.708 -13.845   6.887  1.00  0.00     0.009 A 
ATOM     79  C   UNL     1       4.160 -13.747   9.625  1.00  0.00     0.001 A 
ATOM     80  C   UNL     1       5.713 -13.498   7.793  1.00  0.00     0.001 A 
ATOM     81  C   UNL     1       5.436 -13.437   9.159  1.00  0.00     0.000 A 
ENDBRANCH  57  76
BRANCH  69  82
ATOM     82  C   UNL     1       1.964 -19.504   3.092  1.00  0.00    -0.014 A 
ATOM     83  C   UNL     1       2.634 -19.733   1.880  1.00  0.00     0.009 A 
ATOM     84  C   UNL     1       1.843 -20.553   4.016  1.00  0.00     0.009 A 
ATOM     85  C   UNL     1       3.160 -20.993   1.591  1.00  0.00     0.001 A 
ATOM     86  C   UNL     1       2.393 -21.805   3.734  1.00  0.00     0.001 A 
ATOM     87  C   UNL     1       3.042 -22.026   2.520  1.00  0.00     0.000 A 
ENDBRANCH  69  82
ENDBRANCH  43  44
ENDBRANCH  35  38
ENDBRANCH  33  34
ENDBRANCH  32  33
ENDBRANCH  31  32
ENDBRANCH   1  31
TORSDOF 16
