REMARK SMILES C[C@]12CCC[C@](C)(C(=O)NCCCCNC(=O)c3ccc(-c4c5nc(c(-c6ccccc6)c6ccc([nH]6)c(-c6ccccc6)c6nc(c(-c7ccccc7)c7ccc4[nH]7)C=C6)C=C5)cc3)[C@@H]1CC[C@]13C=C(CO)[C@H](CC[C@H]12)C3
REMARK SMILES IDX 12 1 11 2 10 3 8 4 9 5 6 7 1 8 2 9 3 10 66 11 77 12 4 13
REMARK SMILES IDX 67 14 69 15 76 16 5 17 7 18 68 19 70 20 78 21 75 22 71 23
REMARK SMILES IDX 74 24 72 25 73 26 13 28 14 29 15 30 16 31 17 33 18 34 19 35
REMARK SMILES IDX 65 36 20 37 64 38 21 39 22 40 23 41 58 42 24 43 63 44 57 45
REMARK SMILES IDX 59 46 25 47 62 48 56 49 55 50 26 52 48 53 33 54 47 55 34 56
REMARK SMILES IDX 37 57 46 58 60 59 35 60 36 61 45 63 61 64 38 65 27 66 28 67
REMARK SMILES IDX 32 68 29 69 31 70 30 71 49 72 50 73 54 74 51 75 53 76 52 77
REMARK SMILES IDX 39 78 40 79 44 80 41 81 43 82 42 83
REMARK H PARENT 10 6 73 27 15 32 59 51 37 62
REMARK Flexibility Score: inf
ROOT
ATOM      1  C   UNL     1       1.403  -2.800   4.662  1.00  0.00     0.023 C 
ENDROOT
BRANCH   1   2
ATOM      2  C   UNL     1       1.134  -2.508   3.186  1.00  0.00     0.116 C 
BRANCH   2   3
ATOM      3  N   UNL     1       1.584  -1.171   2.859  1.00  0.00    -0.356 N 
ATOM      4  C   UNL     1       2.457  -0.647   1.984  1.00  0.00     0.226 C 
ATOM      5  O   UNL     1       2.944   0.415   2.411  1.00  0.00    -0.274 OA
ATOM      6  H   UNL     1       1.145  -0.482   3.410  1.00  0.00     0.163 HD
BRANCH   4   7
ATOM      7  C   UNL     1       2.752  -1.098   0.510  1.00  0.00     0.050 C 
ATOM      8  C   UNL     1      -0.240  -1.308   0.505  1.00  0.00     0.012 C 
ATOM      9  C   UNL     1       0.504  -0.902  -0.811  1.00  0.00    -0.025 C 
ATOM     10  C   UNL     1       0.809  -2.202  -1.574  1.00  0.00     0.007 C 
ATOM     11  C   UNL     1       1.871  -0.216  -0.500  1.00  0.00     0.010 C 
ATOM     12  C   UNL     1      -0.519  -0.003  -1.556  1.00  0.00     0.005 C 
ATOM     13  C   UNL     1       1.564  -3.204  -0.702  1.00  0.00     0.002 C 
ATOM     14  C   UNL     1       1.718   1.283  -0.104  1.00  0.00     0.006 C 
ATOM     15  C   UNL     1      -0.608   1.508  -1.098  1.00  0.00    -0.008 C 
ATOM     16  C   UNL     1      -1.010  -0.119  -2.992  1.00  0.00     0.006 C 
ATOM     17  C   UNL     1       2.729  -2.616   0.113  1.00  0.00     0.017 C 
ATOM     18  C   UNL     1       4.270  -0.732   0.395  1.00  0.00     0.022 C 
ATOM     19  C   UNL     1       0.780   2.115  -0.992  1.00  0.00     0.012 C 
ATOM     20  C   UNL     1      -1.486   1.483   0.120  1.00  0.00    -0.018 C 
ATOM     21  C   UNL     1      -1.608   2.323  -1.960  1.00  0.00     0.019 C 
ATOM     22  C   UNL     1      -2.548   0.253  -2.884  1.00  0.00     0.008 C 
ATOM     23  C   UNL     1      -2.730   1.171  -0.303  1.00  0.00    -0.045 C 
ATOM     24  C   UNL     1      -2.840   1.405  -1.836  1.00  0.00     0.018 C 
BRANCH  23  25
ATOM     25  C   UNL     1      -3.745   0.588   0.617  1.00  0.00     0.187 C 
BRANCH  25  26
ATOM     26  O   UNL     1      -4.032  -0.745   0.224  1.00  0.00    -0.392 OA
ATOM     27  H   UNL     1      -4.380  -0.747  -0.681  1.00  0.00     0.211 HD
ENDBRANCH  25  26
ENDBRANCH  23  25
ENDBRANCH   4   7
ENDBRANCH   2   3
ENDBRANCH   1   2
BRANCH   1  28
ATOM     28  C   UNL     1       0.731  -1.822   5.640  1.00  0.00     0.023 C 
BRANCH  28  29
ATOM     29  C   UNL     1      -0.775  -1.656   5.457  1.00  0.00     0.116 C 
BRANCH  29  30
ATOM     30  N   UNL     1      -1.480  -2.910   5.675  1.00  0.00    -0.352 N 
ATOM     31  C   UNL     1      -2.329  -3.253   6.692  1.00  0.00     0.251 C 
ATOM     32  H   UNL     1      -1.324  -3.608   4.998  1.00  0.00     0.163 HD
ATOM     33  O   UNL     1      -2.615  -4.439   6.887  1.00  0.00    -0.269 OA
BRANCH  31  34
ATOM     34  C   UNL     1      -2.900  -2.209   7.562  1.00  0.00     0.039 A 
ATOM     35  C   UNL     1      -2.931  -2.413   8.943  1.00  0.00     0.014 A 
ATOM     36  C   UNL     1      -3.425  -1.036   7.011  1.00  0.00     0.014 A 
ATOM     37  C   UNL     1      -3.443  -1.417   9.776  1.00  0.00     0.010 A 
ATOM     38  C   UNL     1      -3.864  -0.014   7.847  1.00  0.00     0.010 A 
ATOM     39  C   UNL     1      -3.888  -0.197   9.237  1.00  0.00    -0.014 A 
BRANCH  39  40
ATOM     40  C   UNL     1      -4.382   0.890  10.119  1.00  0.00     0.031 A 
ATOM     41  C   UNL     1      -5.812   1.349  10.036  1.00  0.00     0.074 A 
ATOM     42  C   UNL     1      -3.529   1.495  10.969  1.00  0.00     0.049 A 
ATOM     43  N   UNL     1      -6.420   2.287  10.718  1.00  0.00    -0.248 NA
ATOM     44  C   UNL     1      -6.667   0.683   9.040  1.00  0.00     0.031 C 
ATOM     45  C   UNL     1      -2.108   1.172  11.117  1.00  0.00     0.029 A 
ATOM     46  N   UNL     1      -3.736   2.506  11.873  1.00  0.00    -0.354 N 
ATOM     47  C   UNL     1      -7.719   2.329  10.228  1.00  0.00     0.074 A 
ATOM     48  C   UNL     1      -7.796   1.366   9.152  1.00  0.00     0.031 C 
ATOM     49  C   UNL     1      -1.582   1.942  12.083  1.00  0.00     0.029 A 
ATOM     50  C   UNL     1      -2.613   2.839  12.591  1.00  0.00     0.049 A 
ATOM     51  H   UNL     1      -4.606   2.951  11.995  1.00  0.00     0.167 HD
ATOM     52  C   UNL     1      -8.762   3.085  10.649  1.00  0.00     0.031 A 
ATOM     53  C   UNL     1      -2.434   3.764  13.553  1.00  0.00     0.031 A 
ATOM     54  C   UNL     1      -8.684   4.045  11.718  1.00  0.00     0.049 A 
ATOM     55  C   UNL     1      -3.601   4.608  13.986  1.00  0.00     0.074 A 
ATOM     56  C   UNL     1      -9.695   4.826  12.251  1.00  0.00     0.029 A 
ATOM     57  N   UNL     1      -7.527   4.361  12.413  1.00  0.00    -0.354 N 
ATOM     58  N   UNL     1      -4.841   4.585  13.561  1.00  0.00    -0.248 NA
ATOM     59  C   UNL     1      -3.342   5.595  15.042  1.00  0.00     0.031 C 
ATOM     60  C   UNL     1      -9.136   5.657  13.228  1.00  0.00     0.029 A 
ATOM     61  C   UNL     1      -7.792   5.345  13.351  1.00  0.00     0.049 A 
ATOM     62  H   UNL     1      -6.646   3.946  12.262  1.00  0.00     0.167 HD
ATOM     63  C   UNL     1      -5.517   5.533  14.319  1.00  0.00     0.074 A 
ATOM     64  C   UNL     1      -4.553   6.096  15.242  1.00  0.00     0.031 C 
ATOM     65  C   UNL     1      -6.821   5.902  14.257  1.00  0.00     0.031 A 
BRANCH  52  66
ATOM     66  C   UNL     1     -10.076   2.906   9.937  1.00  0.00    -0.014 A 
ATOM     67  C   UNL     1     -10.814   1.716  10.053  1.00  0.00     0.009 A 
ATOM     68  C   UNL     1     -10.597   3.951   9.157  1.00  0.00     0.009 A 
ATOM     69  C   UNL     1     -12.021   1.561   9.369  1.00  0.00     0.001 A 
ATOM     70  C   UNL     1     -11.821   3.805   8.501  1.00  0.00     0.001 A 
ATOM     71  C   UNL     1     -12.526   2.606   8.597  1.00  0.00     0.000 A 
ENDBRANCH  52  66
BRANCH  53  72
ATOM     72  C   UNL     1      -1.101   3.927  14.191  1.00  0.00    -0.014 A 
ATOM     73  C   UNL     1      -0.901   3.554  15.529  1.00  0.00     0.009 A 
ATOM     74  C   UNL     1      -0.022   4.461  13.469  1.00  0.00     0.009 A 
ATOM     75  C   UNL     1       0.342   3.739  16.139  1.00  0.00     0.001 A 
ATOM     76  C   UNL     1       1.228   4.615  14.071  1.00  0.00     0.001 A 
ATOM     77  C   UNL     1       1.406   4.264  15.408  1.00  0.00     0.000 A 
ENDBRANCH  53  72
BRANCH  65  78
ATOM     78  C   UNL     1      -7.284   6.941  15.242  1.00  0.00    -0.014 A 
ATOM     79  C   UNL     1      -6.871   8.279  15.146  1.00  0.00     0.009 A 
ATOM     80  C   UNL     1      -8.168   6.576  16.269  1.00  0.00     0.009 A 
ATOM     81  C   UNL     1      -7.298   9.220  16.086  1.00  0.00     0.001 A 
ATOM     82  C   UNL     1      -8.621   7.525  17.186  1.00  0.00     0.001 A 
ATOM     83  C   UNL     1      -8.176   8.843  17.102  1.00  0.00     0.000 A 
ENDBRANCH  65  78
ENDBRANCH  39  40
ENDBRANCH  31  34
ENDBRANCH  29  30
ENDBRANCH  28  29
ENDBRANCH   1  28
TORSDOF 13
