REMARK SMILES CC(=O)c1ccc(NC(=O)C[C@H](C(=O)NCCCCNC(=O)c2ccc(-c3c4nc(c(-c5ccccc5)c5ccc([nH]5)c(-c5ccccc5)c5nc(c(-c6ccccc6)c6ccc3[nH]6)C=C5)C=C4)cc2)[NH+](C)C)cc1
REMARK SMILES IDX 16 1 15 2 13 3 14 4 12 6 11 7 9 8 8 9 10 11 7 12 4 13 5 14
REMARK SMILES IDX 75 15 6 16 74 17 2 18 1 19 3 20 71 21 72 22 73 23 17 25
REMARK SMILES IDX 18 26 19 27 20 28 21 29 22 31 23 32 24 33 70 34 25 35 69 36
REMARK SMILES IDX 26 37 27 38 28 39 63 40 29 41 68 42 62 43 64 44 30 45 67 46
REMARK SMILES IDX 61 47 60 48 31 50 53 51 38 52 52 53 39 54 42 55 51 56 65 57
REMARK SMILES IDX 40 58 41 59 50 61 66 62 43 63 32 64 33 65 37 66 34 67 36 68
REMARK SMILES IDX 35 69 54 70 55 71 59 72 56 73 58 74 57 75 44 76 45 77 49 78
REMARK SMILES IDX 46 79 48 80 47 81
REMARK H PARENT 15 5 8 10 71 24 20 30 64 49 42 60
REMARK Flexibility Score: inf
ROOT
ATOM      1  C   UNL     1      -1.210   2.722   5.284  1.00  0.00     0.116 C 
ENDROOT
BRANCH   1   2
ATOM      2  N   UNL     1      -0.262   3.666   5.837  1.00  0.00    -0.351 N 
ATOM      3  C   UNL     1       0.118   4.892   5.372  1.00  0.00     0.278 C 
ATOM      4  O   UNL     1       0.776   5.596   6.148  1.00  0.00    -0.268 OA
ATOM      5  H   UNL     1       0.173   3.381   6.673  1.00  0.00     0.163 HD
BRANCH   3   6
ATOM      6  C   UNL     1      -0.225   5.410   3.950  1.00  0.00     0.283 C 
BRANCH   6   7
ATOM      7  C   UNL     1       0.302   4.444   2.866  1.00  0.00     0.175 C 
BRANCH   7   8
ATOM      8  C   UNL     1       0.107   4.930   1.440  1.00  0.00     0.230 C 
ATOM      9  N   UNL     1      -1.073   4.756   0.759  1.00  0.00    -0.326 N 
ATOM     10  H   UNL     1      -1.108   5.162  -0.137  1.00  0.00     0.169 HD
ATOM     11  O   UNL     1       1.001   5.579   0.885  1.00  0.00    -0.274 OA
BRANCH   9  12
ATOM     12  C   UNL     1      -2.237   4.083   1.159  1.00  0.00     0.041 A 
ATOM     13  C   UNL     1      -4.529   3.067   2.361  1.00  0.00     0.017 A 
ATOM     14  C   UNL     1      -3.347   2.333   2.389  1.00  0.00     0.014 A 
ATOM     15  C   UNL     1      -4.619   4.233   1.603  1.00  0.00     0.014 A 
ATOM     16  C   UNL     1      -2.203   2.835   1.773  1.00  0.00     0.027 A 
ATOM     17  C   UNL     1      -3.468   4.726   0.974  1.00  0.00     0.027 A 
BRANCH  13  18
ATOM     18  C   UNL     1      -5.605   2.656   3.280  1.00  0.00     0.159 C 
ATOM     19  C   UNL     1      -6.852   2.071   2.690  1.00  0.00     0.093 C 
ATOM     20  O   UNL     1      -5.404   2.736   4.489  1.00  0.00    -0.295 OA
ENDBRANCH  13  18
ENDBRANCH   9  12
ENDBRANCH   7   8
ENDBRANCH   6   7
BRANCH   6  21
ATOM     21  N   UNL     1      -1.639   5.864   3.756  1.00  0.00    -0.329 N 
ATOM     22  C   UNL     1      -1.658   7.243   3.242  1.00  0.00     0.333 C 
ATOM     23  C   UNL     1      -2.530   5.798   4.914  1.00  0.00     0.333 C 
ATOM     24  H   UNL     1      -2.011   5.183   3.095  1.00  0.00     0.348 HD
ENDBRANCH   6  21
ENDBRANCH   3   6
ENDBRANCH   1   2
BRANCH   1  25
ATOM     25  C   UNL     1      -0.584   1.365   4.972  1.00  0.00     0.023 C 
BRANCH  25  26
ATOM     26  C   UNL     1      -0.821   0.299   6.042  1.00  0.00     0.023 C 
BRANCH  26  27
ATOM     27  C   UNL     1      -2.283  -0.057   6.319  1.00  0.00     0.116 C 
BRANCH  27  28
ATOM     28  N   UNL     1      -3.009  -0.558   5.160  1.00  0.00    -0.352 N 
ATOM     29  C   UNL     1      -4.014  -1.496   5.106  1.00  0.00     0.251 C 
ATOM     30  H   UNL     1      -2.744  -0.171   4.295  1.00  0.00     0.163 HD
ATOM     31  O   UNL     1      -4.554  -1.771   4.038  1.00  0.00    -0.269 OA
BRANCH  29  32
ATOM     32  C   UNL     1      -4.356  -2.246   6.331  1.00  0.00     0.039 A 
ATOM     33  C   UNL     1      -4.215  -3.636   6.308  1.00  0.00     0.014 A 
ATOM     34  C   UNL     1      -4.653  -1.580   7.521  1.00  0.00     0.014 A 
ATOM     35  C   UNL     1      -4.234  -4.348   7.507  1.00  0.00     0.010 A 
ATOM     36  C   UNL     1      -4.606  -2.282   8.723  1.00  0.00     0.010 A 
ATOM     37  C   UNL     1      -4.350  -3.664   8.728  1.00  0.00    -0.014 A 
BRANCH  37  38
ATOM     38  C   UNL     1      -4.099  -4.355  10.017  1.00  0.00     0.031 A 
ATOM     39  C   UNL     1      -5.188  -4.486  11.039  1.00  0.00     0.074 A 
ATOM     40  C   UNL     1      -2.849  -4.773  10.305  1.00  0.00     0.049 A 
ATOM     41  N   UNL     1      -5.121  -4.971  12.253  1.00  0.00    -0.248 NA
ATOM     42  C   UNL     1      -6.518  -3.986  10.659  1.00  0.00     0.031 C 
ATOM     43  C   UNL     1      -1.687  -4.654   9.419  1.00  0.00     0.029 A 
ATOM     44  N   UNL     1      -2.342  -5.367  11.435  1.00  0.00    -0.354 N 
ATOM     45  C   UNL     1      -6.391  -4.815  12.789  1.00  0.00     0.074 A 
ATOM     46  C   UNL     1      -7.201  -4.163  11.781  1.00  0.00     0.031 C 
ATOM     47  C   UNL     1      -0.610  -5.170  10.033  1.00  0.00     0.029 A 
ATOM     48  C   UNL     1      -0.992  -5.619  11.367  1.00  0.00     0.049 A 
ATOM     49  H   UNL     1      -2.893  -5.590  12.219  1.00  0.00     0.167 HD
ATOM     50  C   UNL     1      -6.845  -5.191  14.008  1.00  0.00     0.031 A 
ATOM     51  C   UNL     1      -0.150  -6.135  12.281  1.00  0.00     0.031 A 
ATOM     52  C   UNL     1      -6.049  -5.856  15.003  1.00  0.00     0.049 A 
ATOM     53  C   UNL     1      -0.679  -6.533  13.629  1.00  0.00     0.074 A 
ATOM     54  C   UNL     1      -6.449  -6.362  16.228  1.00  0.00     0.029 A 
ATOM     55  N   UNL     1      -4.690  -6.099  14.893  1.00  0.00    -0.354 N 
ATOM     56  N   UNL     1      -1.905  -6.462  14.086  1.00  0.00    -0.248 NA
ATOM     57  C   UNL     1       0.293  -7.081  14.587  1.00  0.00     0.031 C 
ATOM     58  C   UNL     1      -5.321  -6.870  16.880  1.00  0.00     0.029 A 
ATOM     59  C   UNL     1      -4.227  -6.714  16.044  1.00  0.00     0.049 A 
ATOM     60  H   UNL     1      -4.136  -5.869  14.112  1.00  0.00     0.167 HD
ATOM     61  C   UNL     1      -1.854  -6.963  15.379  1.00  0.00     0.074 A 
ATOM     62  C   UNL     1      -0.482  -7.353  15.628  1.00  0.00     0.031 C 
ATOM     63  C   UNL     1      -2.857  -7.084  16.281  1.00  0.00     0.031 A 
BRANCH  50  64
ATOM     64  C   UNL     1      -8.277  -4.882  14.336  1.00  0.00    -0.014 A 
ATOM     65  C   UNL     1      -9.326  -5.613  13.759  1.00  0.00     0.009 A 
ATOM     66  C   UNL     1      -8.576  -3.876  15.267  1.00  0.00     0.009 A 
ATOM     67  C   UNL     1     -10.652  -5.321  14.087  1.00  0.00     0.001 A 
ATOM     68  C   UNL     1      -9.901  -3.601  15.609  1.00  0.00     0.001 A 
ATOM     69  C   UNL     1     -10.937  -4.318  15.014  1.00  0.00     0.000 A 
ENDBRANCH  50  64
BRANCH  51  70
ATOM     70  C   UNL     1       1.292  -6.293  11.960  1.00  0.00    -0.014 A 
ATOM     71  C   UNL     1       1.833  -7.566  11.727  1.00  0.00     0.009 A 
ATOM     72  C   UNL     1       2.134  -5.172  11.896  1.00  0.00     0.009 A 
ATOM     73  C   UNL     1       3.196  -7.715  11.456  1.00  0.00     0.001 A 
ATOM     74  C   UNL     1       3.491  -5.322  11.602  1.00  0.00     0.001 A 
ATOM     75  C   UNL     1       4.022  -6.594  11.390  1.00  0.00     0.000 A 
ENDBRANCH  51  70
BRANCH  63  76
ATOM     76  C   UNL     1      -2.507  -7.665  17.619  1.00  0.00    -0.014 A 
ATOM     77  C   UNL     1      -1.836  -6.896  18.582  1.00  0.00     0.009 A 
ATOM     78  C   UNL     1      -2.894  -8.975  17.938  1.00  0.00     0.009 A 
ATOM     79  C   UNL     1      -1.541  -7.437  19.834  1.00  0.00     0.001 A 
ATOM     80  C   UNL     1      -2.617  -9.506  19.198  1.00  0.00     0.001 A 
ATOM     81  C   UNL     1      -1.936  -8.739  20.143  1.00  0.00     0.000 A 
ENDBRANCH  63  76
ENDBRANCH  37  38
ENDBRANCH  29  32
ENDBRANCH  27  28
ENDBRANCH  26  27
ENDBRANCH  25  26
ENDBRANCH   1  25
TORSDOF 16
