REMARK SMILES CCCOC(=O)c1c(NC(=O)[C@@H]2CC=CC[C@H]2C(=O)NCCCCNC(=O)c2ccc(-c3c4nc(c(-c5ccccc5)c5ccc([nH]5)c(-c5ccccc5)c5nc(c(-c6ccccc6)c6ccc3[nH]6)C=C5)C=C4)cc2)sc2c1CCCC2
REMARK SMILES IDX 18 1 19 2 20 3 17 5 12 6 13 7 14 8 16 9 15 10 10 11 9 12
REMARK SMILES IDX 11 14 8 15 7 16 78 17 76 18 77 19 79 20 82 21 80 22 81 23
REMARK SMILES IDX 5 24 6 25 4 26 3 27 2 28 1 29 21 30 22 31 23 32 24 33 25 34
REMARK SMILES IDX 26 35 27 37 28 38 29 39 75 40 30 41 74 42 31 43 32 44 33 45
REMARK SMILES IDX 68 46 34 47 73 48 67 49 69 50 35 51 72 52 66 53 65 54 36 56
REMARK SMILES IDX 58 57 43 58 57 59 44 60 47 61 56 62 70 63 45 64 46 65 55 67
REMARK SMILES IDX 71 68 48 69 37 70 38 71 42 72 39 73 41 74 40 75 59 76 60 77
REMARK SMILES IDX 64 78 61 79 63 80 62 81 49 82 50 83 54 84 51 85 53 86 52 87
REMARK H PARENT 20 4 9 13 25 36 69 55 47 66
REMARK Flexibility Score: inf
ROOT
ATOM      1  C   UNL     1       0.310   0.601   0.141  1.00  0.00     0.224 C 
ATOM      2  O   UNL     1       1.114   1.238  -0.576  1.00  0.00    -0.275 OA
ATOM      3  N   UNL     1      -0.760   1.483   0.569  1.00  0.00    -0.356 N 
ATOM      4  H   UNL     1      -0.481   2.373   0.255  1.00  0.00     0.163 HD
ENDROOT
BRANCH   1   5
ATOM      5  C   UNL     1       0.808  -1.121   0.419  1.00  0.00     0.095 C 
ATOM      6  C   UNL     1       1.959  -1.402   1.412  1.00  0.00     0.095 C 
ATOM      7  C   UNL     1       2.683  -2.776   1.219  1.00  0.00     0.041 C 
ATOM      8  C   UNL     1       1.806  -3.952   0.985  1.00  0.00    -0.030 C 
ATOM      9  C   UNL     1      -0.093  -2.434   0.580  1.00  0.00     0.041 C 
ATOM     10  C   UNL     1       0.527  -3.788   0.671  1.00  0.00    -0.030 C 
BRANCH   6  11
ATOM     11  C   UNL     1       3.044  -0.388   1.357  1.00  0.00     0.229 C 
ATOM     12  N   UNL     1       3.025   0.588   2.279  1.00  0.00    -0.317 N 
ATOM     13  H   UNL     1       3.914   0.856   2.607  1.00  0.00     0.170 HD
ATOM     14  O   UNL     1       4.027  -0.493   0.623  1.00  0.00    -0.274 OA
BRANCH  12  15
ATOM     15  C   UNL     1       1.985   1.272   2.840  1.00  0.00     0.110 A 
ATOM     16  C   UNL     1       0.586   1.359   2.786  1.00  0.00     0.098 A 
ATOM     17  C   UNL     1       0.363   2.891   2.996  1.00  0.00    -0.017 A 
ATOM     18  S   UNL     1       2.735   2.446   3.821  1.00  0.00    -0.122 S 
ATOM     19  C   UNL     1       1.410   3.454   3.718  1.00  0.00     0.011 A 
ATOM     20  C   UNL     1      -0.746   3.865   2.628  1.00  0.00     0.038 C 
ATOM     21  C   UNL     1       1.476   4.831   4.312  1.00  0.00     0.047 C 
ATOM     22  C   UNL     1      -0.641   5.311   3.145  1.00  0.00     0.005 C 
ATOM     23  C   UNL     1       0.069   5.390   4.483  1.00  0.00     0.006 C 
BRANCH  16  24
ATOM     24  C   UNL     1      -0.383   0.052   2.706  1.00  0.00     0.341 C 
ATOM     25  O   UNL     1      -0.368  -0.654   3.718  1.00  0.00    -0.246 OA
BRANCH  24  26
ATOM     26  O   UNL     1      -1.263  -0.475   1.648  1.00  0.00    -0.462 OA
BRANCH  26  27
ATOM     27  C   UNL     1      -2.168  -0.753   0.192  1.00  0.00     0.233 C 
BRANCH  27  28
ATOM     28  C   UNL     1      -1.783  -0.414  -1.358  1.00  0.00     0.038 C 
ATOM     29  C   UNL     1      -0.819  -1.236  -2.258  1.00  0.00     0.007 C 
ENDBRANCH  27  28
ENDBRANCH  26  27
ENDBRANCH  24  26
ENDBRANCH  16  24
ENDBRANCH  12  15
ENDBRANCH   6  11
ENDBRANCH   1   5
BRANCH   3  30
ATOM     30  C   UNL     1      -2.257   1.760   1.338  1.00  0.00     0.116 C 
BRANCH  30  31
ATOM     31  C   UNL     1      -2.884   1.204   2.784  1.00  0.00     0.023 C 
BRANCH  31  32
ATOM     32  C   UNL     1      -2.443   1.614   4.240  1.00  0.00     0.023 C 
BRANCH  32  33
ATOM     33  C   UNL     1      -3.256   2.746   4.868  1.00  0.00     0.116 C 
BRANCH  33  34
ATOM     34  N   UNL     1      -4.321   2.288   5.745  1.00  0.00    -0.352 N 
ATOM     35  C   UNL     1      -5.037   3.046   6.660  1.00  0.00     0.251 C 
ATOM     36  H   UNL     1      -4.559   1.335   5.684  1.00  0.00     0.163 HD
ATOM     37  O   UNL     1      -5.774   2.536   7.467  1.00  0.00    -0.269 OA
BRANCH  35  38
ATOM     38  C   UNL     1      -4.843   4.519   6.641  1.00  0.00     0.039 A 
ATOM     39  C   UNL     1      -4.573   5.193   7.834  1.00  0.00     0.014 A 
ATOM     40  C   UNL     1      -4.909   5.219   5.436  1.00  0.00     0.014 A 
ATOM     41  C   UNL     1      -4.338   6.570   7.805  1.00  0.00     0.010 A 
ATOM     42  C   UNL     1      -4.572   6.564   5.394  1.00  0.00     0.010 A 
ATOM     43  C   UNL     1      -4.327   7.264   6.583  1.00  0.00    -0.014 A 
BRANCH  43  44
ATOM     44  C   UNL     1      -4.179   8.739   6.547  1.00  0.00     0.031 A 
ATOM     45  C   UNL     1      -5.334   9.586   6.078  1.00  0.00     0.074 A 
ATOM     46  C   UNL     1      -3.024   9.318   6.927  1.00  0.00     0.049 A 
ATOM     47  N   UNL     1      -5.433  10.890   6.023  1.00  0.00    -0.248 NA
ATOM     48  C   UNL     1      -6.524   8.876   5.578  1.00  0.00     0.031 C 
ATOM     49  C   UNL     1      -1.815   8.608   7.351  1.00  0.00     0.029 A 
ATOM     50  N   UNL     1      -2.688  10.644   7.035  1.00  0.00    -0.354 N 
ATOM     51  C   UNL     1      -6.684  11.147   5.476  1.00  0.00     0.074 A 
ATOM     52  C   UNL     1      -7.275   9.873   5.141  1.00  0.00     0.031 C 
ATOM     53  C   UNL     1      -0.888   9.508   7.723  1.00  0.00     0.029 A 
ATOM     54  C   UNL     1      -1.429  10.852   7.543  1.00  0.00     0.049 A 
ATOM     55  H   UNL     1      -3.291  11.376   6.772  1.00  0.00     0.167 HD
ATOM     56  C   UNL     1      -7.311  12.334   5.304  1.00  0.00     0.031 A 
ATOM     57  C   UNL     1      -0.795  12.000   7.851  1.00  0.00     0.031 A 
ATOM     58  C   UNL     1      -6.741  13.600   5.667  1.00  0.00     0.049 A 
ATOM     59  C   UNL     1      -1.513  13.309   7.661  1.00  0.00     0.074 A 
ATOM     60  C   UNL     1      -7.314  14.857   5.593  1.00  0.00     0.029 A 
ATOM     61  N   UNL     1      -5.464  13.766   6.178  1.00  0.00    -0.354 N 
ATOM     62  N   UNL     1      -2.730  13.530   7.224  1.00  0.00    -0.248 NA
ATOM     63  C   UNL     1      -0.774  14.527   8.025  1.00  0.00     0.031 C 
ATOM     64  C   UNL     1      -6.364  15.790   6.018  1.00  0.00     0.029 A 
ATOM     65  C   UNL     1      -5.220  15.108   6.404  1.00  0.00     0.049 A 
ATOM     66  H   UNL     1      -4.826  13.037   6.354  1.00  0.00     0.167 HD
ATOM     67  C   UNL     1      -2.912  14.906   7.288  1.00  0.00     0.074 A 
ATOM     68  C   UNL     1      -1.687  15.466   7.821  1.00  0.00     0.031 C 
ATOM     69  C   UNL     1      -3.994  15.642   6.937  1.00  0.00     0.031 A 
BRANCH  56  70
ATOM     70  C   UNL     1      -8.688  12.304   4.705  1.00  0.00    -0.014 A 
ATOM     71  C   UNL     1      -9.780  11.784   5.420  1.00  0.00     0.009 A 
ATOM     72  C   UNL     1      -8.899  12.805   3.412  1.00  0.00     0.009 A 
ATOM     73  C   UNL     1     -11.046  11.727   4.835  1.00  0.00     0.001 A 
ATOM     74  C   UNL     1     -10.173  12.775   2.841  1.00  0.00     0.001 A 
ATOM     75  C   UNL     1     -11.243  12.226   3.548  1.00  0.00     0.000 A 
ENDBRANCH  56  70
BRANCH  57  76
ATOM     76  C   UNL     1       0.581  11.967   8.414  1.00  0.00    -0.014 A 
ATOM     77  C   UNL     1       0.809  12.306   9.758  1.00  0.00     0.009 A 
ATOM     78  C   UNL     1       1.674  11.615   7.609  1.00  0.00     0.009 A 
ATOM     79  C   UNL     1       2.108  12.322  10.273  1.00  0.00     0.001 A 
ATOM     80  C   UNL     1       2.968  11.606   8.134  1.00  0.00     0.001 A 
ATOM     81  C   UNL     1       3.185  11.969   9.463  1.00  0.00     0.000 A 
ENDBRANCH  57  76
BRANCH  69  82
ATOM     82  C   UNL     1      -3.915  17.127   7.142  1.00  0.00    -0.014 A 
ATOM     83  C   UNL     1      -3.126  17.934   6.308  1.00  0.00     0.009 A 
ATOM     84  C   UNL     1      -4.686  17.732   8.147  1.00  0.00     0.009 A 
ATOM     85  C   UNL     1      -3.089  19.317   6.497  1.00  0.00     0.001 A 
ATOM     86  C   UNL     1      -4.668  19.116   8.315  1.00  0.00     0.001 A 
ATOM     87  C   UNL     1      -3.864  19.906   7.495  1.00  0.00     0.000 A 
ENDBRANCH  69  82
ENDBRANCH  43  44
ENDBRANCH  35  38
ENDBRANCH  33  34
ENDBRANCH  32  33
ENDBRANCH  31  32
ENDBRANCH  30  31
ENDBRANCH   3  30
TORSDOF 17
