REMARK SMILES C#CC[NH2+]CC(=O)Nc1ccc(F)cc1C(=O)NCCCCNC(=O)c1ccc(-c2c3nc(c(-c4ccccc4)c4ccc([nH]4)c(-c4ccccc4)c4nc(c(-c5ccccc5)c5ccc2[nH]5)C=C4)C=C3)cc1
REMARK SMILES IDX 19 1 18 2 16 3 17 4 15 6 9 7 10 8 11 9 14 10 12 11 13 12
REMARK SMILES IDX 8 13 6 14 7 15 5 17 4 18 3 21 2 22 1 23 20 24 21 25 22 26
REMARK SMILES IDX 23 27 24 28 25 30 26 31 27 32 73 33 28 34 72 35 29 36 30 37
REMARK SMILES IDX 31 38 66 39 32 40 71 41 65 42 67 43 33 44 70 45 64 46 63 47
REMARK SMILES IDX 34 49 56 50 41 51 55 52 42 53 45 54 54 55 68 56 43 57 44 58
REMARK SMILES IDX 53 60 69 61 46 62 35 63 36 64 40 65 37 66 39 67 38 68 57 69
REMARK SMILES IDX 58 70 62 71 59 72 61 73 60 74 47 75 48 76 52 77 49 78 51 79
REMARK SMILES IDX 50 80
REMARK H PARENT 18 5 8 16 4 19 4 20 23 29 67 48 45 59
REMARK Flexibility Score: inf
ROOT
ATOM      1  C   UNL     1      -6.367   1.743   0.288  1.00  0.00     0.116 C 
ENDROOT
BRANCH   1   2
ATOM      2  N   UNL     1      -6.412   2.605   1.424  1.00  0.00    -0.352 N 
ATOM      3  C   UNL     1      -5.375   2.928   2.258  1.00  0.00     0.253 C 
ATOM      4  O   UNL     1      -5.628   3.629   3.239  1.00  0.00    -0.269 OA
ATOM      5  H   UNL     1      -7.284   3.013   1.631  1.00  0.00     0.163 HD
BRANCH   3   6
ATOM      6  C   UNL     1      -3.960   2.479   2.076  1.00  0.00     0.066 A 
ATOM      7  C   UNL     1      -3.154   2.792   0.965  1.00  0.00     0.054 A 
ATOM      8  C   UNL     1      -1.775   3.035   1.182  1.00  0.00     0.030 A 
ATOM      9  C   UNL     1      -1.165   2.698   2.393  1.00  0.00     0.041 A 
ATOM     10  C   UNL     1      -3.327   2.144   3.295  1.00  0.00     0.055 A 
ATOM     11  C   UNL     1      -1.945   2.208   3.425  1.00  0.00     0.124 A 
ATOM     12  F   UNL     1      -1.366   1.853   4.579  1.00  0.00    -0.207 F 
BRANCH   7  13
ATOM     13  N   UNL     1      -3.559   2.844  -0.393  1.00  0.00    -0.320 N 
ATOM     14  C   UNL     1      -3.694   1.826  -1.330  1.00  0.00     0.279 C 
ATOM     15  O   UNL     1      -3.769   2.178  -2.514  1.00  0.00    -0.268 OA
ATOM     16  H   UNL     1      -3.780   3.744  -0.725  1.00  0.00     0.170 HD
BRANCH  14  17
ATOM     17  C   UNL     1      -3.768   0.303  -1.003  1.00  0.00     0.363 C 
BRANCH  17  18
ATOM     18  N   UNL     1      -2.454  -0.372  -1.140  1.00  0.00    -0.328 N 
ATOM     19  H   UNL     1      -2.568  -1.385  -1.172  1.00  0.00     0.347 HD
ATOM     20  H   UNL     1      -1.969  -0.115  -2.001  1.00  0.00     0.347 HD
BRANCH  18  21
ATOM     21  C   UNL     1      -1.734   0.024   0.038  1.00  0.00     0.352 C 
BRANCH  21  22
ATOM     22  C   UNL     1      -0.214   0.024   0.038  1.00  0.00    -0.047 C 
ATOM     23  C   UNL     1       1.089   0.024   0.038  1.00  0.00     0.010 C 
ENDBRANCH  21  22
ENDBRANCH  18  21
ENDBRANCH  17  18
ENDBRANCH  14  17
ENDBRANCH   7  13
ENDBRANCH   3   6
ENDBRANCH   1   2
BRANCH   1  24
ATOM     24  C   UNL     1      -7.683   1.255  -0.278  1.00  0.00     0.023 C 
BRANCH  24  25
ATOM     25  C   UNL     1      -8.583   2.349  -0.834  1.00  0.00     0.023 C 
BRANCH  25  26
ATOM     26  C   UNL     1      -7.910   3.391  -1.727  1.00  0.00     0.116 C 
BRANCH  26  27
ATOM     27  N   UNL     1      -7.413   2.868  -2.994  1.00  0.00    -0.352 N 
ATOM     28  C   UNL     1      -7.894   3.064  -4.275  1.00  0.00     0.251 C 
ATOM     29  H   UNL     1      -6.617   2.292  -2.927  1.00  0.00     0.163 HD
ATOM     30  O   UNL     1      -7.426   2.461  -5.224  1.00  0.00    -0.269 OA
BRANCH  28  31
ATOM     31  C   UNL     1      -9.029   3.991  -4.476  1.00  0.00     0.039 A 
ATOM     32  C   UNL     1     -10.158   3.544  -5.164  1.00  0.00     0.014 A 
ATOM     33  C   UNL     1      -9.003   5.268  -3.916  1.00  0.00     0.014 A 
ATOM     34  C   UNL     1     -11.310   4.334  -5.176  1.00  0.00     0.010 A 
ATOM     35  C   UNL     1     -10.180   6.002  -3.835  1.00  0.00     0.010 A 
ATOM     36  C   UNL     1     -11.352   5.538  -4.454  1.00  0.00    -0.014 A 
BRANCH  36  37
ATOM     37  C   UNL     1     -12.610   6.314  -4.304  1.00  0.00     0.031 A 
ATOM     38  C   UNL     1     -12.679   7.741  -4.779  1.00  0.00     0.074 A 
ATOM     39  C   UNL     1     -13.658   5.773  -3.649  1.00  0.00     0.049 A 
ATOM     40  N   UNL     1     -13.652   8.607  -4.647  1.00  0.00    -0.248 NA
ATOM     41  C   UNL     1     -11.487   8.277  -5.457  1.00  0.00     0.031 C 
ATOM     42  C   UNL     1     -13.701   4.426  -3.071  1.00  0.00     0.029 A 
ATOM     43  N   UNL     1     -14.890   6.300  -3.344  1.00  0.00    -0.354 N 
ATOM     44  C   UNL     1     -13.174   9.794  -5.189  1.00  0.00     0.074 A 
ATOM     45  C   UNL     1     -11.813   9.551  -5.612  1.00  0.00     0.031 C 
ATOM     46  C   UNL     1     -14.903   4.226  -2.507  1.00  0.00     0.029 A 
ATOM     47  C   UNL     1     -15.702   5.438  -2.645  1.00  0.00     0.049 A 
ATOM     48  H   UNL     1     -15.165   7.209  -3.601  1.00  0.00     0.167 HD
ATOM     49  C   UNL     1     -13.816  10.976  -5.341  1.00  0.00     0.031 A 
ATOM     50  C   UNL     1     -16.948   5.606  -2.163  1.00  0.00     0.031 A 
ATOM     51  C   UNL     1     -15.184  11.208  -4.966  1.00  0.00     0.049 A 
ATOM     52  C   UNL     1     -17.653   6.915  -2.384  1.00  0.00     0.074 A 
ATOM     53  C   UNL     1     -15.951  12.341  -5.173  1.00  0.00     0.029 A 
ATOM     54  N   UNL     1     -15.988  10.291  -4.310  1.00  0.00    -0.354 N 
ATOM     55  N   UNL     1     -17.219   7.995  -2.987  1.00  0.00    -0.248 NA
ATOM     56  C   UNL     1     -19.026   7.024  -1.869  1.00  0.00     0.031 C 
ATOM     57  C   UNL     1     -17.208  12.126  -4.601  1.00  0.00     0.029 A 
ATOM     58  C   UNL     1     -17.237  10.841  -4.083  1.00  0.00     0.049 A 
ATOM     59  H   UNL     1     -15.712   9.384  -4.045  1.00  0.00     0.167 HD
ATOM     60  C   UNL     1     -18.272   8.899  -2.948  1.00  0.00     0.074 A 
ATOM     61  C   UNL     1     -19.372   8.236  -2.279  1.00  0.00     0.031 C 
ATOM     62  C   UNL     1     -18.323  10.166  -3.423  1.00  0.00     0.031 A 
BRANCH  49  63
ATOM     63  C   UNL     1     -13.045  12.114  -5.946  1.00  0.00    -0.014 A 
ATOM     64  C   UNL     1     -12.707  12.123  -7.309  1.00  0.00     0.009 A 
ATOM     65  C   UNL     1     -12.698  13.218  -5.152  1.00  0.00     0.009 A 
ATOM     66  C   UNL     1     -12.010  13.202  -7.856  1.00  0.00     0.001 A 
ATOM     67  C   UNL     1     -12.025  14.307  -5.708  1.00  0.00     0.001 A 
ATOM     68  C   UNL     1     -11.675  14.295  -7.058  1.00  0.00     0.000 A 
ENDBRANCH  49  63
BRANCH  50  69
ATOM     69  C   UNL     1     -17.623   4.504  -1.426  1.00  0.00    -0.014 A 
ATOM     70  C   UNL     1     -18.704   3.819  -2.003  1.00  0.00     0.009 A 
ATOM     71  C   UNL     1     -17.208   4.150  -0.133  1.00  0.00     0.009 A 
ATOM     72  C   UNL     1     -19.377   2.826  -1.286  1.00  0.00     0.001 A 
ATOM     73  C   UNL     1     -17.865   3.137   0.569  1.00  0.00     0.001 A 
ATOM     74  C   UNL     1     -18.955   2.485  -0.003  1.00  0.00     0.000 A 
ENDBRANCH  50  69
BRANCH  62  75
ATOM     75  C   UNL     1     -19.620  10.908  -3.270  1.00  0.00    -0.014 A 
ATOM     76  C   UNL     1     -20.038  11.394  -2.022  1.00  0.00     0.009 A 
ATOM     77  C   UNL     1     -20.410  11.163  -4.402  1.00  0.00     0.009 A 
ATOM     78  C   UNL     1     -21.239  12.096  -1.907  1.00  0.00     0.001 A 
ATOM     79  C   UNL     1     -21.595  11.889  -4.288  1.00  0.00     0.001 A 
ATOM     80  C   UNL     1     -22.013  12.348  -3.040  1.00  0.00     0.000 A 
ENDBRANCH  62  75
ENDBRANCH  36  37
ENDBRANCH  28  31
ENDBRANCH  26  27
ENDBRANCH  25  26
ENDBRANCH  24  25
ENDBRANCH   1  24
TORSDOF 16
