REMARK SMILES O=C(NCCCCNC(=O)c1ccc(-c2c3nc(c(-c4ccccc4)c4ccc([nH]4)c(-c4ccccc4)c4nc(c(-c5ccccc5)c5ccc2[nH]5)C=C4)C=C3)cc1)c1ccc(NS(=O)(=O)C2=Cc3ccccc3CC2)cc1
REMARK SMILES IDX 5 1 4 2 3 3 1 4 2 5 59 7 60 8 78 9 61 10 77 11 62 12 63 13
REMARK SMILES IDX 64 15 65 16 66 17 67 18 68 19 76 20 69 21 75 22 70 23 74 24
REMARK SMILES IDX 71 25 73 26 72 27 6 28 7 29 8 30 9 31 10 33 11 34 12 35
REMARK SMILES IDX 58 36 13 37 57 38 14 39 15 40 16 41 51 42 17 43 56 44 50 45
REMARK SMILES IDX 52 46 18 47 55 48 49 49 48 50 19 52 41 53 26 54 40 55 27 56
REMARK SMILES IDX 30 57 39 58 53 59 28 60 29 61 38 63 54 64 31 65 20 66 21 67
REMARK SMILES IDX 25 68 22 69 24 70 23 71 42 72 43 73 47 74 44 75 46 76 45 77
REMARK SMILES IDX 32 78 33 79 37 80 34 81 36 82 35 83
REMARK H PARENT 3 6 63 14 8 32 52 51 30 62
REMARK Flexibility Score: inf
ROOT
ATOM      1  C   UNL     1       4.909   2.643   0.588  1.00  0.00     0.023 C 
ENDROOT
BRANCH   1   2
ATOM      2  C   UNL     1       4.409   1.208   0.724  1.00  0.00     0.116 C 
BRANCH   2   3
ATOM      3  N   UNL     1       2.961   1.127   0.664  1.00  0.00    -0.352 N 
ATOM      4  O   UNL     1       0.973   0.514  -0.212  1.00  0.00    -0.269 OA
ATOM      5  C   UNL     1       2.182   0.328  -0.136  1.00  0.00     0.251 C 
ATOM      6  H   UNL     1       2.473   1.722   1.278  1.00  0.00     0.163 HD
BRANCH   5   7
ATOM      7  C   UNL     1       2.805  -0.776  -0.895  1.00  0.00     0.039 A 
ATOM      8  C   UNL     1       3.612  -1.707  -0.237  1.00  0.00     0.016 A 
ATOM      9  C   UNL     1       2.503  -0.946  -2.248  1.00  0.00     0.016 A 
ATOM     10  C   UNL     1       4.137  -2.789  -0.940  1.00  0.00     0.027 A 
ATOM     11  C   UNL     1       3.048  -2.027  -2.953  1.00  0.00     0.027 A 
ATOM     12  C   UNL     1       3.880  -2.946  -2.303  1.00  0.00     0.049 A 
BRANCH  12  13
ATOM     13  N   UNL     1       4.267  -4.147  -2.973  1.00  0.00    -0.280 N 
ATOM     14  H   UNL     1       3.574  -4.749  -3.328  1.00  0.00     0.180 HD
BRANCH  13  15
ATOM     15  S   UNL     1       5.908  -4.555  -3.170  1.00  0.00     0.258 S 
ATOM     16  O   UNL     1       5.884  -5.965  -3.502  1.00  0.00    -0.202 OA
ATOM     17  O   UNL     1       6.409  -3.613  -4.155  1.00  0.00    -0.202 OA
BRANCH  15  18
ATOM     18  C   UNL     1       6.757  -4.296  -1.642  1.00  0.00     0.066 C 
ATOM     19  C   UNL     1       7.006  -5.396  -0.897  1.00  0.00     0.026 C 
ATOM     20  C   UNL     1       7.870  -3.278  -1.703  1.00  0.00     0.055 C 
ATOM     21  C   UNL     1       8.309  -6.053  -1.205  1.00  0.00    -0.021 A 
ATOM     22  C   UNL     1       9.127  -3.913  -2.317  1.00  0.00     0.041 C 
ATOM     23  C   UNL     1       8.519  -7.376  -0.804  1.00  0.00     0.008 A 
ATOM     24  C   UNL     1       9.321  -5.356  -1.900  1.00  0.00    -0.040 A 
ATOM     25  C   UNL     1       9.707  -8.026  -1.142  1.00  0.00     0.001 A 
ATOM     26  C   UNL     1      10.496  -6.029  -2.254  1.00  0.00     0.004 A 
ATOM     27  C   UNL     1      10.684  -7.360  -1.880  1.00  0.00     0.000 A 
ENDBRANCH  15  18
ENDBRANCH  13  15
ENDBRANCH  12  13
ENDBRANCH   5   7
ENDBRANCH   2   3
ENDBRANCH   1   2
BRANCH   1  28
ATOM     28  C   UNL     1       4.484   3.590   1.711  1.00  0.00     0.023 C 
BRANCH  28  29
ATOM     29  C   UNL     1       4.827   3.131   3.124  1.00  0.00     0.116 C 
BRANCH  29  30
ATOM     30  N   UNL     1       6.252   2.916   3.323  1.00  0.00    -0.352 N 
ATOM     31  C   UNL     1       7.091   3.403   4.295  1.00  0.00     0.251 C 
ATOM     32  H   UNL     1       6.681   2.330   2.658  1.00  0.00     0.163 HD
ATOM     33  O   UNL     1       8.299   3.200   4.211  1.00  0.00    -0.269 OA
BRANCH  31  34
ATOM     34  C   UNL     1       6.558   4.200   5.422  1.00  0.00     0.039 A 
ATOM     35  C   UNL     1       7.252   5.348   5.814  1.00  0.00     0.014 A 
ATOM     36  C   UNL     1       5.391   3.827   6.096  1.00  0.00     0.014 A 
ATOM     37  C   UNL     1       6.739   6.157   6.831  1.00  0.00     0.010 A 
ATOM     38  C   UNL     1       4.840   4.675   7.056  1.00  0.00     0.010 A 
ATOM     39  C   UNL     1       5.509   5.848   7.434  1.00  0.00    -0.014 A 
BRANCH  39  40
ATOM     40  C   UNL     1       4.911   6.762   8.440  1.00  0.00     0.031 A 
ATOM     41  C   UNL     1       4.723   6.326   9.866  1.00  0.00     0.074 A 
ATOM     42  C   UNL     1       4.500   7.987   8.056  1.00  0.00     0.049 A 
ATOM     43  N   UNL     1       4.268   7.012  10.885  1.00  0.00    -0.248 NA
ATOM     44  C   UNL     1       5.068   4.932  10.188  1.00  0.00     0.031 C 
ATOM     45  C   UNL     1       4.566   8.514   6.691  1.00  0.00     0.029 A 
ATOM     46  N   UNL     1       3.955   9.015   8.783  1.00  0.00    -0.354 N 
ATOM     47  C   UNL     1       4.256   6.132  11.960  1.00  0.00     0.074 A 
ATOM     48  C   UNL     1       4.704   4.851  11.460  1.00  0.00     0.031 C 
ATOM     49  C   UNL     1       4.131   9.784   6.689  1.00  0.00     0.029 A 
ATOM     50  C   UNL     1       3.728  10.150   8.043  1.00  0.00     0.049 A 
ATOM     51  H   UNL     1       3.746   8.946   9.743  1.00  0.00     0.167 HD
ATOM     52  C   UNL     1       3.923   6.372  13.251  1.00  0.00     0.031 A 
ATOM     53  C   UNL     1       3.267  11.358   8.415  1.00  0.00     0.031 A 
ATOM     54  C   UNL     1       3.490   7.648  13.756  1.00  0.00     0.049 A 
ATOM     55  C   UNL     1       2.926  11.605   9.857  1.00  0.00     0.074 A 
ATOM     56  C   UNL     1       3.204   8.008  15.062  1.00  0.00     0.029 A 
ATOM     57  N   UNL     1       3.275   8.772  12.975  1.00  0.00    -0.354 N 
ATOM     58  N   UNL     1       3.011  10.790  10.879  1.00  0.00    -0.248 NA
ATOM     59  C   UNL     1       2.441  12.951  10.195  1.00  0.00     0.031 C 
ATOM     60  C   UNL     1       2.770   9.339  15.063  1.00  0.00     0.029 A 
ATOM     61  C   UNL     1       2.835   9.821  13.766  1.00  0.00     0.049 A 
ATOM     62  H   UNL     1       3.413   8.819  12.001  1.00  0.00     0.167 HD
ATOM     63  C   UNL     1       2.618  11.529  11.986  1.00  0.00     0.074 A 
ATOM     64  C   UNL     1       2.311  12.864  11.511  1.00  0.00     0.031 C 
ATOM     65  C   UNL     1       2.522  11.139  13.280  1.00  0.00     0.031 A 
BRANCH  52  66
ATOM     66  C   UNL     1       4.007   5.215  14.209  1.00  0.00    -0.014 A 
ATOM     67  C   UNL     1       5.246   4.682  14.602  1.00  0.00     0.009 A 
ATOM     68  C   UNL     1       2.832   4.665  14.743  1.00  0.00     0.009 A 
ATOM     69  C   UNL     1       5.304   3.595  15.477  1.00  0.00     0.001 A 
ATOM     70  C   UNL     1       2.894   3.596  15.640  1.00  0.00     0.001 A 
ATOM     71  C   UNL     1       4.129   3.056  15.997  1.00  0.00     0.000 A 
ENDBRANCH  52  66
BRANCH  53  72
ATOM     72  C   UNL     1       3.155  12.451   7.415  1.00  0.00    -0.014 A 
ATOM     73  C   UNL     1       4.060  13.523   7.438  1.00  0.00     0.009 A 
ATOM     74  C   UNL     1       2.148  12.431   6.439  1.00  0.00     0.009 A 
ATOM     75  C   UNL     1       3.944  14.567   6.517  1.00  0.00     0.001 A 
ATOM     76  C   UNL     1       2.050  13.463   5.504  1.00  0.00     0.001 A 
ATOM     77  C   UNL     1       2.942  14.534   5.549  1.00  0.00     0.000 A 
ENDBRANCH  53  72
BRANCH  65  78
ATOM     78  C   UNL     1       2.092  12.182  14.273  1.00  0.00    -0.014 A 
ATOM     79  C   UNL     1       0.770  12.653  14.310  1.00  0.00     0.009 A 
ATOM     80  C   UNL     1       3.024  12.698  15.187  1.00  0.00     0.009 A 
ATOM     81  C   UNL     1       0.402  13.654  15.212  1.00  0.00     0.001 A 
ATOM     82  C   UNL     1       2.646  13.677  16.107  1.00  0.00     0.001 A 
ATOM     83  C   UNL     1       1.339  14.163  16.110  1.00  0.00     0.000 A 
ENDBRANCH  65  78
ENDBRANCH  39  40
ENDBRANCH  31  34
ENDBRANCH  29  30
ENDBRANCH  28  29
ENDBRANCH   1  28
TORSDOF 14
