REMARK SMILES O=C(NCCCCNC(=O)[C@H]1CC2=c3ccccc3=N[C@H]2[C@@H](c2ccccc2)[NH2+]1)c1ccc(-c2c3nc(c(-c4ccccc4)c4ccc([nH]4)c(-c4ccccc4)c4nc(c(-c5ccccc5)c5ccc2[nH]5)C=C4)C=C3)cc1
REMARK SMILES IDX 5 1 4 2 3 3 1 4 2 5 30 7 31 8 77 9 32 10 76 11 33 12 34 13
REMARK SMILES IDX 35 14 70 15 36 16 75 17 69 18 71 19 37 20 74 21 68 22 67 23
REMARK SMILES IDX 38 25 60 26 45 27 59 28 46 29 49 30 58 31 72 32 47 33 48 34
REMARK SMILES IDX 57 36 73 37 50 38 39 39 40 40 44 41 41 42 43 43 42 44 61 45
REMARK SMILES IDX 62 46 66 47 63 48 65 49 64 50 51 51 52 52 56 53 53 54 55 55
REMARK SMILES IDX 54 56 6 57 7 58 8 59 9 60 10 62 11 63 12 64 29 65 13 66
REMARK SMILES IDX 22 67 14 70 21 71 15 72 19 73 20 74 16 75 18 76 17 77 23 78
REMARK SMILES IDX 24 79 28 80 25 81 27 82 26 83
REMARK H PARENT 3 6 71 24 49 35 8 61 29 68 29 69
REMARK Flexibility Score: inf
ROOT
ATOM      1  C   UNL     1       4.779   2.410  -0.458  1.00  0.00     0.023 C 
ENDROOT
BRANCH   1   2
ATOM      2  C   UNL     1       4.382   0.977  -0.118  1.00  0.00     0.116 C 
BRANCH   2   3
ATOM      3  N   UNL     1       2.954   0.833   0.130  1.00  0.00    -0.352 N 
ATOM      4  O   UNL     1       0.932  -0.162   0.057  1.00  0.00    -0.269 OA
ATOM      5  C   UNL     1       2.144  -0.239  -0.118  1.00  0.00     0.251 C 
ATOM      6  H   UNL     1       2.512   1.616   0.532  1.00  0.00     0.163 HD
BRANCH   5   7
ATOM      7  C   UNL     1       2.747  -1.480  -0.621  1.00  0.00     0.039 A 
ATOM      8  C   UNL     1       2.197  -2.078  -1.755  1.00  0.00     0.014 A 
ATOM      9  C   UNL     1       3.853  -2.037   0.027  1.00  0.00     0.014 A 
ATOM     10  C   UNL     1       2.773  -3.241  -2.256  1.00  0.00     0.010 A 
ATOM     11  C   UNL     1       4.470  -3.153  -0.516  1.00  0.00     0.010 A 
ATOM     12  C   UNL     1       3.915  -3.779  -1.642  1.00  0.00    -0.014 A 
BRANCH  12  13
ATOM     13  C   UNL     1       4.506  -5.045  -2.121  1.00  0.00     0.031 A 
ATOM     14  C   UNL     1       4.447  -6.261  -1.243  1.00  0.00     0.074 A 
ATOM     15  C   UNL     1       5.119  -5.086  -3.317  1.00  0.00     0.049 A 
ATOM     16  N   UNL     1       4.936  -7.454  -1.456  1.00  0.00    -0.248 NA
ATOM     17  C   UNL     1       3.775  -6.110   0.059  1.00  0.00     0.031 C 
ATOM     18  C   UNL     1       5.248  -3.955  -4.237  1.00  0.00     0.029 A 
ATOM     19  N   UNL     1       5.744  -6.120  -3.963  1.00  0.00    -0.354 N 
ATOM     20  C   UNL     1       4.650  -8.184  -0.310  1.00  0.00     0.074 A 
ATOM     21  C   UNL     1       3.998  -7.290   0.618  1.00  0.00     0.031 C 
ATOM     22  C   UNL     1       5.879  -4.367  -5.347  1.00  0.00     0.029 A 
ATOM     23  C   UNL     1       6.236  -5.776  -5.198  1.00  0.00     0.049 A 
ATOM     24  H   UNL     1       5.833  -7.022  -3.579  1.00  0.00     0.167 HD
ATOM     25  C   UNL     1       4.888  -9.492  -0.068  1.00  0.00     0.031 A 
ATOM     26  C   UNL     1       6.898  -6.514  -6.108  1.00  0.00     0.031 A 
ATOM     27  C   UNL     1       5.511 -10.375  -1.015  1.00  0.00     0.049 A 
ATOM     28  C   UNL     1       7.170  -7.962  -5.813  1.00  0.00     0.074 A 
ATOM     29  C   UNL     1       5.727 -11.736  -0.902  1.00  0.00     0.029 A 
ATOM     30  N   UNL     1       6.018  -9.984  -2.245  1.00  0.00    -0.354 N 
ATOM     31  N   UNL     1       6.835  -8.660  -4.754  1.00  0.00    -0.248 NA
ATOM     32  C   UNL     1       7.902  -8.726  -6.832  1.00  0.00     0.031 C 
ATOM     33  C   UNL     1       6.431 -12.155  -2.032  1.00  0.00     0.029 A 
ATOM     34  C   UNL     1       6.587 -11.071  -2.884  1.00  0.00     0.049 A 
ATOM     35  H   UNL     1       5.978  -9.070  -2.609  1.00  0.00     0.167 HD
ATOM     36  C   UNL     1       7.303  -9.947  -4.982  1.00  0.00     0.074 A 
ATOM     37  C   UNL     1       7.931  -9.937  -6.288  1.00  0.00     0.031 C 
ATOM     38  C   UNL     1       7.220 -11.037  -4.179  1.00  0.00     0.031 A 
BRANCH  25  39
ATOM     39  C   UNL     1       4.479 -10.048   1.268  1.00  0.00    -0.014 A 
ATOM     40  C   UNL     1       5.461 -10.505   2.161  1.00  0.00     0.009 A 
ATOM     41  C   UNL     1       3.127 -10.177   1.625  1.00  0.00     0.009 A 
ATOM     42  C   UNL     1       5.100 -11.086   3.378  1.00  0.00     0.001 A 
ATOM     43  C   UNL     1       2.769 -10.726   2.858  1.00  0.00     0.001 A 
ATOM     44  C   UNL     1       3.755 -11.188   3.729  1.00  0.00     0.000 A 
ENDBRANCH  25  39
BRANCH  26  45
ATOM     45  C   UNL     1       7.296  -5.882  -7.393  1.00  0.00    -0.014 A 
ATOM     46  C   UNL     1       8.292  -4.891  -7.426  1.00  0.00     0.009 A 
ATOM     47  C   UNL     1       6.606  -6.189  -8.575  1.00  0.00     0.009 A 
ATOM     48  C   UNL     1       8.561  -4.195  -8.607  1.00  0.00     0.001 A 
ATOM     49  C   UNL     1       6.897  -5.509  -9.761  1.00  0.00     0.001 A 
ATOM     50  C   UNL     1       7.863  -4.503  -9.772  1.00  0.00     0.000 A 
ENDBRANCH  26  45
BRANCH  38  51
ATOM     51  C   UNL     1       7.827 -12.322  -4.668  1.00  0.00    -0.014 A 
ATOM     52  C   UNL     1       6.997 -13.413  -4.975  1.00  0.00     0.009 A 
ATOM     53  C   UNL     1       9.219 -12.498  -4.685  1.00  0.00     0.009 A 
ATOM     54  C   UNL     1       7.548 -14.663  -5.259  1.00  0.00     0.001 A 
ATOM     55  C   UNL     1       9.767 -13.743  -5.000  1.00  0.00     0.001 A 
ATOM     56  C   UNL     1       8.932 -14.827  -5.272  1.00  0.00     0.000 A 
ENDBRANCH  38  51
ENDBRANCH  12  13
ENDBRANCH   5   7
ENDBRANCH   2   3
ENDBRANCH   1   2
BRANCH   1  57
ATOM     57  C   UNL     1       4.158   3.478   0.450  1.00  0.00     0.023 C 
BRANCH  57  58
ATOM     58  C   UNL     1       4.336   3.203   1.943  1.00  0.00     0.116 C 
BRANCH  58  59
ATOM     59  N   UNL     1       5.674   3.535   2.352  1.00  0.00    -0.351 N 
ATOM     60  C   UNL     1       6.210   4.683   2.818  1.00  0.00     0.278 C 
ATOM     61  H   UNL     1       6.315   2.791   2.279  1.00  0.00     0.163 HD
ATOM     62  O   UNL     1       7.448   4.730   2.759  1.00  0.00    -0.268 OA
BRANCH  60  63
ATOM     63  C   UNL     1       5.426   5.851   3.476  1.00  0.00     0.277 C 
ATOM     64  C   UNL     1       3.881   6.009   3.377  1.00  0.00     0.109 C 
ATOM     65  N   UNL     1       5.959   6.006   4.864  1.00  0.00    -0.327 N 
ATOM     66  C   UNL     1       3.455   7.299   4.031  1.00  0.00    -0.024 C 
ATOM     67  C   UNL     1       5.160   6.865   5.772  1.00  0.00     0.243 C 
ATOM     68  H   UNL     1       6.894   6.408   4.797  1.00  0.00     0.347 HD
ATOM     69  H   UNL     1       5.936   5.073   5.275  1.00  0.00     0.347 HD
ATOM     70  C   UNL     1       2.283   7.897   4.226  1.00  0.00     0.002 A 
ATOM     71  C   UNL     1       4.518   7.969   4.861  1.00  0.00     0.196 C 
ATOM     72  C   UNL     1       0.914   7.619   3.931  1.00  0.00     0.010 A 
ATOM     73  C   UNL     1       2.652   9.046   5.083  1.00  0.00     0.066 A 
ATOM     74  N   UNL     1       3.867   9.113   5.540  1.00  0.00    -0.270 NA
ATOM     75  C   UNL     1      -0.021   8.500   4.332  1.00  0.00     0.001 A 
ATOM     76  C   UNL     1       1.591  10.029   5.372  1.00  0.00     0.028 A 
ATOM     77  C   UNL     1       0.336   9.748   4.989  1.00  0.00     0.002 A 
BRANCH  67  78
ATOM     78  C   UNL     1       4.176   6.065   6.666  1.00  0.00     0.012 A 
ATOM     79  C   UNL     1       4.137   4.658   6.726  1.00  0.00     0.010 A 
ATOM     80  C   UNL     1       3.267   6.755   7.491  1.00  0.00     0.010 A 
ATOM     81  C   UNL     1       3.202   3.983   7.524  1.00  0.00     0.001 A 
ATOM     82  C   UNL     1       2.313   6.085   8.264  1.00  0.00     0.001 A 
ATOM     83  C   UNL     1       2.278   4.697   8.278  1.00  0.00     0.000 A 
ENDBRANCH  67  78
ENDBRANCH  60  63
ENDBRANCH  58  59
ENDBRANCH  57  58
ENDBRANCH   1  57
TORSDOF 12
