REMARK SMILES CC(C)CCc1cc2c(cc1Cl)C=C(C(=O)NCCCCNC(=O)c1ccc(-c3c4nc(c(-c5ccccc5)c5ccc([nH]5)c(-c5ccccc5)c5nc(c(-c6ccccc6)c6ccc3[nH]6)C=C5)C=C4)cc1)[C@@H](C(F)(F)F)O2
REMARK SMILES IDX 19 1 18 2 17 3 15 4 16 5 14 7 6 8 7 9 11 10 8 11 10 12 12 13
REMARK SMILES IDX 9 14 78 15 13 16 73 17 5 18 4 19 2 20 1 21 3 22 74 23 75 24
REMARK SMILES IDX 76 25 77 26 20 27 21 28 22 29 23 30 24 32 25 33 26 34 72 35
REMARK SMILES IDX 27 36 71 37 28 38 29 39 30 40 65 41 31 42 70 43 64 44 66 45
REMARK SMILES IDX 32 46 69 47 63 48 62 49 33 51 55 52 40 53 54 54 41 55 44 56
REMARK SMILES IDX 53 57 67 58 42 59 43 60 52 62 68 63 45 64 34 65 35 66 39 67
REMARK SMILES IDX 36 68 38 69 37 70 56 71 57 72 61 73 58 74 60 75 59 76 46 77
REMARK SMILES IDX 47 78 51 79 48 80 50 81 49 82
REMARK H PARENT 17 6 22 31 66 50 44 61
REMARK Flexibility Score: inf
ROOT
ATOM      1  C   UNL     1       1.898  -6.164   8.094  1.00  0.00     0.023 C 
ENDROOT
BRANCH   1   2
ATOM      2  C   UNL     1       2.574  -6.607   6.799  1.00  0.00     0.116 C 
BRANCH   2   3
ATOM      3  N   UNL     1       1.737  -7.504   6.020  1.00  0.00    -0.352 N 
ATOM      4  C   UNL     1       0.893  -7.395   4.966  1.00  0.00     0.251 C 
ATOM      5  O   UNL     1       0.379  -8.453   4.589  1.00  0.00    -0.270 OA
ATOM      6  H   UNL     1       1.799  -8.432   6.343  1.00  0.00     0.163 HD
BRANCH   4   7
ATOM      7  C   UNL     1       0.552  -6.121   4.269  1.00  0.00     0.067 C 
ATOM      8  C   UNL     1      -1.403  -2.527   1.309  1.00  0.00    -0.026 A 
ATOM      9  C   UNL     1      -0.769  -2.550   2.558  1.00  0.00     0.052 A 
ATOM     10  C   UNL     1      -1.748  -3.768   0.735  1.00  0.00     0.045 A 
ATOM     11  C   UNL     1      -0.397  -3.752   3.150  1.00  0.00     0.128 A 
ATOM     12  C   UNL     1      -1.422  -4.981   1.365  1.00  0.00     0.032 A 
ATOM     13  Cl  UNL     1      -2.603  -3.863  -0.766  1.00  0.00    -0.084 Cl
ATOM     14  C   UNL     1      -0.724  -4.976   2.571  1.00  0.00     0.019 A 
ATOM     15  O   UNL     1       0.293  -3.660   4.325  1.00  0.00    -0.475 OA
ATOM     16  C   UNL     1      -0.354  -6.202   3.273  1.00  0.00     0.025 C 
ATOM     17  C   UNL     1       1.164  -4.790   4.599  1.00  0.00     0.314 C 
BRANCH   8  18
ATOM     18  C   UNL     1      -1.723  -1.218   0.611  1.00  0.00     0.037 C 
BRANCH  18  19
ATOM     19  C   UNL     1      -1.116   0.079   1.183  1.00  0.00     0.008 C 
BRANCH  19  20
ATOM     20  C   UNL     1       0.425   0.187   1.111  1.00  0.00    -0.017 C 
ATOM     21  C   UNL     1       0.934   0.301  -0.325  1.00  0.00     0.007 C 
ATOM     22  C   UNL     1       0.897   1.389   1.933  1.00  0.00     0.007 C 
ENDBRANCH  19  20
ENDBRANCH  18  19
ENDBRANCH   8  18
BRANCH  17  23
ATOM     23  C   UNL     1       2.536  -4.589   3.920  1.00  0.00     0.429 C 
ATOM     24  F   UNL     1       3.194  -3.544   4.481  1.00  0.00    -0.167 F 
ATOM     25  F   UNL     1       3.341  -5.670   4.062  1.00  0.00    -0.167 F 
ATOM     26  F   UNL     1       2.443  -4.345   2.594  1.00  0.00    -0.167 F 
ENDBRANCH  17  23
ENDBRANCH   4   7
ENDBRANCH   2   3
ENDBRANCH   1   2
BRANCH   1  27
ATOM     27  C   UNL     1       2.099  -7.126   9.267  1.00  0.00     0.023 C 
BRANCH  27  28
ATOM     28  C   UNL     1       3.553  -7.442   9.611  1.00  0.00     0.116 C 
BRANCH  28  29
ATOM     29  N   UNL     1       4.392  -6.270   9.820  1.00  0.00    -0.352 N 
ATOM     30  C   UNL     1       5.519  -6.168  10.606  1.00  0.00     0.251 C 
ATOM     31  H   UNL     1       4.121  -5.453   9.343  1.00  0.00     0.163 HD
ATOM     32  O   UNL     1       6.094  -5.094  10.746  1.00  0.00    -0.269 OA
BRANCH  30  33
ATOM     33  C   UNL     1       5.987  -7.368  11.327  1.00  0.00     0.039 A 
ATOM     34  C   UNL     1       6.155  -8.573  10.643  1.00  0.00     0.014 A 
ATOM     35  C   UNL     1       6.155  -7.305  12.712  1.00  0.00     0.014 A 
ATOM     36  C   UNL     1       6.306  -9.748  11.366  1.00  0.00     0.010 A 
ATOM     37  C   UNL     1       6.392  -8.480  13.429  1.00  0.00     0.010 A 
ATOM     38  C   UNL     1       6.408  -9.717  12.767  1.00  0.00    -0.014 A 
BRANCH  38  39
ATOM     39  C   UNL     1       6.508 -10.998  13.511  1.00  0.00     0.031 A 
ATOM     40  C   UNL     1       5.400 -11.449  14.425  1.00  0.00     0.074 A 
ATOM     41  C   UNL     1       7.570 -11.797  13.294  1.00  0.00     0.049 A 
ATOM     42  N   UNL     1       5.296 -12.568  15.098  1.00  0.00    -0.248 NA
ATOM     43  C   UNL     1       4.263 -10.533  14.610  1.00  0.00     0.031 C 
ATOM     44  C   UNL     1       8.695 -11.478  12.412  1.00  0.00     0.029 A 
ATOM     45  N   UNL     1       7.857 -13.053  13.762  1.00  0.00    -0.354 N 
ATOM     46  C   UNL     1       4.099 -12.481  15.798  1.00  0.00     0.074 A 
ATOM     47  C   UNL     1       3.520 -11.193  15.489  1.00  0.00     0.031 C 
ATOM     48  C   UNL     1       9.512 -12.538  12.346  1.00  0.00     0.029 A 
ATOM     49  C   UNL     1       9.006 -13.584  13.229  1.00  0.00     0.049 A 
ATOM     50  H   UNL     1       7.295 -13.528  14.415  1.00  0.00     0.167 HD
ATOM     51  C   UNL     1       3.529 -13.398  16.616  1.00  0.00     0.031 A 
ATOM     52  C   UNL     1       9.594 -14.778  13.427  1.00  0.00     0.031 A 
ATOM     53  C   UNL     1       4.098 -14.687  16.910  1.00  0.00     0.049 A 
ATOM     54  C   UNL     1       8.963 -15.759  14.369  1.00  0.00     0.074 A 
ATOM     55  C   UNL     1       3.581 -15.689  17.713  1.00  0.00     0.029 A 
ATOM     56  N   UNL     1       5.304 -15.152  16.412  1.00  0.00    -0.354 N 
ATOM     57  N   UNL     1       7.832 -15.659  15.023  1.00  0.00    -0.248 NA
ATOM     58  C   UNL     1       9.692 -17.012  14.609  1.00  0.00     0.031 C 
ATOM     59  C   UNL     1       4.500 -16.742  17.741  1.00  0.00     0.029 A 
ATOM     60  C   UNL     1       5.561 -16.418  16.912  1.00  0.00     0.049 A 
ATOM     61  H   UNL     1       5.891 -14.657  15.796  1.00  0.00     0.167 HD
ATOM     62  C   UNL     1       7.711 -16.835  15.751  1.00  0.00     0.074 A 
ATOM     63  C   UNL     1       8.871 -17.644  15.438  1.00  0.00     0.031 C 
ATOM     64  C   UNL     1       6.727 -17.205  16.605  1.00  0.00     0.031 A 
BRANCH  51  65
ATOM     65  C   UNL     1       2.224 -13.044  17.272  1.00  0.00    -0.014 A 
ATOM     66  C   UNL     1       2.184 -12.804  18.655  1.00  0.00     0.009 A 
ATOM     67  C   UNL     1       1.024 -13.033  16.546  1.00  0.00     0.009 A 
ATOM     68  C   UNL     1       0.968 -12.570  19.300  1.00  0.00     0.001 A 
ATOM     69  C   UNL     1      -0.189 -12.775  17.189  1.00  0.00     0.001 A 
ATOM     70  C   UNL     1      -0.217 -12.551  18.565  1.00  0.00     0.000 A 
ENDBRANCH  51  65
BRANCH  52  71
ATOM     71  C   UNL     1      10.851 -15.097  12.703  1.00  0.00    -0.014 A 
ATOM     72  C   UNL     1      12.043 -14.421  13.013  1.00  0.00     0.009 A 
ATOM     73  C   UNL     1      10.851 -16.031  11.657  1.00  0.00     0.009 A 
ATOM     74  C   UNL     1      13.202 -14.652  12.271  1.00  0.00     0.001 A 
ATOM     75  C   UNL     1      12.021 -16.280  10.934  1.00  0.00     0.001 A 
ATOM     76  C   UNL     1      13.191 -15.583  11.235  1.00  0.00     0.000 A 
ENDBRANCH  52  71
BRANCH  64  77
ATOM     77  C   UNL     1       6.855 -18.542  17.275  1.00  0.00    -0.014 A 
ATOM     78  C   UNL     1       6.000 -19.593  16.908  1.00  0.00     0.009 A 
ATOM     79  C   UNL     1       7.761 -18.734  18.329  1.00  0.00     0.009 A 
ATOM     80  C   UNL     1       6.042 -20.809  17.593  1.00  0.00     0.001 A 
ATOM     81  C   UNL     1       7.817 -19.959  18.995  1.00  0.00     0.001 A 
ATOM     82  C   UNL     1       6.952 -20.992  18.632  1.00  0.00     0.000 A 
ENDBRANCH  64  77
ENDBRANCH  38  39
ENDBRANCH  30  33
ENDBRANCH  28  29
ENDBRANCH  27  28
ENDBRANCH   1  27
TORSDOF 15
