REMARK SMILES O=C(NCCCCNC(=O)[C@@H](Cc1ccccc1)/N=C1\C(=O)c2ccccc2C(=O)[C@H]1Cl)c1ccc(-c2c3nc(c(-c4ccccc4)c4ccc([nH]4)c(-c4ccccc4)c4nc(c(-c5ccccc5)c5ccc2[nH]5)C=C4)C=C3)cc1
REMARK SMILES IDX 5 1 4 2 3 3 1 4 2 5 33 7 34 8 80 9 35 10 79 11 36 12 37 13
REMARK SMILES IDX 38 14 73 15 39 16 78 17 72 18 74 19 40 20 77 21 71 22 70 23
REMARK SMILES IDX 41 25 63 26 48 27 62 28 49 29 52 30 61 31 75 32 50 33 51 34
REMARK SMILES IDX 60 36 76 37 53 38 42 39 43 40 47 41 44 42 46 43 45 44 64 45
REMARK SMILES IDX 65 46 69 47 66 48 68 49 67 50 54 51 55 52 59 53 56 54 58 55
REMARK SMILES IDX 57 56 6 57 7 58 8 59 9 60 10 62 11 63 12 64 13 65 14 66
REMARK SMILES IDX 18 67 15 68 17 69 16 70 19 71 20 72 21 73 31 74 22 75 23 76
REMARK SMILES IDX 29 77 32 78 24 79 28 80 30 81 25 82 27 83 26 84
REMARK H PARENT 3 6 74 24 52 35 8 61
REMARK Flexibility Score: inf
ROOT
ATOM      1  C   UNL     1       6.136  -0.025   2.374  1.00  0.00     0.023 C 
ENDROOT
BRANCH   1   2
ATOM      2  C   UNL     1       5.261   0.043   1.128  1.00  0.00     0.116 C 
BRANCH   2   3
ATOM      3  N   UNL     1       3.838  -0.159   1.364  1.00  0.00    -0.352 N 
ATOM      4  O   UNL     1       1.617   0.148   0.967  1.00  0.00    -0.269 OA
ATOM      5  C   UNL     1       2.779   0.370   0.648  1.00  0.00     0.251 C 
ATOM      6  H   UNL     1       3.602  -0.742   2.121  1.00  0.00     0.163 HD
BRANCH   5   7
ATOM      7  C   UNL     1       3.066   1.267  -0.496  1.00  0.00     0.039 A 
ATOM      8  C   UNL     1       4.005   0.911  -1.468  1.00  0.00     0.014 A 
ATOM      9  C   UNL     1       2.473   2.531  -0.519  1.00  0.00     0.014 A 
ATOM     10  C   UNL     1       4.524   1.889  -2.311  1.00  0.00     0.010 A 
ATOM     11  C   UNL     1       2.938   3.490  -1.420  1.00  0.00     0.010 A 
ATOM     12  C   UNL     1       4.026   3.199  -2.262  1.00  0.00    -0.014 A 
BRANCH  12  13
ATOM     13  C   UNL     1       4.697   4.290  -3.011  1.00  0.00     0.031 A 
ATOM     14  C   UNL     1       5.365   5.412  -2.260  1.00  0.00     0.074 A 
ATOM     15  C   UNL     1       4.719   4.276  -4.356  1.00  0.00     0.049 A 
ATOM     16  N   UNL     1       5.877   6.527  -2.717  1.00  0.00    -0.248 NA
ATOM     17  C   UNL     1       5.461   5.264  -0.798  1.00  0.00     0.031 C 
ATOM     18  C   UNL     1       4.155   3.222  -5.199  1.00  0.00     0.029 A 
ATOM     19  N   UNL     1       5.229   5.185  -5.246  1.00  0.00    -0.354 N 
ATOM     20  C   UNL     1       6.307   7.233  -1.599  1.00  0.00     0.074 A 
ATOM     21  C   UNL     1       5.994   6.424  -0.441  1.00  0.00     0.031 C 
ATOM     22  C   UNL     1       4.352   3.543  -6.487  1.00  0.00     0.029 A 
ATOM     23  C   UNL     1       4.991   4.853  -6.556  1.00  0.00     0.049 A 
ATOM     24  H   UNL     1       5.717   5.995  -4.973  1.00  0.00     0.167 HD
ATOM     25  C   UNL     1       6.902   8.449  -1.542  1.00  0.00     0.031 A 
ATOM     26  C   UNL     1       5.217   5.545  -7.688  1.00  0.00     0.031 A 
ATOM     27  C   UNL     1       7.229   9.240  -2.698  1.00  0.00     0.049 A 
ATOM     28  C   UNL     1       5.840   6.907  -7.605  1.00  0.00     0.074 A 
ATOM     29  C   UNL     1       7.855  10.474  -2.753  1.00  0.00     0.029 A 
ATOM     30  N   UNL     1       6.959   8.869  -4.007  1.00  0.00    -0.354 N 
ATOM     31  N   UNL     1       6.223   7.572  -6.542  1.00  0.00    -0.248 NA
ATOM     32  C   UNL     1       6.059   7.614  -8.873  1.00  0.00     0.031 C 
ATOM     33  C   UNL     1       7.924  10.868  -4.094  1.00  0.00     0.029 A 
ATOM     34  C   UNL     1       7.387   9.857  -4.876  1.00  0.00     0.049 A 
ATOM     35  H   UNL     1       6.527   8.027  -4.277  1.00  0.00     0.167 HD
ATOM     36  C   UNL     1       6.745   8.769  -7.012  1.00  0.00     0.074 A 
ATOM     37  C   UNL     1       6.637   8.733  -8.457  1.00  0.00     0.031 C 
ATOM     38  C   UNL     1       7.271   9.802  -6.310  1.00  0.00     0.031 A 
BRANCH  25  39
ATOM     39  C   UNL     1       7.190   9.018  -0.179  1.00  0.00    -0.014 A 
ATOM     40  C   UNL     1       8.212   8.505   0.635  1.00  0.00     0.009 A 
ATOM     41  C   UNL     1       6.431  10.103   0.289  1.00  0.00     0.009 A 
ATOM     42  C   UNL     1       8.440   9.042   1.905  1.00  0.00     0.001 A 
ATOM     43  C   UNL     1       6.678  10.654   1.548  1.00  0.00     0.001 A 
ATOM     44  C   UNL     1       7.675  10.116   2.359  1.00  0.00     0.000 A 
ENDBRANCH  25  39
BRANCH  26  45
ATOM     45  C   UNL     1       4.804   4.956  -8.986  1.00  0.00    -0.014 A 
ATOM     46  C   UNL     1       5.758   4.440  -9.873  1.00  0.00     0.009 A 
ATOM     47  C   UNL     1       3.442   4.847  -9.310  1.00  0.00     0.009 A 
ATOM     48  C   UNL     1       5.355   3.824 -11.060  1.00  0.00     0.001 A 
ATOM     49  C   UNL     1       3.041   4.209 -10.485  1.00  0.00     0.001 A 
ATOM     50  C   UNL     1       3.998   3.700 -11.360  1.00  0.00     0.000 A 
ENDBRANCH  26  45
BRANCH  38  51
ATOM     51  C   UNL     1       7.806  10.962  -7.096  1.00  0.00    -0.014 A 
ATOM     52  C   UNL     1       6.946  11.910  -7.670  1.00  0.00     0.009 A 
ATOM     53  C   UNL     1       9.194  11.136  -7.213  1.00  0.00     0.009 A 
ATOM     54  C   UNL     1       7.468  13.001  -8.367  1.00  0.00     0.001 A 
ATOM     55  C   UNL     1       9.712  12.239  -7.891  1.00  0.00     0.001 A 
ATOM     56  C   UNL     1       8.850  13.167  -8.473  1.00  0.00     0.000 A 
ENDBRANCH  38  51
ENDBRANCH  12  13
ENDBRANCH   5   7
ENDBRANCH   2   3
ENDBRANCH   1   2
BRANCH   1  57
ATOM     57  C   UNL     1       6.317  -1.412   2.996  1.00  0.00     0.023 C 
BRANCH  57  58
ATOM     58  C   UNL     1       6.927  -2.456   2.067  1.00  0.00     0.116 C 
BRANCH  58  59
ATOM     59  N   UNL     1       7.605  -3.560   2.736  1.00  0.00    -0.354 N 
ATOM     60  C   UNL     1       7.327  -4.734   3.338  1.00  0.00     0.245 C 
ATOM     61  H   UNL     1       8.575  -3.396   2.755  1.00  0.00     0.163 HD
ATOM     62  O   UNL     1       8.355  -5.436   3.440  1.00  0.00    -0.273 OA
BRANCH  60  63
ATOM     63  C   UNL     1       6.024  -5.277   3.981  1.00  0.00     0.199 C 
BRANCH  63  64
ATOM     64  C   UNL     1       5.459  -4.689   5.290  1.00  0.00     0.073 C 
BRANCH  64  65
ATOM     65  C   UNL     1       4.235  -3.816   5.264  1.00  0.00    -0.045 A 
ATOM     66  C   UNL     1       4.352  -2.446   5.524  1.00  0.00     0.004 A 
ATOM     67  C   UNL     1       2.961  -4.349   5.025  1.00  0.00     0.004 A 
ATOM     68  C   UNL     1       3.247  -1.604   5.412  1.00  0.00     0.000 A 
ATOM     69  C   UNL     1       1.852  -3.508   4.917  1.00  0.00     0.000 A 
ATOM     70  C   UNL     1       2.001  -2.132   5.086  1.00  0.00     0.000 A 
ENDBRANCH  64  65
ENDBRANCH  63  64
BRANCH  63  71
ATOM     71  N   UNL     1       5.128  -6.154   3.197  1.00  0.00    -0.270 NA
ATOM     72  C   UNL     1       4.202  -5.863   2.360  1.00  0.00     0.109 C 
ATOM     73  C   UNL     1       3.867  -4.499   1.845  1.00  0.00     0.209 C 
ATOM     74  C   UNL     1       3.306  -6.962   1.847  1.00  0.00     0.205 C 
ATOM     75  O   UNL     1       4.448  -3.513   2.268  1.00  0.00    -0.287 OA
ATOM     76  C   UNL     1       2.770  -4.314   0.900  1.00  0.00     0.035 A 
ATOM     77  C   UNL     1       1.884  -6.507   1.596  1.00  0.00     0.187 C 
ATOM     78  Cl  UNL     1       3.983  -7.566   0.311  1.00  0.00    -0.107 Cl
ATOM     79  C   UNL     1       2.718  -3.155   0.125  1.00  0.00     0.013 A 
ATOM     80  C   UNL     1       1.720  -5.222   0.888  1.00  0.00     0.031 A 
ATOM     81  O   UNL     1       0.897  -7.169   1.902  1.00  0.00    -0.292 OA
ATOM     82  C   UNL     1       1.567  -2.862  -0.599  1.00  0.00     0.001 A 
ATOM     83  C   UNL     1       0.549  -4.913   0.193  1.00  0.00     0.012 A 
ATOM     84  C   UNL     1       0.473  -3.724  -0.539  1.00  0.00     0.001 A 
ENDBRANCH  63  71
ENDBRANCH  60  63
ENDBRANCH  58  59
ENDBRANCH  57  58
ENDBRANCH   1  57
TORSDOF 14
