REMARK SMILES Cn1cc(CNC(=O)Cn2ccc(C(=O)NCCCCNC(=O)c3ccc(-c4c5nc(c(-c6ccccc6)c6ccc([nH]6)c(-c6ccccc6)c6nc(c(-c7ccccc7)c7ccc4[nH]7)C=C6)C=C5)cc3)n2)cn1
REMARK SMILES IDX 17 1 16 2 14 3 15 4 13 6 10 7 11 8 72 9 12 10 9 11 7 12 6 13
REMARK SMILES IDX 8 15 5 16 4 17 1 18 2 19 3 20 74 21 73 22 18 23 19 24 20 25
REMARK SMILES IDX 21 26 22 27 23 29 24 30 25 31 71 32 26 33 70 34 27 35 28 36
REMARK SMILES IDX 29 37 64 38 30 39 69 40 63 41 65 42 31 43 68 44 62 45 61 46
REMARK SMILES IDX 32 48 54 49 39 50 53 51 40 52 43 53 52 54 66 55 41 56 42 57
REMARK SMILES IDX 51 59 67 60 44 61 33 62 34 63 38 64 35 65 37 66 36 67 55 68
REMARK SMILES IDX 56 69 60 70 57 71 59 72 58 73 45 74 46 75 50 76 47 77 49 78
REMARK SMILES IDX 48 79
REMARK H PARENT 16 5 6 14 21 28 65 47 43 58
REMARK Flexibility Score: inf
ROOT
ATOM      1  C   UNL     1       7.051  -6.085   2.721  1.00  0.00     0.116 C 
ENDROOT
BRANCH   1   2
ATOM      2  N   UNL     1       7.311  -4.885   3.486  1.00  0.00    -0.351 N 
ATOM      3  C   UNL     1       7.085  -3.552   3.223  1.00  0.00     0.271 C 
ATOM      4  O   UNL     1       7.326  -2.785   4.163  1.00  0.00    -0.267 OA
ATOM      5  H   UNL     1       7.731  -5.053   4.360  1.00  0.00     0.163 HD
BRANCH   3   6
ATOM      6  C   UNL     1       6.586  -3.067   1.915  1.00  0.00     0.150 A 
ATOM      7  N   UNL     1       5.870  -1.628   0.488  1.00  0.00    -0.263 N 
ATOM      8  C   UNL     1       5.979  -2.783  -0.222  1.00  0.00     0.110 A 
ATOM      9  N   UNL     1       6.195  -1.780   1.784  1.00  0.00    -0.167 NA
ATOM     10  C   UNL     1       6.449  -3.724   0.661  1.00  0.00     0.056 A 
BRANCH   7  11
ATOM     11  C   UNL     1       5.452  -0.318   0.018  1.00  0.00     0.243 C 
BRANCH  11  12
ATOM     12  C   UNL     1       4.646  -0.383  -1.257  1.00  0.00     0.241 C 
ATOM     13  N   UNL     1       3.374  -0.876  -1.235  1.00  0.00    -0.350 N 
ATOM     14  H   UNL     1       2.912  -0.903  -2.104  1.00  0.00     0.163 HD
ATOM     15  O   UNL     1       5.112  -0.004  -2.334  1.00  0.00    -0.273 OA
BRANCH  13  16
ATOM     16  C   UNL     1       2.615  -1.364  -0.103  1.00  0.00     0.155 C 
BRANCH  16  17
ATOM     17  C   UNL     1       1.339  -0.616  -0.058  1.00  0.00     0.009 A 
ATOM     18  C   UNL     1      -2.220  -0.034  -0.040  1.00  0.00     0.173 C 
ATOM     19  N   UNL     1      -0.778  -0.029  -0.023  1.00  0.00    -0.275 N 
ATOM     20  C   UNL     1       0.051  -1.113  -0.065  1.00  0.00     0.113 A 
ATOM     21  N   UNL     1      -0.123   1.142   0.026  1.00  0.00    -0.181 NA
ATOM     22  C   UNL     1       1.162   0.786   0.008  1.00  0.00     0.140 A 
ENDBRANCH  16  17
ENDBRANCH  13  16
ENDBRANCH  11  12
ENDBRANCH   7  11
ENDBRANCH   3   6
ENDBRANCH   1   2
BRANCH   1  23
ATOM     23  C   UNL     1       8.275  -6.560   1.934  1.00  0.00     0.023 C 
BRANCH  23  24
ATOM     24  C   UNL     1       9.346  -7.301   2.752  1.00  0.00     0.023 C 
BRANCH  24  25
ATOM     25  C   UNL     1       8.916  -8.644   3.339  1.00  0.00     0.116 C 
BRANCH  25  26
ATOM     26  N   UNL     1       8.480  -9.611   2.325  1.00  0.00    -0.352 N 
ATOM     27  C   UNL     1       7.767 -10.779   2.503  1.00  0.00     0.251 C 
ATOM     28  H   UNL     1       8.728  -9.399   1.396  1.00  0.00     0.163 HD
ATOM     29  O   UNL     1       7.797 -11.680   1.656  1.00  0.00    -0.269 OA
BRANCH  27  30
ATOM     30  C   UNL     1       6.935 -10.934   3.703  1.00  0.00     0.039 A 
ATOM     31  C   UNL     1       6.832 -12.136   4.411  1.00  0.00     0.014 A 
ATOM     32  C   UNL     1       6.255  -9.800   4.130  1.00  0.00     0.014 A 
ATOM     33  C   UNL     1       6.099 -12.159   5.598  1.00  0.00     0.010 A 
ATOM     34  C   UNL     1       5.705  -9.771   5.378  1.00  0.00     0.010 A 
ATOM     35  C   UNL     1       5.548 -10.963   6.076  1.00  0.00    -0.014 A 
BRANCH  35  36
ATOM     36  C   UNL     1       4.845 -10.874   7.348  1.00  0.00     0.031 A 
ATOM     37  C   UNL     1       5.685 -11.118   8.551  1.00  0.00     0.074 A 
ATOM     38  C   UNL     1       3.634 -10.277   7.424  1.00  0.00     0.049 A 
ATOM     39  N   UNL     1       5.565 -12.059   9.427  1.00  0.00    -0.248 NA
ATOM     40  C   UNL     1       6.880 -10.277   8.741  1.00  0.00     0.031 C 
ATOM     41  C   UNL     1       2.872  -9.644   6.335  1.00  0.00     0.029 A 
ATOM     42  N   UNL     1       2.901  -9.952   8.520  1.00  0.00    -0.354 N 
ATOM     43  C   UNL     1       6.540 -11.810  10.391  1.00  0.00     0.074 A 
ATOM     44  C   UNL     1       7.437 -10.844   9.812  1.00  0.00     0.031 C 
ATOM     45  C   UNL     1       1.952  -8.804   6.856  1.00  0.00     0.029 A 
ATOM     46  C   UNL     1       1.940  -8.971   8.297  1.00  0.00     0.049 A 
ATOM     47  H   UNL     1       3.038 -10.375   9.399  1.00  0.00     0.167 HD
ATOM     48  C   UNL     1       6.377 -12.202  11.687  1.00  0.00     0.031 A 
ATOM     49  C   UNL     1       1.221  -8.308   9.235  1.00  0.00     0.031 A 
ATOM     50  C   UNL     1       5.278 -13.125  11.822  1.00  0.00     0.049 A 
ATOM     51  C   UNL     1       1.319  -9.085  10.492  1.00  0.00     0.074 A 
ATOM     52  C   UNL     1       4.967 -14.361  11.293  1.00  0.00     0.029 A 
ATOM     53  N   UNL     1       4.097 -12.612  12.305  1.00  0.00    -0.354 N 
ATOM     54  N   UNL     1       0.798 -10.269  10.647  1.00  0.00    -0.248 NA
ATOM     55  C   UNL     1       2.387  -8.747  11.420  1.00  0.00     0.031 C 
ATOM     56  C   UNL     1       3.563 -14.308  11.046  1.00  0.00     0.029 A 
ATOM     57  C   UNL     1       3.086 -13.080  11.510  1.00  0.00     0.049 A 
ATOM     58  H   UNL     1       3.997 -12.016  13.082  1.00  0.00     0.167 HD
ATOM     59  C   UNL     1       1.751 -10.980  11.363  1.00  0.00     0.074 A 
ATOM     60  C   UNL     1       2.653  -9.964  11.905  1.00  0.00     0.031 C 
ATOM     61  C   UNL     1       1.888 -12.330  11.201  1.00  0.00     0.031 A 
BRANCH  48  62
ATOM     62  C   UNL     1       6.896 -11.426  12.879  1.00  0.00    -0.014 A 
ATOM     63  C   UNL     1       6.629 -11.927  14.168  1.00  0.00     0.009 A 
ATOM     64  C   UNL     1       7.369 -10.102  12.808  1.00  0.00     0.009 A 
ATOM     65  C   UNL     1       6.727 -11.115  15.304  1.00  0.00     0.001 A 
ATOM     66  C   UNL     1       7.513  -9.302  13.946  1.00  0.00     0.001 A 
ATOM     67  C   UNL     1       7.157  -9.798  15.190  1.00  0.00     0.000 A 
ENDBRANCH  48  62
BRANCH  49  68
ATOM     68  C   UNL     1       0.676  -6.934   9.197  1.00  0.00    -0.014 A 
ATOM     69  C   UNL     1      -0.342  -6.539  10.079  1.00  0.00     0.009 A 
ATOM     70  C   UNL     1       1.340  -5.925   8.473  1.00  0.00     0.009 A 
ATOM     71  C   UNL     1      -0.657  -5.185  10.259  1.00  0.00     0.001 A 
ATOM     72  C   UNL     1       1.024  -4.573   8.650  1.00  0.00     0.001 A 
ATOM     73  C   UNL     1       0.036  -4.202   9.556  1.00  0.00     0.000 A 
ENDBRANCH  49  68
BRANCH  61  74
ATOM     74  C   UNL     1       0.832 -13.063  10.411  1.00  0.00    -0.014 A 
ATOM     75  C   UNL     1       0.568 -12.807   9.054  1.00  0.00     0.009 A 
ATOM     76  C   UNL     1       0.203 -14.161  11.014  1.00  0.00     0.009 A 
ATOM     77  C   UNL     1      -0.317 -13.615   8.331  1.00  0.00     0.001 A 
ATOM     78  C   UNL     1      -0.663 -14.980  10.288  1.00  0.00     0.001 A 
ATOM     79  C   UNL     1      -0.927 -14.704   8.948  1.00  0.00     0.000 A 
ENDBRANCH  61  74
ENDBRANCH  35  36
ENDBRANCH  27  30
ENDBRANCH  25  26
ENDBRANCH  24  25
ENDBRANCH  23  24
ENDBRANCH   1  23
TORSDOF 15
