REMARK SMILES COC(=O)C[C@H](c1ccc(C(=O)NCCCCNC(=O)c2ccc(-c3c4nc(c(-c5ccccc5)c5ccc([nH]5)c(-c5ccccc5)c5nc(c(-c6ccccc6)c6ccc3[nH]6)C=C5)C=C4)cc2)cc1)c1c(O)n[nH]c1C
REMARK SMILES IDX 14 1 13 2 11 3 12 4 10 6 7 7 8 8 70 9 9 10 69 11 6 12 5 13
REMARK SMILES IDX 3 14 4 15 2 16 1 17 71 18 72 19 76 20 74 21 75 22 77 23
REMARK SMILES IDX 73 25 15 27 16 28 17 29 18 30 19 31 20 33 21 34 22 35 68 36
REMARK SMILES IDX 23 37 67 38 24 39 25 40 26 41 61 42 27 43 66 44 60 45 62 46
REMARK SMILES IDX 28 47 65 48 59 49 58 50 29 52 51 53 36 54 50 55 37 56 40 57
REMARK SMILES IDX 49 58 63 59 38 60 39 61 48 63 64 64 41 65 30 66 31 67 35 68
REMARK SMILES IDX 32 69 34 70 33 71 52 72 53 73 57 74 54 75 56 76 55 77 42 78
REMARK SMILES IDX 43 79 47 80 44 81 46 82 45 83
REMARK H PARENT 13 5 75 24 73 26 18 32 62 51 40 62
REMARK Flexibility Score: inf
ROOT
ATOM      1  C   UNL     1      -0.317   3.886  -6.115  1.00  0.00     0.116 C 
ENDROOT
BRANCH   1   2
ATOM      2  N   UNL     1      -1.619   3.274  -5.988  1.00  0.00    -0.352 N 
ATOM      3  C   UNL     1      -2.086   2.171  -5.325  1.00  0.00     0.251 C 
ATOM      4  O   UNL     1      -3.304   1.986  -5.391  1.00  0.00    -0.269 OA
ATOM      5  H   UNL     1      -2.321   3.752  -6.485  1.00  0.00     0.163 HD
BRANCH   3   6
ATOM      6  C   UNL     1      -1.241   1.166  -4.607  1.00  0.00     0.039 A 
ATOM      7  C   UNL     1       0.113  -1.165  -3.752  1.00  0.00    -0.040 A 
ATOM      8  C   UNL     1      -1.269  -1.043  -3.564  1.00  0.00     0.005 A 
ATOM      9  C   UNL     1       0.828  -0.042  -4.183  1.00  0.00     0.005 A 
ATOM     10  C   UNL     1      -1.933   0.115  -3.979  1.00  0.00     0.014 A 
ATOM     11  C   UNL     1       0.153   1.091  -4.646  1.00  0.00     0.014 A 
BRANCH   7  12
ATOM     12  C   UNL     1       0.837  -2.502  -3.683  1.00  0.00     0.068 C 
BRANCH  12  13
ATOM     13  C   UNL     1       0.570  -3.250  -2.371  1.00  0.00     0.136 C 
BRANCH  13  14
ATOM     14  C   UNL     1       1.162  -2.520  -1.194  1.00  0.00     0.306 C 
ATOM     15  O   UNL     1       0.511  -2.080  -0.255  1.00  0.00    -0.252 OA
BRANCH  14  16
ATOM     16  O   UNL     1       2.520  -2.470  -1.296  1.00  0.00    -0.469 OA
ATOM     17  C   UNL     1       3.172  -1.844  -0.190  1.00  0.00     0.282 C 
ENDBRANCH  14  16
ENDBRANCH  13  14
ENDBRANCH  12  13
BRANCH  12  18
ATOM     18  C   UNL     1       0.456  -3.259  -4.960  1.00  0.00     0.044 A 
ATOM     19  C   UNL     1       0.570  -4.652  -5.156  1.00  0.00     0.234 A 
ATOM     20  C   UNL     1       0.044  -2.840  -6.234  1.00  0.00     0.040 A 
ATOM     21  N   UNL     1       0.218  -5.100  -6.348  1.00  0.00    -0.137 NA
ATOM     22  N   UNL     1      -0.130  -3.977  -6.982  1.00  0.00    -0.279 N 
ATOM     23  C   UNL     1      -0.215  -1.527  -6.883  1.00  0.00     0.066 C 
ATOM     24  H   UNL     1      -0.481  -3.966  -7.902  1.00  0.00     0.190 HD
BRANCH  19  25
ATOM     25  O   UNL     1       1.012  -5.601  -4.339  1.00  0.00    -0.492 OA
ATOM     26  H   UNL     1       1.285  -5.381  -3.470  1.00  0.00     0.295 HD
ENDBRANCH  19  25
ENDBRANCH  12  18
ENDBRANCH   7  12
ENDBRANCH   3   6
ENDBRANCH   1   2
BRANCH   1  27
ATOM     27  C   UNL     1       0.349   3.506  -7.440  1.00  0.00     0.023 C 
BRANCH  27  28
ATOM     28  C   UNL     1      -0.111   4.358  -8.631  1.00  0.00     0.023 C 
BRANCH  28  29
ATOM     29  C   UNL     1       0.050   5.862  -8.438  1.00  0.00     0.116 C 
BRANCH  29  30
ATOM     30  N   UNL     1       1.396   6.249  -8.046  1.00  0.00    -0.352 N 
ATOM     31  C   UNL     1       2.022   7.459  -8.225  1.00  0.00     0.251 C 
ATOM     32  H   UNL     1       1.927   5.555  -7.593  1.00  0.00     0.163 HD
ATOM     33  O   UNL     1       3.205   7.592  -7.952  1.00  0.00    -0.269 OA
BRANCH  31  34
ATOM     34  C   UNL     1       1.253   8.586  -8.789  1.00  0.00     0.039 A 
ATOM     35  C   UNL     1       1.816   9.324  -9.831  1.00  0.00     0.014 A 
ATOM     36  C   UNL     1      -0.016   8.904  -8.299  1.00  0.00     0.014 A 
ATOM     37  C   UNL     1       1.087  10.365 -10.403  1.00  0.00     0.010 A 
ATOM     38  C   UNL     1      -0.775   9.883  -8.928  1.00  0.00     0.010 A 
ATOM     39  C   UNL     1      -0.221  10.641  -9.969  1.00  0.00    -0.014 A 
BRANCH  39  40
ATOM     40  C   UNL     1      -0.995  11.754 -10.568  1.00  0.00     0.031 A 
ATOM     41  C   UNL     1      -1.382  12.940  -9.726  1.00  0.00     0.074 A 
ATOM     42  C   UNL     1      -1.363  11.689 -11.861  1.00  0.00     0.049 A 
ATOM     43  N   UNL     1      -2.020  14.027 -10.078  1.00  0.00    -0.248 NA
ATOM     44  C   UNL     1      -1.027  12.889  -8.298  1.00  0.00     0.031 C 
ATOM     45  C   UNL     1      -1.092  10.570 -12.766  1.00  0.00     0.029 A 
ATOM     46  N   UNL     1      -2.034  12.594 -12.643  1.00  0.00    -0.354 N 
ATOM     47  C   UNL     1      -2.150  14.779  -8.916  1.00  0.00     0.074 A 
ATOM     48  C   UNL     1      -1.587  13.997  -7.839  1.00  0.00     0.031 C 
ATOM     49  C   UNL     1      -1.550  10.875 -13.991  1.00  0.00     0.029 A 
ATOM     50  C   UNL     1      -2.175  12.194 -13.949  1.00  0.00     0.049 A 
ATOM     51  H   UNL     1      -2.382  13.449 -12.300  1.00  0.00     0.167 HD
ATOM     52  C   UNL     1      -2.664  16.022  -8.762  1.00  0.00     0.031 A 
ATOM     53  C   UNL     1      -2.733  12.826 -14.998  1.00  0.00     0.031 A 
ATOM     54  C   UNL     1      -3.219  16.801  -9.836  1.00  0.00     0.049 A 
ATOM     55  C   UNL     1      -3.296  14.207 -14.802  1.00  0.00     0.074 A 
ATOM     56  C   UNL     1      -3.724  18.088  -9.798  1.00  0.00     0.029 A 
ATOM     57  N   UNL     1      -3.341  16.361 -11.146  1.00  0.00    -0.354 N 
ATOM     58  N   UNL     1      -3.342  14.936 -13.713  1.00  0.00    -0.248 NA
ATOM     59  C   UNL     1      -3.859  14.860 -15.990  1.00  0.00     0.031 C 
ATOM     60  C   UNL     1      -4.200  18.408 -11.074  1.00  0.00     0.029 A 
ATOM     61  C   UNL     1      -3.929  17.345 -11.921  1.00  0.00     0.049 A 
ATOM     62  H   UNL     1      -3.051  15.479 -11.475  1.00  0.00     0.167 HD
ATOM     63  C   UNL     1      -3.906  16.148 -14.093  1.00  0.00     0.074 A 
ATOM     64  C   UNL     1      -4.165  16.059 -15.516  1.00  0.00     0.031 C 
ATOM     65  C   UNL     1      -4.182  17.238 -13.335  1.00  0.00     0.031 A 
BRANCH  52  66
ATOM     66  C   UNL     1      -2.652  16.607  -7.376  1.00  0.00    -0.014 A 
ATOM     67  C   UNL     1      -1.447  16.959  -6.744  1.00  0.00     0.009 A 
ATOM     68  C   UNL     1      -3.860  16.825  -6.697  1.00  0.00     0.009 A 
ATOM     69  C   UNL     1      -1.451  17.477  -5.447  1.00  0.00     0.001 A 
ATOM     70  C   UNL     1      -3.864  17.375  -5.414  1.00  0.00     0.001 A 
ATOM     71  C   UNL     1      -2.660  17.689  -4.785  1.00  0.00     0.000 A 
ENDBRANCH  52  66
BRANCH  53  72
ATOM     72  C   UNL     1      -2.755  12.179 -16.336  1.00  0.00    -0.014 A 
ATOM     73  C   UNL     1      -1.969  12.682 -17.385  1.00  0.00     0.009 A 
ATOM     74  C   UNL     1      -3.572  11.065 -16.577  1.00  0.00     0.009 A 
ATOM     75  C   UNL     1      -2.030  12.105 -18.656  1.00  0.00     0.001 A 
ATOM     76  C   UNL     1      -3.607  10.470 -17.840  1.00  0.00     0.001 A 
ATOM     77  C   UNL     1      -2.846  10.998 -18.881  1.00  0.00     0.000 A 
ENDBRANCH  53  72
BRANCH  65  78
ATOM     78  C   UNL     1      -4.748  18.437 -14.045  1.00  0.00    -0.014 A 
ATOM     79  C   UNL     1      -6.045  18.432 -14.582  1.00  0.00     0.009 A 
ATOM     80  C   UNL     1      -3.966  19.597 -14.168  1.00  0.00     0.009 A 
ATOM     81  C   UNL     1      -6.527  19.545 -15.274  1.00  0.00     0.001 A 
ATOM     82  C   UNL     1      -4.464  20.721 -14.829  1.00  0.00     0.001 A 
ATOM     83  C   UNL     1      -5.737  20.689 -15.394  1.00  0.00     0.000 A 
ENDBRANCH  65  78
ENDBRANCH  39  40
ENDBRANCH  31  34
ENDBRANCH  29  30
ENDBRANCH  28  29
ENDBRANCH  27  28
ENDBRANCH   1  27
TORSDOF 17
