REMARK SMILES Cc1c[nH]c(C[N@@H+](C)[C@@H](C(=O)NCCCCNC(=O)c2ccc(-c3c4nc(c(-c5ccccc5)c5ccc([nH]5)c(-c5ccccc5)c5nc(c(-c6ccccc6)c6ccc3[nH]6)C=C5)C=C4)cc2)c2ccc(NC(=O)N3CCCC3)cc2)n1
REMARK SMILES IDX 14 1 13 2 12 3 10 4 11 5 9 7 7 8 8 9 6 11 5 12 1 13 2 14
REMARK SMILES IDX 3 15 82 16 4 17 68 19 69 20 81 21 70 22 80 23 71 24 72 25
REMARK SMILES IDX 73 26 74 28 75 29 76 30 79 31 77 32 78 33 15 34 16 35 17 36
REMARK SMILES IDX 18 37 19 39 20 40 21 41 67 42 22 43 66 44 23 45 24 46 25 47
REMARK SMILES IDX 60 48 26 49 65 50 59 51 61 52 27 53 64 54 58 55 57 56 28 58
REMARK SMILES IDX 50 59 35 60 49 61 36 62 39 63 48 64 62 65 37 66 38 67 47 69
REMARK SMILES IDX 63 70 40 71 29 72 30 73 34 74 31 75 33 76 32 77 51 78 52 79
REMARK SMILES IDX 56 80 53 81 55 82 54 83 41 84 42 85 46 86 43 87 45 88 44 89
REMARK H PARENT 12 6 7 10 4 18 72 27 17 38 61 57 39 68
REMARK Flexibility Score: inf
ROOT
ATOM      1  C   UNL     1      -5.839   3.625   1.337  1.00  0.00     0.023 C 
ENDROOT
BRANCH   1   2
ATOM      2  C   UNL     1      -5.196   3.102   2.623  1.00  0.00     0.116 C 
BRANCH   2   3
ATOM      3  N   UNL     1      -4.918   1.689   2.491  1.00  0.00    -0.351 N 
ATOM      4  C   UNL     1      -3.750   1.095   2.099  1.00  0.00     0.283 C 
ATOM      5  O   UNL     1      -3.845  -0.050   1.638  1.00  0.00    -0.268 OA
ATOM      6  H   UNL     1      -5.660   1.081   2.711  1.00  0.00     0.163 HD
BRANCH   4   7
ATOM      7  C   UNL     1      -2.385   1.845   2.259  1.00  0.00     0.305 C 
BRANCH   7   8
ATOM      8  N   UNL     1      -1.983   2.510   0.993  1.00  0.00    -0.317 N 
ATOM      9  C   UNL     1      -2.312   3.911   0.859  1.00  0.00     0.334 C 
ATOM     10  H   UNL     1      -0.977   2.493   1.156  1.00  0.00     0.349 HD
BRANCH   8  11
ATOM     11  C   UNL     1      -2.113   1.759  -0.261  1.00  0.00     0.339 C 
BRANCH  11  12
ATOM     12  C   UNL     1      -0.969   0.825  -0.501  1.00  0.00     0.161 A 
ATOM     13  C   UNL     1       2.462  -0.060  -0.757  1.00  0.00     0.068 C 
ATOM     14  C   UNL     1       0.984  -0.041  -0.752  1.00  0.00     0.056 A 
ATOM     15  C   UNL     1       0.097  -1.093  -0.799  1.00  0.00     0.107 A 
ATOM     16  N   UNL     1       0.304   1.147  -0.641  1.00  0.00    -0.233 NA
ATOM     17  N   UNL     1      -1.136  -0.534  -0.602  1.00  0.00    -0.344 N 
ATOM     18  H   UNL     1      -1.990  -1.020  -0.543  1.00  0.00     0.167 HD
ENDBRANCH  11  12
ENDBRANCH   8  11
ENDBRANCH   7   8
BRANCH   7  19
ATOM     19  C   UNL     1      -1.274   0.928   2.798  1.00  0.00     0.019 A 
ATOM     20  C   UNL     1      -1.551  -0.246   3.509  1.00  0.00     0.012 A 
ATOM     21  C   UNL     1       0.076   1.239   2.570  1.00  0.00     0.012 A 
ATOM     22  C   UNL     1      -0.550  -1.194   3.722  1.00  0.00     0.027 A 
ATOM     23  C   UNL     1       1.073   0.280   2.764  1.00  0.00     0.027 A 
ATOM     24  C   UNL     1       0.727  -0.992   3.208  1.00  0.00     0.042 A 
BRANCH  24  25
ATOM     25  N   UNL     1       1.679  -2.017   3.080  1.00  0.00    -0.308 N 
ATOM     26  C   UNL     1       1.542  -3.371   3.139  1.00  0.00     0.321 C 
ATOM     27  H   UNL     1       2.599  -1.705   2.921  1.00  0.00     0.171 HD
ATOM     28  O   UNL     1       2.526  -4.047   3.447  1.00  0.00    -0.248 OA
ATOM     29  N   UNL     1       0.342  -3.955   2.845  1.00  0.00    -0.325 N 
ATOM     30  C   UNL     1      -0.575  -3.607   1.776  1.00  0.00     0.121 C 
ATOM     31  C   UNL     1       0.013  -5.269   3.348  1.00  0.00     0.121 C 
ATOM     32  C   UNL     1      -1.887  -4.212   2.240  1.00  0.00     0.023 C 
ATOM     33  C   UNL     1      -1.462  -5.471   3.000  1.00  0.00     0.023 C 
ENDBRANCH  24  25
ENDBRANCH   7  19
ENDBRANCH   4   7
ENDBRANCH   2   3
ENDBRANCH   1   2
BRANCH   1  34
ATOM     34  C   UNL     1      -7.276   3.163   1.109  1.00  0.00     0.023 C 
BRANCH  34  35
ATOM     35  C   UNL     1      -8.253   3.562   2.203  1.00  0.00     0.116 C 
BRANCH  35  36
ATOM     36  N   UNL     1      -8.306   4.998   2.425  1.00  0.00    -0.352 N 
ATOM     37  C   UNL     1      -9.411   5.798   2.614  1.00  0.00     0.251 C 
ATOM     38  H   UNL     1      -7.437   5.460   2.442  1.00  0.00     0.163 HD
ATOM     39  O   UNL     1      -9.304   7.009   2.668  1.00  0.00    -0.269 OA
BRANCH  37  40
ATOM     40  C   UNL     1     -10.739   5.156   2.711  1.00  0.00     0.039 A 
ATOM     41  C   UNL     1     -11.781   5.638   1.918  1.00  0.00     0.014 A 
ATOM     42  C   UNL     1     -10.926   4.043   3.534  1.00  0.00     0.014 A 
ATOM     43  C   UNL     1     -12.998   4.955   1.897  1.00  0.00     0.010 A 
ATOM     44  C   UNL     1     -12.104   3.315   3.443  1.00  0.00     0.010 A 
ATOM     45  C   UNL     1     -13.153   3.766   2.628  1.00  0.00    -0.014 A 
BRANCH  45  46
ATOM     46  C   UNL     1     -14.409   2.981   2.569  1.00  0.00     0.031 A 
ATOM     47  C   UNL     1     -15.230   2.789   3.814  1.00  0.00     0.074 A 
ATOM     48  C   UNL     1     -14.770   2.379   1.419  1.00  0.00     0.049 A 
ATOM     49  N   UNL     1     -16.318   2.082   3.985  1.00  0.00    -0.248 NA
ATOM     50  C   UNL     1     -14.745   3.452   5.036  1.00  0.00     0.031 C 
ATOM     51  C   UNL     1     -14.032   2.447   0.156  1.00  0.00     0.029 A 
ATOM     52  N   UNL     1     -15.850   1.585   1.131  1.00  0.00    -0.354 N 
ATOM     53  C   UNL     1     -16.628   2.194   5.334  1.00  0.00     0.074 A 
ATOM     54  C   UNL     1     -15.587   2.988   5.946  1.00  0.00     0.031 C 
ATOM     55  C   UNL     1     -14.700   1.754  -0.780  1.00  0.00     0.029 A 
ATOM     56  C   UNL     1     -15.889   1.162  -0.176  1.00  0.00     0.049 A 
ATOM     57  H   UNL     1     -16.533   1.341   1.797  1.00  0.00     0.167 HD
ATOM     58  C   UNL     1     -17.698   1.701   6.002  1.00  0.00     0.031 A 
ATOM     59  C   UNL     1     -16.784   0.386  -0.814  1.00  0.00     0.031 A 
ATOM     60  C   UNL     1     -18.745   0.931   5.388  1.00  0.00     0.049 A 
ATOM     61  C   UNL     1     -17.966  -0.146  -0.055  1.00  0.00     0.074 A 
ATOM     62  C   UNL     1     -19.906   0.444   5.960  1.00  0.00     0.029 A 
ATOM     63  N   UNL     1     -18.754   0.537   4.059  1.00  0.00    -0.354 N 
ATOM     64  N   UNL     1     -18.285   0.028   1.205  1.00  0.00    -0.248 NA
ATOM     65  C   UNL     1     -18.918  -0.974  -0.810  1.00  0.00     0.031 C 
ATOM     66  C   UNL     1     -20.597  -0.286   4.986  1.00  0.00     0.029 A 
ATOM     67  C   UNL     1     -19.891  -0.208   3.796  1.00  0.00     0.049 A 
ATOM     68  H   UNL     1     -18.056   0.754   3.399  1.00  0.00     0.167 HD
ATOM     69  C   UNL     1     -19.486  -0.644   1.388  1.00  0.00     0.074 A 
ATOM     70  C   UNL     1     -19.845  -1.218   0.106  1.00  0.00     0.031 C 
ATOM     71  C   UNL     1     -20.227  -0.774   2.515  1.00  0.00     0.031 A 
BRANCH  58  72
ATOM     72  C   UNL     1     -17.775   1.981   7.477  1.00  0.00    -0.014 A 
ATOM     73  C   UNL     1     -18.009   3.278   7.961  1.00  0.00     0.009 A 
ATOM     74  C   UNL     1     -17.615   0.933   8.396  1.00  0.00     0.009 A 
ATOM     75  C   UNL     1     -18.035   3.528   9.335  1.00  0.00     0.001 A 
ATOM     76  C   UNL     1     -17.673   1.179   9.768  1.00  0.00     0.001 A 
ATOM     77  C   UNL     1     -17.869   2.478  10.237  1.00  0.00     0.000 A 
ENDBRANCH  58  72
BRANCH  59  78
ATOM     78  C   UNL     1     -16.614   0.092  -2.261  1.00  0.00    -0.014 A 
ATOM     79  C   UNL     1     -17.460   0.689  -3.208  1.00  0.00     0.009 A 
ATOM     80  C   UNL     1     -15.604  -0.776  -2.704  1.00  0.00     0.009 A 
ATOM     81  C   UNL     1     -17.312   0.406  -4.567  1.00  0.00     0.001 A 
ATOM     82  C   UNL     1     -15.442  -1.037  -4.066  1.00  0.00     0.001 A 
ATOM     83  C   UNL     1     -16.301  -0.452  -4.996  1.00  0.00     0.000 A 
ENDBRANCH  59  78
BRANCH  71  84
ATOM     84  C   UNL     1     -21.514  -1.541   2.405  1.00  0.00    -0.014 A 
ATOM     85  C   UNL     1     -21.520  -2.938   2.274  1.00  0.00     0.009 A 
ATOM     86  C   UNL     1     -22.738  -0.857   2.477  1.00  0.00     0.009 A 
ATOM     87  C   UNL     1     -22.728  -3.632   2.186  1.00  0.00     0.001 A 
ATOM     88  C   UNL     1     -23.943  -1.557   2.418  1.00  0.00     0.001 A 
ATOM     89  C   UNL     1     -23.937  -2.942   2.264  1.00  0.00     0.000 A 
ENDBRANCH  71  84
ENDBRANCH  45  46
ENDBRANCH  37  40
ENDBRANCH  35  36
ENDBRANCH  34  35
ENDBRANCH   1  34
TORSDOF 16
