REMARK SMILES C[C@H]1[C@H]([NH+]2CCC(CC(=O)NCCCCNC(=O)c3ccc(-c4c5nc(c(-c6ccccc6)c6ccc([nH]6)c(-c6ccccc6)c6nc(c(-c7ccccc7)c7ccc4[nH]7)C=C6)C=C5)cc3)CC2)CCC[C@@H]1C
REMARK SMILES IDX 13 1 12 2 11 3 9 4 10 5 8 7 7 8 4 9 5 10 68 11 6 13 67 14
REMARK SMILES IDX 3 15 1 16 2 17 72 18 69 19 71 20 73 21 70 22 14 23 15 24
REMARK SMILES IDX 16 25 17 26 18 28 19 29 20 30 66 31 21 32 65 33 22 34 23 35
REMARK SMILES IDX 24 36 59 37 25 38 64 39 58 40 60 41 26 42 63 43 57 44 56 45
REMARK SMILES IDX 27 47 49 48 34 49 48 50 35 51 38 52 47 53 61 54 36 55 37 56
REMARK SMILES IDX 46 58 62 59 39 60 28 61 29 62 33 63 30 64 32 65 31 66 50 67
REMARK SMILES IDX 51 68 55 69 52 70 54 71 53 72 40 73 41 74 45 75 42 76 44 77
REMARK SMILES IDX 43 78
REMARK H PARENT 11 6 4 12 16 27 60 46 38 57
REMARK Flexibility Score: inf
ROOT
ATOM      1  C   UNL     1       2.164  -2.587   4.174  1.00  0.00     0.023 C 
ENDROOT
BRANCH   1   2
ATOM      2  C   UNL     1       3.104  -2.836   2.989  1.00  0.00     0.116 C 
BRANCH   2   3
ATOM      3  N   UNL     1       2.897  -4.171   2.454  1.00  0.00    -0.356 N 
ATOM      4  C   UNL     1       2.207  -4.587   1.353  1.00  0.00     0.220 C 
ATOM      5  O   UNL     1       2.025  -5.796   1.202  1.00  0.00    -0.275 OA
ATOM      6  H   UNL     1       3.325  -4.892   2.970  1.00  0.00     0.163 HD
BRANCH   4   7
ATOM      7  C   UNL     1       1.706  -3.586   0.329  1.00  0.00     0.104 C 
BRANCH   7   8
ATOM      8  C   UNL     1       0.217  -3.199   0.452  1.00  0.00     0.009 C 
ATOM      9  N   UNL     1      -1.603  -0.859   0.820  1.00  0.00    -0.332 N 
ATOM     10  C   UNL     1      -1.478  -1.532  -0.473  1.00  0.00     0.262 C 
ATOM     11  C   UNL     1      -1.424  -1.816   1.901  1.00  0.00     0.262 C 
ATOM     12  H   UNL     1      -2.569  -0.533   0.854  1.00  0.00     0.348 HD
ATOM     13  C   UNL     1      -0.135  -2.223  -0.683  1.00  0.00     0.066 C 
ATOM     14  C   UNL     1      -0.102  -2.580   1.813  1.00  0.00     0.066 C 
BRANCH   9  15
ATOM     15  C   UNL     1      -1.164   0.553   1.002  1.00  0.00     0.187 C 
ATOM     16  C   UNL     1       0.789   0.550   2.709  1.00  0.00     0.014 C 
ATOM     17  C   UNL     1       0.356   0.870   1.264  1.00  0.00     0.047 C 
ATOM     18  C   UNL     1       0.785   2.358   1.030  1.00  0.00    -0.006 C 
ATOM     19  C   UNL     1      -1.749   1.402  -0.152  1.00  0.00     0.065 C 
ATOM     20  C   UNL     1       0.118   3.019  -0.169  1.00  0.00     0.004 C 
ATOM     21  C   UNL     1       2.311   2.493   0.914  1.00  0.00     0.008 C 
ATOM     22  C   UNL     1      -1.388   2.874  -0.066  1.00  0.00     0.006 C 
ENDBRANCH   9  15
ENDBRANCH   7   8
ENDBRANCH   4   7
ENDBRANCH   2   3
ENDBRANCH   1   2
BRANCH   1  23
ATOM     23  C   UNL     1       2.824  -2.572   5.541  1.00  0.00     0.023 C 
BRANCH  23  24
ATOM     24  C   UNL     1       3.851  -1.469   5.747  1.00  0.00     0.116 C 
BRANCH  24  25
ATOM     25  N   UNL     1       3.339  -0.113   5.588  1.00  0.00    -0.352 N 
ATOM     26  C   UNL     1       3.604   1.009   6.347  1.00  0.00     0.251 C 
ATOM     27  H   UNL     1       2.718   0.021   4.836  1.00  0.00     0.163 HD
ATOM     28  O   UNL     1       3.064   2.076   6.093  1.00  0.00    -0.269 OA
BRANCH  26  29
ATOM     29  C   UNL     1       4.502   0.886   7.517  1.00  0.00     0.039 A 
ATOM     30  C   UNL     1       4.079   1.389   8.749  1.00  0.00     0.014 A 
ATOM     31  C   UNL     1       5.700   0.178   7.418  1.00  0.00     0.014 A 
ATOM     32  C   UNL     1       4.803   1.078   9.902  1.00  0.00     0.010 A 
ATOM     33  C   UNL     1       6.349  -0.229   8.576  1.00  0.00     0.010 A 
ATOM     34  C   UNL     1       5.906   0.211   9.832  1.00  0.00    -0.014 A 
BRANCH  34  35
ATOM     35  C   UNL     1       6.608  -0.258  11.055  1.00  0.00     0.031 A 
ATOM     36  C   UNL     1       8.077   0.014  11.231  1.00  0.00     0.074 A 
ATOM     37  C   UNL     1       5.949  -1.008  11.961  1.00  0.00     0.049 A 
ATOM     38  N   UNL     1       8.882  -0.381  12.184  1.00  0.00    -0.248 NA
ATOM     39  C   UNL     1       8.740   0.798  10.175  1.00  0.00     0.031 C 
ATOM     40  C   UNL     1       4.543  -1.414  11.875  1.00  0.00     0.029 A 
ATOM     41  N   UNL     1       6.380  -1.571  13.137  1.00  0.00    -0.354 N 
ATOM     42  C   UNL     1      10.144   0.074  11.823  1.00  0.00     0.074 A 
ATOM     43  C   UNL     1      10.010   0.722  10.538  1.00  0.00     0.031 C 
ATOM     44  C   UNL     1       4.219  -2.121  12.970  1.00  0.00     0.029 A 
ATOM     45  C   UNL     1       5.399  -2.252  13.817  1.00  0.00     0.049 A 
ATOM     46  H   UNL     1       7.306  -1.493  13.463  1.00  0.00     0.167 HD
ATOM     47  C   UNL     1      11.307  -0.013  12.509  1.00  0.00     0.031 A 
ATOM     48  C   UNL     1       5.443  -2.903  14.994  1.00  0.00     0.031 A 
ATOM     49  C   UNL     1      11.434  -0.617  13.807  1.00  0.00     0.049 A 
ATOM     50  C   UNL     1       6.734  -2.939  15.764  1.00  0.00     0.074 A 
ATOM     51  C   UNL     1      12.550  -0.682  14.622  1.00  0.00     0.029 A 
ATOM     52  N   UNL     1      10.404  -1.250  14.483  1.00  0.00    -0.354 N 
ATOM     53  N   UNL     1       7.900  -2.433  15.444  1.00  0.00    -0.248 NA
ATOM     54  C   UNL     1       6.708  -3.623  17.065  1.00  0.00     0.031 C 
ATOM     55  C   UNL     1      12.203  -1.387  15.780  1.00  0.00     0.029 A 
ATOM     56  C   UNL     1      10.860  -1.721  15.701  1.00  0.00     0.049 A 
ATOM     57  H   UNL     1       9.484  -1.351  14.146  1.00  0.00     0.167 HD
ATOM     58  C   UNL     1       8.739  -2.714  16.514  1.00  0.00     0.074 A 
ATOM     59  C   UNL     1       7.944  -3.419  17.498  1.00  0.00     0.031 C 
ATOM     60  C   UNL     1      10.052  -2.417  16.667  1.00  0.00     0.031 A 
BRANCH  47  61
ATOM     61  C   UNL     1      12.532   0.573  11.865  1.00  0.00    -0.014 A 
ATOM     62  C   UNL     1      12.682   1.962  11.720  1.00  0.00     0.009 A 
ATOM     63  C   UNL     1      13.556  -0.272  11.411  1.00  0.00     0.009 A 
ATOM     64  C   UNL     1      13.813   2.490  11.094  1.00  0.00     0.001 A 
ATOM     65  C   UNL     1      14.699   0.260  10.813  1.00  0.00     0.001 A 
ATOM     66  C   UNL     1      14.822   1.639  10.645  1.00  0.00     0.000 A 
ENDBRANCH  47  61
BRANCH  48  67
ATOM     67  C   UNL     1       4.218  -3.542  15.542  1.00  0.00    -0.014 A 
ATOM     68  C   UNL     1       3.556  -2.975  16.642  1.00  0.00     0.009 A 
ATOM     69  C   UNL     1       3.710  -4.721  14.978  1.00  0.00     0.009 A 
ATOM     70  C   UNL     1       2.426  -3.591  17.184  1.00  0.00     0.001 A 
ATOM     71  C   UNL     1       2.564  -5.322  15.507  1.00  0.00     0.001 A 
ATOM     72  C   UNL     1       1.929  -4.762  16.614  1.00  0.00     0.000 A 
ENDBRANCH  48  67
BRANCH  60  73
ATOM     73  C   UNL     1      10.699  -2.826  17.959  1.00  0.00    -0.014 A 
ATOM     74  C   UNL     1      11.005  -4.169  18.226  1.00  0.00     0.009 A 
ATOM     75  C   UNL     1      11.039  -1.846  18.905  1.00  0.00     0.009 A 
ATOM     76  C   UNL     1      11.609  -4.527  19.432  1.00  0.00     0.001 A 
ATOM     77  C   UNL     1      11.666  -2.204  20.098  1.00  0.00     0.001 A 
ATOM     78  C   UNL     1      11.943  -3.545  20.365  1.00  0.00     0.000 A 
ENDBRANCH  60  73
ENDBRANCH  34  35
ENDBRANCH  26  29
ENDBRANCH  24  25
ENDBRANCH  23  24
ENDBRANCH   1  23
TORSDOF 13
