REMARK SMILES C[C@@H]1[C@H](C(=O)NCCCCNC(=O)c2ccc(-c3c4nc(c(-c5ccccc5)c5ccc([nH]5)c(-c5ccccc5)c5nc(c(-c6ccccc6)c6ccc3[nH]6)C=C5)C=C4)cc2)CC[N@@H+]1Cc1ccc2c(c1)CCN2C
REMARK SMILES IDX 8 1 7 2 6 3 4 4 5 5 3 7 1 8 2 9 64 10 62 11 63 12 65 14
REMARK SMILES IDX 66 15 67 16 71 17 68 18 70 19 69 20 72 21 74 22 73 23 75 24
REMARK SMILES IDX 9 25 10 26 11 27 12 28 13 30 14 31 15 32 61 33 16 34 60 35
REMARK SMILES IDX 17 36 18 37 19 38 54 39 20 40 59 41 53 42 55 43 21 44 58 45
REMARK SMILES IDX 52 46 51 47 22 49 44 50 29 51 43 52 30 53 33 54 42 55 56 56
REMARK SMILES IDX 31 57 32 58 41 60 57 61 34 62 23 63 24 64 28 65 25 66 27 67
REMARK SMILES IDX 26 68 45 69 46 70 50 71 47 72 49 73 48 74 35 75 36 76 40 77
REMARK SMILES IDX 37 78 39 79 38 80
REMARK H PARENT 6 6 64 13 11 29 55 48 33 59
REMARK Flexibility Score: inf
ROOT
ATOM      1  C   UNL     1       2.966   1.366   2.217  1.00  0.00     0.023 C 
ENDROOT
BRANCH   1   2
ATOM      2  C   UNL     1       1.493   1.681   1.950  1.00  0.00     0.116 C 
BRANCH   2   3
ATOM      3  N   UNL     1       1.349   2.567   0.819  1.00  0.00    -0.356 N 
ATOM      4  C   UNL     1       0.841   2.339  -0.415  1.00  0.00     0.229 C 
ATOM      5  O   UNL     1       0.956   3.264  -1.229  1.00  0.00    -0.275 OA
ATOM      6  H   UNL     1       1.672   3.484   0.970  1.00  0.00     0.163 HD
BRANCH   4   7
ATOM      7  C   UNL     1       0.107   1.068  -0.823  1.00  0.00     0.142 C 
ATOM      8  C   UNL     1       2.264  -0.442  -0.530  1.00  0.00     0.076 C 
ATOM      9  C   UNL     1       0.805  -0.305  -0.917  1.00  0.00     0.193 C 
ATOM     10  N   UNL     1      -0.157  -1.279  -0.375  1.00  0.00    -0.328 N 
ATOM     11  C   UNL     1      -1.204   0.800  -0.087  1.00  0.00     0.081 C 
ATOM     12  C   UNL     1      -1.472  -0.659  -0.424  1.00  0.00     0.263 C 
ATOM     13  H   UNL     1      -0.097  -2.092  -0.988  1.00  0.00     0.348 HD
BRANCH  10  14
ATOM     14  C   UNL     1       0.159  -2.179   0.735  1.00  0.00     0.299 C 
BRANCH  14  15
ATOM     15  C   UNL     1       0.099  -1.685   2.175  1.00  0.00     0.007 A 
ATOM     16  C   UNL     1       1.236  -1.770   3.017  1.00  0.00     0.012 A 
ATOM     17  C   UNL     1      -1.104  -1.248   2.748  1.00  0.00     0.015 A 
ATOM     18  C   UNL     1       1.187  -1.393   4.374  1.00  0.00     0.026 A 
ATOM     19  C   UNL     1      -1.134  -0.880   4.082  1.00  0.00    -0.022 A 
ATOM     20  C   UNL     1      -0.010  -0.952   4.902  1.00  0.00     0.040 A 
ATOM     21  C   UNL     1      -2.273  -0.299   4.854  1.00  0.00     0.059 C 
ATOM     22  N   UNL     1      -0.304  -0.578   6.214  1.00  0.00    -0.374 N 
ATOM     23  C   UNL     1      -1.768  -0.520   6.287  1.00  0.00     0.121 C 
ATOM     24  C   UNL     1       0.506   0.406   6.891  1.00  0.00     0.143 C 
ENDBRANCH  14  15
ENDBRANCH  10  14
ENDBRANCH   4   7
ENDBRANCH   2   3
ENDBRANCH   1   2
BRANCH   1  25
ATOM     25  C   UNL     1       3.770   2.492   2.849  1.00  0.00     0.023 C 
BRANCH  25  26
ATOM     26  C   UNL     1       3.270   2.939   4.211  1.00  0.00     0.116 C 
BRANCH  26  27
ATOM     27  N   UNL     1       3.242   1.864   5.192  1.00  0.00    -0.352 N 
ATOM     28  C   UNL     1       3.772   1.831   6.462  1.00  0.00     0.251 C 
ATOM     29  H   UNL     1       2.778   1.044   4.907  1.00  0.00     0.163 HD
ATOM     30  O   UNL     1       3.814   0.786   7.096  1.00  0.00    -0.269 OA
BRANCH  28  31
ATOM     31  C   UNL     1       4.330   3.065   7.047  1.00  0.00     0.039 A 
ATOM     32  C   UNL     1       5.536   2.985   7.745  1.00  0.00     0.014 A 
ATOM     33  C   UNL     1       3.701   4.296   6.857  1.00  0.00     0.014 A 
ATOM     34  C   UNL     1       6.167   4.157   8.157  1.00  0.00     0.010 A 
ATOM     35  C   UNL     1       4.382   5.463   7.163  1.00  0.00     0.010 A 
ATOM     36  C   UNL     1       5.623   5.404   7.814  1.00  0.00    -0.014 A 
BRANCH  36  37
ATOM     37  C   UNL     1       6.334   6.665   8.123  1.00  0.00     0.031 A 
ATOM     38  C   UNL     1       5.690   7.684   9.020  1.00  0.00     0.074 A 
ATOM     39  C   UNL     1       7.516   6.924   7.531  1.00  0.00     0.049 A 
ATOM     40  N   UNL     1       6.108   8.880   9.344  1.00  0.00    -0.248 NA
ATOM     41  C   UNL     1       4.383   7.326   9.598  1.00  0.00     0.031 C 
ATOM     42  C   UNL     1       8.212   6.037   6.593  1.00  0.00     0.029 A 
ATOM     43  N   UNL     1       8.341   8.014   7.628  1.00  0.00    -0.354 N 
ATOM     44  C   UNL     1       5.104   9.425  10.133  1.00  0.00     0.074 A 
ATOM     45  C   UNL     1       4.033   8.456  10.191  1.00  0.00     0.031 C 
ATOM     46  C   UNL     1       9.377   6.601   6.237  1.00  0.00     0.029 A 
ATOM     47  C   UNL     1       9.491   7.902   6.885  1.00  0.00     0.049 A 
ATOM     48  H   UNL     1       8.130   8.803   8.178  1.00  0.00     0.167 HD
ATOM     49  C   UNL     1       5.086  10.616  10.775  1.00  0.00     0.031 A 
ATOM     50  C   UNL     1      10.523   8.754   6.747  1.00  0.00     0.031 A 
ATOM     51  C   UNL     1       6.168  11.561  10.740  1.00  0.00     0.049 A 
ATOM     52  C   UNL     1      10.495  10.057   7.494  1.00  0.00     0.074 A 
ATOM     53  C   UNL     1       6.280  12.770  11.403  1.00  0.00     0.029 A 
ATOM     54  N   UNL     1       7.331  11.394  10.004  1.00  0.00    -0.354 N 
ATOM     55  N   UNL     1       9.566  10.533   8.288  1.00  0.00    -0.248 NA
ATOM     56  C   UNL     1      11.663  10.933   7.337  1.00  0.00     0.031 C 
ATOM     57  C   UNL     1       7.500  13.351  11.040  1.00  0.00     0.029 A 
ATOM     58  C   UNL     1       8.165  12.482  10.189  1.00  0.00     0.049 A 
ATOM     59  H   UNL     1       7.533  10.617   9.434  1.00  0.00     0.167 HD
ATOM     60  C   UNL     1      10.050  11.748   8.750  1.00  0.00     0.074 A 
ATOM     61  C   UNL     1      11.360  11.930   8.156  1.00  0.00     0.031 C 
ATOM     62  C   UNL     1       9.466  12.635   9.592  1.00  0.00     0.031 A 
BRANCH  49  63
ATOM     63  C   UNL     1       3.854  10.948  11.568  1.00  0.00    -0.014 A 
ATOM     64  C   UNL     1       3.538  10.253  12.747  1.00  0.00     0.009 A 
ATOM     65  C   UNL     1       2.996  11.969  11.132  1.00  0.00     0.009 A 
ATOM     66  C   UNL     1       2.365  10.541  13.447  1.00  0.00     0.001 A 
ATOM     67  C   UNL     1       1.839  12.276  11.851  1.00  0.00     0.001 A 
ATOM     68  C   UNL     1       1.519  11.554  13.000  1.00  0.00     0.000 A 
ENDBRANCH  49  63
BRANCH  50  69
ATOM     69  C   UNL     1      11.687   8.384   5.901  1.00  0.00    -0.014 A 
ATOM     70  C   UNL     1      12.914   8.048   6.494  1.00  0.00     0.009 A 
ATOM     71  C   UNL     1      11.581   8.361   4.502  1.00  0.00     0.009 A 
ATOM     72  C   UNL     1      14.018   7.722   5.703  1.00  0.00     0.001 A 
ATOM     73  C   UNL     1      12.680   8.009   3.715  1.00  0.00     0.001 A 
ATOM     74  C   UNL     1      13.899   7.699   4.315  1.00  0.00     0.000 A 
ENDBRANCH  50  69
BRANCH  62  75
ATOM     75  C   UNL     1      10.259  13.857   9.954  1.00  0.00    -0.014 A 
ATOM     76  C   UNL     1      10.443  14.904   9.038  1.00  0.00     0.009 A 
ATOM     77  C   UNL     1      10.792  13.977  11.246  1.00  0.00     0.009 A 
ATOM     78  C   UNL     1      11.174  16.036   9.402  1.00  0.00     0.001 A 
ATOM     79  C   UNL     1      11.498  15.121  11.616  1.00  0.00     0.001 A 
ATOM     80  C   UNL     1      11.696  16.146  10.691  1.00  0.00     0.000 A 
ENDBRANCH  62  75
ENDBRANCH  36  37
ENDBRANCH  28  31
ENDBRANCH  26  27
ENDBRANCH  25  26
ENDBRANCH   1  25
TORSDOF 13
