REMARK SMILES O=C(NCCCCNC(=O)c1cc([C@@H]2C=NN=C2c2ccc(F)cc2)c2c(ccc3ccccc32)n1)c1ccc(-c2c3nc(c(-c4ccccc4)c4ccc([nH]4)c(-c4ccccc4)c4nc(c(-c5ccccc5)c5ccc2[nH]5)C=C4)C=C3)cc1
REMARK SMILES IDX 5 1 4 2 3 3 1 4 2 5 37 7 38 8 84 9 39 10 83 11 40 12 41 13
REMARK SMILES IDX 42 14 77 15 43 16 82 17 76 18 78 19 44 20 81 21 75 22 74 23
REMARK SMILES IDX 45 25 67 26 52 27 66 28 53 29 56 30 65 31 79 32 54 33 55 34
REMARK SMILES IDX 64 36 80 37 57 38 46 39 47 40 51 41 48 42 50 43 49 44 68 45
REMARK SMILES IDX 69 46 73 47 70 48 72 49 71 50 58 51 59 52 63 53 60 54 62 55
REMARK SMILES IDX 61 56 6 57 7 58 8 59 9 60 10 62 11 63 12 64 36 65 13 66
REMARK SMILES IDX 27 67 26 68 28 69 35 70 29 71 30 72 34 73 31 74 33 75 32 76
REMARK SMILES IDX 14 77 15 78 18 79 16 80 17 81 19 82 20 83 25 84 21 85 24 86
REMARK SMILES IDX 22 87 23 88
REMARK H PARENT 3 6 78 24 56 35 8 61
REMARK Flexibility Score: inf
ROOT
ATOM      1  C   UNL     1       4.977  -0.351  -2.149  1.00  0.00     0.023 C 
ENDROOT
BRANCH   1   2
ATOM      2  C   UNL     1       4.787   0.788  -1.146  1.00  0.00     0.116 C 
BRANCH   2   3
ATOM      3  N   UNL     1       3.415   1.204  -0.937  1.00  0.00    -0.352 N 
ATOM      4  O   UNL     1       1.340   1.380  -0.186  1.00  0.00    -0.269 OA
ATOM      5  C   UNL     1       2.353   0.679  -0.251  1.00  0.00     0.251 C 
ATOM      6  H   UNL     1       3.198   2.051  -1.389  1.00  0.00     0.163 HD
BRANCH   5   7
ATOM      7  C   UNL     1       2.320  -0.682   0.348  1.00  0.00     0.039 A 
ATOM      8  C   UNL     1       3.436  -1.482   0.602  1.00  0.00     0.014 A 
ATOM      9  C   UNL     1       1.048  -1.194   0.656  1.00  0.00     0.014 A 
ATOM     10  C   UNL     1       3.288  -2.802   1.018  1.00  0.00     0.010 A 
ATOM     11  C   UNL     1       0.895  -2.496   1.121  1.00  0.00     0.010 A 
ATOM     12  C   UNL     1       2.016  -3.319   1.248  1.00  0.00    -0.014 A 
BRANCH  12  13
ATOM     13  C   UNL     1       1.903  -4.713   1.680  1.00  0.00     0.031 A 
ATOM     14  C   UNL     1       2.438  -5.062   3.033  1.00  0.00     0.074 A 
ATOM     15  C   UNL     1       1.175  -5.612   0.988  1.00  0.00     0.049 A 
ATOM     16  N   UNL     1       3.151  -6.087   3.388  1.00  0.00    -0.248 NA
ATOM     17  C   UNL     1       2.132  -4.136   4.136  1.00  0.00     0.031 C 
ATOM     18  C   UNL     1       0.328  -5.352  -0.181  1.00  0.00     0.029 A 
ATOM     19  N   UNL     1       0.913  -6.919   1.284  1.00  0.00    -0.354 N 
ATOM     20  C   UNL     1       3.262  -6.017   4.778  1.00  0.00     0.074 A 
ATOM     21  C   UNL     1       2.677  -4.762   5.177  1.00  0.00     0.031 C 
ATOM     22  C   UNL     1      -0.539  -6.375  -0.328  1.00  0.00     0.029 A 
ATOM     23  C   UNL     1      -0.222  -7.401   0.651  1.00  0.00     0.049 A 
ATOM     24  H   UNL     1       1.472  -7.462   1.886  1.00  0.00     0.167 HD
ATOM     25  C   UNL     1       3.679  -7.056   5.553  1.00  0.00     0.031 A 
ATOM     26  C   UNL     1      -0.924  -8.513   0.968  1.00  0.00     0.031 A 
ATOM     27  C   UNL     1       4.422  -8.043   4.829  1.00  0.00     0.049 A 
ATOM     28  C   UNL     1      -0.078  -9.387   1.806  1.00  0.00     0.074 A 
ATOM     29  C   UNL     1       5.608  -8.061   4.124  1.00  0.00     0.029 A 
ATOM     30  N   UNL     1       3.807  -9.236   4.546  1.00  0.00    -0.354 N 
ATOM     31  N   UNL     1       0.975 -10.016   1.374  1.00  0.00    -0.248 NA
ATOM     32  C   UNL     1      -0.208  -9.309   3.252  1.00  0.00     0.031 C 
ATOM     33  C   UNL     1       5.422  -9.037   3.102  1.00  0.00     0.029 A 
ATOM     34  C   UNL     1       4.130  -9.544   3.250  1.00  0.00     0.049 A 
ATOM     35  H   UNL     1       3.244  -9.768   5.154  1.00  0.00     0.167 HD
ATOM     36  C   UNL     1       1.835 -10.059   2.460  1.00  0.00     0.074 A 
ATOM     37  C   UNL     1       1.003  -9.739   3.613  1.00  0.00     0.031 C 
ATOM     38  C   UNL     1       3.190 -10.069   2.286  1.00  0.00     0.031 A 
BRANCH  25  39
ATOM     39  C   UNL     1       3.139  -7.321   6.936  1.00  0.00    -0.014 A 
ATOM     40  C   UNL     1       3.748  -8.300   7.743  1.00  0.00     0.009 A 
ATOM     41  C   UNL     1       1.889  -6.833   7.363  1.00  0.00     0.009 A 
ATOM     42  C   UNL     1       3.118  -8.789   8.895  1.00  0.00     0.001 A 
ATOM     43  C   UNL     1       1.278  -7.289   8.535  1.00  0.00     0.001 A 
ATOM     44  C   UNL     1       1.883  -8.284   9.289  1.00  0.00     0.000 A 
ENDBRANCH  25  39
BRANCH  26  45
ATOM     45  C   UNL     1      -2.377  -8.723   0.805  1.00  0.00    -0.014 A 
ATOM     46  C   UNL     1      -2.923 -10.012   0.759  1.00  0.00     0.009 A 
ATOM     47  C   UNL     1      -3.265  -7.635   0.913  1.00  0.00     0.009 A 
ATOM     48  C   UNL     1      -4.310 -10.203   0.825  1.00  0.00     0.001 A 
ATOM     49  C   UNL     1      -4.647  -7.824   0.968  1.00  0.00     0.001 A 
ATOM     50  C   UNL     1      -5.170  -9.111   0.934  1.00  0.00     0.000 A 
ENDBRANCH  26  45
BRANCH  38  51
ATOM     51  C   UNL     1       3.718 -10.293   0.892  1.00  0.00    -0.014 A 
ATOM     52  C   UNL     1       3.447  -9.399  -0.159  1.00  0.00     0.009 A 
ATOM     53  C   UNL     1       4.638 -11.327   0.666  1.00  0.00     0.009 A 
ATOM     54  C   UNL     1       4.051  -9.555  -1.409  1.00  0.00     0.001 A 
ATOM     55  C   UNL     1       5.258 -11.471  -0.579  1.00  0.00     0.001 A 
ATOM     56  C   UNL     1       4.960 -10.588  -1.616  1.00  0.00     0.000 A 
ENDBRANCH  38  51
ENDBRANCH  12  13
ENDBRANCH   5   7
ENDBRANCH   2   3
ENDBRANCH   1   2
BRANCH   1  57
ATOM     57  C   UNL     1       4.460  -0.081  -3.562  1.00  0.00     0.023 C 
BRANCH  57  58
ATOM     58  C   UNL     1       4.897   1.238  -4.182  1.00  0.00     0.116 C 
BRANCH  58  59
ATOM     59  N   UNL     1       6.341   1.400  -4.245  1.00  0.00    -0.351 N 
ATOM     60  C   UNL     1       7.105   1.975  -5.242  1.00  0.00     0.269 C 
ATOM     61  H   UNL     1       6.842   1.054  -3.471  1.00  0.00     0.163 HD
ATOM     62  O   UNL     1       8.323   1.996  -5.136  1.00  0.00    -0.268 OA
BRANCH  60  63
ATOM     63  C   UNL     1       6.425   2.568  -6.431  1.00  0.00     0.129 A 
ATOM     64  C   UNL     1       5.402   3.472  -6.269  1.00  0.00     0.039 A 
ATOM     65  N   UNL     1       6.785   2.095  -7.628  1.00  0.00    -0.243 NA
ATOM     66  C   UNL     1       4.616   3.855  -7.381  1.00  0.00    -0.021 A 
ATOM     67  C   UNL     1       6.127   2.522  -8.707  1.00  0.00     0.072 A 
ATOM     68  C   UNL     1       5.022   3.431  -8.710  1.00  0.00     0.012 A 
ATOM     69  C   UNL     1       6.604   1.966  -9.872  1.00  0.00     0.029 A 
ATOM     70  C   UNL     1       4.478   3.779 -10.037  1.00  0.00    -0.009 A 
ATOM     71  C   UNL     1       6.048   2.254 -11.107  1.00  0.00     0.011 A 
ATOM     72  C   UNL     1       4.999   3.153 -11.206  1.00  0.00    -0.018 A 
ATOM     73  C   UNL     1       3.475   4.739 -10.305  1.00  0.00     0.009 A 
ATOM     74  C   UNL     1       4.498   3.428 -12.490  1.00  0.00     0.009 A 
ATOM     75  C   UNL     1       2.972   5.013 -11.583  1.00  0.00     0.001 A 
ATOM     76  C   UNL     1       3.478   4.348 -12.681  1.00  0.00     0.001 A 
BRANCH  66  77
ATOM     77  C   UNL     1       3.349   4.564  -6.947  1.00  0.00     0.115 C 
ATOM     78  C   UNL     1       2.070   4.000  -7.457  1.00  0.00     0.123 C 
ATOM     79  C   UNL     1       3.068   6.007  -7.211  1.00  0.00     0.083 C 
ATOM     80  N   UNL     1       1.212   4.913  -7.776  1.00  0.00    -0.162 NA
ATOM     81  N   UNL     1       1.838   6.191  -7.606  1.00  0.00    -0.154 NA
BRANCH  79  82
ATOM     82  C   UNL     1       3.991   7.124  -6.923  1.00  0.00    -0.001 A 
ATOM     83  C   UNL     1       3.429   8.339  -6.501  1.00  0.00     0.013 A 
ATOM     84  C   UNL     1       5.377   7.022  -7.080  1.00  0.00     0.013 A 
ATOM     85  C   UNL     1       4.248   9.433  -6.218  1.00  0.00     0.040 A 
ATOM     86  C   UNL     1       6.193   8.121  -6.798  1.00  0.00     0.040 A 
ATOM     87  C   UNL     1       5.623   9.313  -6.366  1.00  0.00     0.123 A 
ATOM     88  F   UNL     1       6.411  10.363  -6.100  1.00  0.00    -0.207 F 
ENDBRANCH  79  82
ENDBRANCH  66  77
ENDBRANCH  60  63
ENDBRANCH  58  59
ENDBRANCH  57  58
ENDBRANCH   1  57
TORSDOF 13
