REMARK SMILES NS(=O)(=O)c1ccc(-n2nc(C(=O)NCCCCNC(=O)c3ccc(-c4c5nc(c(-c6ccccc6)c6ccc([nH]6)c(-c6ccccc6)c6nc(c(-c7ccccc7)c7ccc4[nH]7)C=C6)C=C5)cc3)c(Cl)c2-c2ccc(Cl)cc2)cc1
REMARK SMILES IDX 16 1 15 2 14 3 12 4 13 5 11 7 9 8 10 9 72 10 70 11 71 12
REMARK SMILES IDX 8 13 5 14 6 15 81 16 7 17 80 18 2 19 3 20 4 21 1 22 73 25
REMARK SMILES IDX 74 26 79 27 75 28 78 29 76 30 77 31 17 32 18 33 19 34 20 35
REMARK SMILES IDX 21 37 22 38 23 39 69 40 24 41 68 42 25 43 26 44 27 45 62 46
REMARK SMILES IDX 28 47 67 48 61 49 63 50 29 51 66 52 60 53 59 54 30 56 52 57
REMARK SMILES IDX 37 58 51 59 38 60 41 61 50 62 64 63 39 64 40 65 49 67 65 68
REMARK SMILES IDX 42 69 31 70 32 71 36 72 33 73 35 74 34 75 53 76 54 77 58 78
REMARK SMILES IDX 55 79 57 80 56 81 43 82 44 83 48 84 45 85 47 86 46 87
REMARK H PARENT 14 6 1 23 1 24 19 36 63 55 41 66
REMARK Flexibility Score: inf
ROOT
ATOM      1  C   UNL     1       5.820   3.787 -10.869  1.00  0.00     0.023 C 
ENDROOT
BRANCH   1   2
ATOM      2  C   UNL     1       4.282   3.786 -10.841  1.00  0.00     0.116 C 
BRANCH   2   3
ATOM      3  N   UNL     1       3.735   2.444 -10.967  1.00  0.00    -0.351 N 
ATOM      4  C   UNL     1       3.203   1.537 -10.068  1.00  0.00     0.273 C 
ATOM      5  O   UNL     1       2.746   0.511 -10.583  1.00  0.00    -0.267 OA
ATOM      6  H   UNL     1       3.747   2.108 -11.892  1.00  0.00     0.163 HD
BRANCH   4   7
ATOM      7  C   UNL     1       3.105   1.780  -8.609  1.00  0.00     0.169 A 
ATOM      8  N   UNL     1       2.290   1.584  -6.609  1.00  0.00    -0.231 N 
ATOM      9  N   UNL     1       2.192   1.096  -7.872  1.00  0.00    -0.160 NA
ATOM     10  C   UNL     1       3.160   2.653  -6.546  1.00  0.00     0.094 A 
ATOM     11  C   UNL     1       3.877   2.562  -7.725  1.00  0.00     0.100 A 
ATOM     12  Cl  UNL     1       5.432   3.223  -7.895  1.00  0.00    -0.079 Cl
BRANCH   8  13
ATOM     13  C   UNL     1       1.702   0.914  -5.503  1.00  0.00     0.065 A 
ATOM     14  C   UNL     1       0.938  -0.379  -3.156  1.00  0.00     0.082 A 
ATOM     15  C   UNL     1       1.500  -1.120  -4.202  1.00  0.00     0.024 A 
ATOM     16  C   UNL     1       0.719   0.995  -3.292  1.00  0.00     0.024 A 
ATOM     17  C   UNL     1       1.855  -0.477  -5.393  1.00  0.00     0.030 A 
ATOM     18  C   UNL     1       1.118   1.645  -4.460  1.00  0.00     0.030 A 
BRANCH  14  19
ATOM     19  S   UNL     1       0.549  -1.173  -1.622  1.00  0.00     0.238 S 
ATOM     20  O   UNL     1       1.277  -2.409  -1.524  1.00  0.00    -0.207 OA
ATOM     21  O   UNL     1      -0.881  -1.080  -1.409  1.00  0.00    -0.207 OA
BRANCH  19  22
ATOM     22  N   UNL     1       1.255  -0.156  -0.482  1.00  0.00    -0.225 NA
ATOM     23  H   UNL     1       1.088  -0.526   0.454  1.00  0.00     0.137 HD
ATOM     24  H   UNL     1       0.846   0.775  -0.557  1.00  0.00     0.137 HD
ENDBRANCH  19  22
ENDBRANCH  14  19
ENDBRANCH   8  13
BRANCH  10  25
ATOM     25  C   UNL     1       3.576   3.442  -5.392  1.00  0.00     0.002 A 
ATOM     26  C   UNL     1       3.371   4.830  -5.437  1.00  0.00     0.012 A 
ATOM     27  C   UNL     1       4.448   2.895  -4.445  1.00  0.00     0.012 A 
ATOM     28  C   UNL     1       4.095   5.670  -4.592  1.00  0.00     0.021 A 
ATOM     29  C   UNL     1       5.170   3.739  -3.601  1.00  0.00     0.021 A 
ATOM     30  C   UNL     1       5.010   5.121  -3.697  1.00  0.00     0.041 A 
ATOM     31  Cl  UNL     1       5.999   6.160  -2.748  1.00  0.00    -0.084 Cl
ENDBRANCH  10  25
ENDBRANCH   4   7
ENDBRANCH   2   3
ENDBRANCH   1   2
BRANCH   1  32
ATOM     32  C   UNL     1       6.506   3.872 -12.233  1.00  0.00     0.023 C 
BRANCH  32  33
ATOM     33  C   UNL     1       6.349   5.209 -12.942  1.00  0.00     0.116 C 
BRANCH  33  34
ATOM     34  N   UNL     1       6.937   6.335 -12.215  1.00  0.00    -0.352 N 
ATOM     35  C   UNL     1       6.824   7.678 -12.524  1.00  0.00     0.251 C 
ATOM     36  H   UNL     1       7.471   6.111 -11.419  1.00  0.00     0.163 HD
ATOM     37  O   UNL     1       7.654   8.493 -12.143  1.00  0.00    -0.269 OA
BRANCH  35  38
ATOM     38  C   UNL     1       5.663   8.114 -13.321  1.00  0.00     0.039 A 
ATOM     39  C   UNL     1       5.802   9.009 -14.382  1.00  0.00     0.014 A 
ATOM     40  C   UNL     1       4.424   7.551 -13.015  1.00  0.00     0.014 A 
ATOM     41  C   UNL     1       4.696   9.255 -15.193  1.00  0.00     0.010 A 
ATOM     42  C   UNL     1       3.378   7.681 -13.896  1.00  0.00     0.010 A 
ATOM     43  C   UNL     1       3.493   8.558 -14.967  1.00  0.00    -0.014 A 
BRANCH  43  44
ATOM     44  C   UNL     1       2.419   8.595 -15.960  1.00  0.00     0.031 A 
ATOM     45  C   UNL     1       2.890   8.291 -17.336  1.00  0.00     0.074 A 
ATOM     46  C   UNL     1       1.102   8.697 -15.670  1.00  0.00     0.049 A 
ATOM     47  N   UNL     1       3.038   9.133 -18.303  1.00  0.00    -0.248 NA
ATOM     48  C   UNL     1       3.427   6.949 -17.625  1.00  0.00     0.031 C 
ATOM     49  C   UNL     1       0.467   8.712 -14.347  1.00  0.00     0.029 A 
ATOM     50  N   UNL     1       0.026   8.710 -16.511  1.00  0.00    -0.354 N 
ATOM     51  C   UNL     1       3.441   8.380 -19.397  1.00  0.00     0.074 A 
ATOM     52  C   UNL     1       3.870   7.107 -18.875  1.00  0.00     0.031 C 
ATOM     53  C   UNL     1      -0.862   8.493 -14.474  1.00  0.00     0.029 A 
ATOM     54  C   UNL     1      -1.201   8.498 -15.884  1.00  0.00     0.049 A 
ATOM     55  H   UNL     1       0.111   8.857 -17.480  1.00  0.00     0.167 HD
ATOM     56  C   UNL     1       3.068   8.745 -20.655  1.00  0.00     0.031 A 
ATOM     57  C   UNL     1      -2.412   8.338 -16.478  1.00  0.00     0.031 A 
ATOM     58  C   UNL     1       2.593  10.109 -20.687  1.00  0.00     0.049 A 
ATOM     59  C   UNL     1      -2.313   8.914 -17.833  1.00  0.00     0.074 A 
ATOM     60  C   UNL     1       3.111  11.341 -20.339  1.00  0.00     0.029 A 
ATOM     61  N   UNL     1       1.230  10.271 -20.739  1.00  0.00    -0.354 N 
ATOM     62  N   UNL     1      -2.183  10.187 -18.059  1.00  0.00    -0.248 NA
ATOM     63  C   UNL     1      -1.938   8.039 -18.929  1.00  0.00     0.031 C 
ATOM     64  C   UNL     1       2.017  12.056 -19.765  1.00  0.00     0.029 A 
ATOM     65  C   UNL     1       0.870  11.267 -19.873  1.00  0.00     0.049 A 
ATOM     66  H   UNL     1       0.614   9.755 -21.308  1.00  0.00     0.167 HD
ATOM     67  C   UNL     1      -1.272  10.256 -19.100  1.00  0.00     0.074 A 
ATOM     68  C   UNL     1      -1.264   8.914 -19.680  1.00  0.00     0.031 C 
ATOM     69  C   UNL     1      -0.405  11.308 -19.191  1.00  0.00     0.031 A 
BRANCH  56  70
ATOM     70  C   UNL     1       2.638   7.738 -21.700  1.00  0.00    -0.014 A 
ATOM     71  C   UNL     1       2.269   8.207 -22.974  1.00  0.00     0.009 A 
ATOM     72  C   UNL     1       2.282   6.410 -21.392  1.00  0.00     0.009 A 
ATOM     73  C   UNL     1       1.515   7.417 -23.851  1.00  0.00     0.001 A 
ATOM     74  C   UNL     1       1.567   5.604 -22.281  1.00  0.00     0.001 A 
ATOM     75  C   UNL     1       1.158   6.119 -23.500  1.00  0.00     0.000 A 
ENDBRANCH  56  70
BRANCH  57  76
ATOM     76  C   UNL     1      -3.599   7.551 -16.074  1.00  0.00    -0.014 A 
ATOM     77  C   UNL     1      -4.846   7.772 -16.688  1.00  0.00     0.009 A 
ATOM     78  C   UNL     1      -3.442   6.372 -15.326  1.00  0.00     0.009 A 
ATOM     79  C   UNL     1      -5.873   6.822 -16.607  1.00  0.00     0.001 A 
ATOM     80  C   UNL     1      -4.469   5.424 -15.243  1.00  0.00     0.001 A 
ATOM     81  C   UNL     1      -5.677   5.639 -15.899  1.00  0.00     0.000 A 
ENDBRANCH  57  76
BRANCH  69  82
ATOM     82  C   UNL     1      -0.694  12.532 -18.352  1.00  0.00    -0.014 A 
ATOM     83  C   UNL     1      -0.786  12.524 -16.948  1.00  0.00     0.009 A 
ATOM     84  C   UNL     1      -0.781  13.765 -19.014  1.00  0.00     0.009 A 
ATOM     85  C   UNL     1      -1.004  13.712 -16.238  1.00  0.00     0.001 A 
ATOM     86  C   UNL     1      -0.973  14.952 -18.305  1.00  0.00     0.001 A 
ATOM     87  C   UNL     1      -1.095  14.925 -16.918  1.00  0.00     0.000 A 
ENDBRANCH  69  82
ENDBRANCH  43  44
ENDBRANCH  35  38
ENDBRANCH  33  34
ENDBRANCH  32  33
ENDBRANCH   1  32
TORSDOF 15
