REMARK SMILES NS(=O)(=O)c1ccc(-n2nc(C(F)(F)F)cc2-c2ccc(C(=O)NCCCCNC(=O)c3ccc(-c4c5nc(c(-c6ccccc6)c6ccc([nH]6)c(-c6ccccc6)c6nc(c(-c7ccccc7)c7ccc4[nH]7)C=C6)C=C5)cc3)cc2)cc1
REMARK SMILES IDX 25 1 24 2 22 3 23 4 21 6 18 7 19 8 81 9 20 10 80 11 17 12
REMARK SMILES IDX 9 13 10 14 11 15 16 16 8 17 5 18 6 19 83 20 7 21 82 22 2 23
REMARK SMILES IDX 3 24 4 25 1 26 12 29 13 30 14 31 15 32 26 33 27 34 28 35
REMARK SMILES IDX 29 36 30 37 31 39 32 40 33 41 79 42 34 43 78 44 35 45 36 46
REMARK SMILES IDX 37 47 72 48 38 49 77 50 71 51 73 52 39 53 76 54 70 55 69 56
REMARK SMILES IDX 40 58 62 59 47 60 61 61 48 62 51 63 60 64 74 65 49 66 50 67
REMARK SMILES IDX 59 69 75 70 52 71 41 72 42 73 46 74 43 75 45 76 44 77 63 78
REMARK SMILES IDX 64 79 68 80 65 81 67 82 66 83 53 84 54 85 58 86 55 87 57 88
REMARK SMILES IDX 56 89
REMARK H PARENT 24 5 1 27 1 28 29 38 73 57 51 68
REMARK Flexibility Score: inf
ROOT
ATOM      1  C   UNL     1       7.353   1.396   6.567  1.00  0.00     0.116 C 
ENDROOT
BRANCH   1   2
ATOM      2  N   UNL     1       7.671   1.425   5.152  1.00  0.00    -0.352 N 
ATOM      3  C   UNL     1       7.124   2.100   4.090  1.00  0.00     0.251 C 
ATOM      4  O   UNL     1       7.654   1.944   2.990  1.00  0.00    -0.269 OA
ATOM      5  H   UNL     1       8.427   0.846   4.905  1.00  0.00     0.163 HD
BRANCH   3   6
ATOM      6  C   UNL     1       5.968   3.035   4.213  1.00  0.00     0.039 A 
ATOM      7  C   UNL     1       3.865   4.905   4.334  1.00  0.00     0.000 A 
ATOM      8  C   UNL     1       4.772   4.939   3.270  1.00  0.00     0.011 A 
ATOM      9  C   UNL     1       4.002   3.932   5.322  1.00  0.00     0.011 A 
ATOM     10  C   UNL     1       5.821   4.014   3.217  1.00  0.00     0.014 A 
ATOM     11  C   UNL     1       5.014   2.978   5.231  1.00  0.00     0.014 A 
BRANCH   7  12
ATOM     12  C   UNL     1       2.731   5.814   4.393  1.00  0.00     0.075 A 
ATOM     13  N   UNL     1       1.646   5.786   3.528  1.00  0.00    -0.233 N 
ATOM     14  N   UNL     1       0.830   6.857   3.712  1.00  0.00    -0.163 NA
ATOM     15  C   UNL     1       1.266   7.428   4.855  1.00  0.00     0.167 A 
ATOM     16  C   UNL     1       2.484   6.841   5.276  1.00  0.00     0.064 A 
BRANCH  13  17
ATOM     17  C   UNL     1       1.320   4.785   2.575  1.00  0.00     0.065 A 
ATOM     18  C   UNL     1       0.812   2.825   0.660  1.00  0.00     0.082 A 
ATOM     19  C   UNL     1       1.267   2.447   1.923  1.00  0.00     0.024 A 
ATOM     20  C   UNL     1       0.582   4.173   0.358  1.00  0.00     0.024 A 
ATOM     21  C   UNL     1       1.526   3.429   2.877  1.00  0.00     0.030 A 
ATOM     22  C   UNL     1       0.807   5.156   1.327  1.00  0.00     0.030 A 
BRANCH  18  23
ATOM     23  S   UNL     1       0.539   1.616  -0.601  1.00  0.00     0.238 S 
ATOM     24  O   UNL     1       1.301   2.006  -1.774  1.00  0.00    -0.207 OA
ATOM     25  O   UNL     1      -0.862   1.308  -0.643  1.00  0.00    -0.207 OA
BRANCH  23  26
ATOM     26  N   UNL     1       1.302   0.227  -0.034  1.00  0.00    -0.225 NA
ATOM     27  H   UNL     1       1.188  -0.525  -0.713  1.00  0.00     0.137 HD
ATOM     28  H   UNL     1       0.884  -0.052   0.855  1.00  0.00     0.137 HD
ENDBRANCH  23  26
ENDBRANCH  18  23
ENDBRANCH  13  17
BRANCH  15  29
ATOM     29  C   UNL     1       0.528   8.530   5.568  1.00  0.00     0.435 C 
ATOM     30  F   UNL     1       0.252   9.592   4.770  1.00  0.00    -0.164 F 
ATOM     31  F   UNL     1      -0.652   8.098   6.089  1.00  0.00    -0.164 F 
ATOM     32  F   UNL     1       1.249   9.013   6.619  1.00  0.00    -0.164 F 
ENDBRANCH  15  29
ENDBRANCH   7  12
ENDBRANCH   3   6
ENDBRANCH   1   2
BRANCH   1  33
ATOM     33  C   UNL     1       6.474   0.191   6.919  1.00  0.00     0.023 C 
BRANCH  33  34
ATOM     34  C   UNL     1       7.210  -1.156   6.956  1.00  0.00     0.023 C 
BRANCH  34  35
ATOM     35  C   UNL     1       8.239  -1.290   8.074  1.00  0.00     0.116 C 
BRANCH  35  36
ATOM     36  N   UNL     1       7.647  -1.169   9.405  1.00  0.00    -0.352 N 
ATOM     37  C   UNL     1       8.289  -0.934  10.604  1.00  0.00     0.251 C 
ATOM     38  H   UNL     1       6.669  -1.268   9.452  1.00  0.00     0.163 HD
ATOM     39  O   UNL     1       7.771  -1.244  11.670  1.00  0.00    -0.269 OA
BRANCH  37  40
ATOM     40  C   UNL     1       9.608  -0.283  10.583  1.00  0.00     0.039 A 
ATOM     41  C   UNL     1      10.661  -0.750  11.373  1.00  0.00     0.014 A 
ATOM     42  C   UNL     1       9.785   0.797   9.722  1.00  0.00     0.014 A 
ATOM     43  C   UNL     1      11.920  -0.176  11.218  1.00  0.00     0.010 A 
ATOM     44  C   UNL     1      11.049   1.276   9.477  1.00  0.00     0.010 A 
ATOM     45  C   UNL     1      12.115   0.820  10.247  1.00  0.00    -0.014 A 
BRANCH  45  46
ATOM     46  C   UNL     1      13.461   1.294   9.933  1.00  0.00     0.031 A 
ATOM     47  C   UNL     1      14.433   0.224   9.574  1.00  0.00     0.074 A 
ATOM     48  C   UNL     1      13.770   2.596   9.752  1.00  0.00     0.049 A 
ATOM     49  N   UNL     1      15.483  -0.135  10.235  1.00  0.00    -0.248 NA
ATOM     50  C   UNL     1      14.145  -0.623   8.405  1.00  0.00     0.031 C 
ATOM     51  C   UNL     1      12.870   3.755   9.753  1.00  0.00     0.029 A 
ATOM     52  N   UNL     1      14.964   3.148   9.400  1.00  0.00    -0.354 N 
ATOM     53  C   UNL     1      16.103  -1.121   9.472  1.00  0.00     0.074 A 
ATOM     54  C   UNL     1      15.155  -1.495   8.452  1.00  0.00     0.031 C 
ATOM     55  C   UNL     1      13.491   4.811   9.181  1.00  0.00     0.029 A 
ATOM     56  C   UNL     1      14.877   4.457   8.939  1.00  0.00     0.049 A 
ATOM     57  H   UNL     1      15.817   2.661   9.466  1.00  0.00     0.167 HD
ATOM     58  C   UNL     1      17.438  -1.371   9.589  1.00  0.00     0.031 A 
ATOM     59  C   UNL     1      15.869   5.189   8.376  1.00  0.00     0.031 A 
ATOM     60  C   UNL     1      17.985  -0.777  10.783  1.00  0.00     0.049 A 
ATOM     61  C   UNL     1      17.153   4.565   8.764  1.00  0.00     0.074 A 
ATOM     62  C   UNL     1      17.725  -0.885  12.135  1.00  0.00     0.029 A 
ATOM     63  N   UNL     1      18.698   0.389  10.631  1.00  0.00    -0.354 N 
ATOM     64  N   UNL     1      17.605   4.564   9.984  1.00  0.00    -0.248 NA
ATOM     65  C   UNL     1      17.722   3.559   7.884  1.00  0.00     0.031 C 
ATOM     66  C   UNL     1      17.847   0.446  12.636  1.00  0.00     0.029 A 
ATOM     67  C   UNL     1      18.252   1.267  11.582  1.00  0.00     0.049 A 
ATOM     68  H   UNL     1      19.399   0.561   9.962  1.00  0.00     0.167 HD
ATOM     69  C   UNL     1      18.149   3.300  10.152  1.00  0.00     0.074 A 
ATOM     70  C   UNL     1      18.295   2.769   8.797  1.00  0.00     0.031 C 
ATOM     71  C   UNL     1      18.157   2.695  11.377  1.00  0.00     0.031 A 
BRANCH  58  72
ATOM     72  C   UNL     1      18.323  -1.763   8.428  1.00  0.00    -0.014 A 
ATOM     73  C   UNL     1      19.695  -1.971   8.670  1.00  0.00     0.009 A 
ATOM     74  C   UNL     1      17.935  -1.641   7.081  1.00  0.00     0.009 A 
ATOM     75  C   UNL     1      20.632  -1.953   7.630  1.00  0.00     0.001 A 
ATOM     76  C   UNL     1      18.863  -1.667   6.036  1.00  0.00     0.001 A 
ATOM     77  C   UNL     1      20.216  -1.788   6.314  1.00  0.00     0.000 A 
ENDBRANCH  58  72
BRANCH  59  78
ATOM     78  C   UNL     1      15.795   6.246   7.345  1.00  0.00    -0.014 A 
ATOM     79  C   UNL     1      16.888   7.098   7.116  1.00  0.00     0.009 A 
ATOM     80  C   UNL     1      14.762   6.235   6.390  1.00  0.00     0.009 A 
ATOM     81  C   UNL     1      16.970   7.867   5.947  1.00  0.00     0.001 A 
ATOM     82  C   UNL     1      14.842   7.007   5.226  1.00  0.00     0.001 A 
ATOM     83  C   UNL     1      15.956   7.808   4.995  1.00  0.00     0.000 A 
ENDBRANCH  59  78
BRANCH  71  84
ATOM     84  C   UNL     1      17.784   3.525  12.582  1.00  0.00    -0.014 A 
ATOM     85  C   UNL     1      16.536   4.156  12.730  1.00  0.00     0.009 A 
ATOM     86  C   UNL     1      18.669   3.543  13.670  1.00  0.00     0.009 A 
ATOM     87  C   UNL     1      16.200   4.813  13.920  1.00  0.00     0.001 A 
ATOM     88  C   UNL     1      18.325   4.178  14.865  1.00  0.00     0.001 A 
ATOM     89  C   UNL     1      17.094   4.819  14.988  1.00  0.00     0.000 A 
ENDBRANCH  71  84
ENDBRANCH  45  46
ENDBRANCH  37  40
ENDBRANCH  35  36
ENDBRANCH  34  35
ENDBRANCH  33  34
ENDBRANCH   1  33
TORSDOF 16
