REMARK SMILES Cc1ccc(S(=O)(=O)n2cc(C(=O)C(=O)N[C@@H](Cc3c[nH]c4ccccc34)C(=O)NCCCCNC(=O)c3ccc(-c4c5nc(c(-c6ccccc6)c6ccc([nH]6)c(-c6ccccc6)c6nc(c(-c7ccccc7)c7ccc4[nH]7)C=C6)C=C5)cc3)c3ccccc32)cc1
REMARK SMILES IDX 31 1 30 2 28 3 29 4 17 6 16 7 14 8 15 9 12 11 13 12 11 13
REMARK SMILES IDX 9 14 10 15 91 16 86 17 90 18 87 19 89 20 88 21 6 22 7 23
REMARK SMILES IDX 8 24 5 25 1 26 2 27 3 28 93 29 4 30 92 31 18 32 19 33 20 34
REMARK SMILES IDX 27 35 21 36 22 37 26 38 23 40 25 41 24 42 32 43 33 44 34 45
REMARK SMILES IDX 35 46 36 47 37 49 38 50 39 51 85 52 40 53 84 54 41 55 42 56
REMARK SMILES IDX 43 57 78 58 44 59 83 60 77 61 79 62 45 63 82 64 76 65 75 66
REMARK SMILES IDX 46 68 68 69 53 70 67 71 54 72 57 73 66 74 80 75 55 76 56 77
REMARK SMILES IDX 65 79 81 80 58 81 47 82 48 83 52 84 49 85 51 86 50 87 69 88
REMARK SMILES IDX 70 89 74 90 71 91 73 92 72 93 59 94 60 95 64 96 61 97 63 98
REMARK SMILES IDX 62 99
REMARK H PARENT 30 5 16 10 21 39 35 48 79 67 57 78
REMARK Flexibility Score: inf
ROOT
ATOM      1  C   UNL     1     -12.033   4.331  -1.548  1.00  0.00     0.116 C 
ENDROOT
BRANCH   1   2
ATOM      2  N   UNL     1     -11.927   2.990  -2.077  1.00  0.00    -0.354 N 
ATOM      3  C   UNL     1     -11.565   1.849  -1.406  1.00  0.00     0.242 C 
ATOM      4  O   UNL     1     -12.084   0.795  -1.796  1.00  0.00    -0.273 OA
ATOM      5  H   UNL     1     -12.139   2.883  -3.033  1.00  0.00     0.163 HD
BRANCH   3   6
ATOM      6  C   UNL     1     -10.669   1.847  -0.129  1.00  0.00     0.176 C 
BRANCH   6   7
ATOM      7  N   UNL     1      -9.510   2.769  -0.170  1.00  0.00    -0.337 N 
ATOM      8  C   UNL     1      -8.172   2.544  -0.467  1.00  0.00     0.293 C 
ATOM      9  O   UNL     1      -7.349   3.444  -0.332  1.00  0.00    -0.265 OA
ATOM     10  H   UNL     1      -9.726   3.704   0.052  1.00  0.00     0.164 HD
BRANCH   8  11
ATOM     11  C   UNL     1      -7.708   1.185  -1.000  1.00  0.00     0.252 C 
ATOM     12  O   UNL     1      -8.404   0.705  -1.895  1.00  0.00    -0.283 OA
BRANCH  11  13
ATOM     13  C   UNL     1      -6.577   0.433  -0.415  1.00  0.00     0.054 A 
ATOM     14  N   UNL     1      -4.624  -0.286   0.499  1.00  0.00    -0.240 N 
ATOM     15  C   UNL     1      -5.284   0.827  -0.035  1.00  0.00     0.117 A 
ATOM     16  C   UNL     1      -5.581  -1.306   0.643  1.00  0.00     0.065 A 
ATOM     17  C   UNL     1      -6.614  -0.984  -0.233  1.00  0.00     0.012 A 
ATOM     18  C   UNL     1      -5.484  -2.587   1.224  1.00  0.00     0.028 A 
ATOM     19  C   UNL     1      -7.449  -2.022  -0.699  1.00  0.00     0.011 A 
ATOM     20  C   UNL     1      -6.272  -3.607   0.695  1.00  0.00     0.002 A 
ATOM     21  C   UNL     1      -7.213  -3.337  -0.288  1.00  0.00     0.001 A 
BRANCH  14  22
ATOM     22  S   UNL     1      -3.084  -0.940  -0.027  1.00  0.00     0.268 S 
ATOM     23  O   UNL     1      -3.347  -1.332  -1.402  1.00  0.00    -0.201 OA
ATOM     24  O   UNL     1      -2.810  -1.938   1.000  1.00  0.00    -0.201 OA
BRANCH  22  25
ATOM     25  C   UNL     1      -1.540  -0.102  -0.079  1.00  0.00     0.088 A 
ATOM     26  C   UNL     1       2.652   0.965  -0.034  1.00  0.00     0.044 C 
ATOM     27  C   UNL     1       1.186   0.640  -0.092  1.00  0.00    -0.051 A 
ATOM     28  C   UNL     1       0.837  -0.676  -0.354  1.00  0.00     0.005 A 
ATOM     29  C   UNL     1       0.161   1.582   0.158  1.00  0.00     0.005 A 
ATOM     30  C   UNL     1      -0.501  -1.029  -0.359  1.00  0.00     0.022 A 
ATOM     31  C   UNL     1      -1.213   1.218   0.172  1.00  0.00     0.022 A 
ENDBRANCH  22  25
ENDBRANCH  14  22
ENDBRANCH  11  13
ENDBRANCH   8  11
ENDBRANCH   6   7
BRANCH   6  32
ATOM     32  C   UNL     1     -11.503   1.920   1.197  1.00  0.00     0.072 C 
BRANCH  32  33
ATOM     33  C   UNL     1     -12.201   3.220   1.530  1.00  0.00    -0.020 A 
ATOM     34  C   UNL     1     -13.569   3.441   1.531  1.00  0.00     0.087 A 
ATOM     35  C   UNL     1     -11.594   4.488   1.840  1.00  0.00     0.003 A 
ATOM     36  N   UNL     1     -13.791   4.783   1.709  1.00  0.00    -0.361 N 
ATOM     37  C   UNL     1     -12.594   5.455   1.730  1.00  0.00     0.046 A 
ATOM     38  C   UNL     1     -10.268   4.923   2.035  1.00  0.00     0.010 A 
ATOM     39  H   UNL     1     -14.677   5.201   1.806  1.00  0.00     0.166 HD
ATOM     40  C   UNL     1     -12.319   6.824   1.641  1.00  0.00     0.026 A 
ATOM     41  C   UNL     1      -9.971   6.286   1.935  1.00  0.00     0.001 A 
ATOM     42  C   UNL     1     -10.980   7.218   1.706  1.00  0.00     0.002 A 
ENDBRANCH  32  33
ENDBRANCH   6  32
ENDBRANCH   3   6
ENDBRANCH   1   2
BRANCH   1  43
ATOM     43  C   UNL     1     -11.359   5.442  -2.342  1.00  0.00     0.023 C 
BRANCH  43  44
ATOM     44  C   UNL     1     -12.066   5.891  -3.614  1.00  0.00     0.023 C 
BRANCH  44  45
ATOM     45  C   UNL     1     -13.476   6.439  -3.429  1.00  0.00     0.116 C 
BRANCH  45  46
ATOM     46  N   UNL     1     -13.581   7.790  -2.901  1.00  0.00    -0.352 N 
ATOM     47  C   UNL     1     -14.708   8.549  -2.601  1.00  0.00     0.251 C 
ATOM     48  H   UNL     1     -12.721   8.237  -2.730  1.00  0.00     0.163 HD
ATOM     49  O   UNL     1     -14.568   9.710  -2.268  1.00  0.00    -0.269 OA
BRANCH  47  50
ATOM     50  C   UNL     1     -16.067   7.924  -2.536  1.00  0.00     0.039 A 
ATOM     51  C   UNL     1     -16.983   8.449  -1.609  1.00  0.00     0.014 A 
ATOM     52  C   UNL     1     -16.387   6.747  -3.202  1.00  0.00     0.014 A 
ATOM     53  C   UNL     1     -18.046   7.665  -1.161  1.00  0.00     0.010 A 
ATOM     54  C   UNL     1     -17.361   5.921  -2.686  1.00  0.00     0.010 A 
ATOM     55  C   UNL     1     -18.139   6.354  -1.613  1.00  0.00    -0.014 A 
BRANCH  55  56
ATOM     56  C   UNL     1     -18.881   5.304  -0.932  1.00  0.00     0.031 A 
ATOM     57  C   UNL     1     -20.107   4.741  -1.514  1.00  0.00     0.074 A 
ATOM     58  C   UNL     1     -18.304   4.731   0.146  1.00  0.00     0.049 A 
ATOM     59  N   UNL     1     -20.955   4.032  -0.853  1.00  0.00    -0.248 NA
ATOM     60  C   UNL     1     -20.513   4.994  -2.893  1.00  0.00     0.031 C 
ATOM     61  C   UNL     1     -18.605   3.444   0.764  1.00  0.00     0.029 A 
ATOM     62  N   UNL     1     -17.380   5.321   1.010  1.00  0.00    -0.354 N 
ATOM     63  C   UNL     1     -21.821   3.481  -1.766  1.00  0.00     0.074 A 
ATOM     64  C   UNL     1     -21.601   4.223  -2.984  1.00  0.00     0.031 C 
ATOM     65  C   UNL     1     -18.087   3.428   2.005  1.00  0.00     0.029 A 
ATOM     66  C   UNL     1     -17.606   4.772   2.286  1.00  0.00     0.049 A 
ATOM     67  H   UNL     1     -16.700   5.992   0.772  1.00  0.00     0.167 HD
ATOM     68  C   UNL     1     -22.507   2.354  -1.427  1.00  0.00     0.031 A 
ATOM     69  C   UNL     1     -18.090   5.556   3.297  1.00  0.00     0.031 A 
ATOM     70  C   UNL     1     -22.349   2.041  -0.005  1.00  0.00     0.049 A 
ATOM     71  C   UNL     1     -19.466   5.151   3.790  1.00  0.00     0.074 A 
ATOM     72  C   UNL     1     -21.612   1.089   0.679  1.00  0.00     0.029 A 
ATOM     73  N   UNL     1     -22.786   2.959   0.944  1.00  0.00    -0.354 N 
ATOM     74  N   UNL     1     -20.280   4.377   3.128  1.00  0.00    -0.248 NA
ATOM     75  C   UNL     1     -20.047   5.624   5.045  1.00  0.00     0.031 C 
ATOM     76  C   UNL     1     -21.515   1.508   2.035  1.00  0.00     0.029 A 
ATOM     77  C   UNL     1     -22.233   2.683   2.179  1.00  0.00     0.049 A 
ATOM     78  H   UNL     1     -23.404   3.703   0.761  1.00  0.00     0.167 HD
ATOM     79  C   UNL     1     -21.462   4.261   3.810  1.00  0.00     0.074 A 
ATOM     80  C   UNL     1     -21.261   5.046   5.015  1.00  0.00     0.031 C 
ATOM     81  C   UNL     1     -22.516   3.550   3.315  1.00  0.00     0.031 A 
BRANCH  68  82
ATOM     82  C   UNL     1     -23.122   1.389  -2.419  1.00  0.00    -0.014 A 
ATOM     83  C   UNL     1     -23.634   0.161  -1.959  1.00  0.00     0.009 A 
ATOM     84  C   UNL     1     -23.143   1.568  -3.814  1.00  0.00     0.009 A 
ATOM     85  C   UNL     1     -24.099  -0.831  -2.836  1.00  0.00     0.001 A 
ATOM     86  C   UNL     1     -23.622   0.590  -4.698  1.00  0.00     0.001 A 
ATOM     87  C   UNL     1     -24.091  -0.617  -4.208  1.00  0.00     0.000 A 
ENDBRANCH  68  82
BRANCH  69  88
ATOM     88  C   UNL     1     -17.613   6.967   3.240  1.00  0.00    -0.014 A 
ATOM     89  C   UNL     1     -16.265   7.240   3.540  1.00  0.00     0.009 A 
ATOM     90  C   UNL     1     -18.359   7.943   2.562  1.00  0.00     0.009 A 
ATOM     91  C   UNL     1     -15.653   8.409   3.076  1.00  0.00     0.001 A 
ATOM     92  C   UNL     1     -17.742   9.113   2.102  1.00  0.00     0.001 A 
ATOM     93  C   UNL     1     -16.383   9.328   2.326  1.00  0.00     0.000 A 
ENDBRANCH  69  88
BRANCH  81  94
ATOM     94  C   UNL     1     -23.918   3.566   3.869  1.00  0.00    -0.014 A 
ATOM     95  C   UNL     1     -24.466   4.634   4.592  1.00  0.00     0.009 A 
ATOM     96  C   UNL     1     -24.797   2.516   3.520  1.00  0.00     0.009 A 
ATOM     97  C   UNL     1     -25.813   4.632   4.982  1.00  0.00     0.001 A 
ATOM     98  C   UNL     1     -26.150   2.533   3.867  1.00  0.00     0.001 A 
ATOM     99  C   UNL     1     -26.656   3.589   4.610  1.00  0.00     0.000 A 
ENDBRANCH  81  94
ENDBRANCH  55  56
ENDBRANCH  47  50
ENDBRANCH  45  46
ENDBRANCH  44  45
ENDBRANCH  43  44
ENDBRANCH   1  43
TORSDOF 18
