REMARK SMILES O=C(NCCCCNC(=O)[C@H]1[C@H]2CC[C@H](C2)[C@@H]1C(=O)N1CCN(c2cccc(Cl)c2)CC1)c1ccc(-c2c3nc(c(-c4ccccc4)c4ccc([nH]4)c(-c4ccccc4)c4nc(c(-c5ccccc5)c5ccc2[nH]5)C=C4)C=C3)cc1
REMARK SMILES IDX 5 1 4 2 3 3 1 4 2 5 33 7 34 8 80 9 35 10 79 11 36 12 37 13
REMARK SMILES IDX 38 14 73 15 39 16 78 17 72 18 74 19 40 20 77 21 71 22 70 23
REMARK SMILES IDX 41 25 63 26 48 27 62 28 49 29 52 30 61 31 75 32 50 33 51 34
REMARK SMILES IDX 60 36 76 37 53 38 42 39 43 40 47 41 44 42 46 43 45 44 64 45
REMARK SMILES IDX 65 46 69 47 66 48 68 49 67 50 54 51 55 52 59 53 56 54 58 55
REMARK SMILES IDX 57 56 6 57 7 58 8 59 9 60 10 62 11 63 12 64 17 65 13 66
REMARK SMILES IDX 16 67 15 68 14 69 18 70 19 71 20 72 21 73 32 74 22 75 31 76
REMARK SMILES IDX 23 77 24 78 25 79 30 80 26 81 28 82 27 83 29 84
REMARK H PARENT 3 6 74 24 52 35 8 61
REMARK Flexibility Score: inf
ROOT
ATOM      1  C   UNL     1       2.599   3.609  -4.287  1.00  0.00     0.023 C 
ENDROOT
BRANCH   1   2
ATOM      2  C   UNL     1       2.114   3.082  -2.949  1.00  0.00     0.116 C 
BRANCH   2   3
ATOM      3  N   UNL     1       2.649   3.813  -1.808  1.00  0.00    -0.352 N 
ATOM      4  O   UNL     1       2.547   4.922   0.164  1.00  0.00    -0.269 OA
ATOM      5  C   UNL     1       1.987   4.227  -0.678  1.00  0.00     0.251 C 
ATOM      6  H   UNL     1       3.607   4.038  -1.853  1.00  0.00     0.163 HD
BRANCH   5   7
ATOM      7  C   UNL     1       0.570   3.852  -0.512  1.00  0.00     0.039 A 
ATOM      8  C   UNL     1       0.169   2.531  -0.719  1.00  0.00     0.014 A 
ATOM      9  C   UNL     1      -0.369   4.843  -0.216  1.00  0.00     0.014 A 
ATOM     10  C   UNL     1      -1.183   2.231  -0.788  1.00  0.00     0.010 A 
ATOM     11  C   UNL     1      -1.727   4.518  -0.192  1.00  0.00     0.010 A 
ATOM     12  C   UNL     1      -2.145   3.217  -0.512  1.00  0.00    -0.014 A 
BRANCH  12  13
ATOM     13  C   UNL     1      -3.576   2.835  -0.506  1.00  0.00     0.031 A 
ATOM     14  C   UNL     1      -4.540   3.391  -1.515  1.00  0.00     0.074 A 
ATOM     15  C   UNL     1      -3.986   1.925   0.399  1.00  0.00     0.049 A 
ATOM     16  N   UNL     1      -5.813   3.122  -1.665  1.00  0.00    -0.248 NA
ATOM     17  C   UNL     1      -4.017   4.375  -2.476  1.00  0.00     0.031 C 
ATOM     18  C   UNL     1      -3.134   1.317   1.426  1.00  0.00     0.029 A 
ATOM     19  N   UNL     1      -5.204   1.328   0.581  1.00  0.00    -0.354 N 
ATOM     20  C   UNL     1      -6.248   3.913  -2.721  1.00  0.00     0.074 A 
ATOM     21  C   UNL     1      -5.108   4.688  -3.163  1.00  0.00     0.031 C 
ATOM     22  C   UNL     1      -3.839   0.389   2.087  1.00  0.00     0.029 A 
ATOM     23  C   UNL     1      -5.204   0.384   1.578  1.00  0.00     0.049 A 
ATOM     24  H   UNL     1      -6.002   1.553   0.049  1.00  0.00     0.167 HD
ATOM     25  C   UNL     1      -7.484   3.983  -3.271  1.00  0.00     0.031 A 
ATOM     26  C   UNL     1      -6.197  -0.394   2.043  1.00  0.00     0.031 A 
ATOM     27  C   UNL     1      -8.615   3.211  -2.827  1.00  0.00     0.049 A 
ATOM     28  C   UNL     1      -7.557  -0.280   1.427  1.00  0.00     0.074 A 
ATOM     29  C   UNL     1      -9.909   3.211  -3.321  1.00  0.00     0.029 A 
ATOM     30  N   UNL     1      -8.585   2.295  -1.786  1.00  0.00    -0.354 N 
ATOM     31  N   UNL     1      -7.948   0.474   0.429  1.00  0.00    -0.248 NA
ATOM     32  C   UNL     1      -8.613  -1.121   2.004  1.00  0.00     0.031 C 
ATOM     33  C   UNL     1     -10.671   2.321  -2.555  1.00  0.00     0.029 A 
ATOM     34  C   UNL     1      -9.840   1.735  -1.614  1.00  0.00     0.049 A 
ATOM     35  H   UNL     1      -7.790   2.076  -1.249  1.00  0.00     0.167 HD
ATOM     36  C   UNL     1      -9.296   0.197   0.254  1.00  0.00     0.074 A 
ATOM     37  C   UNL     1      -9.646  -0.816   1.230  1.00  0.00     0.031 C 
ATOM     38  C   UNL     1     -10.168   0.738  -0.629  1.00  0.00     0.031 A 
BRANCH  25  39
ATOM     39  C   UNL     1      -7.686   4.949  -4.405  1.00  0.00    -0.014 A 
ATOM     40  C   UNL     1      -7.192   4.674  -5.690  1.00  0.00     0.009 A 
ATOM     41  C   UNL     1      -8.426   6.124  -4.199  1.00  0.00     0.009 A 
ATOM     42  C   UNL     1      -7.414   5.570  -6.739  1.00  0.00     0.001 A 
ATOM     43  C   UNL     1      -8.665   7.006  -5.254  1.00  0.00     0.001 A 
ATOM     44  C   UNL     1      -8.154   6.732  -6.521  1.00  0.00     0.000 A 
ENDBRANCH  25  39
BRANCH  26  45
ATOM     45  C   UNL     1      -5.934  -1.331   3.163  1.00  0.00    -0.014 A 
ATOM     46  C   UNL     1      -5.908  -2.716   2.946  1.00  0.00     0.009 A 
ATOM     47  C   UNL     1      -5.684  -0.838   4.454  1.00  0.00     0.009 A 
ATOM     48  C   UNL     1      -5.654  -3.590   4.005  1.00  0.00     0.001 A 
ATOM     49  C   UNL     1      -5.402  -1.713   5.503  1.00  0.00     0.001 A 
ATOM     50  C   UNL     1      -5.395  -3.088   5.280  1.00  0.00     0.000 A 
ENDBRANCH  26  45
BRANCH  38  51
ATOM     51  C   UNL     1     -11.577   0.226  -0.580  1.00  0.00    -0.014 A 
ATOM     52  C   UNL     1     -12.447   0.605   0.454  1.00  0.00     0.009 A 
ATOM     53  C   UNL     1     -12.040  -0.639  -1.583  1.00  0.00     0.009 A 
ATOM     54  C   UNL     1     -13.746   0.097   0.502  1.00  0.00     0.001 A 
ATOM     55  C   UNL     1     -13.347  -1.127  -1.544  1.00  0.00     0.001 A 
ATOM     56  C   UNL     1     -14.195  -0.767  -0.498  1.00  0.00     0.000 A 
ENDBRANCH  38  51
ENDBRANCH  12  13
ENDBRANCH   5   7
ENDBRANCH   2   3
ENDBRANCH   1   2
BRANCH   1  57
ATOM     57  C   UNL     1       4.112   3.598  -4.463  1.00  0.00     0.023 C 
BRANCH  57  58
ATOM     58  C   UNL     1       4.767   2.231  -4.308  1.00  0.00     0.116 C 
BRANCH  58  59
ATOM     59  N   UNL     1       4.407   1.320  -5.368  1.00  0.00    -0.356 N 
ATOM     60  C   UNL     1       5.122   0.913  -6.450  1.00  0.00     0.224 C 
ATOM     61  H   UNL     1       3.504   0.934  -5.296  1.00  0.00     0.163 HD
ATOM     62  O   UNL     1       4.642  -0.016  -7.102  1.00  0.00    -0.275 OA
BRANCH  60  63
ATOM     63  C   UNL     1       6.500   1.504  -6.761  1.00  0.00     0.094 C 
ATOM     64  C   UNL     1       7.069   0.948  -8.104  1.00  0.00     0.002 C 
ATOM     65  C   UNL     1       6.585   3.035  -6.994  1.00  0.00     0.094 C 
ATOM     66  C   UNL     1       6.172   1.294  -9.314  1.00  0.00     0.005 C 
ATOM     67  C   UNL     1       8.233   1.900  -8.351  1.00  0.00     0.009 C 
ATOM     68  C   UNL     1       7.340   3.144  -8.340  1.00  0.00     0.002 C 
ATOM     69  C   UNL     1       6.351   2.809  -9.469  1.00  0.00     0.005 C 
BRANCH  65  70
ATOM     70  C   UNL     1       7.257   3.836  -5.867  1.00  0.00     0.226 C 
ATOM     71  O   UNL     1       6.699   4.804  -5.352  1.00  0.00    -0.275 OA
ATOM     72  N   UNL     1       8.479   3.393  -5.401  1.00  0.00    -0.339 N 
ATOM     73  C   UNL     1       8.624   3.218  -3.950  1.00  0.00     0.141 C 
ATOM     74  C   UNL     1       9.681   3.987  -5.995  1.00  0.00     0.141 C 
ATOM     75  C   UNL     1       9.839   2.341  -3.608  1.00  0.00     0.138 C 
ATOM     76  C   UNL     1      10.944   3.168  -5.684  1.00  0.00     0.138 C 
ATOM     77  N   UNL     1      11.044   2.900  -4.236  1.00  0.00    -0.368 N 
BRANCH  77  78
ATOM     78  C   UNL     1      12.301   2.540  -3.770  1.00  0.00     0.038 A 
ATOM     79  C   UNL     1      13.329   3.494  -3.778  1.00  0.00     0.026 A 
ATOM     80  C   UNL     1      12.597   1.258  -3.294  1.00  0.00     0.046 A 
ATOM     81  C   UNL     1      14.614   3.187  -3.329  1.00  0.00     0.004 A 
ATOM     82  C   UNL     1      13.886   0.945  -2.856  1.00  0.00     0.043 A 
ATOM     83  C   UNL     1      14.895   1.904  -2.869  1.00  0.00     0.020 A 
ATOM     84  Cl  UNL     1      14.235  -0.648  -2.304  1.00  0.00    -0.084 Cl
ENDBRANCH  77  78
ENDBRANCH  65  70
ENDBRANCH  60  63
ENDBRANCH  58  59
ENDBRANCH  57  58
ENDBRANCH   1  57
TORSDOF 13
