REMARK SMILES Cn1c(=O)c(=O)n(C)c2cc(S(=O)(=O)N3CCC[C@H]3C(=O)NCCCCNC(=O)c3ccc(-c4c5nc(c(-c6ccccc6)c6ccc([nH]6)c(-c6ccccc6)c6nc(c(-c7ccccc7)c7ccc4[nH]7)C=C6)C=C5)cc3)ccc21
REMARK SMILES IDX 24 1 23 2 22 3 20 4 21 5 19 7 15 8 16 9 17 10 18 11 12 12
REMARK SMILES IDX 13 13 14 14 11 15 1 16 2 17 3 18 80 19 4 20 5 21 9 22 79 23
REMARK SMILES IDX 6 24 7 25 10 26 78 27 8 28 25 29 26 30 27 31 28 32 29 34
REMARK SMILES IDX 30 35 31 36 77 37 32 38 76 39 33 40 34 41 35 42 70 43 36 44
REMARK SMILES IDX 75 45 69 46 71 47 37 48 74 49 68 50 67 51 38 53 60 54 45 55
REMARK SMILES IDX 59 56 46 57 49 58 58 59 72 60 47 61 48 62 57 64 73 65 50 66
REMARK SMILES IDX 39 67 40 68 44 69 41 70 43 71 42 72 61 73 62 74 66 75 63 76
REMARK SMILES IDX 65 77 64 78 51 79 52 80 56 81 53 82 55 83 54 84
REMARK H PARENT 22 6 27 33 71 52 49 63
REMARK Flexibility Score: inf
ROOT
ATOM      1  C   UNL     1       5.046   3.961  -4.917  1.00  0.00     0.023 C 
ENDROOT
BRANCH   1   2
ATOM      2  C   UNL     1       5.485   4.558  -3.579  1.00  0.00     0.116 C 
BRANCH   2   3
ATOM      3  N   UNL     1       5.284   6.000  -3.513  1.00  0.00    -0.355 N 
ATOM      4  C   UNL     1       4.220   6.704  -2.987  1.00  0.00     0.238 C 
ATOM      5  O   UNL     1       4.237   7.931  -3.039  1.00  0.00    -0.273 OA
ATOM      6  H   UNL     1       6.006   6.547  -3.898  1.00  0.00     0.163 HD
BRANCH   4   7
ATOM      7  C   UNL     1       3.064   5.897  -2.414  1.00  0.00     0.162 C 
ATOM      8  N   UNL     1       2.102   6.590  -1.532  1.00  0.00    -0.185 NA
ATOM      9  C   UNL     1       0.817   6.739  -2.227  1.00  0.00     0.103 C 
ATOM     10  C   UNL     1       0.760   5.534  -3.141  1.00  0.00     0.019 C 
ATOM     11  C   UNL     1       2.206   5.324  -3.552  1.00  0.00     0.032 C 
BRANCH   8  12
ATOM     12  S   UNL     1       2.139   6.289   0.127  1.00  0.00     0.243 S 
ATOM     13  O   UNL     1       1.176   7.170   0.743  1.00  0.00    -0.207 OA
ATOM     14  O   UNL     1       3.524   6.261   0.543  1.00  0.00    -0.207 OA
BRANCH  12  15
ATOM     15  C   UNL     1       1.532   4.616   0.396  1.00  0.00     0.084 A 
ATOM     16  C   UNL     1       0.645  -0.430   0.365  1.00  0.00     0.154 C 
ATOM     17  N   UNL     1       0.301   0.651   1.279  1.00  0.00    -0.305 N 
ATOM     18  C   UNL     1      -0.434   0.335   2.417  1.00  0.00     0.316 A 
ATOM     19  C   UNL     1       0.704   1.983   1.000  1.00  0.00     0.068 A 
ATOM     20  O   UNL     1      -0.825  -0.800   2.675  1.00  0.00    -0.263 OA
ATOM     21  C   UNL     1      -0.759   1.471   3.396  1.00  0.00     0.316 A 
ATOM     22  C   UNL     1       0.354   3.041   1.859  1.00  0.00     0.069 A 
ATOM     23  C   UNL     1       1.473   2.258  -0.134  1.00  0.00     0.030 A 
ATOM     24  O   UNL     1      -1.352   1.192   4.435  1.00  0.00    -0.263 OA
ATOM     25  N   UNL     1      -0.363   2.765   3.055  1.00  0.00    -0.305 N 
ATOM     26  C   UNL     1       0.754   4.357   1.532  1.00  0.00     0.050 A 
ATOM     27  C   UNL     1       1.897   3.552  -0.420  1.00  0.00     0.024 A 
ATOM     28  C   UNL     1      -0.663   3.833   3.996  1.00  0.00     0.154 C 
ENDBRANCH  12  15
ENDBRANCH   8  12
ENDBRANCH   4   7
ENDBRANCH   2   3
ENDBRANCH   1   2
BRANCH   1  29
ATOM     29  C   UNL     1       5.977   4.266  -6.085  1.00  0.00     0.023 C 
BRANCH  29  30
ATOM     30  C   UNL     1       7.381   3.701  -5.941  1.00  0.00     0.116 C 
BRANCH  30  31
ATOM     31  N   UNL     1       7.422   2.248  -5.846  1.00  0.00    -0.352 N 
ATOM     32  C   UNL     1       8.364   1.386  -6.362  1.00  0.00     0.251 C 
ATOM     33  H   UNL     1       6.682   1.829  -5.350  1.00  0.00     0.163 HD
ATOM     34  O   UNL     1       8.209   0.173  -6.281  1.00  0.00    -0.269 OA
BRANCH  32  35
ATOM     35  C   UNL     1       9.541   1.947  -7.061  1.00  0.00     0.039 A 
ATOM     36  C   UNL     1      10.244   3.016  -6.505  1.00  0.00     0.014 A 
ATOM     37  C   UNL     1       9.897   1.444  -8.315  1.00  0.00     0.014 A 
ATOM     38  C   UNL     1      11.173   3.698  -7.279  1.00  0.00     0.010 A 
ATOM     39  C   UNL     1      10.904   2.073  -9.052  1.00  0.00     0.010 A 
ATOM     40  C   UNL     1      11.514   3.238  -8.562  1.00  0.00    -0.014 A 
BRANCH  40  41
ATOM     41  C   UNL     1      12.520   3.997  -9.349  1.00  0.00     0.031 A 
ATOM     42  C   UNL     1      12.142   4.698 -10.626  1.00  0.00     0.074 A 
ATOM     43  C   UNL     1      13.764   4.132  -8.847  1.00  0.00     0.049 A 
ATOM     44  N   UNL     1      12.875   5.481 -11.378  1.00  0.00    -0.248 NA
ATOM     45  C   UNL     1      10.771   4.505 -11.128  1.00  0.00     0.031 C 
ATOM     46  C   UNL     1      14.241   3.519  -7.604  1.00  0.00     0.029 A 
ATOM     47  N   UNL     1      14.835   4.870  -9.284  1.00  0.00    -0.354 N 
ATOM     48  C   UNL     1      12.065   5.859 -12.441  1.00  0.00     0.074 A 
ATOM     49  C   UNL     1      10.790   5.204 -12.256  1.00  0.00     0.031 C 
ATOM     50  C   UNL     1      15.470   3.978  -7.332  1.00  0.00     0.029 A 
ATOM     51  C   UNL     1      15.899   4.857  -8.414  1.00  0.00     0.049 A 
ATOM     52  H   UNL     1      14.841   5.360 -10.138  1.00  0.00     0.167 HD
ATOM     53  C   UNL     1      12.357   6.687 -13.472  1.00  0.00     0.031 A 
ATOM     54  C   UNL     1      17.089   5.484  -8.473  1.00  0.00     0.031 A 
ATOM     55  C   UNL     1      13.620   7.354 -13.647  1.00  0.00     0.049 A 
ATOM     56  C   UNL     1      17.396   6.357  -9.654  1.00  0.00     0.074 A 
ATOM     57  C   UNL     1      13.999   8.220 -14.660  1.00  0.00     0.029 A 
ATOM     58  N   UNL     1      14.703   7.241 -12.791  1.00  0.00    -0.354 N 
ATOM     59  N   UNL     1      16.617   6.699 -10.650  1.00  0.00    -0.248 NA
ATOM     60  C   UNL     1      18.750   6.924  -9.722  1.00  0.00     0.031 C 
ATOM     61  C   UNL     1      15.328   8.590 -14.444  1.00  0.00     0.029 A 
ATOM     62  C   UNL     1      15.757   8.003 -13.265  1.00  0.00     0.049 A 
ATOM     63  H   UNL     1      14.720   6.699 -11.969  1.00  0.00     0.167 HD
ATOM     64  C   UNL     1      17.381   7.530 -11.458  1.00  0.00     0.074 A 
ATOM     65  C   UNL     1      18.676   7.662 -10.822  1.00  0.00     0.031 C 
ATOM     66  C   UNL     1      17.040   8.125 -12.625  1.00  0.00     0.031 A 
BRANCH  53  67
ATOM     67  C   UNL     1      11.300   6.933 -14.513  1.00  0.00    -0.014 A 
ATOM     68  C   UNL     1      11.462   6.409 -15.806  1.00  0.00     0.009 A 
ATOM     69  C   UNL     1      10.217   7.787 -14.256  1.00  0.00     0.009 A 
ATOM     70  C   UNL     1      10.574   6.753 -16.827  1.00  0.00     0.001 A 
ATOM     71  C   UNL     1       9.317   8.111 -15.274  1.00  0.00     0.001 A 
ATOM     72  C   UNL     1       9.502   7.603 -16.560  1.00  0.00     0.000 A 
ENDBRANCH  53  67
BRANCH  54  73
ATOM     73  C   UNL     1      18.070   5.314  -7.370  1.00  0.00    -0.014 A 
ATOM     74  C   UNL     1      18.681   4.072  -7.137  1.00  0.00     0.009 A 
ATOM     75  C   UNL     1      18.385   6.392  -6.529  1.00  0.00     0.009 A 
ATOM     76  C   UNL     1      19.569   3.905  -6.073  1.00  0.00     0.001 A 
ATOM     77  C   UNL     1      19.299   6.231  -5.485  1.00  0.00     0.001 A 
ATOM     78  C   UNL     1      19.883   4.987  -5.253  1.00  0.00     0.000 A 
ENDBRANCH  54  73
BRANCH  66  79
ATOM     79  C   UNL     1      18.072   8.986 -13.295  1.00  0.00    -0.014 A 
ATOM     80  C   UNL     1      17.893  10.378 -13.346  1.00  0.00     0.009 A 
ATOM     81  C   UNL     1      19.175   8.416 -13.947  1.00  0.00     0.009 A 
ATOM     82  C   UNL     1      18.794  11.182 -14.043  1.00  0.00     0.001 A 
ATOM     83  C   UNL     1      20.091   9.226 -14.621  1.00  0.00     0.001 A 
ATOM     84  C   UNL     1      19.896  10.606 -14.675  1.00  0.00     0.000 A 
ENDBRANCH  66  79
ENDBRANCH  40  41
ENDBRANCH  32  35
ENDBRANCH  30  31
ENDBRANCH  29  30
ENDBRANCH   1  29
TORSDOF 13
