REMARK SMILES O=C(NCCCCNC(=O)[C@H]1C[C@](O)(c2ccc(Cl)cc2)[C@@H](c2ccc(Cl)cc2)O1)c1ccc(-c2c3nc(c(-c4ccccc4)c4ccc([nH]4)c(-c4ccccc4)c4nc(c(-c5ccccc5)c5ccc2[nH]5)C=C4)C=C3)cc1
REMARK SMILES IDX 5 1 4 2 3 3 1 4 2 5 31 7 32 8 78 9 33 10 77 11 34 12 35 13
REMARK SMILES IDX 36 14 71 15 37 16 76 17 70 18 72 19 38 20 75 21 69 22 68 23
REMARK SMILES IDX 39 25 61 26 46 27 60 28 47 29 50 30 59 31 73 32 48 33 49 34
REMARK SMILES IDX 58 36 74 37 51 38 40 39 41 40 45 41 42 42 44 43 43 44 62 45
REMARK SMILES IDX 63 46 67 47 64 48 66 49 65 50 52 51 53 52 57 53 54 54 56 55
REMARK SMILES IDX 55 56 6 57 7 58 8 59 9 60 10 62 11 63 12 64 30 65 13 66
REMARK SMILES IDX 22 67 15 68 16 69 21 70 17 71 20 72 18 73 19 74 14 75 23 77
REMARK SMILES IDX 24 78 29 79 25 80 28 81 26 82 27 83
REMARK H PARENT 3 6 72 24 50 35 8 61 14 76
REMARK Flexibility Score: inf
ROOT
ATOM      1  C   UNL     1       4.556 -10.109  -3.986  1.00  0.00     0.023 C 
ENDROOT
BRANCH   1   2
ATOM      2  C   UNL     1       5.563 -11.200  -4.317  1.00  0.00     0.116 C 
BRANCH   2   3
ATOM      3  N   UNL     1       5.255 -12.476  -3.679  1.00  0.00    -0.352 N 
ATOM      4  O   UNL     1       4.225 -14.400  -3.166  1.00  0.00    -0.269 OA
ATOM      5  C   UNL     1       4.359 -13.485  -3.968  1.00  0.00     0.251 C 
ATOM      6  H   UNL     1       5.798 -12.653  -2.877  1.00  0.00     0.163 HD
BRANCH   5   7
ATOM      7  C   UNL     1       3.523 -13.461  -5.196  1.00  0.00     0.039 A 
ATOM      8  C   UNL     1       3.953 -12.826  -6.349  1.00  0.00     0.014 A 
ATOM      9  C   UNL     1       2.284 -14.117  -5.220  1.00  0.00     0.014 A 
ATOM     10  C   UNL     1       3.084 -12.606  -7.401  1.00  0.00     0.010 A 
ATOM     11  C   UNL     1       1.484 -14.079  -6.375  1.00  0.00     0.010 A 
ATOM     12  C   UNL     1       1.867 -13.292  -7.469  1.00  0.00    -0.014 A 
BRANCH  12  13
ATOM     13  C   UNL     1       1.113 -13.219  -8.751  1.00  0.00     0.031 A 
ATOM     14  C   UNL     1      -0.300 -12.715  -8.808  1.00  0.00     0.074 A 
ATOM     15  C   UNL     1       1.770 -13.525  -9.892  1.00  0.00     0.049 A 
ATOM     16  N   UNL     1      -1.060 -12.535  -9.859  1.00  0.00    -0.248 NA
ATOM     17  C   UNL     1      -0.953 -12.384  -7.532  1.00  0.00     0.031 C 
ATOM     18  C   UNL     1       3.149 -14.027  -9.964  1.00  0.00     0.029 A 
ATOM     19  N   UNL     1       1.406 -13.400 -11.208  1.00  0.00    -0.354 N 
ATOM     20  C   UNL     1      -2.289 -12.111  -9.372  1.00  0.00     0.074 A 
ATOM     21  C   UNL     1      -2.179 -12.073  -7.929  1.00  0.00     0.031 C 
ATOM     22  C   UNL     1       3.552 -14.042 -11.239  1.00  0.00     0.029 A 
ATOM     23  C   UNL     1       2.425 -13.685 -12.087  1.00  0.00     0.049 A 
ATOM     24  H   UNL     1       0.503 -13.131 -11.495  1.00  0.00     0.167 HD
ATOM     25  C   UNL     1      -3.407 -11.789 -10.067  1.00  0.00     0.031 A 
ATOM     26  C   UNL     1       2.452 -13.696 -13.431  1.00  0.00     0.031 A 
ATOM     27  C   UNL     1      -3.501 -11.821 -11.505  1.00  0.00     0.049 A 
ATOM     28  C   UNL     1       1.192 -13.366 -14.170  1.00  0.00     0.074 A 
ATOM     29  C   UNL     1      -4.584 -11.499 -12.305  1.00  0.00     0.029 A 
ATOM     30  N   UNL     1      -2.472 -12.195 -12.357  1.00  0.00    -0.354 N 
ATOM     31  N   UNL     1       0.037 -12.975 -13.690  1.00  0.00    -0.248 NA
ATOM     32  C   UNL     1       1.232 -13.501 -15.630  1.00  0.00     0.031 C 
ATOM     33  C   UNL     1      -4.228 -11.736 -13.637  1.00  0.00     0.029 A 
ATOM     34  C   UNL     1      -2.904 -12.141 -13.673  1.00  0.00     0.049 A 
ATOM     35  H   UNL     1      -1.569 -12.461 -12.069  1.00  0.00     0.167 HD
ATOM     36  C   UNL     1      -0.791 -12.814 -14.789  1.00  0.00     0.074 A 
ATOM     37  C   UNL     1       0.008 -13.116 -15.962  1.00  0.00     0.031 C 
ATOM     38  C   UNL     1      -2.097 -12.457 -14.824  1.00  0.00     0.031 A 
BRANCH  25  39
ATOM     39  C   UNL     1      -4.635 -11.423  -9.278  1.00  0.00    -0.014 A 
ATOM     40  C   UNL     1      -4.726 -10.215  -8.568  1.00  0.00     0.009 A 
ATOM     41  C   UNL     1      -5.736 -12.296  -9.270  1.00  0.00     0.009 A 
ATOM     42  C   UNL     1      -5.878  -9.907  -7.839  1.00  0.00     0.001 A 
ATOM     43  C   UNL     1      -6.897 -11.972  -8.566  1.00  0.00     0.001 A 
ATOM     44  C   UNL     1      -6.964 -10.783  -7.842  1.00  0.00     0.000 A 
ENDBRANCH  25  39
BRANCH  26  45
ATOM     45  C   UNL     1       3.695 -14.088 -14.148  1.00  0.00    -0.014 A 
ATOM     46  C   UNL     1       4.397 -13.163 -14.934  1.00  0.00     0.009 A 
ATOM     47  C   UNL     1       4.199 -15.395 -14.029  1.00  0.00     0.009 A 
ATOM     48  C   UNL     1       5.569 -13.543 -15.594  1.00  0.00     0.001 A 
ATOM     49  C   UNL     1       5.389 -15.760 -14.658  1.00  0.00     0.001 A 
ATOM     50  C   UNL     1       6.069 -14.837 -15.448  1.00  0.00     0.000 A 
ENDBRANCH  26  45
BRANCH  38  51
ATOM     51  C   UNL     1      -2.728 -12.350 -16.182  1.00  0.00    -0.014 A 
ATOM     52  C   UNL     1      -3.013 -13.493 -16.945  1.00  0.00     0.009 A 
ATOM     53  C   UNL     1      -3.054 -11.086 -16.697  1.00  0.00     0.009 A 
ATOM     54  C   UNL     1      -3.578 -13.369 -18.215  1.00  0.00     0.001 A 
ATOM     55  C   UNL     1      -3.648 -10.968 -17.954  1.00  0.00     0.001 A 
ATOM     56  C   UNL     1      -3.900 -12.108 -18.716  1.00  0.00     0.000 A 
ENDBRANCH  38  51
ENDBRANCH  12  13
ENDBRANCH   5   7
ENDBRANCH   2   3
ENDBRANCH   1   2
BRANCH   1  57
ATOM     57  C   UNL     1       4.966  -9.373  -2.722  1.00  0.00     0.023 C 
BRANCH  57  58
ATOM     58  C   UNL     1       6.238  -8.534  -2.853  1.00  0.00     0.116 C 
BRANCH  58  59
ATOM     59  N   UNL     1       5.995  -7.170  -2.431  1.00  0.00    -0.354 N 
ATOM     60  C   UNL     1       5.917  -6.659  -1.168  1.00  0.00     0.249 C 
ATOM     61  H   UNL     1       5.868  -6.519  -3.159  1.00  0.00     0.163 HD
ATOM     62  O   UNL     1       5.564  -5.481  -1.065  1.00  0.00    -0.272 OA
BRANCH  60  63
ATOM     63  C   UNL     1       6.357  -7.499   0.065  1.00  0.00     0.211 C 
ATOM     64  C   UNL     1       5.749  -6.936   1.352  1.00  0.00     0.085 C 
ATOM     65  O   UNL     1       6.073  -8.895   0.014  1.00  0.00    -0.357 OA
ATOM     66  C   UNL     1       5.222  -8.136   2.125  1.00  0.00     0.123 C 
ATOM     67  C   UNL     1       5.144  -9.250   1.053  1.00  0.00     0.186 C 
BRANCH  66  68
ATOM     68  C   UNL     1       6.123  -8.489   3.318  1.00  0.00    -0.013 A 
ATOM     69  C   UNL     1       5.831  -7.965   4.592  1.00  0.00     0.008 A 
ATOM     70  C   UNL     1       7.219  -9.365   3.210  1.00  0.00     0.008 A 
ATOM     71  C   UNL     1       6.533  -8.377   5.727  1.00  0.00     0.021 A 
ATOM     72  C   UNL     1       7.918  -9.787   4.347  1.00  0.00     0.021 A 
ATOM     73  C   UNL     1       7.558  -9.307   5.602  1.00  0.00     0.041 A 
ATOM     74  Cl  UNL     1       8.377  -9.873   7.004  1.00  0.00    -0.084 Cl
ENDBRANCH  66  68
BRANCH  66  75
ATOM     75  O   UNL     1       3.928  -7.816   2.653  1.00  0.00    -0.382 OA
ATOM     76  H   UNL     1       3.329  -7.587   1.925  1.00  0.00     0.212 HD
ENDBRANCH  66  75
BRANCH  67  77
ATOM     77  C   UNL     1       3.813  -9.587   0.400  1.00  0.00    -0.016 A 
ATOM     78  C   UNL     1       2.909  -8.607  -0.036  1.00  0.00     0.008 A 
ATOM     79  C   UNL     1       3.529 -10.937   0.109  1.00  0.00     0.008 A 
ATOM     80  C   UNL     1       1.772  -8.965  -0.770  1.00  0.00     0.021 A 
ATOM     81  C   UNL     1       2.399 -11.293  -0.629  1.00  0.00     0.021 A 
ATOM     82  C   UNL     1       1.531 -10.303  -1.076  1.00  0.00     0.041 A 
ATOM     83  Cl  UNL     1       0.179 -10.730  -2.049  1.00  0.00    -0.084 Cl
ENDBRANCH  67  77
ENDBRANCH  60  63
ENDBRANCH  58  59
ENDBRANCH  57  58
ENDBRANCH   1  57
TORSDOF 14
