REMARK SMILES COc1ccc(Cl)c2c1N[C@@H](c1ccc(C(=O)NCCCCNC(=O)c3ccc(-c4c5nc(c(-c6ccccc6)c6ccc([nH]6)c(-c6ccccc6)c6nc(c(-c7ccccc7)c7ccc4[nH]7)C=C6)C=C5)cc3)cc1)[C@@H]1CC=C[C@H]21
REMARK SMILES IDX 20 1 19 2 18 3 16 4 17 5 15 7 12 8 13 9 75 10 14 11 74 12
REMARK SMILES IDX 11 13 3 14 4 15 9 16 5 17 8 18 10 19 6 20 80 21 7 23 76 24
REMARK SMILES IDX 79 25 77 26 78 27 2 28 1 29 21 30 22 31 23 32 24 33 25 35
REMARK SMILES IDX 26 36 27 37 73 38 28 39 72 40 29 41 30 42 31 43 66 44 32 45
REMARK SMILES IDX 71 46 65 47 67 48 33 49 70 50 64 51 63 52 34 54 56 55 41 56
REMARK SMILES IDX 55 57 42 58 45 59 54 60 68 61 43 62 44 63 53 65 69 66 46 67
REMARK SMILES IDX 35 68 36 69 40 70 37 71 39 72 38 73 57 74 58 75 62 76 59 77
REMARK SMILES IDX 61 78 60 79 47 80 48 81 52 82 49 83 51 84 50 85
REMARK H PARENT 18 6 10 22 23 34 67 53 45 64
REMARK Flexibility Score: inf
ROOT
ATOM      1  C   UNL     1      10.058   2.048   2.516  1.00  0.00     0.023 C 
ENDROOT
BRANCH   1   2
ATOM      2  C   UNL     1      10.201   1.079   1.340  1.00  0.00     0.116 C 
BRANCH   2   3
ATOM      3  N   UNL     1       9.707  -0.240   1.685  1.00  0.00    -0.352 N 
ATOM      4  C   UNL     1       8.516  -0.856   1.391  1.00  0.00     0.251 C 
ATOM      5  O   UNL     1       8.364  -2.029   1.727  1.00  0.00    -0.269 OA
ATOM      6  H   UNL     1      10.330  -0.784   2.219  1.00  0.00     0.163 HD
BRANCH   4   7
ATOM      7  C   UNL     1       7.433  -0.169   0.639  1.00  0.00     0.039 A 
ATOM      8  C   UNL     1       5.370   1.026  -0.873  1.00  0.00    -0.025 A 
ATOM      9  C   UNL     1       5.686  -0.331  -1.041  1.00  0.00     0.006 A 
ATOM     10  C   UNL     1       6.075   1.762   0.088  1.00  0.00     0.006 A 
ATOM     11  C   UNL     1       6.699  -0.925  -0.281  1.00  0.00     0.014 A 
ATOM     12  C   UNL     1       7.085   1.166   0.843  1.00  0.00     0.014 A 
BRANCH   8  13
ATOM     13  C   UNL     1       4.296   1.723  -1.694  1.00  0.00     0.114 C 
ATOM     14  C   UNL     1       0.805   0.661  -2.404  1.00  0.00     0.142 A 
ATOM     15  C   UNL     1      -0.283   1.002  -3.202  1.00  0.00     0.050 A 
ATOM     16  C   UNL     1       2.071   1.250  -2.597  1.00  0.00     0.083 A 
ATOM     17  C   UNL     1      -0.128   1.967  -4.191  1.00  0.00     0.025 A 
ATOM     18  C   UNL     1       2.235   2.220  -3.607  1.00  0.00     0.005 A 
ATOM     19  N   UNL     1       3.149   0.848  -1.822  1.00  0.00    -0.375 N 
ATOM     20  C   UNL     1       1.118   2.568  -4.397  1.00  0.00     0.047 A 
ATOM     21  C   UNL     1       3.608   2.797  -3.877  1.00  0.00     0.051 C 
ATOM     22  H   UNL     1       3.134  -0.023  -1.364  1.00  0.00     0.161 HD
ATOM     23  Cl  UNL     1       1.226   3.715  -5.689  1.00  0.00    -0.084 Cl
ATOM     24  C   UNL     1       4.775   2.136  -3.099  1.00  0.00     0.031 C 
ATOM     25  C   UNL     1       3.788   4.247  -3.496  1.00  0.00    -0.023 C 
ATOM     26  C   UNL     1       5.852   3.237  -3.068  1.00  0.00     0.034 C 
ATOM     27  C   UNL     1       5.033   4.488  -3.066  1.00  0.00    -0.030 C 
BRANCH  14  28
ATOM     28  O   UNL     1       0.609  -0.328  -1.470  1.00  0.00    -0.495 OA
ATOM     29  C   UNL     1       0.527   0.210  -0.149  1.00  0.00     0.278 C 
ENDBRANCH  14  28
ENDBRANCH   8  13
ENDBRANCH   4   7
ENDBRANCH   2   3
ENDBRANCH   1   2
BRANCH   1  30
ATOM     30  C   UNL     1      11.066   1.835   3.644  1.00  0.00     0.023 C 
BRANCH  30  31
ATOM     31  C   UNL     1      12.518   2.064   3.253  1.00  0.00     0.116 C 
BRANCH  31  32
ATOM     32  N   UNL     1      12.772   3.403   2.744  1.00  0.00    -0.352 N 
ATOM     33  C   UNL     1      13.922   4.143   2.880  1.00  0.00     0.251 C 
ATOM     34  H   UNL     1      12.037   3.827   2.244  1.00  0.00     0.163 HD
ATOM     35  O   UNL     1      13.999   5.290   2.470  1.00  0.00    -0.269 OA
BRANCH  33  36
ATOM     36  C   UNL     1      15.055   3.518   3.585  1.00  0.00     0.039 A 
ATOM     37  C   UNL     1      15.492   4.084   4.782  1.00  0.00     0.014 A 
ATOM     38  C   UNL     1      15.588   2.314   3.113  1.00  0.00     0.014 A 
ATOM     39  C   UNL     1      16.435   3.404   5.549  1.00  0.00     0.010 A 
ATOM     40  C   UNL     1      16.492   1.615   3.902  1.00  0.00     0.010 A 
ATOM     41  C   UNL     1      16.916   2.153   5.127  1.00  0.00    -0.014 A 
BRANCH  41  42
ATOM     42  C   UNL     1      17.877   1.398   5.959  1.00  0.00     0.031 A 
ATOM     43  C   UNL     1      19.303   1.272   5.516  1.00  0.00     0.074 A 
ATOM     44  C   UNL     1      17.457   0.806   7.092  1.00  0.00     0.049 A 
ATOM     45  N   UNL     1      20.293   0.654   6.106  1.00  0.00    -0.248 NA
ATOM     46  C   UNL     1      19.661   1.911   4.239  1.00  0.00     0.031 C 
ATOM     47  C   UNL     1      16.087   0.838   7.609  1.00  0.00     0.029 A 
ATOM     48  N   UNL     1      18.146   0.066   8.018  1.00  0.00    -0.354 N 
ATOM     49  C   UNL     1      21.389   0.830   5.274  1.00  0.00     0.074 A 
ATOM     50  C   UNL     1      20.936   1.571   4.117  1.00  0.00     0.031 C 
ATOM     51  C   UNL     1      16.045   0.177   8.777  1.00  0.00     0.029 A 
ATOM     52  C   UNL     1      17.376  -0.342   9.079  1.00  0.00     0.049 A 
ATOM     53  H   UNL     1      19.103  -0.151   7.931  1.00  0.00     0.167 HD
ATOM     54  C   UNL     1      22.665   0.431   5.469  1.00  0.00     0.031 A 
ATOM     55  C   UNL     1      17.709  -1.046  10.177  1.00  0.00     0.031 A 
ATOM     56  C   UNL     1      23.118  -0.293   6.622  1.00  0.00     0.049 A 
ATOM     57  C   UNL     1      19.129  -1.496  10.363  1.00  0.00     0.074 A 
ATOM     58  C   UNL     1      24.403  -0.706   6.927  1.00  0.00     0.029 A 
ATOM     59  N   UNL     1      22.302  -0.705   7.662  1.00  0.00    -0.354 N 
ATOM     60  N   UNL     1      20.164  -1.288   9.586  1.00  0.00    -0.248 NA
ATOM     61  C   UNL     1      19.430  -2.271  11.576  1.00  0.00     0.031 C 
ATOM     62  C   UNL     1      24.359  -1.396   8.141  1.00  0.00     0.029 A 
ATOM     63  C   UNL     1      23.053  -1.380   8.606  1.00  0.00     0.049 A 
ATOM     64  H   UNL     1      21.333  -0.542   7.721  1.00  0.00     0.167 HD
ATOM     65  C   UNL     1      21.241  -1.888  10.222  1.00  0.00     0.074 A 
ATOM     66  C   UNL     1      20.738  -2.467  11.450  1.00  0.00     0.031 C 
ATOM     67  C   UNL     1      22.534  -1.948   9.822  1.00  0.00     0.031 A 
BRANCH  54  68
ATOM     68  C   UNL     1      23.667   0.786   4.413  1.00  0.00    -0.014 A 
ATOM     69  C   UNL     1      24.162   2.095   4.309  1.00  0.00     0.009 A 
ATOM     70  C   UNL     1      24.158  -0.203   3.549  1.00  0.00     0.009 A 
ATOM     71  C   UNL     1      25.118   2.412   3.344  1.00  0.00     0.001 A 
ATOM     72  C   UNL     1      25.128   0.113   2.596  1.00  0.00     0.001 A 
ATOM     73  C   UNL     1      25.603   1.420   2.492  1.00  0.00     0.000 A 
ENDBRANCH  54  68
BRANCH  55  74
ATOM     74  C   UNL     1      16.678  -1.323  11.206  1.00  0.00    -0.014 A 
ATOM     75  C   UNL     1      16.635  -0.560  12.382  1.00  0.00     0.009 A 
ATOM     76  C   UNL     1      15.707  -2.316  11.001  1.00  0.00     0.009 A 
ATOM     77  C   UNL     1      15.641  -0.788  13.337  1.00  0.00     0.001 A 
ATOM     78  C   UNL     1      14.706  -2.531  11.950  1.00  0.00     0.001 A 
ATOM     79  C   UNL     1      14.675  -1.770  13.118  1.00  0.00     0.000 A 
ENDBRANCH  55  74
BRANCH  67  80
ATOM     80  C   UNL     1      23.512  -2.647  10.716  1.00  0.00    -0.014 A 
ATOM     81  C   UNL     1      23.628  -4.044  10.696  1.00  0.00     0.009 A 
ATOM     82  C   UNL     1      24.412  -1.893  11.485  1.00  0.00     0.009 A 
ATOM     83  C   UNL     1      24.632  -4.675  11.432  1.00  0.00     0.001 A 
ATOM     84  C   UNL     1      25.424  -2.526  12.208  1.00  0.00     0.001 A 
ATOM     85  C   UNL     1      25.533  -3.916  12.180  1.00  0.00     0.000 A 
ENDBRANCH  67  80
ENDBRANCH  41  42
ENDBRANCH  33  36
ENDBRANCH  31  32
ENDBRANCH  30  31
ENDBRANCH   1  30
TORSDOF 13
