REMARK SMILES CC(C)(C)OC(=O)N1CCC[C@H]1C(=O)N1CCC[C@H]1C(=O)N1CCC[C@@H]1C(=O)NCCCCNC(=O)c1ccc(-c2c3nc(c(-c4ccccc4)c4ccc([nH]4)c(-c4ccccc4)c4nc(c(-c5ccccc5)c5ccc2[nH]5)C=C4)C=C3)cc1
REMARK SMILES IDX 27 1 28 2 29 3 26 5 22 6 23 7 24 8 25 9 20 10 21 11 19 12
REMARK SMILES IDX 15 13 16 14 17 15 18 16 13 17 14 18 12 19 8 20 9 21 10 22
REMARK SMILES IDX 11 23 6 24 7 25 5 26 2 27 1 28 3 29 4 30 30 31 31 32 32 33
REMARK SMILES IDX 33 34 34 35 35 36 36 38 37 39 38 40 84 41 39 42 83 43 40 44
REMARK SMILES IDX 41 45 42 46 77 47 43 48 82 49 76 50 78 51 44 52 81 53 75 54
REMARK SMILES IDX 74 55 45 57 67 58 52 59 66 60 53 61 56 62 65 63 79 64 54 65
REMARK SMILES IDX 55 66 64 68 80 69 57 70 46 71 47 72 51 73 48 74 50 75 49 76
REMARK SMILES IDX 68 77 69 78 73 79 70 80 72 81 71 82 58 83 59 84 63 85 60 86
REMARK SMILES IDX 62 87 61 88
REMARK H PARENT 29 4 34 37 78 56 56 67
REMARK Flexibility Score: inf
ROOT
ATOM      1  C   UNL     1       0.820  -4.238  10.667  1.00  0.00     0.242 C 
ATOM      2  O   UNL     1       0.578  -4.571  11.832  1.00  0.00    -0.273 OA
ATOM      3  N   UNL     1       1.259  -5.220   9.833  1.00  0.00    -0.354 N 
ATOM      4  H   UNL     1       1.200  -6.133  10.196  1.00  0.00     0.163 HD
ENDROOT
BRANCH   1   5
ATOM      5  C   UNL     1       0.729  -2.767  10.234  1.00  0.00     0.174 C 
ATOM      6  N   UNL     1       0.011  -2.540   8.984  1.00  0.00    -0.329 N 
ATOM      7  C   UNL     1       0.457  -1.249   8.491  1.00  0.00     0.120 C 
ATOM      8  C   UNL     1       1.958  -1.329   8.686  1.00  0.00     0.024 C 
ATOM      9  C   UNL     1       2.095  -2.090  10.014  1.00  0.00     0.037 C 
BRANCH   6  10
ATOM     10  C   UNL     1      -1.328  -2.849   8.923  1.00  0.00     0.246 C 
ATOM     11  O   UNL     1      -2.082  -2.542   9.850  1.00  0.00    -0.272 OA
BRANCH  10  12
ATOM     12  C   UNL     1      -1.884  -3.487   7.614  1.00  0.00     0.174 C 
ATOM     13  N   UNL     1      -1.062  -4.270   6.662  1.00  0.00    -0.329 N 
ATOM     14  C   UNL     1      -1.506  -5.652   6.593  1.00  0.00     0.120 C 
ATOM     15  C   UNL     1      -2.947  -5.623   7.045  1.00  0.00     0.024 C 
ATOM     16  C   UNL     1      -2.974  -4.494   8.061  1.00  0.00     0.037 C 
BRANCH  13  17
ATOM     17  C   UNL     1      -0.203  -3.648   5.776  1.00  0.00     0.246 C 
ATOM     18  O   UNL     1       0.393  -2.615   6.079  1.00  0.00    -0.272 OA
BRANCH  17  19
ATOM     19  C   UNL     1       0.024  -4.271   4.379  1.00  0.00     0.178 C 
ATOM     20  N   UNL     1       0.693  -3.298   3.515  1.00  0.00    -0.296 N 
ATOM     21  C   UNL     1       2.073  -3.650   3.276  1.00  0.00     0.124 C 
ATOM     22  C   UNL     1       2.055  -5.160   3.370  1.00  0.00     0.024 C 
ATOM     23  C   UNL     1       1.000  -5.443   4.439  1.00  0.00     0.037 C 
BRANCH  20  24
ATOM     24  C   UNL     1       0.050  -2.171   3.071  1.00  0.00     0.410 C 
ATOM     25  O   UNL     1      -1.083  -1.875   3.423  1.00  0.00    -0.224 OA
BRANCH  24  26
ATOM     26  O   UNL     1       0.806  -1.482   2.182  1.00  0.00    -0.444 OA
BRANCH  26  27
ATOM     27  C   UNL     1       0.367  -0.247   1.556  1.00  0.00     0.106 C 
ATOM     28  C   UNL     1       1.080  -0.227   0.195  1.00  0.00     0.056 C 
ATOM     29  C   UNL     1       0.861   0.924   2.408  1.00  0.00     0.056 C 
ATOM     30  C   UNL     1      -1.142  -0.145   1.302  1.00  0.00     0.056 C 
ENDBRANCH  26  27
ENDBRANCH  24  26
ENDBRANCH  20  24
ENDBRANCH  17  19
ENDBRANCH  13  17
ENDBRANCH  10  12
ENDBRANCH   6  10
ENDBRANCH   1   5
BRANCH   3  31
ATOM     31  C   UNL     1       1.800  -5.125   8.497  1.00  0.00     0.116 C 
BRANCH  31  32
ATOM     32  C   UNL     1       3.161  -5.807   8.391  1.00  0.00     0.023 C 
BRANCH  32  33
ATOM     33  C   UNL     1       3.140  -7.326   8.600  1.00  0.00     0.023 C 
BRANCH  33  34
ATOM     34  C   UNL     1       2.185  -8.108   7.702  1.00  0.00     0.116 C 
BRANCH  34  35
ATOM     35  N   UNL     1       2.429  -7.892   6.287  1.00  0.00    -0.352 N 
ATOM     36  C   UNL     1       2.276  -8.745   5.224  1.00  0.00     0.251 C 
ATOM     37  H   UNL     1       2.756  -6.993   6.054  1.00  0.00     0.163 HD
ATOM     38  O   UNL     1       2.533  -8.361   4.088  1.00  0.00    -0.269 OA
BRANCH  36  39
ATOM     39  C   UNL     1       1.883 -10.147   5.452  1.00  0.00     0.039 A 
ATOM     40  C   UNL     1       2.648 -11.136   4.829  1.00  0.00     0.014 A 
ATOM     41  C   UNL     1       0.824 -10.496   6.293  1.00  0.00     0.014 A 
ATOM     42  C   UNL     1       2.400 -12.477   5.107  1.00  0.00     0.010 A 
ATOM     43  C   UNL     1       0.624 -11.834   6.626  1.00  0.00     0.010 A 
ATOM     44  C   UNL     1       1.415 -12.835   6.041  1.00  0.00    -0.014 A 
BRANCH  44  45
ATOM     45  C   UNL     1       1.231 -14.259   6.413  1.00  0.00     0.031 A 
ATOM     46  C   UNL     1      -0.042 -14.977   6.070  1.00  0.00     0.074 A 
ATOM     47  C   UNL     1       2.216 -14.900   7.073  1.00  0.00     0.049 A 
ATOM     48  N   UNL     1      -0.360 -16.230   6.272  1.00  0.00    -0.248 NA
ATOM     49  C   UNL     1      -1.104 -14.182   5.434  1.00  0.00     0.031 C 
ATOM     50  C   UNL     1       3.481 -14.298   7.502  1.00  0.00     0.029 A 
ATOM     51  N   UNL     1       2.312 -16.204   7.488  1.00  0.00    -0.354 N 
ATOM     52  C   UNL     1      -1.656 -16.371   5.795  1.00  0.00     0.074 A 
ATOM     53  C   UNL     1      -2.087 -15.065   5.347  1.00  0.00     0.031 C 
ATOM     54  C   UNL     1       4.243 -15.241   8.080  1.00  0.00     0.029 A 
ATOM     55  C   UNL     1       3.508 -16.501   8.096  1.00  0.00     0.049 A 
ATOM     56  H   UNL     1       1.593 -16.864   7.363  1.00  0.00     0.167 HD
ATOM     57  C   UNL     1      -2.412 -17.492   5.715  1.00  0.00     0.031 A 
ATOM     58  C   UNL     1       3.965 -17.661   8.603  1.00  0.00     0.031 A 
ATOM     59  C   UNL     1      -1.982 -18.790   6.164  1.00  0.00     0.049 A 
ATOM     60  C   UNL     1       3.100 -18.887   8.512  1.00  0.00     0.074 A 
ATOM     61  C   UNL     1      -2.656 -19.996   6.086  1.00  0.00     0.029 A 
ATOM     62  N   UNL     1      -0.769 -19.049   6.782  1.00  0.00    -0.354 N 
ATOM     63  N   UNL     1       1.906 -19.021   7.985  1.00  0.00    -0.248 NA
ATOM     64  C   UNL     1       3.656 -20.128   9.069  1.00  0.00     0.031 C 
ATOM     65  C   UNL     1      -1.874 -20.974   6.709  1.00  0.00     0.029 A 
ATOM     66  C   UNL     1      -0.684 -20.391   7.114  1.00  0.00     0.049 A 
ATOM     67  H   UNL     1      -0.070 -18.378   6.959  1.00  0.00     0.167 HD
ATOM     68  C   UNL     1       1.581 -20.365   8.122  1.00  0.00     0.074 A 
ATOM     69  C   UNL     1       2.715 -21.006   8.756  1.00  0.00     0.031 C 
ATOM     70  C   UNL     1       0.447 -21.011   7.755  1.00  0.00     0.031 A 
BRANCH  57  71
ATOM     71  C   UNL     1      -3.791 -17.354   5.130  1.00  0.00    -0.014 A 
ATOM     72  C   UNL     1      -3.981 -17.071   3.767  1.00  0.00     0.009 A 
ATOM     73  C   UNL     1      -4.918 -17.535   5.947  1.00  0.00     0.009 A 
ATOM     74  C   UNL     1      -5.269 -16.934   3.244  1.00  0.00     0.001 A 
ATOM     75  C   UNL     1      -6.205 -17.430   5.415  1.00  0.00     0.001 A 
ATOM     76  C   UNL     1      -6.379 -17.119   4.067  1.00  0.00     0.000 A 
ENDBRANCH  57  71
BRANCH  58  77
ATOM     77  C   UNL     1       5.314 -17.728   9.226  1.00  0.00    -0.014 A 
ATOM     78  C   UNL     1       6.349 -18.454   8.617  1.00  0.00     0.009 A 
ATOM     79  C   UNL     1       5.568 -17.083  10.446  1.00  0.00     0.009 A 
ATOM     80  C   UNL     1       7.598 -18.562   9.233  1.00  0.00     0.001 A 
ATOM     81  C   UNL     1       6.827 -17.164  11.044  1.00  0.00     0.001 A 
ATOM     82  C   UNL     1       7.837 -17.913  10.444  1.00  0.00     0.000 A 
ENDBRANCH  58  77
BRANCH  70  83
ATOM     83  C   UNL     1       0.397 -22.494   8.003  1.00  0.00    -0.014 A 
ATOM     84  C   UNL     1       0.328 -23.019   9.303  1.00  0.00     0.009 A 
ATOM     85  C   UNL     1       0.409 -23.380   6.914  1.00  0.00     0.009 A 
ATOM     86  C   UNL     1       0.323 -24.401   9.508  1.00  0.00     0.001 A 
ATOM     87  C   UNL     1       0.367 -24.759   7.120  1.00  0.00     0.001 A 
ATOM     88  C   UNL     1       0.339 -25.268   8.417  1.00  0.00     0.000 A 
ENDBRANCH  70  83
ENDBRANCH  44  45
ENDBRANCH  36  39
ENDBRANCH  34  35
ENDBRANCH  33  34
ENDBRANCH  32  33
ENDBRANCH  31  32
ENDBRANCH   3  31
TORSDOF 18
