REMARK SMILES C[C@@]1(O)N(CC(=O)NCCCCNC(=O)c2ccc(-c3c4nc(c(-c5ccccc5)c5ccc([nH]5)c(-c5ccccc5)c5nc(c(-c6ccccc6)c6ccc3[nH]6)C=C5)C=C4)cc2)C(=O)OC12CCCCC2
REMARK SMILES IDX 10 1 9 2 8 3 6 4 7 5 5 7 4 8 1 9 2 10 67 11 64 12 66 13
REMARK SMILES IDX 68 14 72 15 65 16 69 17 71 18 70 19 3 20 11 22 12 23 13 24
REMARK SMILES IDX 14 25 15 27 16 28 17 29 63 30 18 31 62 32 19 33 20 34 21 35
REMARK SMILES IDX 56 36 22 37 61 38 55 39 57 40 23 41 60 42 54 43 53 44 24 46
REMARK SMILES IDX 46 47 31 48 45 49 32 50 35 51 44 52 58 53 33 54 34 55 43 57
REMARK SMILES IDX 59 58 36 59 25 60 26 61 30 62 27 63 29 64 28 65 47 66 48 67
REMARK SMILES IDX 52 68 49 69 51 70 50 71 37 72 38 73 42 74 39 75 41 76 40 77
REMARK H PARENT 8 6 3 21 13 26 57 45 35 56
REMARK Flexibility Score: inf
ROOT
ATOM      1  C   UNL     1      -0.936  -4.021   2.659  1.00  0.00     0.023 C 
ENDROOT
BRANCH   1   2
ATOM      2  C   UNL     1      -1.866  -2.833   2.889  1.00  0.00     0.116 C 
BRANCH   2   3
ATOM      3  N   UNL     1      -1.150  -1.657   3.346  1.00  0.00    -0.355 N 
ATOM      4  C   UNL     1      -0.941  -0.476   2.693  1.00  0.00     0.239 C 
ATOM      5  O   UNL     1      -0.401   0.448   3.303  1.00  0.00    -0.273 OA
ATOM      6  H   UNL     1      -0.764  -1.719   4.250  1.00  0.00     0.163 HD
BRANCH   4   7
ATOM      7  C   UNL     1      -1.438  -0.305   1.262  1.00  0.00     0.226 C 
BRANCH   7   8
ATOM      8  N   UNL     1      -0.758  -1.134   0.274  1.00  0.00    -0.267 N 
ATOM      9  C   UNL     1       1.157   0.377  -0.133  1.00  0.00     0.072 C 
ATOM     10  C   UNL     1       0.645  -1.058  -0.026  1.00  0.00     0.181 C 
ATOM     11  C   UNL     1       0.763  -1.930  -1.325  1.00  0.00     0.161 C 
ATOM     12  C   UNL     1      -1.440  -1.899  -0.626  1.00  0.00     0.413 C 
ATOM     13  O   UNL     1      -0.591  -2.404  -1.556  1.00  0.00    -0.438 OA
ATOM     14  C   UNL     1       1.181  -1.132  -2.575  1.00  0.00     0.054 C 
ATOM     15  C   UNL     1       1.620  -3.205  -1.168  1.00  0.00     0.054 C 
ATOM     16  O   UNL     1      -2.640  -2.121  -0.623  1.00  0.00    -0.224 OA
ATOM     17  C   UNL     1       1.278  -1.984  -3.839  1.00  0.00     0.004 C 
ATOM     18  C   UNL     1       1.689  -4.034  -2.455  1.00  0.00     0.004 C 
ATOM     19  C   UNL     1       2.173  -3.197  -3.630  1.00  0.00     0.000 C 
BRANCH  10  20
ATOM     20  O   UNL     1       1.347  -1.626   1.067  1.00  0.00    -0.367 OA
ATOM     21  H   UNL     1       1.248  -1.056   1.846  1.00  0.00     0.213 HD
ENDBRANCH  10  20
ENDBRANCH   7   8
ENDBRANCH   4   7
ENDBRANCH   2   3
ENDBRANCH   1   2
BRANCH   1  22
ATOM     22  C   UNL     1      -0.172  -4.472   3.905  1.00  0.00     0.023 C 
BRANCH  22  23
ATOM     23  C   UNL     1      -1.071  -4.910   5.052  1.00  0.00     0.116 C 
BRANCH  23  24
ATOM     24  N   UNL     1      -1.949  -6.007   4.671  1.00  0.00    -0.352 N 
ATOM     25  C   UNL     1      -2.187  -7.190   5.324  1.00  0.00     0.251 C 
ATOM     26  H   UNL     1      -2.441  -5.883   3.827  1.00  0.00     0.163 HD
ATOM     27  O   UNL     1      -2.808  -8.091   4.773  1.00  0.00    -0.269 OA
BRANCH  25  28
ATOM     28  C   UNL     1      -1.665  -7.374   6.691  1.00  0.00     0.039 A 
ATOM     29  C   UNL     1      -1.023  -8.570   7.014  1.00  0.00     0.014 A 
ATOM     30  C   UNL     1      -1.787  -6.354   7.639  1.00  0.00     0.014 A 
ATOM     31  C   UNL     1      -0.449  -8.720   8.276  1.00  0.00     0.010 A 
ATOM     32  C   UNL     1      -1.138  -6.471   8.861  1.00  0.00     0.010 A 
ATOM     33  C   UNL     1      -0.470  -7.657   9.195  1.00  0.00    -0.014 A 
BRANCH  33  34
ATOM     34  C   UNL     1       0.199  -7.770  10.514  1.00  0.00     0.031 A 
ATOM     35  C   UNL     1      -0.609  -7.683  11.779  1.00  0.00     0.074 A 
ATOM     36  C   UNL     1       1.539  -7.892  10.571  1.00  0.00     0.049 A 
ATOM     37  N   UNL     1      -0.200  -7.716  13.022  1.00  0.00    -0.248 NA
ATOM     38  C   UNL     1      -2.063  -7.510  11.630  1.00  0.00     0.031 C 
ATOM     39  C   UNL     1       2.438  -7.947   9.415  1.00  0.00     0.029 A 
ATOM     40  N   UNL     1       2.381  -7.991  11.649  1.00  0.00    -0.354 N 
ATOM     41  C   UNL     1      -1.341  -7.554  13.797  1.00  0.00     0.074 A 
ATOM     42  C   UNL     1      -2.449  -7.363  12.888  1.00  0.00     0.031 C 
ATOM     43  C   UNL     1       3.699  -8.105   9.846  1.00  0.00     0.029 A 
ATOM     44  C   UNL     1       3.705  -8.114  11.305  1.00  0.00     0.049 A 
ATOM     45  H   UNL     1       2.066  -7.974  12.582  1.00  0.00     0.167 HD
ATOM     46  C   UNL     1      -1.461  -7.584  15.145  1.00  0.00     0.031 A 
ATOM     47  C   UNL     1       4.803  -8.217  12.078  1.00  0.00     0.031 A 
ATOM     48  C   UNL     1      -0.357  -7.776  16.048  1.00  0.00     0.049 A 
ATOM     49  C   UNL     1       4.646  -8.218  13.573  1.00  0.00     0.074 A 
ATOM     50  C   UNL     1      -0.380  -7.873  17.428  1.00  0.00     0.029 A 
ATOM     51  N   UNL     1       0.969  -7.892  15.659  1.00  0.00    -0.354 N 
ATOM     52  N   UNL     1       3.551  -8.138  14.290  1.00  0.00    -0.248 NA
ATOM     53  C   UNL     1       5.878  -8.336  14.365  1.00  0.00     0.031 C 
ATOM     54  C   UNL     1       0.939  -7.984  17.878  1.00  0.00     0.029 A 
ATOM     55  C   UNL     1       1.777  -8.030  16.775  1.00  0.00     0.049 A 
ATOM     56  H   UNL     1       1.288  -7.879  14.728  1.00  0.00     0.167 HD
ATOM     57  C   UNL     1       3.959  -8.228  15.615  1.00  0.00     0.074 A 
ATOM     58  C   UNL     1       5.398  -8.387  15.600  1.00  0.00     0.031 C 
ATOM     59  C   UNL     1       3.208  -8.184  16.743  1.00  0.00     0.031 A 
BRANCH  46  60
ATOM     60  C   UNL     1      -2.836  -7.392  15.723  1.00  0.00    -0.014 A 
ATOM     61  C   UNL     1      -3.841  -8.359  15.556  1.00  0.00     0.009 A 
ATOM     62  C   UNL     1      -3.123  -6.241  16.474  1.00  0.00     0.009 A 
ATOM     63  C   UNL     1      -5.114  -8.159  16.093  1.00  0.00     0.001 A 
ATOM     64  C   UNL     1      -4.387  -6.059  17.039  1.00  0.00     0.001 A 
ATOM     65  C   UNL     1      -5.385  -7.012  16.839  1.00  0.00     0.000 A 
ENDBRANCH  46  60
BRANCH  47  66
ATOM     66  C   UNL     1       6.147  -8.339  11.454  1.00  0.00    -0.014 A 
ATOM     67  C   UNL     1       6.876  -9.533  11.556  1.00  0.00     0.009 A 
ATOM     68  C   UNL     1       6.714  -7.257  10.762  1.00  0.00     0.009 A 
ATOM     69  C   UNL     1       8.157  -9.631  11.008  1.00  0.00     0.001 A 
ATOM     70  C   UNL     1       7.981  -7.369  10.185  1.00  0.00     0.001 A 
ATOM     71  C   UNL     1       8.706  -8.551  10.319  1.00  0.00     0.000 A 
ENDBRANCH  47  66
BRANCH  59  72
ATOM     72  C   UNL     1       3.926  -8.352  18.054  1.00  0.00    -0.014 A 
ATOM     73  C   UNL     1       4.775  -7.354  18.559  1.00  0.00     0.009 A 
ATOM     74  C   UNL     1       3.716  -9.514  18.814  1.00  0.00     0.009 A 
ATOM     75  C   UNL     1       5.429  -7.536  19.780  1.00  0.00     0.001 A 
ATOM     76  C   UNL     1       4.343  -9.676  20.050  1.00  0.00     0.001 A 
ATOM     77  C   UNL     1       5.207  -8.693  20.526  1.00  0.00     0.000 A 
ENDBRANCH  59  72
ENDBRANCH  33  34
ENDBRANCH  25  28
ENDBRANCH  23  24
ENDBRANCH  22  23
ENDBRANCH   1  22
TORSDOF 13
