REMARK SMILES CC[C@@H]1C=CC[C@@H]2C(=O)N(CCCC(=O)NCCCCNC(=O)c3ccc(-c4c5nc(c(-c6ccccc6)c6ccc([nH]6)c(-c6ccccc6)c6nc(c(-c7ccccc7)c7ccc4[nH]7)C=C6)C=C5)cc3)C(=O)[C@@H]21
REMARK SMILES IDX 17 1 16 2 14 3 15 4 13 6 12 7 11 8 10 9 3 10 4 11 74 12 5 13
REMARK SMILES IDX 7 14 72 15 6 16 8 17 73 18 9 19 2 20 1 21 18 22 19 23 20 24
REMARK SMILES IDX 21 25 22 26 23 28 24 29 25 30 71 31 26 32 70 33 27 34 28 35
REMARK SMILES IDX 29 36 64 37 30 38 69 39 63 40 65 41 31 42 68 43 62 44 61 45
REMARK SMILES IDX 32 47 54 48 39 49 53 50 40 51 43 52 52 53 66 54 41 55 42 56
REMARK SMILES IDX 51 58 67 59 44 60 33 61 34 62 38 63 35 64 37 65 36 66 55 67
REMARK SMILES IDX 56 68 60 69 57 70 59 71 58 72 45 73 46 74 50 75 47 76 49 77
REMARK SMILES IDX 48 78
REMARK H PARENT 16 5 21 27 65 46 43 57
REMARK Flexibility Score: inf
ROOT
ATOM      1  C   UNL     1       0.799   8.520   0.772  1.00  0.00     0.116 C 
ENDROOT
BRANCH   1   2
ATOM      2  N   UNL     1       1.521   9.181  -0.290  1.00  0.00    -0.356 N 
ATOM      3  C   UNL     1       2.200   8.705  -1.363  1.00  0.00     0.220 C 
ATOM      4  O   UNL     1       2.635   9.552  -2.152  1.00  0.00    -0.275 OA
ATOM      5  H   UNL     1       1.520  10.163  -0.223  1.00  0.00     0.163 HD
BRANCH   3   6
ATOM      6  C   UNL     1       2.383   7.228  -1.677  1.00  0.00     0.102 C 
BRANCH   6   7
ATOM      7  C   UNL     1       3.245   6.351  -0.775  1.00  0.00     0.032 C 
BRANCH   7   8
ATOM      8  C   UNL     1       2.763   5.910   0.603  1.00  0.00     0.129 C 
BRANCH   8   9
ATOM      9  N   UNL     1       1.619   5.016   0.744  1.00  0.00    -0.282 N 
ATOM     10  C   UNL     1       1.117   1.883   1.234  1.00  0.00     0.024 C 
ATOM     11  C   UNL     1       1.314   1.778  -0.262  1.00  0.00    -0.027 C 
ATOM     12  C   UNL     1       0.456   3.216   1.671  1.00  0.00     0.099 C 
ATOM     13  C   UNL     1       0.384   2.255  -1.102  1.00  0.00    -0.030 C 
ATOM     14  C   UNL     1      -0.429   3.866   0.605  1.00  0.00     0.096 C 
ATOM     15  C   UNL     1       1.472   4.299   1.900  1.00  0.00     0.233 C 
ATOM     16  C   UNL     1      -0.821   2.975  -0.572  1.00  0.00     0.041 C 
ATOM     17  C   UNL     1       0.437   4.980   0.072  1.00  0.00     0.233 C 
ATOM     18  O   UNL     1       2.043   4.505   2.957  1.00  0.00    -0.274 OA
ATOM     19  O   UNL     1       0.013   5.756  -0.776  1.00  0.00    -0.274 OA
BRANCH  10  20
ATOM     20  C   UNL     1       2.350   1.482   2.077  1.00  0.00     0.005 C 
ATOM     21  C   UNL     1       3.701   2.046   1.649  1.00  0.00     0.004 C 
ENDBRANCH  10  20
ENDBRANCH   8   9
ENDBRANCH   7   8
ENDBRANCH   6   7
ENDBRANCH   3   6
ENDBRANCH   1   2
BRANCH   1  22
ATOM     22  C   UNL     1       1.503   8.680   2.124  1.00  0.00     0.023 C 
BRANCH  22  23
ATOM     23  C   UNL     1       0.976   9.824   2.970  1.00  0.00     0.023 C 
BRANCH  23  24
ATOM     24  C   UNL     1      -0.461   9.635   3.426  1.00  0.00     0.116 C 
BRANCH  24  25
ATOM     25  N   UNL     1      -0.666   8.506   4.327  1.00  0.00    -0.352 N 
ATOM     26  C   UNL     1      -1.484   8.458   5.436  1.00  0.00     0.251 C 
ATOM     27  H   UNL     1      -0.163   7.686   4.120  1.00  0.00     0.163 HD
ATOM     28  O   UNL     1      -1.540   7.464   6.149  1.00  0.00    -0.269 OA
BRANCH  26  29
ATOM     29  C   UNL     1      -2.252   9.671   5.776  1.00  0.00     0.039 A 
ATOM     30  C   UNL     1      -2.056  10.264   7.024  1.00  0.00     0.014 A 
ATOM     31  C   UNL     1      -3.024  10.300   4.796  1.00  0.00     0.014 A 
ATOM     32  C   UNL     1      -2.563  11.543   7.256  1.00  0.00     0.010 A 
ATOM     33  C   UNL     1      -3.429  11.613   4.993  1.00  0.00     0.010 A 
ATOM     34  C   UNL     1      -3.204  12.249   6.224  1.00  0.00    -0.014 A 
BRANCH  34  35
ATOM     35  C   UNL     1      -3.646  13.654   6.411  1.00  0.00     0.031 A 
ATOM     36  C   UNL     1      -5.102  14.005   6.277  1.00  0.00     0.074 A 
ATOM     37  C   UNL     1      -2.736  14.623   6.639  1.00  0.00     0.049 A 
ATOM     38  N   UNL     1      -5.681  15.175   6.367  1.00  0.00    -0.248 NA
ATOM     39  C   UNL     1      -6.027  12.901   5.969  1.00  0.00     0.031 C 
ATOM     40  C   UNL     1      -1.287  14.425   6.736  1.00  0.00     0.029 A 
ATOM     41  N   UNL     1      -2.897  15.973   6.832  1.00  0.00    -0.354 N 
ATOM     42  C   UNL     1      -7.027  14.948   6.111  1.00  0.00     0.074 A 
ATOM     43  C   UNL     1      -7.170  13.545   5.796  1.00  0.00     0.031 C 
ATOM     44  C   UNL     1      -0.699  15.601   7.012  1.00  0.00     0.029 A 
ATOM     45  C   UNL     1      -1.720  16.642   7.068  1.00  0.00     0.049 A 
ATOM     46  H   UNL     1      -3.774  16.419   6.804  1.00  0.00     0.167 HD
ATOM     47  C   UNL     1      -8.060  15.821   6.162  1.00  0.00     0.031 A 
ATOM     48  C   UNL     1      -1.489  17.948   7.302  1.00  0.00     0.031 A 
ATOM     49  C   UNL     1      -7.921  17.214   6.488  1.00  0.00     0.049 A 
ATOM     50  C   UNL     1      -2.652  18.901   7.341  1.00  0.00     0.074 A 
ATOM     51  C   UNL     1      -8.912  18.169   6.625  1.00  0.00     0.029 A 
ATOM     52  N   UNL     1      -6.713  17.851   6.724  1.00  0.00    -0.354 N 
ATOM     53  N   UNL     1      -3.929  18.654   7.179  1.00  0.00    -0.248 NA
ATOM     54  C   UNL     1      -2.340  20.313   7.609  1.00  0.00     0.031 C 
ATOM     55  C   UNL     1      -8.298  19.398   6.886  1.00  0.00     0.029 A 
ATOM     56  C   UNL     1      -6.930  19.194   6.977  1.00  0.00     0.049 A 
ATOM     57  H   UNL     1      -5.831  17.413   6.712  1.00  0.00     0.167 HD
ATOM     58  C   UNL     1      -4.575  19.872   7.353  1.00  0.00     0.074 A 
ATOM     59  C   UNL     1      -3.551  20.851   7.653  1.00  0.00     0.031 C 
ATOM     60  C   UNL     1      -5.899  20.155   7.272  1.00  0.00     0.031 A 
BRANCH  47  61
ATOM     61  C   UNL     1      -9.432  15.287   5.853  1.00  0.00    -0.014 A 
ATOM     62  C   UNL     1     -10.075  14.385   6.716  1.00  0.00     0.009 A 
ATOM     63  C   UNL     1     -10.101  15.710   4.694  1.00  0.00     0.009 A 
ATOM     64  C   UNL     1     -11.342  13.887   6.405  1.00  0.00     0.001 A 
ATOM     65  C   UNL     1     -11.381  15.236   4.402  1.00  0.00     0.001 A 
ATOM     66  C   UNL     1     -11.995  14.317   5.251  1.00  0.00     0.000 A 
ENDBRANCH  47  61
BRANCH  48  67
ATOM     67  C   UNL     1      -0.102  18.434   7.537  1.00  0.00    -0.014 A 
ATOM     68  C   UNL     1       0.287  18.899   8.804  1.00  0.00     0.009 A 
ATOM     69  C   UNL     1       0.837  18.452   6.494  1.00  0.00     0.009 A 
ATOM     70  C   UNL     1       1.575  19.399   9.012  1.00  0.00     0.001 A 
ATOM     71  C   UNL     1       2.133  18.923   6.713  1.00  0.00     0.001 A 
ATOM     72  C   UNL     1       2.498  19.407   7.968  1.00  0.00     0.000 A 
ENDBRANCH  48  67
BRANCH  60  73
ATOM     73  C   UNL     1      -6.317  21.573   7.546  1.00  0.00    -0.014 A 
ATOM     74  C   UNL     1      -6.030  22.608   6.644  1.00  0.00     0.009 A 
ATOM     75  C   UNL     1      -7.048  21.866   8.709  1.00  0.00     0.009 A 
ATOM     76  C   UNL     1      -6.434  23.916   6.919  1.00  0.00     0.001 A 
ATOM     77  C   UNL     1      -7.479  23.168   8.965  1.00  0.00     0.001 A 
ATOM     78  C   UNL     1      -7.163  24.193   8.076  1.00  0.00     0.000 A 
ENDBRANCH  60  73
ENDBRANCH  34  35
ENDBRANCH  26  29
ENDBRANCH  24  25
ENDBRANCH  23  24
ENDBRANCH  22  23
ENDBRANCH   1  22
TORSDOF 15
