REMARK SMILES CCCC[C@@H](Sc1nc(OCCC2CCCCC2)cc(OCCC2CCCCC2)n1)C(=O)NCCCCNC(=O)c1ccc(-c2c3nc(c(-c4ccccc4)c4ccc([nH]4)c(-c4ccccc4)c4nc(c(-c5ccccc5)c5ccc2[nH]5)C=C4)C=C3)cc1
REMARK SMILES IDX 31 1 32 2 33 3 5 5 4 6 3 7 2 8 1 9 6 10 7 11 8 12 30 13 9 14
REMARK SMILES IDX 20 15 19 16 10 17 11 18 12 19 13 20 14 21 18 22 15 23 17 24
REMARK SMILES IDX 16 25 21 26 22 27 23 28 24 29 25 30 29 31 26 32 28 33 27 34
REMARK SMILES IDX 34 35 35 36 36 37 37 38 38 39 39 40 40 42 41 43 42 44 88 45
REMARK SMILES IDX 43 46 87 47 44 48 45 49 46 50 81 51 47 52 86 53 80 54 82 55
REMARK SMILES IDX 48 56 85 57 79 58 78 59 49 61 71 62 56 63 70 64 57 65 60 66
REMARK SMILES IDX 69 67 83 68 58 69 59 70 68 72 84 73 61 74 50 75 51 76 55 77
REMARK SMILES IDX 52 78 54 79 53 80 72 81 73 82 77 83 74 84 76 85 75 86 62 87
REMARK SMILES IDX 63 88 67 89 64 90 66 91 65 92
REMARK H PARENT 33 4 38 41 82 60 60 71
REMARK Flexibility Score: inf
ROOT
ATOM      1  C   UNL     1      -1.541  -2.414   2.959  1.00  0.00     0.233 C 
ATOM      2  O   UNL     1      -2.140  -1.509   3.546  1.00  0.00    -0.274 OA
ATOM      3  N   UNL     1      -1.302  -3.572   3.658  1.00  0.00    -0.355 N 
ATOM      4  H   UNL     1      -1.648  -3.577   4.580  1.00  0.00     0.163 HD
ENDROOT
BRANCH   1   5
ATOM      5  C   UNL     1      -1.064  -2.244   1.493  1.00  0.00     0.144 C 
BRANCH   5   6
ATOM      6  C   UNL     1       0.479  -2.349   1.535  1.00  0.00     0.025 C 
BRANCH   6   7
ATOM      7  C   UNL     1       1.371  -1.837   0.412  1.00  0.00     0.001 C 
BRANCH   7   8
ATOM      8  C   UNL     1       1.005  -0.495  -0.209  1.00  0.00    -0.003 C 
ATOM      9  C   UNL     1       1.313   0.679   0.696  1.00  0.00     0.004 C 
ENDBRANCH   7   8
ENDBRANCH   6   7
ENDBRANCH   5   6
BRANCH   5  10
ATOM     10  S   UNL     1      -2.232  -3.355   0.553  1.00  0.00    -0.073 SA
BRANCH  10  11
ATOM     11  C   UNL     1      -1.630  -3.476  -1.095  1.00  0.00     0.195 A 
ATOM     12  N   UNL     1      -0.605  -2.714  -1.476  1.00  0.00    -0.187 NA
ATOM     13  N   UNL     1      -2.154  -4.486  -1.817  1.00  0.00    -0.187 NA
ATOM     14  C   UNL     1       0.046  -3.110  -2.570  1.00  0.00     0.221 A 
ATOM     15  C   UNL     1      -1.508  -4.830  -2.934  1.00  0.00     0.221 A 
ATOM     16  C   UNL     1      -0.340  -4.216  -3.277  1.00  0.00     0.136 A 
BRANCH  14  17
ATOM     17  O   UNL     1       1.336  -2.633  -2.727  1.00  0.00    -0.477 OA
BRANCH  17  18
ATOM     18  C   UNL     1       1.514  -1.627  -3.730  1.00  0.00     0.231 C 
BRANCH  18  19
ATOM     19  C   UNL     1       2.617  -2.009  -4.762  1.00  0.00     0.045 C 
BRANCH  19  20
ATOM     20  C   UNL     1       2.722  -3.517  -5.012  1.00  0.00    -0.008 C 
ATOM     21  C   UNL     1       2.791  -3.982  -6.466  1.00  0.00     0.004 C 
ATOM     22  C   UNL     1       3.822  -4.206  -4.205  1.00  0.00     0.004 C 
ATOM     23  C   UNL     1       2.503  -5.492  -6.517  1.00  0.00     0.000 C 
ATOM     24  C   UNL     1       3.547  -5.710  -4.171  1.00  0.00     0.000 C 
ATOM     25  C   UNL     1       3.378  -6.314  -5.567  1.00  0.00     0.000 C 
ENDBRANCH  19  20
ENDBRANCH  18  19
ENDBRANCH  17  18
ENDBRANCH  14  17
BRANCH  15  26
ATOM     26  O   UNL     1      -2.081  -5.858  -3.636  1.00  0.00    -0.477 OA
BRANCH  26  27
ATOM     27  C   UNL     1      -1.481  -6.317  -4.856  1.00  0.00     0.231 C 
BRANCH  27  28
ATOM     28  C   UNL     1      -2.142  -5.736  -6.125  1.00  0.00     0.045 C 
BRANCH  28  29
ATOM     29  C   UNL     1      -2.156  -4.201  -6.236  1.00  0.00    -0.008 C 
ATOM     30  C   UNL     1      -0.778  -3.609  -6.526  1.00  0.00     0.004 C 
ATOM     31  C   UNL     1      -3.078  -3.675  -7.348  1.00  0.00     0.004 C 
ATOM     32  C   UNL     1      -0.829  -2.106  -6.306  1.00  0.00     0.000 C 
ATOM     33  C   UNL     1      -3.151  -2.139  -7.316  1.00  0.00     0.000 C 
ATOM     34  C   UNL     1      -1.788  -1.444  -7.277  1.00  0.00     0.000 C 
ENDBRANCH  28  29
ENDBRANCH  27  28
ENDBRANCH  26  27
ENDBRANCH  15  26
ENDBRANCH  10  11
ENDBRANCH   5  10
ENDBRANCH   1   5
BRANCH   3  35
ATOM     35  C   UNL     1      -0.618  -4.793   3.256  1.00  0.00     0.116 C 
BRANCH  35  36
ATOM     36  C   UNL     1       0.767  -4.898   3.902  1.00  0.00     0.023 C 
BRANCH  36  37
ATOM     37  C   UNL     1       0.734  -5.178   5.401  1.00  0.00     0.023 C 
BRANCH  37  38
ATOM     38  C   UNL     1       0.005  -6.457   5.783  1.00  0.00     0.116 C 
BRANCH  38  39
ATOM     39  N   UNL     1       0.601  -7.645   5.192  1.00  0.00    -0.352 N 
ATOM     40  C   UNL     1       0.836  -8.865   5.787  1.00  0.00     0.251 C 
ATOM     41  H   UNL     1       0.869  -7.568   4.248  1.00  0.00     0.163 HD
ATOM     42  O   UNL     1       1.479  -9.729   5.219  1.00  0.00    -0.269 OA
BRANCH  40  43
ATOM     43  C   UNL     1       0.317  -9.088   7.153  1.00  0.00     0.039 A 
ATOM     44  C   UNL     1       1.186  -9.566   8.134  1.00  0.00     0.014 A 
ATOM     45  C   UNL     1      -1.004  -8.759   7.467  1.00  0.00     0.014 A 
ATOM     46  C   UNL     1       0.743  -9.651   9.454  1.00  0.00     0.010 A 
ATOM     47  C   UNL     1      -1.414  -8.760   8.794  1.00  0.00     0.010 A 
ATOM     48  C   UNL     1      -0.546  -9.212   9.800  1.00  0.00    -0.014 A 
BRANCH  48  49
ATOM     49  C   UNL     1      -1.008  -9.220  11.210  1.00  0.00     0.031 A 
ATOM     50  C   UNL     1      -2.176 -10.076  11.613  1.00  0.00     0.074 A 
ATOM     51  C   UNL     1      -0.416  -8.412  12.111  1.00  0.00     0.049 A 
ATOM     52  N   UNL     1      -2.753 -10.185  12.783  1.00  0.00    -0.248 NA
ATOM     53  C   UNL     1      -2.796 -10.897  10.560  1.00  0.00     0.031 C 
ATOM     54  C   UNL     1       0.697  -7.500  11.833  1.00  0.00     0.029 A 
ATOM     55  N   UNL     1      -0.672  -8.226  13.446  1.00  0.00    -0.354 N 
ATOM     56  C   UNL     1      -3.808 -11.070  12.601  1.00  0.00     0.074 A 
ATOM     57  C   UNL     1      -3.828 -11.425  11.200  1.00  0.00     0.031 C 
ATOM     58  C   UNL     1       1.047  -6.876  12.969  1.00  0.00     0.029 A 
ATOM     59  C   UNL     1       0.158  -7.307  14.043  1.00  0.00     0.049 A 
ATOM     60  H   UNL     1      -1.382  -8.705  13.931  1.00  0.00     0.167 HD
ATOM     61  C   UNL     1      -4.671 -11.560  13.521  1.00  0.00     0.031 A 
ATOM     62  C   UNL     1       0.193  -6.856  15.311  1.00  0.00     0.031 A 
ATOM     63  C   UNL     1      -4.645 -11.212  14.916  1.00  0.00     0.049 A 
ATOM     64  C   UNL     1      -0.788  -7.404  16.311  1.00  0.00     0.074 A 
ATOM     65  C   UNL     1      -5.437 -11.701  15.940  1.00  0.00     0.029 A 
ATOM     66  N   UNL     1      -3.787 -10.282  15.482  1.00  0.00    -0.354 N 
ATOM     67  N   UNL     1      -1.728  -8.303  16.140  1.00  0.00    -0.248 NA
ATOM     68  C   UNL     1      -0.695  -6.884  17.682  1.00  0.00     0.031 C 
ATOM     69  C   UNL     1      -5.100 -11.021  17.114  1.00  0.00     0.029 A 
ATOM     70  C   UNL     1      -4.051 -10.159  16.835  1.00  0.00     0.049 A 
ATOM     71  H   UNL     1      -3.093  -9.783  14.993  1.00  0.00     0.167 HD
ATOM     72  C   UNL     1      -2.317  -8.477  17.386  1.00  0.00     0.074 A 
ATOM     73  C   UNL     1      -1.615  -7.605  18.305  1.00  0.00     0.031 C 
ATOM     74  C   UNL     1      -3.345  -9.286  17.737  1.00  0.00     0.031 A 
BRANCH  61  75
ATOM     75  C   UNL     1      -5.725 -12.520  13.043  1.00  0.00    -0.014 A 
ATOM     76  C   UNL     1      -5.393 -13.811  12.601  1.00  0.00     0.009 A 
ATOM     77  C   UNL     1      -7.076 -12.141  13.069  1.00  0.00     0.009 A 
ATOM     78  C   UNL     1      -6.387 -14.688  12.161  1.00  0.00     0.001 A 
ATOM     79  C   UNL     1      -8.071 -13.030  12.660  1.00  0.00     0.001 A 
ATOM     80  C   UNL     1      -7.725 -14.299  12.197  1.00  0.00     0.000 A 
ENDBRANCH  61  75
BRANCH  62  81
ATOM     81  C   UNL     1       1.197  -5.835  15.714  1.00  0.00    -0.014 A 
ATOM     82  C   UNL     1       2.241  -6.166  16.591  1.00  0.00     0.009 A 
ATOM     83  C   UNL     1       1.107  -4.519  15.235  1.00  0.00     0.009 A 
ATOM     84  C   UNL     1       3.155  -5.193  17.005  1.00  0.00     0.001 A 
ATOM     85  C   UNL     1       2.042  -3.557  15.623  1.00  0.00     0.001 A 
ATOM     86  C   UNL     1       3.057  -3.891  16.517  1.00  0.00     0.000 A 
ENDBRANCH  62  81
BRANCH  74  87
ATOM     87  C   UNL     1      -3.749  -9.298  19.186  1.00  0.00    -0.014 A 
ATOM     88  C   UNL     1      -4.398  -8.202  19.774  1.00  0.00     0.009 A 
ATOM     89  C   UNL     1      -3.513 -10.445  19.960  1.00  0.00     0.009 A 
ATOM     90  C   UNL     1      -4.769  -8.241  21.120  1.00  0.00     0.001 A 
ATOM     91  C   UNL     1      -3.915 -10.494  21.295  1.00  0.00     0.001 A 
ATOM     92  C   UNL     1      -4.533  -9.389  21.877  1.00  0.00     0.000 A 
ENDBRANCH  74  87
ENDBRANCH  48  49
ENDBRANCH  40  43
ENDBRANCH  38  39
ENDBRANCH  37  38
ENDBRANCH  36  37
ENDBRANCH  35  36
ENDBRANCH   3  35
TORSDOF 24
