REMARK SMILES Cc1ccc(S(=O)(=O)Nc2ccc(C(=O)CCC(=O)NCCCCNC(=O)c3ccc(-c4c5nc(c(-c6ccccc6)c6ccc([nH]6)c(-c6ccccc6)c6nc(c(-c7ccccc7)c7ccc4[nH]7)C=C6)C=C5)cc3)cc2)c(C)c1
REMARK SMILES IDX 18 1 19 2 20 3 17 5 16 6 14 7 15 8 13 9 10 10 11 11 77 12
REMARK SMILES IDX 12 13 76 14 9 15 6 17 7 18 8 19 5 20 1 21 2 22 3 23 80 24
REMARK SMILES IDX 4 25 78 26 79 27 21 28 22 29 23 30 24 31 25 32 26 33 27 35
REMARK SMILES IDX 28 36 29 37 75 38 30 39 74 40 31 41 32 42 33 43 68 44 34 45
REMARK SMILES IDX 73 46 67 47 69 48 35 49 72 50 66 51 65 52 36 54 58 55 43 56
REMARK SMILES IDX 57 57 44 58 47 59 56 60 70 61 45 62 46 63 55 65 71 66 48 67
REMARK SMILES IDX 37 68 38 69 42 70 39 71 41 72 40 73 59 74 60 75 64 76 61 77
REMARK SMILES IDX 63 78 62 79 49 80 50 81 54 82 51 83 53 84 52 85
REMARK H PARENT 20 4 9 16 25 34 69 53 47 64
REMARK Flexibility Score: inf
ROOT
ATOM      1  C   UNL     1       3.342  -3.444   0.692  1.00  0.00     0.220 C 
ATOM      2  O   UNL     1       3.229  -2.595   1.577  1.00  0.00    -0.275 OA
ATOM      3  N   UNL     1       2.566  -3.332  -0.414  1.00  0.00    -0.356 N 
ATOM      4  H   UNL     1       1.736  -2.820  -0.280  1.00  0.00     0.163 HD
ENDROOT
BRANCH   1   5
ATOM      5  C   UNL     1       4.193  -4.664   0.886  1.00  0.00     0.108 C 
BRANCH   5   6
ATOM      6  C   UNL     1       3.607  -5.502   2.029  1.00  0.00     0.091 C 
BRANCH   6   7
ATOM      7  C   UNL     1       2.357  -6.270   1.623  1.00  0.00     0.163 C 
ATOM      8  O   UNL     1       2.472  -7.365   1.068  1.00  0.00    -0.294 OA
BRANCH   7   9
ATOM      9  C   UNL     1       0.983  -5.667   1.758  1.00  0.00     0.018 A 
ATOM     10  C   UNL     1      -1.405  -4.301   1.129  1.00  0.00     0.049 A 
ATOM     11  C   UNL     1      -1.273  -5.668   0.854  1.00  0.00     0.027 A 
ATOM     12  C   UNL     1      -0.435  -3.692   1.921  1.00  0.00     0.027 A 
ATOM     13  C   UNL     1      -0.086  -6.348   1.163  1.00  0.00     0.014 A 
ATOM     14  C   UNL     1       0.745  -4.384   2.258  1.00  0.00     0.014 A 
BRANCH  10  15
ATOM     15  N   UNL     1      -2.317  -3.580   0.295  1.00  0.00    -0.280 N 
ATOM     16  H   UNL     1      -2.675  -4.068  -0.482  1.00  0.00     0.180 HD
BRANCH  15  17
ATOM     17  S   UNL     1      -2.847  -2.002   0.488  1.00  0.00     0.262 S 
ATOM     18  O   UNL     1      -3.107  -1.794   1.901  1.00  0.00    -0.201 OA
ATOM     19  O   UNL     1      -3.879  -1.841  -0.509  1.00  0.00    -0.201 OA
BRANCH  17  20
ATOM     20  C   UNL     1      -1.534  -0.883   0.008  1.00  0.00     0.090 A 
ATOM     21  C   UNL     1       2.008   1.559  -0.180  1.00  0.00     0.044 C 
ATOM     22  C   UNL     1       0.742   0.755  -0.217  1.00  0.00    -0.051 A 
ATOM     23  C   UNL     1       0.737  -0.529  -0.755  1.00  0.00     0.005 A 
ATOM     24  C   UNL     1      -0.464   1.279   0.249  1.00  0.00     0.008 A 
ATOM     25  C   UNL     1      -0.379  -1.362  -0.609  1.00  0.00     0.023 A 
ATOM     26  C   UNL     1      -1.625   0.484   0.326  1.00  0.00    -0.030 A 
ATOM     27  C   UNL     1      -2.918   1.188   0.632  1.00  0.00     0.046 C 
ENDBRANCH  17  20
ENDBRANCH  15  17
ENDBRANCH  10  15
ENDBRANCH   7   9
ENDBRANCH   6   7
ENDBRANCH   5   6
ENDBRANCH   1   5
BRANCH   3  28
ATOM     28  C   UNL     1       2.751  -3.839  -1.765  1.00  0.00     0.116 C 
BRANCH  28  29
ATOM     29  C   UNL     1       2.016  -5.145  -2.074  1.00  0.00     0.023 C 
BRANCH  29  30
ATOM     30  C   UNL     1       0.512  -5.099  -1.816  1.00  0.00     0.023 C 
BRANCH  30  31
ATOM     31  C   UNL     1      -0.376  -4.517  -2.911  1.00  0.00     0.116 C 
BRANCH  31  32
ATOM     32  N   UNL     1      -0.778  -5.545  -3.852  1.00  0.00    -0.352 N 
ATOM     33  C   UNL     1      -2.005  -6.103  -4.119  1.00  0.00     0.251 C 
ATOM     34  H   UNL     1      -0.041  -5.906  -4.397  1.00  0.00     0.163 HD
ATOM     35  O   UNL     1      -2.026  -7.182  -4.712  1.00  0.00    -0.269 OA
BRANCH  33  36
ATOM     36  C   UNL     1      -3.300  -5.467  -3.742  1.00  0.00     0.039 A 
ATOM     37  C   UNL     1      -4.428  -6.295  -3.618  1.00  0.00     0.014 A 
ATOM     38  C   UNL     1      -3.475  -4.086  -3.629  1.00  0.00     0.014 A 
ATOM     39  C   UNL     1      -5.700  -5.751  -3.392  1.00  0.00     0.010 A 
ATOM     40  C   UNL     1      -4.732  -3.549  -3.319  1.00  0.00     0.010 A 
ATOM     41  C   UNL     1      -5.868  -4.369  -3.229  1.00  0.00    -0.014 A 
BRANCH  41  42
ATOM     42  C   UNL     1      -7.217  -3.766  -3.019  1.00  0.00     0.031 A 
ATOM     43  C   UNL     1      -7.789  -2.797  -4.029  1.00  0.00     0.074 A 
ATOM     44  C   UNL     1      -7.925  -4.052  -1.907  1.00  0.00     0.049 A 
ATOM     45  N   UNL     1      -8.913  -2.123  -3.989  1.00  0.00    -0.248 NA
ATOM     46  C   UNL     1      -6.986  -2.541  -5.236  1.00  0.00     0.031 C 
ATOM     47  C   UNL     1      -7.499  -4.958  -0.839  1.00  0.00     0.029 A 
ATOM     48  N   UNL     1      -9.155  -3.602  -1.487  1.00  0.00    -0.354 N 
ATOM     49  C   UNL     1      -8.933  -1.342  -5.140  1.00  0.00     0.074 A 
ATOM     50  C   UNL     1      -7.696  -1.601  -5.844  1.00  0.00     0.031 C 
ATOM     51  C   UNL     1      -8.457  -5.013   0.100  1.00  0.00     0.029 A 
ATOM     52  C   UNL     1      -9.544  -4.112  -0.271  1.00  0.00     0.049 A 
ATOM     53  H   UNL     1      -9.705  -2.974  -2.009  1.00  0.00     0.167 HD
ATOM     54  C   UNL     1      -9.895  -0.496  -5.582  1.00  0.00     0.031 A 
ATOM     55  C   UNL     1     -10.642  -3.873   0.471  1.00  0.00     0.031 A 
ATOM     56  C   UNL     1     -11.139  -0.251  -4.901  1.00  0.00     0.049 A 
ATOM     57  C   UNL     1     -11.681  -2.906  -0.031  1.00  0.00     0.074 A 
ATOM     58  C   UNL     1     -12.202   0.537  -5.309  1.00  0.00     0.029 A 
ATOM     59  N   UNL     1     -11.487  -0.787  -3.673  1.00  0.00    -0.354 N 
ATOM     60  N   UNL     1     -11.712  -2.233  -1.155  1.00  0.00    -0.248 NA
ATOM     61  C   UNL     1     -12.844  -2.675   0.840  1.00  0.00     0.031 C 
ATOM     62  C   UNL     1     -13.169   0.526  -4.299  1.00  0.00     0.029 A 
ATOM     63  C   UNL     1     -12.736  -0.322  -3.293  1.00  0.00     0.049 A 
ATOM     64  H   UNL     1     -10.930  -1.406  -3.147  1.00  0.00     0.167 HD
ATOM     65  C   UNL     1     -12.910  -1.529  -1.141  1.00  0.00     0.074 A 
ATOM     66  C   UNL     1     -13.585  -1.871   0.092  1.00  0.00     0.031 C 
ATOM     67  C   UNL     1     -13.406  -0.676  -2.070  1.00  0.00     0.031 A 
BRANCH  54  68
ATOM     68  C   UNL     1      -9.642   0.249  -6.866  1.00  0.00    -0.014 A 
ATOM     69  C   UNL     1      -9.652  -0.406  -8.107  1.00  0.00     0.009 A 
ATOM     70  C   UNL     1      -9.463   1.642  -6.837  1.00  0.00     0.009 A 
ATOM     71  C   UNL     1      -9.458   0.313  -9.289  1.00  0.00     0.001 A 
ATOM     72  C   UNL     1      -9.299   2.362  -8.022  1.00  0.00     0.001 A 
ATOM     73  C   UNL     1      -9.289   1.697  -9.246  1.00  0.00     0.000 A 
ENDBRANCH  54  68
BRANCH  55  74
ATOM     74  C   UNL     1     -10.830  -4.556   1.780  1.00  0.00    -0.014 A 
ATOM     75  C   UNL     1     -11.857  -5.498   1.951  1.00  0.00     0.009 A 
ATOM     76  C   UNL     1     -10.013  -4.240   2.877  1.00  0.00     0.009 A 
ATOM     77  C   UNL     1     -12.085  -6.081   3.200  1.00  0.00     0.001 A 
ATOM     78  C   UNL     1     -10.222  -4.849   4.116  1.00  0.00     0.001 A 
ATOM     79  C   UNL     1     -11.265  -5.759   4.280  1.00  0.00     0.000 A 
ENDBRANCH  55  74
BRANCH  67  80
ATOM     80  C   UNL     1     -14.768  -0.092  -1.816  1.00  0.00    -0.014 A 
ATOM     81  C   UNL     1     -14.979   0.872  -0.818  1.00  0.00     0.009 A 
ATOM     82  C   UNL     1     -15.851  -0.488  -2.618  1.00  0.00     0.009 A 
ATOM     83  C   UNL     1     -16.254   1.400  -0.605  1.00  0.00     0.001 A 
ATOM     84  C   UNL     1     -17.117   0.066  -2.424  1.00  0.00     0.001 A 
ATOM     85  C   UNL     1     -17.320   1.001  -1.411  1.00  0.00     0.000 A 
ENDBRANCH  67  80
ENDBRANCH  41  42
ENDBRANCH  33  36
ENDBRANCH  31  32
ENDBRANCH  30  31
ENDBRANCH  29  30
ENDBRANCH  28  29
ENDBRANCH   3  28
TORSDOF 17
