REMARK SMILES COC1CCN(c2nc(C(C)C)c(C(=O)NCCCCNC(=O)c3ccc(-c4c5nc(c(-c6ccccc6)c6ccc([nH]6)c(-c6ccccc6)c6nc(c(-c7ccccc7)c7ccc4[nH]7)C=C6)C=C5)cc3)s2)CC1
REMARK SMILES IDX 18 1 17 2 16 3 14 4 15 5 13 7 7 8 8 9 72 10 9 11 6 12 3 13
REMARK SMILES IDX 4 14 74 15 5 16 73 17 2 18 1 19 10 20 11 21 12 22 19 23
REMARK SMILES IDX 20 24 21 25 22 26 23 28 24 29 25 30 71 31 26 32 70 33 27 34
REMARK SMILES IDX 28 35 29 36 64 37 30 38 69 39 63 40 65 41 31 42 68 43 62 44
REMARK SMILES IDX 61 45 32 47 54 48 39 49 53 50 40 51 43 52 52 53 66 54 41 55
REMARK SMILES IDX 42 56 51 58 67 59 44 60 33 61 34 62 38 63 35 64 37 65 36 66
REMARK SMILES IDX 55 67 56 68 60 69 57 70 59 71 58 72 45 73 46 74 50 75 47 76
REMARK SMILES IDX 49 77 48 78
REMARK H PARENT 16 6 21 27 65 46 43 57
REMARK Flexibility Score: inf
ROOT
ATOM      1  C   UNL     1      11.562   1.650   3.071  1.00  0.00     0.023 C 
ENDROOT
BRANCH   1   2
ATOM      2  C   UNL     1      10.590   0.802   3.885  1.00  0.00     0.116 C 
BRANCH   2   3
ATOM      3  N   UNL     1       9.677   1.609   4.638  1.00  0.00    -0.351 N 
ATOM      4  C   UNL     1       8.341   1.893   4.578  1.00  0.00     0.263 C 
ATOM      5  O   UNL     1       8.034   2.682   5.487  1.00  0.00    -0.268 OA
ATOM      6  H   UNL     1      10.121   2.074   5.383  1.00  0.00     0.163 HD
BRANCH   4   7
ATOM      7  C   UNL     1       7.347   1.372   3.633  1.00  0.00     0.117 A 
ATOM      8  C   UNL     1       5.046   1.100   2.725  1.00  0.00     0.186 A 
ATOM      9  N   UNL     1       5.896   0.334   2.103  1.00  0.00    -0.224 NA
ATOM     10  S   UNL     1       5.751   2.058   3.936  1.00  0.00    -0.091 S 
ATOM     11  C   UNL     1       7.211   0.520   2.529  1.00  0.00     0.069 A 
BRANCH   8  12
ATOM     12  N   UNL     1       3.713   1.087   2.476  1.00  0.00    -0.348 N 
ATOM     13  C   UNL     1       0.923   0.996   1.815  1.00  0.00     0.121 C 
ATOM     14  C   UNL     1       1.570   2.261   2.390  1.00  0.00     0.053 C 
ATOM     15  C   UNL     1       1.694  -0.241   2.286  1.00  0.00     0.053 C 
ATOM     16  C   UNL     1       3.059   2.325   2.053  1.00  0.00     0.121 C 
ATOM     17  C   UNL     1       3.165  -0.140   1.906  1.00  0.00     0.121 C 
BRANCH  13  18
ATOM     18  O   UNL     1       0.893   1.141   0.389  1.00  0.00    -0.381 OA
ATOM     19  C   UNL     1       0.357   0.023  -0.305  1.00  0.00     0.195 C 
ENDBRANCH  13  18
ENDBRANCH   8  12
BRANCH  11  20
ATOM     20  C   UNL     1       8.152  -0.261   1.646  1.00  0.00     0.034 C 
ATOM     21  C   UNL     1       9.123   0.637   0.880  1.00  0.00     0.014 C 
ATOM     22  C   UNL     1       8.719  -1.525   2.300  1.00  0.00     0.014 C 
ENDBRANCH  11  20
ENDBRANCH   4   7
ENDBRANCH   2   3
ENDBRANCH   1   2
BRANCH   1  23
ATOM     23  C   UNL     1      12.965   1.729   3.657  1.00  0.00     0.023 C 
BRANCH  23  24
ATOM     24  C   UNL     1      13.652   0.384   3.863  1.00  0.00     0.116 C 
BRANCH  24  25
ATOM     25  N   UNL     1      13.694  -0.468   2.680  1.00  0.00    -0.352 N 
ATOM     26  C   UNL     1      14.690  -1.349   2.319  1.00  0.00     0.251 C 
ATOM     27  H   UNL     1      12.924  -0.406   2.071  1.00  0.00     0.163 HD
ATOM     28  O   UNL     1      14.632  -1.985   1.273  1.00  0.00    -0.269 OA
BRANCH  26  29
ATOM     29  C   UNL     1      15.864  -1.461   3.204  1.00  0.00     0.039 A 
ATOM     30  C   UNL     1      17.123  -1.145   2.695  1.00  0.00     0.014 A 
ATOM     31  C   UNL     1      15.681  -1.714   4.566  1.00  0.00     0.014 A 
ATOM     32  C   UNL     1      18.192  -0.982   3.576  1.00  0.00     0.010 A 
ATOM     33  C   UNL     1      16.724  -1.461   5.447  1.00  0.00     0.010 A 
ATOM     34  C   UNL     1      17.986  -1.081   4.962  1.00  0.00    -0.014 A 
BRANCH  34  35
ATOM     35  C   UNL     1      19.068  -0.773   5.929  1.00  0.00     0.031 A 
ATOM     36  C   UNL     1      19.552  -1.837   6.873  1.00  0.00     0.074 A 
ATOM     37  C   UNL     1      19.549   0.482   6.023  1.00  0.00     0.049 A 
ATOM     38  N   UNL     1      20.416  -1.743   7.851  1.00  0.00    -0.248 NA
ATOM     39  C   UNL     1      18.954  -3.174   6.724  1.00  0.00     0.031 C 
ATOM     40  C   UNL     1      19.118   1.625   5.214  1.00  0.00     0.029 A 
ATOM     41  N   UNL     1      20.506   1.009   6.854  1.00  0.00    -0.354 N 
ATOM     42  C   UNL     1      20.442  -2.995   8.449  1.00  0.00     0.074 A 
ATOM     43  C   UNL     1      19.470  -3.816   7.761  1.00  0.00     0.031 C 
ATOM     44  C   UNL     1      19.828   2.708   5.568  1.00  0.00     0.029 A 
ATOM     45  C   UNL     1      20.739   2.348   6.649  1.00  0.00     0.049 A 
ATOM     46  H   UNL     1      20.980   0.478   7.534  1.00  0.00     0.167 HD
ATOM     47  C   UNL     1      21.223  -3.435   9.463  1.00  0.00     0.031 A 
ATOM     48  C   UNL     1      21.591   3.190   7.262  1.00  0.00     0.031 A 
ATOM     49  C   UNL     1      22.212  -2.633  10.128  1.00  0.00     0.049 A 
ATOM     50  C   UNL     1      22.479   2.669   8.357  1.00  0.00     0.074 A 
ATOM     51  C   UNL     1      23.098  -3.005  11.124  1.00  0.00     0.029 A 
ATOM     52  N   UNL     1      22.452  -1.296   9.854  1.00  0.00    -0.354 N 
ATOM     53  N   UNL     1      22.539   1.463   8.866  1.00  0.00    -0.248 NA
ATOM     54  C   UNL     1      23.427   3.623   8.950  1.00  0.00     0.031 C 
ATOM     55  C   UNL     1      23.856  -1.882  11.473  1.00  0.00     0.029 A 
ATOM     56  C   UNL     1      23.467  -0.824  10.667  1.00  0.00     0.049 A 
ATOM     57  H   UNL     1      21.971  -0.761   9.182  1.00  0.00     0.167 HD
ATOM     58  C   UNL     1      23.544   1.506   9.823  1.00  0.00     0.074 A 
ATOM     59  C   UNL     1      24.077   2.853   9.812  1.00  0.00     0.031 C 
ATOM     60  C   UNL     1      23.985   0.519  10.639  1.00  0.00     0.031 A 
BRANCH  47  61
ATOM     61  C   UNL     1      21.030  -4.859   9.903  1.00  0.00    -0.014 A 
ATOM     62  C   UNL     1      21.432  -5.929   9.087  1.00  0.00     0.009 A 
ATOM     63  C   UNL     1      20.441  -5.134  11.146  1.00  0.00     0.009 A 
ATOM     64  C   UNL     1      21.204  -7.247   9.486  1.00  0.00     0.001 A 
ATOM     65  C   UNL     1      20.241  -6.454  11.556  1.00  0.00     0.001 A 
ATOM     66  C   UNL     1      20.611  -7.508  10.721  1.00  0.00     0.000 A 
ENDBRANCH  47  61
BRANCH  48  67
ATOM     67  C   UNL     1      21.671   4.609   6.833  1.00  0.00    -0.014 A 
ATOM     68  C   UNL     1      22.770   5.064   6.088  1.00  0.00     0.009 A 
ATOM     69  C   UNL     1      20.653   5.516   7.164  1.00  0.00     0.009 A 
ATOM     70  C   UNL     1      22.860   6.403   5.704  1.00  0.00     0.001 A 
ATOM     71  C   UNL     1      20.734   6.850   6.758  1.00  0.00     0.001 A 
ATOM     72  C   UNL     1      21.840   7.294   6.035  1.00  0.00     0.000 A 
ENDBRANCH  48  67
BRANCH  60  73
ATOM     73  C   UNL     1      25.119   0.851  11.565  1.00  0.00    -0.014 A 
ATOM     74  C   UNL     1      24.913   1.631  12.713  1.00  0.00     0.009 A 
ATOM     75  C   UNL     1      26.399   0.339  11.306  1.00  0.00     0.009 A 
ATOM     76  C   UNL     1      25.978   1.913  13.571  1.00  0.00     0.001 A 
ATOM     77  C   UNL     1      27.456   0.604  12.178  1.00  0.00     0.001 A 
ATOM     78  C   UNL     1      27.246   1.396  13.305  1.00  0.00     0.000 A 
ENDBRANCH  60  73
ENDBRANCH  34  35
ENDBRANCH  26  29
ENDBRANCH  24  25
ENDBRANCH  23  24
ENDBRANCH   1  23
TORSDOF 14
