REMARK SMILES O=C(CSc1ccc2ccccc2n1)NCc1ccc(C(=O)NCCCCNC(=O)c2ccc(-c3c4nc(c(-c5ccccc5)c5ccc([nH]5)c(-c5ccccc5)c5nc(c(-c6ccccc6)c6ccc3[nH]6)C=C5)C=C4)cc2)cc1
REMARK SMILES IDX 24 1 23 2 21 3 22 4 20 6 17 7 18 8 80 9 19 10 79 11 16 12
REMARK SMILES IDX 15 13 1 14 2 15 3 17 4 18 5 19 6 20 14 21 7 22 13 23 8 24
REMARK SMILES IDX 12 25 9 26 11 27 10 28 25 29 26 30 27 31 28 32 29 33 30 35
REMARK SMILES IDX 31 36 32 37 78 38 33 39 77 40 34 41 35 42 36 43 71 44 37 45
REMARK SMILES IDX 76 46 70 47 72 48 38 49 75 50 69 51 68 52 39 54 61 55 46 56
REMARK SMILES IDX 60 57 47 58 50 59 59 60 73 61 48 62 49 63 58 65 74 66 51 67
REMARK SMILES IDX 40 68 41 69 45 70 42 71 44 72 43 73 62 74 63 75 67 76 64 77
REMARK SMILES IDX 66 78 65 79 52 80 53 81 57 82 54 83 56 84 55 85
REMARK H PARENT 23 5 15 16 28 34 72 53 50 64
REMARK Flexibility Score: inf
ROOT
ATOM      1  C   UNL     1       3.898  -1.792  -6.839  1.00  0.00     0.116 C 
ENDROOT
BRANCH   1   2
ATOM      2  N   UNL     1       3.921  -3.240  -6.771  1.00  0.00    -0.352 N 
ATOM      3  C   UNL     1       3.683  -4.106  -5.731  1.00  0.00     0.251 C 
ATOM      4  O   UNL     1       3.703  -5.313  -5.974  1.00  0.00    -0.269 OA
ATOM      5  H   UNL     1       4.146  -3.682  -7.621  1.00  0.00     0.163 HD
BRANCH   3   6
ATOM      6  C   UNL     1       3.357  -3.649  -4.352  1.00  0.00     0.039 A 
ATOM      7  C   UNL     1       2.611  -2.896  -1.722  1.00  0.00    -0.029 A 
ATOM      8  C   UNL     1       2.135  -4.087  -2.292  1.00  0.00     0.006 A 
ATOM      9  C   UNL     1       3.498  -2.115  -2.472  1.00  0.00     0.006 A 
ATOM     10  C   UNL     1       2.503  -4.458  -3.591  1.00  0.00     0.014 A 
ATOM     11  C   UNL     1       3.884  -2.500  -3.761  1.00  0.00     0.014 A 
BRANCH   7  12
ATOM     12  C   UNL     1       2.144  -2.514  -0.333  1.00  0.00     0.151 C 
BRANCH  12  13
ATOM     13  N   UNL     1       2.730  -1.288   0.157  1.00  0.00    -0.351 N 
ATOM     14  O   UNL     1       0.841  -0.005  -0.035  1.00  0.00    -0.274 OA
ATOM     15  C   UNL     1       2.030  -0.110   0.263  1.00  0.00     0.230 C 
ATOM     16  H   UNL     1       3.677  -1.296   0.429  1.00  0.00     0.163 HD
BRANCH  15  17
ATOM     17  C   UNL     1       2.854   1.113   0.632  1.00  0.00     0.176 C 
BRANCH  17  18
ATOM     18  S   UNL     1       4.134   0.788   1.878  1.00  0.00    -0.096 SA
BRANCH  18  19
ATOM     19  C   UNL     1       3.083   0.361   3.247  1.00  0.00     0.097 A 
ATOM     20  C   UNL     1       2.400   1.342   3.949  1.00  0.00     0.036 A 
ATOM     21  N   UNL     1       3.023  -0.952   3.554  1.00  0.00    -0.241 NA
ATOM     22  C   UNL     1       1.611   0.954   5.026  1.00  0.00     0.013 A 
ATOM     23  C   UNL     1       2.266  -1.324   4.601  1.00  0.00     0.072 A 
ATOM     24  C   UNL     1       1.535  -0.398   5.376  1.00  0.00     0.000 A 
ATOM     25  C   UNL     1       2.197  -2.666   4.951  1.00  0.00     0.029 A 
ATOM     26  C   UNL     1       0.763  -0.836   6.467  1.00  0.00     0.010 A 
ATOM     27  C   UNL     1       1.433  -3.106   6.037  1.00  0.00     0.002 A 
ATOM     28  C   UNL     1       0.716  -2.188   6.796  1.00  0.00     0.001 A 
ENDBRANCH  18  19
ENDBRANCH  17  18
ENDBRANCH  15  17
ENDBRANCH  12  13
ENDBRANCH   7  12
ENDBRANCH   3   6
ENDBRANCH   1   2
BRANCH   1  29
ATOM     29  C   UNL     1       5.317  -1.221  -6.775  1.00  0.00     0.023 C 
BRANCH  29  30
ATOM     30  C   UNL     1       6.103  -1.331  -8.084  1.00  0.00     0.023 C 
BRANCH  30  31
ATOM     31  C   UNL     1       5.548  -0.506  -9.239  1.00  0.00     0.116 C 
BRANCH  31  32
ATOM     32  N   UNL     1       5.494   0.920  -8.956  1.00  0.00    -0.352 N 
ATOM     33  C   UNL     1       5.670   1.971  -9.827  1.00  0.00     0.251 C 
ATOM     34  H   UNL     1       5.307   1.165  -8.021  1.00  0.00     0.163 HD
ATOM     35  O   UNL     1       5.688   3.125  -9.421  1.00  0.00    -0.269 OA
BRANCH  33  36
ATOM     36  C   UNL     1       5.885   1.680 -11.258  1.00  0.00     0.039 A 
ATOM     37  C   UNL     1       7.008   2.218 -11.891  1.00  0.00     0.014 A 
ATOM     38  C   UNL     1       5.016   0.833 -11.949  1.00  0.00     0.014 A 
ATOM     39  C   UNL     1       7.308   1.836 -13.200  1.00  0.00     0.010 A 
ATOM     40  C   UNL     1       5.347   0.408 -13.231  1.00  0.00     0.010 A 
ATOM     41  C   UNL     1       6.504   0.894 -13.861  1.00  0.00    -0.014 A 
BRANCH  41  42
ATOM     42  C   UNL     1       6.867   0.372 -15.200  1.00  0.00     0.031 A 
ATOM     43  C   UNL     1       5.987   0.655 -16.383  1.00  0.00     0.074 A 
ATOM     44  C   UNL     1       7.939  -0.433 -15.330  1.00  0.00     0.049 A 
ATOM     45  N   UNL     1       6.075   0.195 -17.604  1.00  0.00    -0.248 NA
ATOM     46  C   UNL     1       4.847   1.558 -16.158  1.00  0.00     0.031 C 
ATOM     47  C   UNL     1       8.856  -0.809 -14.251  1.00  0.00     0.029 A 
ATOM     48  N   UNL     1       8.430  -1.094 -16.428  1.00  0.00    -0.354 N 
ATOM     49  C   UNL     1       4.995   0.736 -18.288  1.00  0.00     0.074 A 
ATOM     50  C   UNL     1       4.244   1.528 -17.337  1.00  0.00     0.031 C 
ATOM     51  C   UNL     1       9.806  -1.620 -14.744  1.00  0.00     0.029 A 
ATOM     52  C   UNL     1       9.542  -1.855 -16.160  1.00  0.00     0.049 A 
ATOM     53  H   UNL     1       8.025  -1.029 -17.322  1.00  0.00     0.167 HD
ATOM     54  C   UNL     1       4.665   0.597 -19.594  1.00  0.00     0.031 A 
ATOM     55  C   UNL     1      10.259  -2.666 -16.960  1.00  0.00     0.031 A 
ATOM     56  C   UNL     1       5.416  -0.181 -20.541  1.00  0.00     0.049 A 
ATOM     57  C   UNL     1       9.851  -2.830 -18.397  1.00  0.00     0.074 A 
ATOM     58  C   UNL     1       5.194  -0.335 -21.898  1.00  0.00     0.029 A 
ATOM     59  N   UNL     1       6.533  -0.939 -20.228  1.00  0.00    -0.354 N 
ATOM     60  N   UNL     1       8.859  -2.266 -19.042  1.00  0.00    -0.248 NA
ATOM     61  C   UNL     1      10.661  -3.744 -19.215  1.00  0.00     0.031 C 
ATOM     62  C   UNL     1       6.152  -1.222 -22.399  1.00  0.00     0.029 A 
ATOM     63  C   UNL     1       6.996  -1.585 -21.362  1.00  0.00     0.049 A 
ATOM     64  H   UNL     1       6.937  -1.008 -19.333  1.00  0.00     0.167 HD
ATOM     65  C   UNL     1       8.938  -2.739 -20.345  1.00  0.00     0.074 A 
ATOM     66  C   UNL     1      10.082  -3.626 -20.402  1.00  0.00     0.031 C 
ATOM     67  C   UNL     1       8.134  -2.465 -21.400  1.00  0.00     0.031 A 
BRANCH  54  68
ATOM     68  C   UNL     1       3.429   1.304 -20.071  1.00  0.00    -0.014 A 
ATOM     69  C   UNL     1       3.405   2.700 -20.220  1.00  0.00     0.009 A 
ATOM     70  C   UNL     1       2.286   0.563 -20.408  1.00  0.00     0.009 A 
ATOM     71  C   UNL     1       2.249   3.342 -20.667  1.00  0.00     0.001 A 
ATOM     72  C   UNL     1       1.140   1.207 -20.878  1.00  0.00     0.001 A 
ATOM     73  C   UNL     1       1.120   2.595 -20.999  1.00  0.00     0.000 A 
ENDBRANCH  54  68
BRANCH  55  74
ATOM     74  C   UNL     1      11.440  -3.390 -16.424  1.00  0.00    -0.014 A 
ATOM     75  C   UNL     1      12.736  -3.006 -16.800  1.00  0.00     0.009 A 
ATOM     76  C   UNL     1      11.278  -4.470 -15.543  1.00  0.00     0.009 A 
ATOM     77  C   UNL     1      13.846  -3.706 -16.322  1.00  0.00     0.001 A 
ATOM     78  C   UNL     1      12.392  -5.152 -15.048  1.00  0.00     0.001 A 
ATOM     79  C   UNL     1      13.674  -4.775 -15.444  1.00  0.00     0.000 A 
ENDBRANCH  55  74
BRANCH  67  80
ATOM     80  C   UNL     1       8.476  -3.111 -22.710  1.00  0.00    -0.014 A 
ATOM     81  C   UNL     1       8.203  -4.467 -22.940  1.00  0.00     0.009 A 
ATOM     82  C   UNL     1       9.031  -2.340 -23.743  1.00  0.00     0.009 A 
ATOM     83  C   UNL     1       8.501  -5.045 -24.176  1.00  0.00     0.001 A 
ATOM     84  C   UNL     1       9.306  -2.914 -24.984  1.00  0.00     0.001 A 
ATOM     85  C   UNL     1       9.046  -4.268 -25.198  1.00  0.00     0.000 A 
ENDBRANCH  67  80
ENDBRANCH  41  42
ENDBRANCH  33  36
ENDBRANCH  31  32
ENDBRANCH  30  31
ENDBRANCH  29  30
ENDBRANCH   1  29
TORSDOF 16
