REMARK SMILES C[C@H]1CN(C(=O)N2CC[NH+]([C@@H](C)C(=O)NCCCCNC(=O)c3ccc(-c4c5nc(c(-c6ccccc6)c6ccc([nH]6)c(-c6ccccc6)c6nc(c(-c7ccccc7)c7ccc4[nH]7)C=C6)C=C5)cc3)CC2)C[C@@H]1C
REMARK SMILES IDX 18 1 17 2 16 3 15 4 13 5 14 6 11 8 12 9 10 10 1 11 2 12 3 13
REMARK SMILES IDX 74 14 4 15 73 16 75 17 5 18 6 19 7 20 8 21 72 22 9 23 71 24
REMARK SMILES IDX 19 26 20 27 21 28 22 30 23 31 24 32 70 33 25 34 69 35 26 36
REMARK SMILES IDX 27 37 28 38 63 39 29 40 68 41 62 42 64 43 30 44 67 45 61 46
REMARK SMILES IDX 60 47 31 49 53 50 38 51 52 52 39 53 42 54 51 55 65 56 40 57
REMARK SMILES IDX 41 58 50 60 66 61 43 62 32 63 33 64 37 65 34 66 36 67 35 68
REMARK SMILES IDX 54 69 55 70 59 71 56 72 58 73 57 74 44 75 45 76 49 77 46 78
REMARK SMILES IDX 48 79 47 80
REMARK H PARENT 15 7 10 25 20 29 64 48 42 59
REMARK Flexibility Score: inf
ROOT
ATOM      1  C   UNL     1      -8.446  -2.093   1.020  1.00  0.00     0.023 C 
ENDROOT
BRANCH   1   2
ATOM      2  C   UNL     1      -7.435  -1.376   0.136  1.00  0.00     0.023 C 
BRANCH   2   3
ATOM      3  C   UNL     1      -7.990  -0.843  -1.191  1.00  0.00     0.116 C 
BRANCH   3   4
ATOM      4  N   UNL     1      -8.341   0.560  -1.092  1.00  0.00    -0.351 N 
ATOM      5  C   UNL     1      -7.763   1.695  -1.578  1.00  0.00     0.278 C 
ATOM      6  O   UNL     1      -8.267   2.756  -1.184  1.00  0.00    -0.268 OA
ATOM      7  H   UNL     1      -9.159   0.726  -0.570  1.00  0.00     0.163 HD
BRANCH   5   8
ATOM      8  C   UNL     1      -6.570   1.721  -2.578  1.00  0.00     0.271 C 
ATOM      9  C   UNL     1      -6.778   0.868  -3.827  1.00  0.00     0.086 C 
BRANCH   8  10
ATOM     10  N   UNL     1      -5.243   1.748  -1.916  1.00  0.00    -0.322 N 
ATOM     11  C   UNL     1       1.762  -0.136  -2.373  1.00  0.00     0.010 C 
ATOM     12  C   UNL     1       0.812  -0.697  -1.313  1.00  0.00     0.010 C 
ATOM     13  C   UNL     1      -0.631  -0.267  -1.590  1.00  0.00     0.125 C 
ATOM     14  C   UNL     1       0.722  -2.237  -1.363  1.00  0.00     0.010 C 
ATOM     15  N   UNL     1      -1.189  -1.339  -2.400  1.00  0.00    -0.324 N 
ATOM     16  C   UNL     1      -0.292  -2.473  -2.489  1.00  0.00     0.125 C 
ATOM     17  C   UNL     1       0.223  -2.816  -0.030  1.00  0.00     0.010 C 
ATOM     18  C   UNL     1      -2.478  -1.402  -2.868  1.00  0.00     0.320 C 
ATOM     19  O   UNL     1      -2.946  -2.371  -3.458  1.00  0.00    -0.248 OA
ATOM     20  N   UNL     1      -3.251  -0.322  -2.498  1.00  0.00    -0.313 N 
ATOM     21  C   UNL     1      -4.399  -0.618  -1.668  1.00  0.00     0.183 C 
ATOM     22  C   UNL     1      -3.443   0.760  -3.456  1.00  0.00     0.183 C 
ATOM     23  C   UNL     1      -4.907   0.661  -0.997  1.00  0.00     0.284 C 
ATOM     24  C   UNL     1      -4.098   2.006  -2.814  1.00  0.00     0.284 C 
ATOM     25  H   UNL     1      -5.396   2.564  -1.324  1.00  0.00     0.348 HD
ENDBRANCH   8  10
ENDBRANCH   5   8
ENDBRANCH   3   4
ENDBRANCH   2   3
ENDBRANCH   1   2
BRANCH   1  26
ATOM     26  C   UNL     1      -8.963  -3.405   0.457  1.00  0.00     0.116 C 
BRANCH  26  27
ATOM     27  N   UNL     1      -7.933  -4.417   0.263  1.00  0.00    -0.352 N 
ATOM     28  C   UNL     1      -8.016  -5.771   0.507  1.00  0.00     0.251 C 
ATOM     29  H   UNL     1      -7.070  -4.094  -0.084  1.00  0.00     0.163 HD
ATOM     30  O   UNL     1      -7.044  -6.500   0.366  1.00  0.00    -0.269 OA
BRANCH  28  31
ATOM     31  C   UNL     1      -9.297  -6.320   1.000  1.00  0.00     0.039 A 
ATOM     32  C   UNL     1      -9.299  -7.084   2.168  1.00  0.00     0.014 A 
ATOM     33  C   UNL     1     -10.495  -5.984   0.367  1.00  0.00     0.014 A 
ATOM     34  C   UNL     1     -10.516  -7.430   2.758  1.00  0.00     0.010 A 
ATOM     35  C   UNL     1     -11.700  -6.247   1.005  1.00  0.00     0.010 A 
ATOM     36  C   UNL     1     -11.723  -6.969   2.208  1.00  0.00    -0.014 A 
BRANCH  36  37
ATOM     37  C   UNL     1     -13.027  -7.229   2.868  1.00  0.00     0.031 A 
ATOM     38  C   UNL     1     -14.082  -8.021   2.147  1.00  0.00     0.074 A 
ATOM     39  C   UNL     1     -13.296  -6.677   4.068  1.00  0.00     0.049 A 
ATOM     40  N   UNL     1     -15.316  -8.268   2.503  1.00  0.00    -0.248 NA
ATOM     41  C   UNL     1     -13.715  -8.576   0.833  1.00  0.00     0.031 C 
ATOM     42  C   UNL     1     -12.384  -5.832   4.845  1.00  0.00     0.029 A 
ATOM     43  N   UNL     1     -14.428  -6.736   4.842  1.00  0.00    -0.354 N 
ATOM     44  C   UNL     1     -15.880  -8.968   1.444  1.00  0.00     0.074 A 
ATOM     45  C   UNL     1     -14.870  -9.072   0.416  1.00  0.00     0.031 C 
ATOM     46  C   UNL     1     -12.983  -5.476   5.994  1.00  0.00     0.029 A 
ATOM     47  C   UNL     1     -14.330  -6.036   6.021  1.00  0.00     0.049 A 
ATOM     48  H   UNL     1     -15.236  -7.232   4.577  1.00  0.00     0.167 HD
ATOM     49  C   UNL     1     -17.121  -9.496   1.344  1.00  0.00     0.031 A 
ATOM     50  C   UNL     1     -15.226  -5.866   7.011  1.00  0.00     0.031 A 
ATOM     51  C   UNL     1     -18.107  -9.445   2.387  1.00  0.00     0.049 A 
ATOM     52  C   UNL     1     -16.578  -6.514   6.898  1.00  0.00     0.074 A 
ATOM     53  C   UNL     1     -19.360 -10.031   2.417  1.00  0.00     0.029 A 
ATOM     54  N   UNL     1     -17.944  -8.779   3.590  1.00  0.00    -0.354 N 
ATOM     55  N   UNL     1     -17.065  -7.242   5.923  1.00  0.00    -0.248 NA
ATOM     56  C   UNL     1     -17.498  -6.328   8.030  1.00  0.00     0.031 C 
ATOM     57  C   UNL     1     -19.969  -9.694   3.629  1.00  0.00     0.029 A 
ATOM     58  C   UNL     1     -19.078  -8.930   4.367  1.00  0.00     0.049 A 
ATOM     59  H   UNL     1     -17.141  -8.274   3.853  1.00  0.00     0.167 HD
ATOM     60  C   UNL     1     -18.334  -7.625   6.336  1.00  0.00     0.074 A 
ATOM     61  C   UNL     1     -18.537  -7.060   7.654  1.00  0.00     0.031 C 
ATOM     62  C   UNL     1     -19.252  -8.375   5.681  1.00  0.00     0.031 A 
BRANCH  49  63
ATOM     63  C   UNL     1     -17.478 -10.190   0.061  1.00  0.00    -0.014 A 
ATOM     64  C   UNL     1     -16.937 -11.444  -0.260  1.00  0.00     0.009 A 
ATOM     65  C   UNL     1     -18.401  -9.600  -0.816  1.00  0.00     0.009 A 
ATOM     66  C   UNL     1     -17.291 -12.081  -1.451  1.00  0.00     0.001 A 
ATOM     67  C   UNL     1     -18.771 -10.250  -1.994  1.00  0.00     0.001 A 
ATOM     68  C   UNL     1     -18.211 -11.486  -2.314  1.00  0.00     0.000 A 
ENDBRANCH  49  63
BRANCH  50  69
ATOM     69  C   UNL     1     -14.876  -5.067   8.214  1.00  0.00    -0.014 A 
ATOM     70  C   UNL     1     -14.661  -5.700   9.448  1.00  0.00     0.009 A 
ATOM     71  C   UNL     1     -14.790  -3.668   8.145  1.00  0.00     0.009 A 
ATOM     72  C   UNL     1     -14.402  -4.947  10.596  1.00  0.00     0.001 A 
ATOM     73  C   UNL     1     -14.505  -2.919   9.290  1.00  0.00     0.001 A 
ATOM     74  C   UNL     1     -14.323  -3.558  10.515  1.00  0.00     0.000 A 
ENDBRANCH  50  69
BRANCH  62  75
ATOM     75  C   UNL     1     -20.538  -8.664   6.397  1.00  0.00    -0.014 A 
ATOM     76  C   UNL     1     -21.530  -7.682   6.533  1.00  0.00     0.009 A 
ATOM     77  C   UNL     1     -20.776  -9.953   6.899  1.00  0.00     0.009 A 
ATOM     78  C   UNL     1     -22.728  -7.979   7.185  1.00  0.00     0.001 A 
ATOM     79  C   UNL     1     -21.985 -10.253   7.529  1.00  0.00     0.001 A 
ATOM     80  C   UNL     1     -22.956  -9.264   7.678  1.00  0.00     0.000 A 
ENDBRANCH  62  75
ENDBRANCH  36  37
ENDBRANCH  28  31
ENDBRANCH  26  27
ENDBRANCH   1  26
TORSDOF 12
