REMARK SMILES O=C(NCCCCNC(=O)[C@@H]1CCC(=O)N1C(=O)/C=C/c1ccccc1)c1ccc(-c2c3nc(c(-c4ccccc4)c4ccc([nH]4)c(-c4ccccc4)c4nc(c(-c5ccccc5)c5ccc2[nH]5)C=C4)C=C3)cc1
REMARK SMILES IDX 6 1 5 2 4 3 3 4 1 5 2 6 27 8 28 9 74 10 29 11 73 12 30 13
REMARK SMILES IDX 31 14 32 15 67 16 33 17 72 18 66 19 68 20 34 21 71 22 65 23
REMARK SMILES IDX 64 24 35 26 57 27 42 28 56 29 43 30 46 31 55 32 69 33 44 34
REMARK SMILES IDX 45 35 54 37 70 38 47 39 36 40 37 41 41 42 38 43 40 44 39 45
REMARK SMILES IDX 58 46 59 47 63 48 60 49 62 50 61 51 48 52 49 53 53 54 50 55
REMARK SMILES IDX 52 56 51 57 7 58 8 59 9 60 10 62 11 63 12 64 16 65 13 66
REMARK SMILES IDX 14 67 15 68 17 69 18 70 19 71 20 72 21 73 22 74 26 75 23 76
REMARK SMILES IDX 25 77 24 78
REMARK H PARENT 3 7 68 25 46 36 8 61
REMARK Flexibility Score: inf
ROOT
ATOM      1  C   UNL     1       4.718  -2.281   2.706  1.00  0.00     0.023 C 
ENDROOT
BRANCH   1   2
ATOM      2  C   UNL     1       5.067  -0.887   2.192  1.00  0.00     0.023 C 
BRANCH   2   3
ATOM      3  C   UNL     1       4.577  -0.601   0.780  1.00  0.00     0.116 C 
BRANCH   3   4
ATOM      4  N   UNL     1       3.146  -0.815   0.603  1.00  0.00    -0.352 N 
ATOM      5  O   UNL     1       1.069  -0.333  -0.155  1.00  0.00    -0.269 OA
ATOM      6  C   UNL     1       2.270  -0.092  -0.168  1.00  0.00     0.251 C 
ATOM      7  H   UNL     1       2.760  -1.574   1.097  1.00  0.00     0.163 HD
BRANCH   6   8
ATOM      8  C   UNL     1       2.809   1.010  -0.985  1.00  0.00     0.039 A 
ATOM      9  C   UNL     1       3.904   0.783  -1.822  1.00  0.00     0.014 A 
ATOM     10  C   UNL     1       2.266   2.287  -0.841  1.00  0.00     0.014 A 
ATOM     11  C   UNL     1       4.549   1.862  -2.409  1.00  0.00     0.010 A 
ATOM     12  C   UNL     1       2.867   3.358  -1.498  1.00  0.00     0.010 A 
ATOM     13  C   UNL     1       4.031   3.157  -2.259  1.00  0.00    -0.014 A 
BRANCH  13  14
ATOM     14  C   UNL     1       4.683   4.295  -2.944  1.00  0.00     0.031 A 
ATOM     15  C   UNL     1       5.309   5.410  -2.159  1.00  0.00     0.074 A 
ATOM     16  C   UNL     1       4.681   4.322  -4.289  1.00  0.00     0.049 A 
ATOM     17  N   UNL     1       5.833   6.528  -2.594  1.00  0.00    -0.248 NA
ATOM     18  C   UNL     1       5.345   5.255  -0.697  1.00  0.00     0.031 C 
ATOM     19  C   UNL     1       4.115   3.284  -5.153  1.00  0.00     0.029 A 
ATOM     20  N   UNL     1       5.164   5.259  -5.164  1.00  0.00    -0.354 N 
ATOM     21  C   UNL     1       6.230   7.225  -1.460  1.00  0.00     0.074 A 
ATOM     22  C   UNL     1       5.876   6.410  -0.317  1.00  0.00     0.031 C 
ATOM     23  C   UNL     1       4.297   3.633  -6.434  1.00  0.00     0.029 A 
ATOM     24  C   UNL     1       4.924   4.948  -6.478  1.00  0.00     0.049 A 
ATOM     25  H   UNL     1       5.637   6.074  -4.878  1.00  0.00     0.167 HD
ATOM     26  C   UNL     1       6.829   8.438  -1.383  1.00  0.00     0.031 A 
ATOM     27  C   UNL     1       5.143   5.659  -7.598  1.00  0.00     0.031 A 
ATOM     28  C   UNL     1       7.171   9.241  -2.529  1.00  0.00     0.049 A 
ATOM     29  C   UNL     1       5.764   7.018  -7.487  1.00  0.00     0.074 A 
ATOM     30  C   UNL     1       7.806  10.470  -2.562  1.00  0.00     0.029 A 
ATOM     31  N   UNL     1       6.897   8.896  -3.844  1.00  0.00    -0.354 N 
ATOM     32  N   UNL     1       6.149   7.659  -6.410  1.00  0.00    -0.248 NA
ATOM     33  C   UNL     1       5.980   7.750  -8.740  1.00  0.00     0.031 C 
ATOM     34  C   UNL     1       7.868  10.893  -3.894  1.00  0.00     0.029 A 
ATOM     35  C   UNL     1       7.327   9.900  -4.696  1.00  0.00     0.049 A 
ATOM     36  H   UNL     1       6.462   8.060  -4.130  1.00  0.00     0.167 HD
ATOM     37  C   UNL     1       6.676   8.862  -6.856  1.00  0.00     0.074 A 
ATOM     38  C   UNL     1       6.567   8.856  -8.302  1.00  0.00     0.031 C 
ATOM     39  C   UNL     1       7.209   9.876  -6.132  1.00  0.00     0.031 A 
BRANCH  26  40
ATOM     40  C   UNL     1       7.106   8.988  -0.011  1.00  0.00    -0.014 A 
ATOM     41  C   UNL     1       8.098   8.438   0.817  1.00  0.00     0.009 A 
ATOM     42  C   UNL     1       6.373  10.092   0.453  1.00  0.00     0.009 A 
ATOM     43  C   UNL     1       8.319   8.955   2.096  1.00  0.00     0.001 A 
ATOM     44  C   UNL     1       6.615  10.625   1.720  1.00  0.00     0.001 A 
ATOM     45  C   UNL     1       7.580  10.049   2.546  1.00  0.00     0.000 A 
ENDBRANCH  26  40
BRANCH  27  46
ATOM     46  C   UNL     1       4.740   5.087  -8.907  1.00  0.00    -0.014 A 
ATOM     47  C   UNL     1       5.705   4.615  -9.806  1.00  0.00     0.009 A 
ATOM     48  C   UNL     1       3.380   4.948  -9.230  1.00  0.00     0.009 A 
ATOM     49  C   UNL     1       5.316   4.020 -11.008  1.00  0.00     0.001 A 
ATOM     50  C   UNL     1       2.994   4.328 -10.419  1.00  0.00     0.001 A 
ATOM     51  C   UNL     1       3.962   3.869 -11.309  1.00  0.00     0.000 A 
ENDBRANCH  27  46
BRANCH  39  52
ATOM     52  C   UNL     1       7.756  11.047  -6.895  1.00  0.00    -0.014 A 
ATOM     53  C   UNL     1       6.907  11.994  -7.487  1.00  0.00     0.009 A 
ATOM     54  C   UNL     1       9.145  11.232  -6.971  1.00  0.00     0.009 A 
ATOM     55  C   UNL     1       7.442  13.093  -8.162  1.00  0.00     0.001 A 
ATOM     56  C   UNL     1       9.676  12.345  -7.623  1.00  0.00     0.001 A 
ATOM     57  C   UNL     1       8.825  13.271  -8.223  1.00  0.00     0.000 A 
ENDBRANCH  39  52
ENDBRANCH  13  14
ENDBRANCH   6   8
ENDBRANCH   3   4
ENDBRANCH   2   3
ENDBRANCH   1   2
BRANCH   1  58
ATOM     58  C   UNL     1       5.368  -3.425   1.926  1.00  0.00     0.116 C 
BRANCH  58  59
ATOM     59  N   UNL     1       6.680  -3.716   2.466  1.00  0.00    -0.354 N 
ATOM     60  C   UNL     1       7.071  -4.481   3.521  1.00  0.00     0.243 C 
ATOM     61  H   UNL     1       7.421  -3.285   1.982  1.00  0.00     0.163 HD
ATOM     62  O   UNL     1       8.248  -4.337   3.878  1.00  0.00    -0.273 OA
BRANCH  60  63
ATOM     63  C   UNL     1       6.230  -5.620   4.147  1.00  0.00     0.183 C 
ATOM     64  C   UNL     1       6.851  -6.922   3.635  1.00  0.00     0.046 C 
ATOM     65  N   UNL     1       4.813  -5.727   3.832  1.00  0.00    -0.266 N 
ATOM     66  C   UNL     1       5.694  -7.884   3.569  1.00  0.00     0.103 C 
ATOM     67  C   UNL     1       4.553  -6.970   3.229  1.00  0.00     0.230 C 
ATOM     68  O   UNL     1       3.622  -7.299   2.518  1.00  0.00    -0.274 OA
BRANCH  65  69
ATOM     69  C   UNL     1       3.918  -4.895   4.497  1.00  0.00     0.253 C 
ATOM     70  O   UNL     1       4.270  -4.188   5.443  1.00  0.00    -0.269 OA
BRANCH  69  71
ATOM     71  C   UNL     1       2.542  -4.688   3.965  1.00  0.00     0.072 C 
ATOM     72  C   UNL     1       1.635  -5.610   3.620  1.00  0.00     0.014 C 
BRANCH  72  73
ATOM     73  C   UNL     1       0.333  -5.299   3.006  1.00  0.00    -0.025 A 
ATOM     74  C   UNL     1      -0.739  -6.169   3.236  1.00  0.00     0.008 A 
ATOM     75  C   UNL     1       0.153  -4.236   2.107  1.00  0.00     0.008 A 
ATOM     76  C   UNL     1      -1.968  -5.975   2.600  1.00  0.00     0.001 A 
ATOM     77  C   UNL     1      -1.077  -4.041   1.470  1.00  0.00     0.001 A 
ATOM     78  C   UNL     1      -2.136  -4.911   1.717  1.00  0.00     0.000 A 
ENDBRANCH  72  73
ENDBRANCH  69  71
ENDBRANCH  65  69
ENDBRANCH  60  63
ENDBRANCH  58  59
ENDBRANCH   1  58
TORSDOF 14
