REMARK SMILES O=C(NCCCCNC(=O)c1ccc(-c2c3nc(c(-c4ccccc4)c4ccc([nH]4)c(-c4ccccc4)c4nc(c(-c5ccccc5)c5ccc2[nH]5)C=C4)C=C3)cc1)c1ccc(-c2ccc(S(=O)(=O)[O-])cc2)cc1
REMARK SMILES IDX 5 1 4 2 3 3 1 4 2 5 59 7 60 8 74 9 61 10 73 11 62 12 63 13
REMARK SMILES IDX 64 14 72 15 65 16 71 17 66 18 67 19 68 20 69 21 70 22 6 23
REMARK SMILES IDX 7 24 8 25 9 26 10 28 11 29 12 30 58 31 13 32 57 33 14 34
REMARK SMILES IDX 15 35 16 36 51 37 17 38 56 39 50 40 52 41 18 42 55 43 49 44
REMARK SMILES IDX 48 45 19 47 41 48 26 49 40 50 27 51 30 52 39 53 53 54 28 55
REMARK SMILES IDX 29 56 38 58 54 59 31 60 20 61 21 62 25 63 22 64 24 65 23 66
REMARK SMILES IDX 42 67 43 68 47 69 44 70 46 71 45 72 32 73 33 74 37 75 34 76
REMARK SMILES IDX 36 77 35 78
REMARK H PARENT 3 6 8 27 52 46 30 57
REMARK Flexibility Score: inf
ROOT
ATOM      1  C   UNL     1       5.030   0.078   2.399  1.00  0.00     0.023 C 
ENDROOT
BRANCH   1   2
ATOM      2  C   UNL     1       4.672  -0.591   1.075  1.00  0.00     0.116 C 
BRANCH   2   3
ATOM      3  N   UNL     1       3.236  -0.707   0.885  1.00  0.00    -0.352 N 
ATOM      4  O   UNL     1       1.209  -0.161   0.059  1.00  0.00    -0.269 OA
ATOM      5  C   UNL     1       2.429  -0.083  -0.034  1.00  0.00     0.251 C 
ATOM      6  H   UNL     1       2.776  -1.319   1.504  1.00  0.00     0.163 HD
BRANCH   5   7
ATOM      7  C   UNL     1       3.035   0.703  -1.126  1.00  0.00     0.039 A 
ATOM      8  C   UNL     1       3.973   0.128  -1.987  1.00  0.00     0.014 A 
ATOM      9  C   UNL     1       2.637   2.028  -1.302  1.00  0.00     0.014 A 
ATOM     10  C   UNL     1       4.572   0.907  -2.978  1.00  0.00     0.009 A 
ATOM     11  C   UNL     1       3.233   2.800  -2.303  1.00  0.00     0.009 A 
ATOM     12  C   UNL     1       4.221   2.259  -3.146  1.00  0.00    -0.018 A 
BRANCH  12  13
ATOM     13  C   UNL     1       4.867   3.083  -4.179  1.00  0.00    -0.018 A 
ATOM     14  C   UNL     1       4.913   2.655  -5.518  1.00  0.00     0.010 A 
ATOM     15  C   UNL     1       5.454   4.320  -3.855  1.00  0.00     0.010 A 
ATOM     16  C   UNL     1       5.514   3.440  -6.504  1.00  0.00     0.020 A 
ATOM     17  C   UNL     1       6.059   5.113  -4.834  1.00  0.00     0.020 A 
ATOM     18  C   UNL     1       6.080   4.667  -6.155  1.00  0.00     0.054 A 
BRANCH  18  19
ATOM     19  S   UNL     1       6.809   5.651  -7.431  1.00  0.00     0.124 S 
ATOM     20  O   UNL     1       8.015   4.983  -7.869  1.00  0.00    -0.237 OA
ATOM     21  O   UNL     1       5.763   6.017  -8.359  1.00  0.00    -0.237 OA
ATOM     22  O   UNL     1       7.268   7.027  -6.724  1.00  0.00    -0.744 OA
ENDBRANCH  18  19
ENDBRANCH  12  13
ENDBRANCH   5   7
ENDBRANCH   2   3
ENDBRANCH   1   2
BRANCH   1  23
ATOM     23  C   UNL     1       4.552  -0.654   3.654  1.00  0.00     0.023 C 
BRANCH  23  24
ATOM     24  C   UNL     1       4.927  -2.130   3.741  1.00  0.00     0.116 C 
BRANCH  24  25
ATOM     25  N   UNL     1       6.360  -2.362   3.690  1.00  0.00    -0.352 N 
ATOM     26  C   UNL     1       7.138  -3.199   4.452  1.00  0.00     0.251 C 
ATOM     27  H   UNL     1       6.846  -1.842   3.009  1.00  0.00     0.163 HD
ATOM     28  O   UNL     1       8.359  -3.175   4.326  1.00  0.00    -0.269 OA
BRANCH  26  29
ATOM     29  C   UNL     1       6.521  -4.107   5.445  1.00  0.00     0.039 A 
ATOM     30  C   UNL     1       7.133  -4.244   6.695  1.00  0.00     0.014 A 
ATOM     31  C   UNL     1       5.369  -4.843   5.150  1.00  0.00     0.014 A 
ATOM     32  C   UNL     1       6.566  -5.078   7.662  1.00  0.00     0.010 A 
ATOM     33  C   UNL     1       4.766  -5.619   6.138  1.00  0.00     0.010 A 
ATOM     34  C   UNL     1       5.365  -5.756   7.399  1.00  0.00    -0.014 A 
BRANCH  34  35
ATOM     35  C   UNL     1       4.748  -6.643   8.418  1.00  0.00     0.031 A 
ATOM     36  C   UNL     1       4.651  -8.124   8.167  1.00  0.00     0.074 A 
ATOM     37  C   UNL     1       4.245  -6.120   9.553  1.00  0.00     0.049 A 
ATOM     38  N   UNL     1       4.111  -9.056   8.913  1.00  0.00    -0.248 NA
ATOM     39  C   UNL     1       5.213  -8.621   6.901  1.00  0.00     0.031 C 
ATOM     40  C   UNL     1       4.238  -4.699   9.905  1.00  0.00     0.029 A 
ATOM     41  N   UNL     1       3.635  -6.730  10.621  1.00  0.00    -0.354 N 
ATOM     42  C   UNL     1       4.259 -10.241   8.203  1.00  0.00     0.074 A 
ATOM     43  C   UNL     1       4.889  -9.905   6.945  1.00  0.00     0.031 C 
ATOM     44  C   UNL     1       3.673  -4.549  11.115  1.00  0.00     0.029 A 
ATOM     45  C   UNL     1       3.253  -5.856  11.610  1.00  0.00     0.049 A 
ATOM     46  H   UNL     1       3.484  -7.702  10.673  1.00  0.00     0.167 HD
ATOM     47  C   UNL     1       3.926 -11.501   8.571  1.00  0.00     0.031 A 
ATOM     48  C   UNL     1       2.637  -6.084  12.786  1.00  0.00     0.031 A 
ATOM     49  C   UNL     1       3.312 -11.846   9.824  1.00  0.00     0.049 A 
ATOM     50  C   UNL     1       2.294  -7.494  13.178  1.00  0.00     0.074 A 
ATOM     51  C   UNL     1       2.948 -13.097  10.294  1.00  0.00     0.029 A 
ATOM     52  N   UNL     1       2.982 -10.935  10.814  1.00  0.00    -0.354 N 
ATOM     53  N   UNL     1       2.478  -8.607  12.510  1.00  0.00    -0.248 NA
ATOM     54  C   UNL     1       1.681  -7.680  14.501  1.00  0.00     0.031 C 
ATOM     55  C   UNL     1       2.377 -12.939  11.561  1.00  0.00     0.029 A 
ATOM     56  C   UNL     1       2.426 -11.596  11.896  1.00  0.00     0.049 A 
ATOM     57  H   UNL     1       3.121  -9.962  10.757  1.00  0.00     0.167 HD
ATOM     58  C   UNL     1       2.037  -9.626  13.345  1.00  0.00     0.074 A 
ATOM     59  C   UNL     1       1.591  -9.000  14.572  1.00  0.00     0.031 C 
ATOM     60  C   UNL     1       2.003 -10.961  13.116  1.00  0.00     0.031 A 
BRANCH  47  61
ATOM     61  C   UNL     1       4.238 -12.605   7.600  1.00  0.00    -0.014 A 
ATOM     62  C   UNL     1       5.563 -13.009   7.372  1.00  0.00     0.009 A 
ATOM     63  C   UNL     1       3.199 -13.267   6.928  1.00  0.00     0.009 A 
ATOM     64  C   UNL     1       5.845 -14.032   6.464  1.00  0.00     0.001 A 
ATOM     65  C   UNL     1       3.482 -14.308   6.041  1.00  0.00     0.001 A 
ATOM     66  C   UNL     1       4.804 -14.683   5.803  1.00  0.00     0.000 A 
ENDBRANCH  47  61
BRANCH  48  67
ATOM     67  C   UNL     1       2.324  -4.954  13.699  1.00  0.00    -0.014 A 
ATOM     68  C   UNL     1       3.030  -4.791  14.901  1.00  0.00     0.009 A 
ATOM     69  C   UNL     1       1.294  -4.053  13.389  1.00  0.00     0.009 A 
ATOM     70  C   UNL     1       2.685  -3.773  15.792  1.00  0.00     0.001 A 
ATOM     71  C   UNL     1       0.970  -3.018  14.269  1.00  0.00     0.001 A 
ATOM     72  C   UNL     1       1.657  -2.887  15.475  1.00  0.00     0.000 A 
ENDBRANCH  48  67
BRANCH  60  73
ATOM     73  C   UNL     1       1.523 -11.836  14.238  1.00  0.00    -0.014 A 
ATOM     74  C   UNL     1       0.169 -11.884  14.602  1.00  0.00     0.009 A 
ATOM     75  C   UNL     1       2.445 -12.638  14.930  1.00  0.00     0.009 A 
ATOM     76  C   UNL     1      -0.246 -12.688  15.666  1.00  0.00     0.001 A 
ATOM     77  C   UNL     1       2.022 -13.461  15.974  1.00  0.00     0.001 A 
ATOM     78  C   UNL     1       0.680 -13.477  16.349  1.00  0.00     0.000 A 
ENDBRANCH  60  73
ENDBRANCH  34  35
ENDBRANCH  26  29
ENDBRANCH  24  25
ENDBRANCH  23  24
ENDBRANCH   1  23
TORSDOF 13
