REMARK SMILES C[C@H]1CC[C@H]([NH2+]Cc2c(C(=O)NCCCCNC(=O)c3ccc(-c4c5nc(c(-c6ccccc6)c6ccc([nH]6)c(-c6ccccc6)c6nc(c(-c7ccccc7)c7ccc4[nH]7)C=C6)C=C5)cc3)n(Cc3ccccc3F)c3ccccc23)CC1
REMARK SMILES IDX 14 1 13 2 12 3 10 4 11 5 9 7 8 8 82 9 68 10 77 11 81 12
REMARK SMILES IDX 78 13 80 14 79 15 7 16 6 17 5 20 1 21 2 22 3 23 84 24 4 25
REMARK SMILES IDX 83 26 69 27 70 28 71 29 75 30 72 31 74 32 76 33 73 34 15 35
REMARK SMILES IDX 16 36 17 37 18 38 19 40 20 41 21 42 67 43 22 44 66 45 23 46
REMARK SMILES IDX 24 47 25 48 60 49 26 50 65 51 59 52 61 53 27 54 64 55 58 56
REMARK SMILES IDX 57 57 28 59 50 60 35 61 49 62 36 63 39 64 48 65 62 66 37 67
REMARK SMILES IDX 38 68 47 70 63 71 40 72 29 73 30 74 34 75 31 76 33 77 32 78
REMARK SMILES IDX 51 79 52 80 56 81 53 82 55 83 54 84 41 85 42 86 46 87 43 88
REMARK SMILES IDX 45 89 44 90
REMARK H PARENT 12 6 6 18 6 19 17 39 61 58 39 69
REMARK Flexibility Score: inf
ROOT
ATOM      1  C   UNL     1      -4.576   1.638   2.176  1.00  0.00     0.023 C 
ENDROOT
BRANCH   1   2
ATOM      2  C   UNL     1      -4.004   0.319   1.667  1.00  0.00     0.116 C 
BRANCH   2   3
ATOM      3  N   UNL     1      -2.928  -0.266   2.430  1.00  0.00    -0.351 N 
ATOM      4  C   UNL     1      -2.301  -1.480   2.276  1.00  0.00     0.268 C 
ATOM      5  O   UNL     1      -1.373  -1.669   3.090  1.00  0.00    -0.268 OA
ATOM      6  H   UNL     1      -2.592   0.288   3.171  1.00  0.00     0.163 HD
BRANCH   4   7
ATOM      7  C   UNL     1      -2.703  -2.509   1.310  1.00  0.00     0.117 A 
ATOM      8  C   UNL     1      -3.320  -2.449   0.043  1.00  0.00     0.045 A 
ATOM      9  C   UNL     1      -3.842  -3.760  -0.204  1.00  0.00     0.009 A 
ATOM     10  N   UNL     1      -2.335  -3.876   1.420  1.00  0.00    -0.331 N 
ATOM     11  C   UNL     1      -3.026  -4.638   0.487  1.00  0.00     0.049 A 
ATOM     12  C   UNL     1      -4.813  -4.271  -1.092  1.00  0.00     0.011 A 
ATOM     13  C   UNL     1      -3.003  -6.005   0.155  1.00  0.00     0.027 A 
ATOM     14  C   UNL     1      -4.913  -5.648  -1.291  1.00  0.00     0.001 A 
ATOM     15  C   UNL     1      -3.985  -6.500  -0.709  1.00  0.00     0.002 A 
BRANCH   8  16
ATOM     16  C   UNL     1      -3.520  -1.393  -1.005  1.00  0.00     0.300 C 
BRANCH  16  17
ATOM     17  N   UNL     1      -2.589  -0.278  -1.023  1.00  0.00    -0.340 N 
ATOM     18  H   UNL     1      -2.977   0.399  -1.681  1.00  0.00     0.346 HD
ATOM     19  H   UNL     1      -2.527  -0.055  -0.029  1.00  0.00     0.346 HD
BRANCH  17  20
ATOM     20  C   UNL     1      -1.175  -0.410  -1.374  1.00  0.00     0.182 C 
ATOM     21  C   UNL     1       3.119  -0.064  -0.341  1.00  0.00     0.007 C 
ATOM     22  C   UNL     1       1.602  -0.170  -0.305  1.00  0.00    -0.014 C 
ATOM     23  C   UNL     1       1.105  -1.469  -0.947  1.00  0.00     0.009 C 
ATOM     24  C   UNL     1       0.950   1.017  -1.013  1.00  0.00     0.009 C 
ATOM     25  C   UNL     1      -0.408  -1.591  -0.774  1.00  0.00     0.065 C 
ATOM     26  C   UNL     1      -0.563   0.928  -0.902  1.00  0.00     0.065 C 
ENDBRANCH  17  20
ENDBRANCH  16  17
ENDBRANCH   8  16
BRANCH  10  27
ATOM     27  C   UNL     1      -1.269  -4.445   2.266  1.00  0.00     0.161 C 
BRANCH  27  28
ATOM     28  C   UNL     1      -1.740  -5.138   3.526  1.00  0.00     0.008 A 
ATOM     29  C   UNL     1      -2.531  -6.300   3.502  1.00  0.00     0.008 A 
ATOM     30  C   UNL     1      -1.306  -4.696   4.778  1.00  0.00     0.128 A 
ATOM     31  C   UNL     1      -2.895  -6.968   4.675  1.00  0.00     0.001 A 
ATOM     32  C   UNL     1      -1.676  -5.347   5.957  1.00  0.00     0.039 A 
ATOM     33  F   UNL     1      -0.473  -3.652   4.874  1.00  0.00    -0.207 F 
ATOM     34  C   UNL     1      -2.476  -6.485   5.907  1.00  0.00     0.003 A 
ENDBRANCH  27  28
ENDBRANCH  10  27
ENDBRANCH   4   7
ENDBRANCH   2   3
ENDBRANCH   1   2
BRANCH   1  35
ATOM     35  C   UNL     1      -3.722   2.899   1.948  1.00  0.00     0.023 C 
BRANCH  35  36
ATOM     36  C   UNL     1      -3.109   3.120   0.558  1.00  0.00     0.116 C 
BRANCH  36  37
ATOM     37  N   UNL     1      -4.005   3.225  -0.581  1.00  0.00    -0.352 N 
ATOM     38  C   UNL     1      -4.524   4.311  -1.242  1.00  0.00     0.251 C 
ATOM     39  H   UNL     1      -4.293   2.358  -0.946  1.00  0.00     0.163 HD
ATOM     40  O   UNL     1      -4.813   4.179  -2.434  1.00  0.00    -0.269 OA
BRANCH  38  41
ATOM     41  C   UNL     1      -4.910   5.559  -0.542  1.00  0.00     0.039 A 
ATOM     42  C   UNL     1      -4.362   5.972   0.667  1.00  0.00     0.014 A 
ATOM     43  C   UNL     1      -5.993   6.277  -1.083  1.00  0.00     0.014 A 
ATOM     44  C   UNL     1      -5.006   6.931   1.425  1.00  0.00     0.010 A 
ATOM     45  C   UNL     1      -6.612   7.283  -0.348  1.00  0.00     0.010 A 
ATOM     46  C   UNL     1      -6.161   7.550   0.941  1.00  0.00    -0.014 A 
BRANCH  46  47
ATOM     47  C   UNL     1      -6.793   8.509   1.838  1.00  0.00     0.031 A 
ATOM     48  C   UNL     1      -5.936   9.653   2.260  1.00  0.00     0.074 A 
ATOM     49  C   UNL     1      -8.073   8.426   2.244  1.00  0.00     0.049 A 
ATOM     50  N   UNL     1      -5.617  10.030   3.457  1.00  0.00    -0.248 NA
ATOM     51  C   UNL     1      -5.290  10.426   1.189  1.00  0.00     0.031 C 
ATOM     52  C   UNL     1      -9.141   7.579   1.712  1.00  0.00     0.029 A 
ATOM     53  N   UNL     1      -8.712   9.199   3.167  1.00  0.00    -0.354 N 
ATOM     54  C   UNL     1      -4.830  11.171   3.303  1.00  0.00     0.074 A 
ATOM     55  C   UNL     1      -4.583  11.310   1.889  1.00  0.00     0.031 C 
ATOM     56  C   UNL     1     -10.331   8.060   2.137  1.00  0.00     0.029 A 
ATOM     57  C   UNL     1     -10.092   9.147   3.073  1.00  0.00     0.049 A 
ATOM     58  H   UNL     1      -8.238   9.742   3.837  1.00  0.00     0.167 HD
ATOM     59  C   UNL     1      -4.550  12.020   4.329  1.00  0.00     0.031 A 
ATOM     60  C   UNL     1     -10.963  10.011   3.644  1.00  0.00     0.031 A 
ATOM     61  C   UNL     1      -4.732  11.406   5.614  1.00  0.00     0.049 A 
ATOM     62  C   UNL     1     -10.263  10.727   4.735  1.00  0.00     0.074 A 
ATOM     63  C   UNL     1      -4.149  10.341   6.270  1.00  0.00     0.029 A 
ATOM     64  N   UNL     1      -5.861  11.714   6.330  1.00  0.00    -0.354 N 
ATOM     65  N   UNL     1      -9.895  10.181   5.857  1.00  0.00    -0.248 NA
ATOM     66  C   UNL     1      -9.644  12.007   4.431  1.00  0.00     0.031 C 
ATOM     67  C   UNL     1      -5.195   9.769   7.050  1.00  0.00     0.029 A 
ATOM     68  C   UNL     1      -6.342  10.537   6.842  1.00  0.00     0.049 A 
ATOM     69  H   UNL     1      -6.251  12.609   6.453  1.00  0.00     0.167 HD
ATOM     70  C   UNL     1      -8.716  10.827   6.199  1.00  0.00     0.074 A 
ATOM     71  C   UNL     1      -8.679  12.015   5.352  1.00  0.00     0.031 C 
ATOM     72  C   UNL     1      -7.747  10.203   6.932  1.00  0.00     0.031 A 
BRANCH  59  73
ATOM     73  C   UNL     1      -4.394  13.511   4.157  1.00  0.00    -0.014 A 
ATOM     74  C   UNL     1      -4.776  14.199   2.990  1.00  0.00     0.009 A 
ATOM     75  C   UNL     1      -4.094  14.304   5.281  1.00  0.00     0.009 A 
ATOM     76  C   UNL     1      -4.865  15.593   2.942  1.00  0.00     0.001 A 
ATOM     77  C   UNL     1      -4.229  15.698   5.251  1.00  0.00     0.001 A 
ATOM     78  C   UNL     1      -4.618  16.342   4.082  1.00  0.00     0.000 A 
ENDBRANCH  59  73
BRANCH  60  79
ATOM     79  C   UNL     1     -12.235  10.510   3.078  1.00  0.00    -0.014 A 
ATOM     80  C   UNL     1     -12.426  10.559   1.684  1.00  0.00     0.009 A 
ATOM     81  C   UNL     1     -13.147  11.200   3.889  1.00  0.00     0.009 A 
ATOM     82  C   UNL     1     -13.468  11.300   1.120  1.00  0.00     0.001 A 
ATOM     83  C   UNL     1     -14.185  11.951   3.323  1.00  0.00     0.001 A 
ATOM     84  C   UNL     1     -14.336  12.012   1.940  1.00  0.00     0.000 A 
ENDBRANCH  60  79
BRANCH  72  85
ATOM     85  C   UNL     1      -8.078   8.897   7.616  1.00  0.00    -0.014 A 
ATOM     86  C   UNL     1      -7.717   8.738   8.965  1.00  0.00     0.009 A 
ATOM     87  C   UNL     1      -8.559   7.773   6.923  1.00  0.00     0.009 A 
ATOM     88  C   UNL     1      -7.826   7.497   9.598  1.00  0.00     0.001 A 
ATOM     89  C   UNL     1      -8.695   6.538   7.564  1.00  0.00     0.001 A 
ATOM     90  C   UNL     1      -8.319   6.398   8.898  1.00  0.00     0.000 A 
ENDBRANCH  72  85
ENDBRANCH  46  47
ENDBRANCH  38  41
ENDBRANCH  36  37
ENDBRANCH  35  36
ENDBRANCH   1  35
TORSDOF 16
