REMARK SMILES O=C(NCCCCNC(=O)c1ccc2c(c1)NC1=[NH+]S(=O)(=O)[NH+]=C1N2)c1ccc(-c2c3nc(c(-c4ccccc4)c4ccc([nH]4)c(-c4ccccc4)c4nc(c(-c5ccccc5)c5ccc2[nH]5)C=C4)C=C3)cc1
REMARK SMILES IDX 4 1 3 2 1 3 2 4 26 6 27 7 73 8 28 9 72 10 29 11 30 12 31 13
REMARK SMILES IDX 66 14 32 15 71 16 65 17 67 18 33 19 70 20 64 21 63 22 34 24
REMARK SMILES IDX 56 25 41 26 55 27 42 28 45 29 54 30 68 31 43 32 44 33 53 35
REMARK SMILES IDX 69 36 46 37 35 38 36 39 40 40 37 41 39 42 38 43 57 44 58 45
REMARK SMILES IDX 62 46 59 47 61 48 60 49 47 50 48 51 52 52 49 53 51 54 50 55
REMARK SMILES IDX 5 56 6 57 7 58 8 59 9 60 10 62 11 63 12 64 16 65 13 66 15 67
REMARK SMILES IDX 14 68 17 69 25 70 18 71 24 73 19 75 23 76 20 77 21 80 22 81
REMARK H PARENT 3 5 67 23 45 34 8 61 17 72 25 74 19 78 23 79
REMARK Flexibility Score: inf
ROOT
ATOM      1  C   UNL     1       4.575   1.075  -1.141  1.00  0.00     0.116 C 
ENDROOT
BRANCH   1   2
ATOM      2  N   UNL     1       3.127   0.887  -0.978  1.00  0.00    -0.352 N 
ATOM      3  O   UNL     1       1.343  -0.231  -0.088  1.00  0.00    -0.269 OA
ATOM      4  C   UNL     1       2.474   0.213   0.051  1.00  0.00     0.251 C 
ATOM      5  H   UNL     1       2.554   1.281  -1.675  1.00  0.00     0.163 HD
BRANCH   4   6
ATOM      6  C   UNL     1       3.183   0.073   1.337  1.00  0.00     0.039 A 
ATOM      7  C   UNL     1       3.154  -1.077   2.128  1.00  0.00     0.014 A 
ATOM      8  C   UNL     1       3.981   1.149   1.692  1.00  0.00     0.014 A 
ATOM      9  C   UNL     1       3.991  -1.121   3.244  1.00  0.00     0.010 A 
ATOM     10  C   UNL     1       5.026   0.946   2.537  1.00  0.00     0.010 A 
ATOM     11  C   UNL     1       4.942  -0.097   3.430  1.00  0.00    -0.014 A 
BRANCH  11  12
ATOM     12  C   UNL     1       5.939  -0.111   4.491  1.00  0.00     0.031 A 
ATOM     13  C   UNL     1       6.632  -1.407   4.601  1.00  0.00     0.074 A 
ATOM     14  C   UNL     1       6.309   0.976   5.211  1.00  0.00     0.049 A 
ATOM     15  N   UNL     1       6.377  -2.319   5.473  1.00  0.00    -0.248 NA
ATOM     16  C   UNL     1       7.530  -1.836   3.518  1.00  0.00     0.031 C 
ATOM     17  C   UNL     1       5.907   2.382   5.041  1.00  0.00     0.029 A 
ATOM     18  N   UNL     1       7.207   1.061   6.231  1.00  0.00    -0.354 N 
ATOM     19  C   UNL     1       7.268  -3.344   5.208  1.00  0.00     0.074 A 
ATOM     20  C   UNL     1       7.782  -3.096   3.885  1.00  0.00     0.031 C 
ATOM     21  C   UNL     1       6.720   3.189   5.761  1.00  0.00     0.029 A 
ATOM     22  C   UNL     1       7.571   2.358   6.589  1.00  0.00     0.049 A 
ATOM     23  H   UNL     1       7.573   0.266   6.681  1.00  0.00     0.167 HD
ATOM     24  C   UNL     1       7.722  -4.121   6.229  1.00  0.00     0.031 A 
ATOM     25  C   UNL     1       8.478   2.724   7.530  1.00  0.00     0.031 A 
ATOM     26  C   UNL     1       6.911  -3.943   7.413  1.00  0.00     0.049 A 
ATOM     27  C   UNL     1       8.605   1.583   8.461  1.00  0.00     0.074 A 
ATOM     28  C   UNL     1       5.577  -4.130   7.716  1.00  0.00     0.029 A 
ATOM     29  N   UNL     1       7.403  -3.072   8.357  1.00  0.00    -0.354 N 
ATOM     30  N   UNL     1       7.646   1.193   9.248  1.00  0.00    -0.248 NA
ATOM     31  C   UNL     1       9.638   0.601   8.190  1.00  0.00     0.031 C 
ATOM     32  C   UNL     1       5.229  -3.033   8.557  1.00  0.00     0.029 A 
ATOM     33  C   UNL     1       6.380  -2.284   8.816  1.00  0.00     0.049 A 
ATOM     34  H   UNL     1       8.340  -3.022   8.655  1.00  0.00     0.167 HD
ATOM     35  C   UNL     1       7.691  -0.191   9.182  1.00  0.00     0.074 A 
ATOM     36  C   UNL     1       9.004  -0.496   8.612  1.00  0.00     0.031 C 
ATOM     37  C   UNL     1       6.554  -0.935   9.320  1.00  0.00     0.031 A 
BRANCH  24  38
ATOM     38  C   UNL     1       9.135  -4.642   6.296  1.00  0.00    -0.014 A 
ATOM     39  C   UNL     1      10.174  -4.199   5.455  1.00  0.00     0.009 A 
ATOM     40  C   UNL     1       9.513  -5.403   7.415  1.00  0.00     0.009 A 
ATOM     41  C   UNL     1      11.517  -4.476   5.722  1.00  0.00     0.001 A 
ATOM     42  C   UNL     1      10.859  -5.650   7.708  1.00  0.00     0.001 A 
ATOM     43  C   UNL     1      11.860  -5.183   6.863  1.00  0.00     0.000 A 
ENDBRANCH  24  38
BRANCH  25  44
ATOM     44  C   UNL     1       9.523   3.776   7.467  1.00  0.00    -0.014 A 
ATOM     45  C   UNL     1      10.030   4.195   6.225  1.00  0.00     0.009 A 
ATOM     46  C   UNL     1      10.263   4.107   8.618  1.00  0.00     0.009 A 
ATOM     47  C   UNL     1      11.263   4.854   6.131  1.00  0.00     0.001 A 
ATOM     48  C   UNL     1      11.498   4.764   8.523  1.00  0.00     0.001 A 
ATOM     49  C   UNL     1      12.008   5.118   7.277  1.00  0.00     0.000 A 
ENDBRANCH  25  44
BRANCH  37  50
ATOM     50  C   UNL     1       5.308  -0.251   9.845  1.00  0.00    -0.014 A 
ATOM     51  C   UNL     1       4.651  -0.850  10.932  1.00  0.00     0.009 A 
ATOM     52  C   UNL     1       4.681   0.842   9.218  1.00  0.00     0.009 A 
ATOM     53  C   UNL     1       3.404  -0.397  11.365  1.00  0.00     0.001 A 
ATOM     54  C   UNL     1       3.442   1.316   9.671  1.00  0.00     0.001 A 
ATOM     55  C   UNL     1       2.800   0.687  10.736  1.00  0.00     0.000 A 
ENDBRANCH  37  50
ENDBRANCH  11  12
ENDBRANCH   4   6
ENDBRANCH   1   2
BRANCH   1  56
ATOM     56  C   UNL     1       4.978   1.857  -2.379  1.00  0.00     0.023 C 
BRANCH  56  57
ATOM     57  C   UNL     1       4.518   3.320  -2.403  1.00  0.00     0.023 C 
BRANCH  57  58
ATOM     58  C   UNL     1       4.922   4.202  -1.216  1.00  0.00     0.116 C 
BRANCH  58  59
ATOM     59  N   UNL     1       6.363   4.342  -1.055  1.00  0.00    -0.352 N 
ATOM     60  C   UNL     1       7.157   5.456  -1.198  1.00  0.00     0.251 C 
ATOM     61  H   UNL     1       6.839   3.517  -0.806  1.00  0.00     0.163 HD
ATOM     62  O   UNL     1       8.379   5.364  -1.148  1.00  0.00    -0.269 OA
BRANCH  60  63
ATOM     63  C   UNL     1       6.538   6.771  -1.458  1.00  0.00     0.044 A 
ATOM     64  C   UNL     1       5.578   7.295  -0.586  1.00  0.00     0.018 A 
ATOM     65  C   UNL     1       6.908   7.464  -2.614  1.00  0.00     0.070 A 
ATOM     66  C   UNL     1       4.890   8.459  -0.929  1.00  0.00     0.057 A 
ATOM     67  C   UNL     1       6.229   8.633  -2.964  1.00  0.00     0.173 A 
ATOM     68  C   UNL     1       5.180   9.114  -2.130  1.00  0.00     0.172 A 
ATOM     69  N   UNL     1       6.514   9.282  -4.181  1.00  0.00    -0.229 N 
ATOM     70  N   UNL     1       4.409  10.219  -2.535  1.00  0.00    -0.229 N 
ATOM     71  C   UNL     1       5.730  10.305  -4.636  1.00  0.00     0.383 C 
ATOM     72  H   UNL     1       7.291   8.994  -4.713  1.00  0.00     0.313 HD
ATOM     73  C   UNL     1       4.595  10.800  -3.758  1.00  0.00     0.383 C 
ATOM     74  H   UNL     1       3.724  10.580  -1.927  1.00  0.00     0.313 HD
ATOM     75  N   UNL     1       5.805  10.938  -5.752  1.00  0.00    -0.122 N 
ATOM     76  N   UNL     1       3.919  11.746  -4.305  1.00  0.00    -0.122 N 
ATOM     77  S   UNL     1       4.575  12.018  -5.781  1.00  0.00     0.469 S 
ATOM     78  H   UNL     1       6.477  10.799  -6.458  1.00  0.00     0.331 HD
ATOM     79  H   UNL     1       3.150  12.218  -3.911  1.00  0.00     0.331 HD
ATOM     80  O   UNL     1       5.125  13.348  -5.803  1.00  0.00    -0.143 OA
ATOM     81  O   UNL     1       3.618  11.580  -6.784  1.00  0.00    -0.143 OA
ENDBRANCH  60  63
ENDBRANCH  58  59
ENDBRANCH  57  58
ENDBRANCH  56  57
ENDBRANCH   1  56
TORSDOF 11
