REMARK SMILES Cc1ccccc1OC1(C(=O)NCCCCNC(=O)c2ccc(-c3c4nc(c(-c5ccccc5)c5ccc([nH]5)c(-c5ccccc5)c5nc(c(-c6ccccc6)c6ccc3[nH]6)C=C5)C=C4)cc2)CCN(C(=O)[C@H]2CCCCO2)CC1
REMARK SMILES IDX 14 1 13 2 12 3 10 4 11 5 9 7 68 8 80 9 69 10 79 11 70 12
REMARK SMILES IDX 71 13 72 14 8 15 7 16 1 17 2 18 3 19 4 20 6 21 5 22 73 23
REMARK SMILES IDX 74 24 78 25 75 26 77 27 76 28 15 29 16 30 17 31 18 32 19 34
REMARK SMILES IDX 20 35 21 36 67 37 22 38 66 39 23 40 24 41 25 42 60 43 26 44
REMARK SMILES IDX 65 45 59 46 61 47 27 48 64 49 58 50 57 51 28 53 50 54 35 55
REMARK SMILES IDX 49 56 36 57 39 58 48 59 62 60 37 61 38 62 47 64 63 65 40 66
REMARK SMILES IDX 29 67 30 68 34 69 31 70 33 71 32 72 51 73 52 74 56 75 53 76
REMARK SMILES IDX 55 77 54 78 41 79 42 80 46 81 43 82 45 83 44 84
REMARK H PARENT 12 6 17 33 61 52 39 63
REMARK Flexibility Score: inf
ROOT
ATOM      1  C   UNL     1       9.137  -4.405  -2.408  1.00  0.00     0.023 C 
ENDROOT
BRANCH   1   2
ATOM      2  C   UNL     1       7.753  -4.304  -3.067  1.00  0.00     0.116 C 
BRANCH   2   3
ATOM      3  N   UNL     1       7.159  -5.597  -3.356  1.00  0.00    -0.353 N 
ATOM      4  C   UNL     1       6.178  -6.344  -2.766  1.00  0.00     0.264 C 
ATOM      5  O   UNL     1       5.892  -7.374  -3.393  1.00  0.00    -0.270 OA
ATOM      6  H   UNL     1       7.548  -6.030  -4.150  1.00  0.00     0.163 HD
BRANCH   4   7
ATOM      7  C   UNL     1       5.457  -5.959  -1.410  1.00  0.00     0.190 C 
ATOM      8  C   UNL     1       6.508  -5.947  -0.309  1.00  0.00     0.080 C 
ATOM      9  C   UNL     1       4.604  -4.712  -1.655  1.00  0.00     0.080 C 
ATOM     10  C   UNL     1       6.909  -4.581   0.210  1.00  0.00     0.124 C 
ATOM     11  C   UNL     1       4.964  -3.440  -0.894  1.00  0.00     0.124 C 
ATOM     12  N   UNL     1       5.858  -3.579   0.251  1.00  0.00    -0.340 N 
ATOM     13  C   UNL     1       5.997  -2.594   1.240  1.00  0.00     0.251 C 
ATOM     14  O   UNL     1       6.964  -2.609   2.009  1.00  0.00    -0.272 OA
BRANCH   7  15
ATOM     15  O   UNL     1       4.585  -7.115  -1.233  1.00  0.00    -0.477 OA
BRANCH  15  16
ATOM     16  C   UNL     1       3.651  -7.455  -0.302  1.00  0.00     0.123 A 
ATOM     17  C   UNL     1       3.964  -5.791   1.662  1.00  0.00     0.048 C 
ATOM     18  C   UNL     1       3.320  -6.937   0.959  1.00  0.00    -0.009 A 
ATOM     19  C   UNL     1       2.312  -7.570   1.730  1.00  0.00     0.007 A 
ATOM     20  C   UNL     1       1.616  -8.678   1.268  1.00  0.00     0.001 A 
ATOM     21  C   UNL     1       2.927  -8.582  -0.745  1.00  0.00     0.047 A 
ATOM     22  C   UNL     1       1.923  -9.185   0.020  1.00  0.00     0.004 A 
ENDBRANCH  15  16
ENDBRANCH   7  15
BRANCH  13  23
ATOM     23  C   UNL     1       4.889  -1.525   1.383  1.00  0.00     0.207 C 
ATOM     24  C   UNL     1       3.710  -2.152   2.140  1.00  0.00     0.042 C 
ATOM     25  O   UNL     1       5.432  -0.411   2.102  1.00  0.00    -0.368 OA
ATOM     26  C   UNL     1       2.690  -1.116   2.591  1.00  0.00     0.006 C 
ATOM     27  C   UNL     1       4.480   0.598   2.407  1.00  0.00     0.161 C 
ATOM     28  C   UNL     1       3.385   0.037   3.298  1.00  0.00     0.029 C 
ENDBRANCH  13  23
ENDBRANCH   4   7
ENDBRANCH   2   3
ENDBRANCH   1   2
BRANCH   1  29
ATOM     29  C   UNL     1      10.280  -4.801  -3.337  1.00  0.00     0.023 C 
BRANCH  29  30
ATOM     30  C   UNL     1      10.709  -3.697  -4.293  1.00  0.00     0.116 C 
BRANCH  30  31
ATOM     31  N   UNL     1      11.686  -2.754  -3.759  1.00  0.00    -0.352 N 
ATOM     32  C   UNL     1      12.202  -1.601  -4.336  1.00  0.00     0.251 C 
ATOM     33  H   UNL     1      12.029  -2.966  -2.861  1.00  0.00     0.163 HD
ATOM     34  O   UNL     1      13.066  -0.958  -3.759  1.00  0.00    -0.269 OA
BRANCH  32  35
ATOM     35  C   UNL     1      11.588  -1.062  -5.579  1.00  0.00     0.039 A 
ATOM     36  C   UNL     1      11.291   0.307  -5.612  1.00  0.00     0.014 A 
ATOM     37  C   UNL     1      11.070  -1.907  -6.553  1.00  0.00     0.014 A 
ATOM     38  C   UNL     1      10.245   0.755  -6.411  1.00  0.00     0.010 A 
ATOM     39  C   UNL     1       9.946  -1.499  -7.240  1.00  0.00     0.010 A 
ATOM     40  C   UNL     1       9.483  -0.189  -7.095  1.00  0.00    -0.014 A 
BRANCH  40  41
ATOM     41  C   UNL     1       8.116   0.059  -7.538  1.00  0.00     0.031 A 
ATOM     42  C   UNL     1       7.804   0.163  -8.976  1.00  0.00     0.074 A 
ATOM     43  C   UNL     1       7.121   0.091  -6.621  1.00  0.00     0.049 A 
ATOM     44  N   UNL     1       6.766   0.762  -9.457  1.00  0.00    -0.248 NA
ATOM     45  C   UNL     1       8.696  -0.355 -10.007  1.00  0.00     0.031 C 
ATOM     46  C   UNL     1       5.683   0.043  -6.875  1.00  0.00     0.029 A 
ATOM     47  N   UNL     1       7.207   0.406  -5.261  1.00  0.00    -0.354 N 
ATOM     48  C   UNL     1       6.681   0.423 -10.788  1.00  0.00     0.074 A 
ATOM     49  C   UNL     1       7.962  -0.162 -11.105  1.00  0.00     0.031 C 
ATOM     50  C   UNL     1       5.047   0.614  -5.839  1.00  0.00     0.029 A 
ATOM     51  C   UNL     1       6.068   1.171  -4.967  1.00  0.00     0.049 A 
ATOM     52  H   UNL     1       7.922   0.145  -4.637  1.00  0.00     0.167 HD
ATOM     53  C   UNL     1       5.481   0.523 -11.428  1.00  0.00     0.031 A 
ATOM     54  C   UNL     1       6.121   2.470  -4.549  1.00  0.00     0.031 A 
ATOM     55  C   UNL     1       4.480   1.191 -10.593  1.00  0.00     0.049 A 
ATOM     56  C   UNL     1       5.377   3.421  -5.465  1.00  0.00     0.074 A 
ATOM     57  C   UNL     1       3.399   0.734  -9.856  1.00  0.00     0.029 A 
ATOM     58  N   UNL     1       4.696   2.506 -10.197  1.00  0.00    -0.354 N 
ATOM     59  N   UNL     1       4.995   3.116  -6.675  1.00  0.00    -0.248 NA
ATOM     60  C   UNL     1       5.062   4.805  -5.119  1.00  0.00     0.031 C 
ATOM     61  C   UNL     1       3.027   1.757  -8.944  1.00  0.00     0.029 A 
ATOM     62  C   UNL     1       3.858   2.843  -9.152  1.00  0.00     0.049 A 
ATOM     63  H   UNL     1       5.356   3.113 -10.604  1.00  0.00     0.167 HD
ATOM     64  C   UNL     1       4.409   4.204  -7.263  1.00  0.00     0.074 A 
ATOM     65  C   UNL     1       4.465   5.237  -6.245  1.00  0.00     0.031 C 
ATOM     66  C   UNL     1       3.943   4.165  -8.546  1.00  0.00     0.031 A 
BRANCH  53  67
ATOM     67  C   UNL     1       5.134  -0.252 -12.684  1.00  0.00    -0.014 A 
ATOM     68  C   UNL     1       3.783  -0.512 -12.988  1.00  0.00     0.009 A 
ATOM     69  C   UNL     1       6.069  -0.827 -13.562  1.00  0.00     0.009 A 
ATOM     70  C   UNL     1       3.401  -1.366 -14.034  1.00  0.00     0.001 A 
ATOM     71  C   UNL     1       5.700  -1.702 -14.594  1.00  0.00     0.001 A 
ATOM     72  C   UNL     1       4.363  -1.983 -14.822  1.00  0.00     0.000 A 
ENDBRANCH  53  67
BRANCH  54  73
ATOM     73  C   UNL     1       7.351   2.828  -3.791  1.00  0.00    -0.014 A 
ATOM     74  C   UNL     1       7.531   2.276  -2.508  1.00  0.00     0.009 A 
ATOM     75  C   UNL     1       8.462   3.381  -4.444  1.00  0.00     0.009 A 
ATOM     76  C   UNL     1       8.805   2.186  -1.939  1.00  0.00     0.001 A 
ATOM     77  C   UNL     1       9.736   3.292  -3.868  1.00  0.00     0.001 A 
ATOM     78  C   UNL     1       9.911   2.667  -2.634  1.00  0.00     0.000 A 
ENDBRANCH  54  73
BRANCH  66  79
ATOM     79  C   UNL     1       3.469   5.348  -9.354  1.00  0.00    -0.014 A 
ATOM     80  C   UNL     1       3.880   6.669  -9.136  1.00  0.00     0.009 A 
ATOM     81  C   UNL     1       2.671   5.112 -10.496  1.00  0.00     0.009 A 
ATOM     82  C   UNL     1       3.480   7.705  -9.992  1.00  0.00     0.001 A 
ATOM     83  C   UNL     1       2.307   6.133 -11.376  1.00  0.00     0.001 A 
ATOM     84  C   UNL     1       2.704   7.436 -11.116  1.00  0.00     0.000 A 
ENDBRANCH  66  79
ENDBRANCH  40  41
ENDBRANCH  32  35
ENDBRANCH  30  31
ENDBRANCH  29  30
ENDBRANCH   1  29
TORSDOF 14
