REMARK SMILES C[C@H]1CCCC[C@H]1[N@H+]1[C@@H](C(=O)NCCCCNC(=O)c2ccc(-c3c4nc(c(-c5ccccc5)c5ccc([nH]5)c(-c5ccccc5)c5nc(c(-c6ccccc6)c6ccc3[nH]6)C=C5)C=C4)cc2)CC[C@@H]2CCCC[C@@H]21
REMARK SMILES IDX 15 1 14 2 13 3 12 4 10 5 11 6 9 8 8 9 75 10 68 12 70 13
REMARK SMILES IDX 74 14 69 15 71 16 73 17 72 18 7 19 1 20 2 21 3 22 4 23 6 24
REMARK SMILES IDX 5 25 16 26 17 27 18 28 19 30 20 31 21 32 67 33 22 34 66 35
REMARK SMILES IDX 23 36 24 37 25 38 60 39 26 40 65 41 59 42 61 43 27 44 64 45
REMARK SMILES IDX 58 46 57 47 28 49 50 50 35 51 49 52 36 53 39 54 48 55 62 56
REMARK SMILES IDX 37 57 38 58 47 60 63 61 40 62 29 63 30 64 34 65 31 66 33 67
REMARK SMILES IDX 32 68 51 69 52 70 56 71 53 72 55 73 54 74 41 75 42 76 46 77
REMARK SMILES IDX 43 78 45 79 44 80
REMARK H PARENT 12 7 8 11 17 29 61 48 39 59
REMARK Flexibility Score: inf
ROOT
ATOM      1  C   UNL     1      -3.561  -3.703  -1.859  1.00  0.00     0.023 C 
ENDROOT
BRANCH   1   2
ATOM      2  C   UNL     1      -2.111  -3.458  -2.267  1.00  0.00     0.023 C 
BRANCH   2   3
ATOM      3  C   UNL     1      -1.880  -2.203  -3.102  1.00  0.00     0.116 C 
BRANCH   3   4
ATOM      4  N   UNL     1      -2.170  -0.955  -2.405  1.00  0.00    -0.351 N 
ATOM      5  C   UNL     1      -1.335   0.098  -2.095  1.00  0.00     0.278 C 
ATOM      6  O   UNL     1      -1.855   1.171  -1.780  1.00  0.00    -0.268 OA
ATOM      7  H   UNL     1      -3.103  -0.848  -2.111  1.00  0.00     0.163 HD
BRANCH   5   8
ATOM      8  C   UNL     1       0.170  -0.055  -2.252  1.00  0.00     0.274 C 
ATOM      9  N   UNL     1       1.008  -0.691  -1.190  1.00  0.00    -0.319 N 
ATOM     10  C   UNL     1       2.466  -0.538  -1.522  1.00  0.00     0.188 C 
ATOM     11  H   UNL     1       0.682  -1.655  -1.266  1.00  0.00     0.349 HD
ATOM     12  C   UNL     1       0.830   1.160  -2.908  1.00  0.00     0.076 C 
ATOM     13  C   UNL     1       2.732  -0.534  -3.055  1.00  0.00     0.048 C 
ATOM     14  C   UNL     1       3.455  -1.556  -0.896  1.00  0.00     0.065 C 
ATOM     15  C   UNL     1       2.033   0.667  -3.726  1.00  0.00     0.016 C 
ATOM     16  C   UNL     1       2.403  -1.911  -3.696  1.00  0.00     0.010 C 
ATOM     17  C   UNL     1       3.752  -2.781  -1.766  1.00  0.00     0.006 C 
ATOM     18  C   UNL     1       2.613  -3.080  -2.724  1.00  0.00     0.001 C 
BRANCH   9  19
ATOM     19  C   UNL     1       0.675  -0.657   0.262  1.00  0.00     0.187 C 
ATOM     20  C   UNL     1       2.477   0.987   1.274  1.00  0.00     0.014 C 
ATOM     21  C   UNL     1       1.022   0.537   1.197  1.00  0.00     0.044 C 
ATOM     22  C   UNL     1       0.084   1.709   0.947  1.00  0.00     0.009 C 
ATOM     23  C   UNL     1      -1.349   1.350   1.321  1.00  0.00     0.001 C 
ATOM     24  C   UNL     1      -0.749  -1.123   0.669  1.00  0.00     0.065 C 
ATOM     25  C   UNL     1      -1.815  -0.064   0.973  1.00  0.00     0.006 C 
ENDBRANCH   9  19
ENDBRANCH   5   8
ENDBRANCH   3   4
ENDBRANCH   2   3
ENDBRANCH   1   2
BRANCH   1  26
ATOM     26  C   UNL     1      -4.549  -3.813  -3.017  1.00  0.00     0.116 C 
BRANCH  26  27
ATOM     27  N   UNL     1      -4.209  -4.869  -3.961  1.00  0.00    -0.352 N 
ATOM     28  C   UNL     1      -4.995  -5.864  -4.486  1.00  0.00     0.251 C 
ATOM     29  H   UNL     1      -3.275  -4.867  -4.270  1.00  0.00     0.163 HD
ATOM     30  O   UNL     1      -4.486  -6.746  -5.176  1.00  0.00    -0.269 OA
BRANCH  28  31
ATOM     31  C   UNL     1      -6.444  -5.903  -4.199  1.00  0.00     0.039 A 
ATOM     32  C   UNL     1      -7.033  -7.128  -3.873  1.00  0.00     0.014 A 
ATOM     33  C   UNL     1      -7.224  -4.744  -4.250  1.00  0.00     0.014 A 
ATOM     34  C   UNL     1      -8.385  -7.177  -3.525  1.00  0.00     0.010 A 
ATOM     35  C   UNL     1      -8.550  -4.782  -3.826  1.00  0.00     0.010 A 
ATOM     36  C   UNL     1      -9.145  -5.998  -3.457  1.00  0.00    -0.014 A 
BRANCH  36  37
ATOM     37  C   UNL     1     -10.555  -6.016  -2.989  1.00  0.00     0.031 A 
ATOM     38  C   UNL     1     -11.668  -5.596  -3.911  1.00  0.00     0.074 A 
ATOM     39  C   UNL     1     -10.831  -6.357  -1.714  1.00  0.00     0.049 A 
ATOM     40  N   UNL     1     -12.949  -5.487  -3.662  1.00  0.00    -0.248 NA
ATOM     41  C   UNL     1     -11.292  -5.232  -5.287  1.00  0.00     0.031 C 
ATOM     42  C   UNL     1      -9.843  -6.754  -0.707  1.00  0.00     0.029 A 
ATOM     43  N   UNL     1     -12.028  -6.418  -1.043  1.00  0.00    -0.354 N 
ATOM     44  C   UNL     1     -13.527  -5.035  -4.842  1.00  0.00     0.074 A 
ATOM     45  C   UNL     1     -12.453  -4.839  -5.791  1.00  0.00     0.031 C 
ATOM     46  C   UNL     1     -10.476  -7.043   0.441  1.00  0.00     0.029 A 
ATOM     47  C   UNL     1     -11.905  -6.806   0.270  1.00  0.00     0.049 A 
ATOM     48  H   UNL     1     -12.892  -6.204  -1.463  1.00  0.00     0.167 HD
ATOM     49  C   UNL     1     -14.835  -4.824  -5.120  1.00  0.00     0.031 A 
ATOM     50  C   UNL     1     -12.837  -6.944   1.233  1.00  0.00     0.031 A 
ATOM     51  C   UNL     1     -15.906  -5.021  -4.179  1.00  0.00     0.049 A 
ATOM     52  C   UNL     1     -14.278  -6.659   0.907  1.00  0.00     0.074 A 
ATOM     53  C   UNL     1     -17.267  -4.869  -4.381  1.00  0.00     0.029 A 
ATOM     54  N   UNL     1     -15.738  -5.410  -2.860  1.00  0.00    -0.354 N 
ATOM     55  N   UNL     1     -14.812  -6.294  -0.233  1.00  0.00    -0.248 NA
ATOM     56  C   UNL     1     -15.247  -6.817   2.001  1.00  0.00     0.031 C 
ATOM     57  C   UNL     1     -17.919  -5.112  -3.169  1.00  0.00     0.029 A 
ATOM     58  C   UNL     1     -16.969  -5.481  -2.230  1.00  0.00     0.049 A 
ATOM     59  H   UNL     1     -14.873  -5.607  -2.435  1.00  0.00     0.167 HD
ATOM     60  C   UNL     1     -16.180  -6.215  -0.002  1.00  0.00     0.074 A 
ATOM     61  C   UNL     1     -16.394  -6.589   1.380  1.00  0.00     0.031 C 
ATOM     62  C   UNL     1     -17.170  -5.864  -0.857  1.00  0.00     0.031 A 
BRANCH  49  63
ATOM     63  C   UNL     1     -15.188  -4.353  -6.504  1.00  0.00    -0.014 A 
ATOM     64  C   UNL     1     -15.067  -5.207  -7.612  1.00  0.00     0.009 A 
ATOM     65  C   UNL     1     -15.706  -3.063  -6.695  1.00  0.00     0.009 A 
ATOM     66  C   UNL     1     -15.433  -4.769  -8.887  1.00  0.00     0.001 A 
ATOM     67  C   UNL     1     -16.100  -2.638  -7.966  1.00  0.00     0.001 A 
ATOM     68  C   UNL     1     -15.956  -3.488  -9.061  1.00  0.00     0.000 A 
ENDBRANCH  49  63
BRANCH  50  69
ATOM     69  C   UNL     1     -12.448  -7.367   2.606  1.00  0.00    -0.014 A 
ATOM     70  C   UNL     1     -12.867  -8.604   3.119  1.00  0.00     0.009 A 
ATOM     71  C   UNL     1     -11.694  -6.515   3.429  1.00  0.00     0.009 A 
ATOM     72  C   UNL     1     -12.579  -8.960   4.439  1.00  0.00     0.001 A 
ATOM     73  C   UNL     1     -11.376  -6.889   4.737  1.00  0.00     0.001 A 
ATOM     74  C   UNL     1     -11.832  -8.104   5.245  1.00  0.00     0.000 A 
ENDBRANCH  50  69
BRANCH  62  75
ATOM     75  C   UNL     1     -18.581  -5.917  -0.340  1.00  0.00    -0.014 A 
ATOM     76  C   UNL     1     -19.053  -4.991   0.604  1.00  0.00     0.009 A 
ATOM     77  C   UNL     1     -19.463  -6.890  -0.836  1.00  0.00     0.009 A 
ATOM     78  C   UNL     1     -20.368  -5.063   1.067  1.00  0.00     0.001 A 
ATOM     79  C   UNL     1     -20.787  -6.939  -0.396  1.00  0.00     0.001 A 
ATOM     80  C   UNL     1     -21.235  -6.032   0.563  1.00  0.00     0.000 A 
ENDBRANCH  62  75
ENDBRANCH  36  37
ENDBRANCH  28  31
ENDBRANCH  26  27
ENDBRANCH   1  26
TORSDOF 12
