REMARK SMILES O=C(NCCCCNC(=O)c1ccc(-c2c3nc(c(-c4ccccc4)c4ccc([nH]4)c(-c4ccccc4)c4nc(c(-c5ccccc5)c5ccc2[nH]5)C=C4)C=C3)cc1)c1ccc(Cc2nc3ccccc3s2)cc1
REMARK SMILES IDX 5 1 4 2 3 3 1 4 2 5 59 7 60 8 74 9 61 10 73 11 62 12 63 13
REMARK SMILES IDX 64 14 65 15 72 16 66 17 71 18 67 19 70 20 68 21 69 22 6 23
REMARK SMILES IDX 7 24 8 25 9 26 10 28 11 29 12 30 58 31 13 32 57 33 14 34
REMARK SMILES IDX 15 35 16 36 51 37 17 38 56 39 50 40 52 41 18 42 55 43 49 44
REMARK SMILES IDX 48 45 19 47 41 48 26 49 40 50 27 51 30 52 39 53 53 54 28 55
REMARK SMILES IDX 29 56 38 58 54 59 31 60 20 61 21 62 25 63 22 64 24 65 23 66
REMARK SMILES IDX 42 67 43 68 47 69 44 70 46 71 45 72 32 73 33 74 37 75 34 76
REMARK SMILES IDX 36 77 35 78
REMARK H PARENT 3 6 8 27 52 46 30 57
REMARK Flexibility Score: inf
ROOT
ATOM      1  C   UNL     1       4.945  -1.793   1.668  1.00  0.00     0.023 C 
ENDROOT
BRANCH   1   2
ATOM      2  C   UNL     1       4.585  -1.187   0.314  1.00  0.00     0.116 C 
BRANCH   2   3
ATOM      3  N   UNL     1       3.149  -1.089   0.103  1.00  0.00    -0.352 N 
ATOM      4  O   UNL     1       1.163  -0.045  -0.172  1.00  0.00    -0.269 OA
ATOM      5  C   UNL     1       2.386   0.029  -0.139  1.00  0.00     0.251 C 
ATOM      6  H   UNL     1       2.656  -1.940   0.138  1.00  0.00     0.163 HD
BRANCH   5   7
ATOM      7  C   UNL     1       3.053   1.333  -0.323  1.00  0.00     0.039 A 
ATOM      8  C   UNL     1       4.030   1.503  -1.309  1.00  0.00     0.014 A 
ATOM      9  C   UNL     1       2.726   2.379   0.541  1.00  0.00     0.014 A 
ATOM     10  C   UNL     1       4.762   2.688  -1.356  1.00  0.00     0.005 A 
ATOM     11  C   UNL     1       3.454   3.568   0.486  1.00  0.00     0.005 A 
ATOM     12  C   UNL     1       4.499   3.719  -0.440  1.00  0.00    -0.041 A 
BRANCH  12  13
ATOM     13  C   UNL     1       5.399   4.936  -0.386  1.00  0.00     0.103 C 
BRANCH  13  14
ATOM     14  C   UNL     1       6.672   4.689   0.383  1.00  0.00     0.098 A 
ATOM     15  N   UNL     1       6.822   3.790   1.335  1.00  0.00    -0.241 NA
ATOM     16  S   UNL     1       8.066   5.640   0.049  1.00  0.00    -0.118 S 
ATOM     17  C   UNL     1       8.115   3.820   1.827  1.00  0.00     0.082 A 
ATOM     18  C   UNL     1       8.950   4.776   1.248  1.00  0.00     0.055 A 
ATOM     19  C   UNL     1       8.634   2.985   2.837  1.00  0.00     0.030 A 
ATOM     20  C   UNL     1      10.288   4.930   1.649  1.00  0.00     0.021 A 
ATOM     21  C   UNL     1       9.965   3.128   3.242  1.00  0.00     0.002 A 
ATOM     22  C   UNL     1      10.779   4.091   2.655  1.00  0.00     0.002 A 
ENDBRANCH  13  14
ENDBRANCH  12  13
ENDBRANCH   5   7
ENDBRANCH   2   3
ENDBRANCH   1   2
BRANCH   1  23
ATOM     23  C   UNL     1       4.469  -3.228   1.893  1.00  0.00     0.023 C 
BRANCH  23  24
ATOM     24  C   UNL     1       4.862  -4.231   0.814  1.00  0.00     0.116 C 
BRANCH  24  25
ATOM     25  N   UNL     1       6.301  -4.356   0.639  1.00  0.00    -0.352 N 
ATOM     26  C   UNL     1       7.087  -5.485   0.607  1.00  0.00     0.251 C 
ATOM     27  H   UNL     1       6.784  -3.506   0.528  1.00  0.00     0.163 HD
ATOM     28  O   UNL     1       8.306  -5.382   0.559  1.00  0.00    -0.269 OA
BRANCH  26  29
ATOM     29  C   UNL     1       6.465  -6.827   0.669  1.00  0.00     0.039 A 
ATOM     30  C   UNL     1       7.012  -7.781   1.532  1.00  0.00     0.014 A 
ATOM     31  C   UNL     1       5.349  -7.147  -0.109  1.00  0.00     0.014 A 
ATOM     32  C   UNL     1       6.394  -9.026   1.673  1.00  0.00     0.010 A 
ATOM     33  C   UNL     1       4.693  -8.360   0.086  1.00  0.00     0.010 A 
ATOM     34  C   UNL     1       5.205  -9.311   0.982  1.00  0.00    -0.014 A 
BRANCH  34  35
ATOM     35  C   UNL     1       4.479 -10.591   1.190  1.00  0.00     0.031 A 
ATOM     36  C   UNL     1       4.315 -11.563   0.055  1.00  0.00     0.074 A 
ATOM     37  C   UNL     1       3.908 -10.850   2.384  1.00  0.00     0.049 A 
ATOM     38  N   UNL     1       3.649 -12.691   0.023  1.00  0.00    -0.248 NA
ATOM     39  C   UNL     1       4.966 -11.214  -1.218  1.00  0.00     0.031 C 
ATOM     40  C   UNL     1       3.959  -9.976   3.558  1.00  0.00     0.029 A 
ATOM     41  N   UNL     1       3.162 -11.923   2.803  1.00  0.00    -0.354 N 
ATOM     42  C   UNL     1       3.787 -13.174  -1.272  1.00  0.00     0.074 A 
ATOM     43  C   UNL     1       4.561 -12.198  -2.008  1.00  0.00     0.031 C 
ATOM     44  C   UNL     1       3.293 -10.559   4.569  1.00  0.00     0.029 A 
ATOM     45  C   UNL     1       2.734 -11.824   4.105  1.00  0.00     0.049 A 
ATOM     46  H   UNL     1       2.952 -12.692   2.224  1.00  0.00     0.167 HD
ATOM     47  C   UNL     1       3.329 -14.335  -1.798  1.00  0.00     0.031 A 
ATOM     48  C   UNL     1       1.969 -12.652   4.841  1.00  0.00     0.031 A 
ATOM     49  C   UNL     1       2.571 -15.315  -1.068  1.00  0.00     0.049 A 
ATOM     50  C   UNL     1       1.460 -13.927   4.226  1.00  0.00     0.074 A 
ATOM     51  C   UNL     1       2.104 -16.543  -1.505  1.00  0.00     0.029 A 
ATOM     52  N   UNL     1       2.172 -15.181   0.252  1.00  0.00    -0.354 N 
ATOM     53  N   UNL     1       1.651 -14.395   3.017  1.00  0.00    -0.248 NA
ATOM     54  C   UNL     1       0.638 -14.792   5.085  1.00  0.00     0.031 C 
ATOM     55  C   UNL     1       1.384 -17.133  -0.461  1.00  0.00     0.029 A 
ATOM     56  C   UNL     1       1.449 -16.296   0.641  1.00  0.00     0.049 A 
ATOM     57  H   UNL     1       2.373 -14.408   0.828  1.00  0.00     0.167 HD
ATOM     58  C   UNL     1       0.999 -15.621   2.980  1.00  0.00     0.074 A 
ATOM     59  C   UNL     1       0.422 -15.831   4.291  1.00  0.00     0.031 C 
ATOM     60  C   UNL     1       0.888 -16.495   1.951  1.00  0.00     0.031 A 
BRANCH  47  61
ATOM     61  C   UNL     1       3.640 -14.612  -3.242  1.00  0.00    -0.014 A 
ATOM     62  C   UNL     1       4.943 -14.937  -3.652  1.00  0.00     0.009 A 
ATOM     63  C   UNL     1       2.611 -14.597  -4.196  1.00  0.00     0.009 A 
ATOM     64  C   UNL     1       5.214 -15.212  -4.994  1.00  0.00     0.001 A 
ATOM     65  C   UNL     1       2.880 -14.899  -5.532  1.00  0.00     0.001 A 
ATOM     66  C   UNL     1       4.182 -15.198  -5.931  1.00  0.00     0.000 A 
ENDBRANCH  47  61
BRANCH  48  67
ATOM     67  C   UNL     1       1.637 -12.313   6.250  1.00  0.00    -0.014 A 
ATOM     68  C   UNL     1       2.186 -13.053   7.309  1.00  0.00     0.009 A 
ATOM     69  C   UNL     1       0.746 -11.269   6.542  1.00  0.00     0.009 A 
ATOM     70  C   UNL     1       1.823 -12.776   8.629  1.00  0.00     0.001 A 
ATOM     71  C   UNL     1       0.409 -10.975   7.865  1.00  0.00     0.001 A 
ATOM     72  C   UNL     1       0.938 -11.736   8.906  1.00  0.00     0.000 A 
ENDBRANCH  48  67
BRANCH  60  73
ATOM     73  C   UNL     1       0.151 -17.777   2.213  1.00  0.00    -0.014 A 
ATOM     74  C   UNL     1      -1.245 -17.802   2.350  1.00  0.00     0.009 A 
ATOM     75  C   UNL     1       0.865 -18.984   2.285  1.00  0.00     0.009 A 
ATOM     76  C   UNL     1      -1.909 -19.008   2.587  1.00  0.00     0.001 A 
ATOM     77  C   UNL     1       0.196 -20.191   2.494  1.00  0.00     0.001 A 
ATOM     78  C   UNL     1      -1.189 -20.200   2.654  1.00  0.00     0.000 A 
ENDBRANCH  60  73
ENDBRANCH  34  35
ENDBRANCH  26  29
ENDBRANCH  24  25
ENDBRANCH  23  24
ENDBRANCH   1  23
TORSDOF 13
