REMARK SMILES CCCN1C(=O)/C(=C\c2ccc(C(=O)NCCCCNC(=O)c3ccc(-c4c5nc(c(-c6ccccc6)c6ccc([nH]6)c(-c6ccccc6)c6nc(c(-c7ccccc7)c7ccc4[nH]7)C=C6)C=C5)cc3)cc2)S/C1=[NH+]\c1nnc(C)s1
REMARK SMILES IDX 17 1 16 2 15 3 13 4 14 5 12 7 9 8 10 9 72 10 11 11 71 12
REMARK SMILES IDX 8 13 4 14 5 15 74 16 6 17 7 18 73 19 75 20 3 22 2 23 1 24
REMARK SMILES IDX 76 25 77 26 81 27 78 28 79 29 80 30 18 31 19 32 20 33 21 34
REMARK SMILES IDX 22 36 23 37 24 38 70 39 25 40 69 41 26 42 27 43 28 44 63 45
REMARK SMILES IDX 29 46 68 47 62 48 64 49 30 50 67 51 61 52 60 53 31 55 53 56
REMARK SMILES IDX 38 57 52 58 39 59 42 60 51 61 65 62 40 63 41 64 50 66 66 67
REMARK SMILES IDX 43 68 32 69 33 70 37 71 34 72 36 73 35 74 54 75 55 76 59 77
REMARK SMILES IDX 56 78 58 79 57 80 44 81 45 82 49 83 46 84 48 85 47 86
REMARK H PARENT 15 6 75 21 20 35 64 54 42 65
REMARK Flexibility Score: inf
ROOT
ATOM      1  C   UNL     1      -1.325   4.304  -3.676  1.00  0.00     0.023 C 
ENDROOT
BRANCH   1   2
ATOM      2  C   UNL     1       0.119   3.853  -3.439  1.00  0.00     0.116 C 
BRANCH   2   3
ATOM      3  N   UNL     1       0.981   5.000  -3.230  1.00  0.00    -0.352 N 
ATOM      4  C   UNL     1       1.474   5.586  -2.091  1.00  0.00     0.251 C 
ATOM      5  O   UNL     1       2.218   6.557  -2.230  1.00  0.00    -0.269 OA
ATOM      6  H   UNL     1       1.266   5.442  -4.062  1.00  0.00     0.163 HD
BRANCH   4   7
ATOM      7  C   UNL     1       1.192   5.081  -0.717  1.00  0.00     0.039 A 
ATOM      8  C   UNL     1       0.859   4.135   1.917  1.00  0.00    -0.024 A 
ATOM      9  C   UNL     1       1.998   4.862   1.580  1.00  0.00     0.009 A 
ATOM     10  C   UNL     1      -0.135   3.929   0.953  1.00  0.00     0.009 A 
ATOM     11  C   UNL     1       2.163   5.328   0.270  1.00  0.00     0.014 A 
ATOM     12  C   UNL     1       0.021   4.421  -0.344  1.00  0.00     0.014 A 
BRANCH   8  13
ATOM     13  C   UNL     1       0.660   3.577   3.253  1.00  0.00     0.031 C 
ATOM     14  N   UNL     1       0.871  -0.012   3.015  1.00  0.00    -0.219 N 
ATOM     15  C   UNL     1       1.373   1.220   2.647  1.00  0.00     0.321 C 
ATOM     16  C   UNL     1       0.163  -0.053   4.197  1.00  0.00     0.271 C 
ATOM     17  O   UNL     1       2.190   1.432   1.760  1.00  0.00    -0.250 OA
ATOM     18  C   UNL     1       0.817   2.276   3.534  1.00  0.00     0.100 C 
ATOM     19  S   UNL     1       0.186   1.540   4.954  1.00  0.00    -0.012 SA
ATOM     20  N   UNL     1      -0.428  -1.121   4.622  1.00  0.00    -0.226 N 
ATOM     21  H   UNL     1      -0.419  -1.958   4.104  1.00  0.00     0.268 HD
BRANCH  14  22
ATOM     22  C   UNL     1       1.213  -1.207   2.249  1.00  0.00     0.206 C 
BRANCH  22  23
ATOM     23  C   UNL     1       0.424  -1.368   0.941  1.00  0.00     0.035 C 
ATOM     24  C   UNL     1       0.824  -0.396  -0.162  1.00  0.00     0.007 C 
ENDBRANCH  22  23
ENDBRANCH  14  22
BRANCH  20  25
ATOM     25  C   UNL     1      -1.061  -1.030   5.820  1.00  0.00     0.345 A 
ATOM     26  N   UNL     1      -0.534  -1.235   7.012  1.00  0.00     0.023 NA
ATOM     27  S   UNL     1      -2.740  -0.606   5.894  1.00  0.00    -0.044 S 
ATOM     28  N   UNL     1      -1.409  -0.959   8.043  1.00  0.00    -0.067 NA
ATOM     29  C   UNL     1      -2.585  -0.571   7.602  1.00  0.00     0.135 A 
ATOM     30  C   UNL     1      -3.705  -0.126   8.469  1.00  0.00     0.083 C 
ENDBRANCH  20  25
ENDBRANCH   8  13
ENDBRANCH   4   7
ENDBRANCH   2   3
ENDBRANCH   1   2
BRANCH   1  31
ATOM     31  C   UNL     1      -1.591   4.845  -5.085  1.00  0.00     0.023 C 
BRANCH  31  32
ATOM     32  C   UNL     1      -1.386   3.835  -6.208  1.00  0.00     0.116 C 
BRANCH  32  33
ATOM     33  N   UNL     1      -2.205   2.642  -6.062  1.00  0.00    -0.352 N 
ATOM     34  C   UNL     1      -2.759   1.855  -7.041  1.00  0.00     0.251 C 
ATOM     35  H   UNL     1      -2.388   2.361  -5.136  1.00  0.00     0.163 HD
ATOM     36  O   UNL     1      -3.528   0.947  -6.740  1.00  0.00    -0.269 OA
BRANCH  34  37
ATOM     37  C   UNL     1      -2.457   2.131  -8.460  1.00  0.00     0.039 A 
ATOM     38  C   UNL     1      -3.510   2.143  -9.377  1.00  0.00     0.014 A 
ATOM     39  C   UNL     1      -1.151   2.391  -8.884  1.00  0.00     0.014 A 
ATOM     40  C   UNL     1      -3.258   2.468 -10.710  1.00  0.00     0.010 A 
ATOM     41  C   UNL     1      -0.915   2.796 -10.194  1.00  0.00     0.010 A 
ATOM     42  C   UNL     1      -1.964   2.829 -11.123  1.00  0.00    -0.014 A 
BRANCH  42  43
ATOM     43  C   UNL     1      -1.709   3.245 -12.525  1.00  0.00     0.031 A 
ATOM     44  C   UNL     1      -0.802   2.438 -13.411  1.00  0.00     0.074 A 
ATOM     45  C   UNL     1      -2.271   4.378 -12.989  1.00  0.00     0.049 A 
ATOM     46  N   UNL     1      -0.505   2.624 -14.673  1.00  0.00    -0.248 NA
ATOM     47  C   UNL     1      -0.118   1.288 -12.799  1.00  0.00     0.031 C 
ATOM     48  C   UNL     1      -3.113   5.287 -12.208  1.00  0.00     0.029 A 
ATOM     49  N   UNL     1      -2.224   4.955 -14.233  1.00  0.00    -0.354 N 
ATOM     50  C   UNL     1       0.406   1.627 -14.998  1.00  0.00     0.074 A 
ATOM     51  C   UNL     1       0.659   0.876 -13.788  1.00  0.00     0.031 C 
ATOM     52  C   UNL     1      -3.539   6.282 -13.001  1.00  0.00     0.029 A 
ATOM     53  C   UNL     1      -2.975   6.101 -14.335  1.00  0.00     0.049 A 
ATOM     54  H   UNL     1      -1.702   4.583 -14.980  1.00  0.00     0.167 HD
ATOM     55  C   UNL     1       0.966   1.347 -16.198  1.00  0.00     0.031 A 
ATOM     56  C   UNL     1      -3.193   6.912 -15.387  1.00  0.00     0.031 A 
ATOM     57  C   UNL     1       0.710   2.094 -17.401  1.00  0.00     0.049 A 
ATOM     58  C   UNL     1      -2.578   6.571 -16.715  1.00  0.00     0.074 A 
ATOM     59  C   UNL     1       1.169   1.848 -18.683  1.00  0.00     0.029 A 
ATOM     60  N   UNL     1      -0.069   3.240 -17.467  1.00  0.00    -0.354 N 
ATOM     61  N   UNL     1      -1.800   5.564 -17.030  1.00  0.00    -0.248 NA
ATOM     62  C   UNL     1      -2.891   7.467 -17.837  1.00  0.00     0.031 C 
ATOM     63  C   UNL     1       0.720   2.881 -19.513  1.00  0.00     0.029 A 
ATOM     64  C   UNL     1      -0.078   3.730 -18.762  1.00  0.00     0.049 A 
ATOM     65  H   UNL     1      -0.544   3.645 -16.706  1.00  0.00     0.167 HD
ATOM     66  C   UNL     1      -1.554   5.688 -18.392  1.00  0.00     0.074 A 
ATOM     67  C   UNL     1      -2.280   6.858 -18.843  1.00  0.00     0.031 C 
ATOM     68  C   UNL     1      -0.798   4.900 -19.196  1.00  0.00     0.031 A 
BRANCH  55  69
ATOM     69  C   UNL     1       1.925   0.189 -16.262  1.00  0.00    -0.014 A 
ATOM     70  C   UNL     1       1.489  -1.135 -16.086  1.00  0.00     0.009 A 
ATOM     71  C   UNL     1       3.284   0.422 -16.526  1.00  0.00     0.009 A 
ATOM     72  C   UNL     1       2.399  -2.194 -16.125  1.00  0.00     0.001 A 
ATOM     73  C   UNL     1       4.186  -0.641 -16.599  1.00  0.00     0.001 A 
ATOM     74  C   UNL     1       3.746  -1.946 -16.386  1.00  0.00     0.000 A 
ENDBRANCH  55  69
BRANCH  56  75
ATOM     75  C   UNL     1      -4.063   8.108 -15.229  1.00  0.00    -0.014 A 
ATOM     76  C   UNL     1      -5.334   8.152 -15.822  1.00  0.00     0.009 A 
ATOM     77  C   UNL     1      -3.632   9.205 -14.467  1.00  0.00     0.009 A 
ATOM     78  C   UNL     1      -6.144   9.281 -15.676  1.00  0.00     0.001 A 
ATOM     79  C   UNL     1      -4.457  10.319 -14.296  1.00  0.00     0.001 A 
ATOM     80  C   UNL     1      -5.708  10.360 -14.908  1.00  0.00     0.000 A 
ENDBRANCH  56  75
BRANCH  68  81
ATOM     81  C   UNL     1      -0.747   5.256 -20.656  1.00  0.00    -0.014 A 
ATOM     82  C   UNL     1      -0.069   6.398 -21.111  1.00  0.00     0.009 A 
ATOM     83  C   UNL     1      -1.360   4.411 -21.595  1.00  0.00     0.009 A 
ATOM     84  C   UNL     1      -0.041   6.705 -22.473  1.00  0.00     0.001 A 
ATOM     85  C   UNL     1      -1.301   4.703 -22.958  1.00  0.00     0.001 A 
ATOM     86  C   UNL     1      -0.652   5.856 -23.395  1.00  0.00     0.000 A 
ENDBRANCH  68  81
ENDBRANCH  42  43
ENDBRANCH  34  37
ENDBRANCH  32  33
ENDBRANCH  31  32
ENDBRANCH   1  31
TORSDOF 15
