REMARK SMILES O=C(NCCCCNC(=O)c1cc(Cl)cc(Cl)c1NC(=S)NC(=O)c1cccc2ccccc12)c1ccc(-c2c3nc(c(-c4ccccc4)c4ccc([nH]4)c(-c4ccccc4)c4nc(c(-c5ccccc5)c5ccc2[nH]5)C=C4)C=C3)cc1
REMARK SMILES IDX 6 1 5 2 4 3 3 4 1 5 2 6 35 8 36 9 82 10 37 11 81 12 38 13
REMARK SMILES IDX 39 14 40 15 75 16 41 17 80 18 74 19 76 20 42 21 79 22 73 23
REMARK SMILES IDX 72 24 43 26 65 27 50 28 64 29 51 30 54 31 63 32 77 33 52 34
REMARK SMILES IDX 53 35 62 37 78 38 55 39 44 40 45 41 49 42 46 43 48 44 47 45
REMARK SMILES IDX 66 46 67 47 71 48 68 49 70 50 69 51 56 52 57 53 61 54 58 55
REMARK SMILES IDX 60 56 59 57 7 58 8 59 9 60 10 62 11 63 12 64 18 65 13 66
REMARK SMILES IDX 16 67 14 68 15 69 17 70 19 71 20 73 21 74 22 75 23 76 24 78
REMARK SMILES IDX 25 79 26 80 34 81 27 82 29 83 33 84 28 85 30 86 32 87 31 88
REMARK H PARENT 3 7 76 25 54 36 8 61 19 72 22 77
REMARK Flexibility Score: inf
ROOT
ATOM      1  C   UNL     1       4.551   0.838  -3.998  1.00  0.00     0.023 C 
ENDROOT
BRANCH   1   2
ATOM      2  C   UNL     1       5.109  -0.162  -2.986  1.00  0.00     0.023 C 
BRANCH   2   3
ATOM      3  C   UNL     1       4.794   0.119  -1.521  1.00  0.00     0.116 C 
BRANCH   3   4
ATOM      4  N   UNL     1       3.374   0.266  -1.241  1.00  0.00    -0.352 N 
ATOM      5  O   UNL     1       1.440   0.004  -0.110  1.00  0.00    -0.269 OA
ATOM      6  C   UNL     1       2.654  -0.166  -0.152  1.00  0.00     0.251 C 
ATOM      7  H   UNL     1       2.855   0.743  -1.929  1.00  0.00     0.163 HD
BRANCH   6   8
ATOM      8  C   UNL     1       3.337  -0.883   0.947  1.00  0.00     0.039 A 
ATOM      9  C   UNL     1       4.518  -0.390   1.505  1.00  0.00     0.014 A 
ATOM     10  C   UNL     1       2.789  -2.085   1.408  1.00  0.00     0.014 A 
ATOM     11  C   UNL     1       5.225  -1.170   2.416  1.00  0.00     0.010 A 
ATOM     12  C   UNL     1       3.471  -2.841   2.365  1.00  0.00     0.010 A 
ATOM     13  C   UNL     1       4.718  -2.410   2.839  1.00  0.00    -0.014 A 
BRANCH  13  14
ATOM     14  C   UNL     1       5.528  -3.236   3.766  1.00  0.00     0.031 A 
ATOM     15  C   UNL     1       6.216  -4.482   3.284  1.00  0.00     0.074 A 
ATOM     16  C   UNL     1       5.723  -2.805   5.026  1.00  0.00     0.049 A 
ATOM     17  N   UNL     1       7.064  -5.250   3.921  1.00  0.00    -0.248 NA
ATOM     18  C   UNL     1       5.914  -4.928   1.914  1.00  0.00     0.031 C 
ATOM     19  C   UNL     1       5.108  -1.614   5.615  1.00  0.00     0.029 A 
ATOM     20  N   UNL     1       6.534  -3.292   6.017  1.00  0.00    -0.354 N 
ATOM     21  C   UNL     1       7.376  -6.281   3.044  1.00  0.00     0.074 A 
ATOM     22  C   UNL     1       6.627  -6.043   1.828  1.00  0.00     0.031 C 
ATOM     23  C   UNL     1       5.625  -1.418   6.838  1.00  0.00     0.029 A 
ATOM     24  C   UNL     1       6.586  -2.479   7.122  1.00  0.00     0.049 A 
ATOM     25  H   UNL     1       7.030  -4.139   5.944  1.00  0.00     0.167 HD
ATOM     26  C   UNL     1       8.209  -7.331   3.232  1.00  0.00     0.031 A 
ATOM     27  C   UNL     1       7.346  -2.560   8.228  1.00  0.00     0.031 A 
ATOM     28  C   UNL     1       8.974  -7.567   4.426  1.00  0.00     0.049 A 
ATOM     29  C   UNL     1       8.315  -3.691   8.384  1.00  0.00     0.074 A 
ATOM     30  C   UNL     1       9.828  -8.619   4.713  1.00  0.00     0.029 A 
ATOM     31  N   UNL     1       8.990  -6.726   5.525  1.00  0.00    -0.354 N 
ATOM     32  N   UNL     1       8.581  -4.667   7.552  1.00  0.00    -0.248 NA
ATOM     33  C   UNL     1       9.086  -3.731   9.635  1.00  0.00     0.031 C 
ATOM     34  C   UNL     1      10.359  -8.414   5.992  1.00  0.00     0.029 A 
ATOM     35  C   UNL     1       9.844  -7.229   6.491  1.00  0.00     0.049 A 
ATOM     36  H   UNL     1       8.471  -5.894   5.608  1.00  0.00     0.167 HD
ATOM     37  C   UNL     1       9.539  -5.447   8.182  1.00  0.00     0.074 A 
ATOM     38  C   UNL     1       9.830  -4.815   9.453  1.00  0.00     0.031 C 
ATOM     39  C   UNL     1      10.114  -6.594   7.751  1.00  0.00     0.031 A 
BRANCH  26  40
ATOM     40  C   UNL     1       8.318  -8.323   2.114  1.00  0.00    -0.014 A 
ATOM     41  C   UNL     1       9.180  -8.094   1.032  1.00  0.00     0.009 A 
ATOM     42  C   UNL     1       7.574  -9.512   2.160  1.00  0.00     0.009 A 
ATOM     43  C   UNL     1       9.280  -9.033   0.003  1.00  0.00     0.001 A 
ATOM     44  C   UNL     1       7.685 -10.453   1.135  1.00  0.00     0.001 A 
ATOM     45  C   UNL     1       8.535 -10.211   0.056  1.00  0.00     0.000 A 
ENDBRANCH  26  40
BRANCH  27  46
ATOM     46  C   UNL     1       7.244  -1.502   9.258  1.00  0.00    -0.014 A 
ATOM     47  C   UNL     1       8.183  -0.461   9.290  1.00  0.00     0.009 A 
ATOM     48  C   UNL     1       6.194  -1.510  10.187  1.00  0.00     0.009 A 
ATOM     49  C   UNL     1       8.076   0.554  10.243  1.00  0.00     0.001 A 
ATOM     50  C   UNL     1       6.084  -0.488  11.131  1.00  0.00     0.001 A 
ATOM     51  C   UNL     1       7.026   0.541  11.160  1.00  0.00     0.000 A 
ENDBRANCH  27  46
BRANCH  39  52
ATOM     52  C   UNL     1      11.097  -7.242   8.675  1.00  0.00    -0.014 A 
ATOM     53  C   UNL     1      10.650  -8.063   9.721  1.00  0.00     0.009 A 
ATOM     54  C   UNL     1      12.473  -7.049   8.491  1.00  0.00     0.009 A 
ATOM     55  C   UNL     1      11.568  -8.665  10.583  1.00  0.00     0.001 A 
ATOM     56  C   UNL     1      13.388  -7.659   9.350  1.00  0.00     0.001 A 
ATOM     57  C   UNL     1      12.935  -8.462  10.397  1.00  0.00     0.000 A 
ENDBRANCH  39  52
ENDBRANCH  13  14
ENDBRANCH   6   8
ENDBRANCH   3   4
ENDBRANCH   2   3
ENDBRANCH   1   2
BRANCH   1  58
ATOM     58  C   UNL     1       4.808   2.310  -3.690  1.00  0.00     0.116 C 
BRANCH  58  59
ATOM     59  N   UNL     1       6.215   2.658  -3.706  1.00  0.00    -0.352 N 
ATOM     60  C   UNL     1       6.984   3.522  -4.460  1.00  0.00     0.253 C 
ATOM     61  H   UNL     1       6.738   2.170  -3.029  1.00  0.00     0.163 HD
ATOM     62  O   UNL     1       8.196   3.508  -4.218  1.00  0.00    -0.269 OA
BRANCH  60  63
ATOM     63  C   UNL     1       6.346   4.444  -5.844  1.00  0.00     0.066 A 
ATOM     64  C   UNL     1       5.814   6.422  -5.938  1.00  0.00     0.036 A 
ATOM     65  C   UNL     1       6.571   3.418  -6.601  1.00  0.00     0.072 A 
ATOM     66  C   UNL     1       5.543   7.449  -6.671  1.00  0.00     0.043 A 
ATOM     67  C   UNL     1       5.607   4.268  -6.685  1.00  0.00     0.066 A 
ATOM     68  Cl  UNL     1       4.769   8.903  -6.319  1.00  0.00    -0.084 Cl
ATOM     69  C   UNL     1       5.097   6.248  -6.712  1.00  0.00     0.043 A 
ATOM     70  Cl  UNL     1       4.371   2.583  -7.106  1.00  0.00    -0.082 Cl
BRANCH  65  71
ATOM     71  N   UNL     1       7.814   3.161  -7.211  1.00  0.00    -0.330 N 
ATOM     72  H   UNL     1       8.438   2.703  -6.603  1.00  0.00     0.169 HD
BRANCH  71  73
ATOM     73  C   UNL     1       8.362   3.389  -8.426  1.00  0.00     0.177 C 
ATOM     74  S   UNL     1       9.768   2.557  -8.804  1.00  0.00    -0.040 S 
BRANCH  73  75
ATOM     75  N   UNL     1       7.863   4.230  -9.374  1.00  0.00    -0.299 N 
ATOM     76  C   UNL     1       6.852   5.166  -9.400  1.00  0.00     0.258 C 
ATOM     77  H   UNL     1       8.331   4.152 -10.237  1.00  0.00     0.172 HD
ATOM     78  O   UNL     1       6.404   5.665 -10.421  1.00  0.00    -0.269 OA
BRANCH  76  79
ATOM     79  C   UNL     1       6.294   5.488  -8.102  1.00  0.00     0.048 A 
ATOM     80  C   UNL     1       7.561   5.853  -6.648  1.00  0.00     0.014 A 
ATOM     81  C   UNL     1       4.373   5.025  -7.884  1.00  0.00    -0.006 A 
ATOM     82  C   UNL     1       7.057   5.791  -4.743  1.00  0.00     0.001 A 
ATOM     83  C   UNL     1       3.858   4.940  -5.957  1.00  0.00    -0.018 A 
ATOM     84  C   UNL     1       3.322   4.839  -8.804  1.00  0.00     0.009 A 
ATOM     85  C   UNL     1       5.139   5.291  -4.501  1.00  0.00     0.009 A 
ATOM     86  C   UNL     1       2.494   4.719  -5.776  1.00  0.00     0.009 A 
ATOM     87  C   UNL     1       2.021   4.637  -8.297  1.00  0.00     0.001 A 
ATOM     88  C   UNL     1       1.642   4.582  -6.903  1.00  0.00     0.001 A 
ENDBRANCH  76  79
ENDBRANCH  73  75
ENDBRANCH  71  73
ENDBRANCH  65  71
ENDBRANCH  60  63
ENDBRANCH  58  59
ENDBRANCH   1  58
TORSDOF 15
