REMARK SMILES CC[NH+](CC)[C@@H](C(=O)NCCCCNC(=O)c1ccc(-c2c3nc(c(-c4ccccc4)c4ccc([nH]4)c(-c4ccccc4)c4nc(c(-c5ccccc5)c5ccc2[nH]5)C=C4)C=C3)cc1)c1ccc(C2CC2)cc1
REMARK SMILES IDX 11 1 10 2 9 3 7 4 8 5 6 7 3 8 2 10 1 11 4 12 5 13 65 14
REMARK SMILES IDX 66 15 73 16 67 17 72 18 68 19 69 20 70 21 71 22 12 23 13 24
REMARK SMILES IDX 14 25 15 26 16 28 17 29 18 30 64 31 19 32 63 33 20 34 21 35
REMARK SMILES IDX 22 36 57 37 23 38 62 39 56 40 58 41 24 42 61 43 55 44 54 45
REMARK SMILES IDX 25 47 47 48 32 49 46 50 33 51 36 52 45 53 59 54 34 55 35 56
REMARK SMILES IDX 44 58 60 59 37 60 26 61 27 62 31 63 28 64 30 65 29 66 48 67
REMARK SMILES IDX 49 68 53 69 50 70 52 71 51 72 38 73 39 74 43 75 40 76 42 77
REMARK SMILES IDX 41 78
REMARK H PARENT 9 6 3 9 14 27 58 46 36 57
REMARK Flexibility Score: inf
ROOT
ATOM      1  C   UNL     1       0.948   5.325   2.597  1.00  0.00     0.023 C 
ENDROOT
BRANCH   1   2
ATOM      2  C   UNL     1       2.223   4.786   1.926  1.00  0.00     0.116 C 
BRANCH   2   3
ATOM      3  N   UNL     1       2.648   3.478   2.402  1.00  0.00    -0.351 N 
ATOM      4  C   UNL     1       2.618   2.216   1.860  1.00  0.00     0.283 C 
ATOM      5  O   UNL     1       3.038   1.319   2.601  1.00  0.00    -0.268 OA
ATOM      6  H   UNL     1       3.042   3.502   3.304  1.00  0.00     0.163 HD
BRANCH   4   7
ATOM      7  C   UNL     1       2.071   1.948   0.425  1.00  0.00     0.305 C 
BRANCH   7   8
ATOM      8  N   UNL     1       0.623   1.533   0.386  1.00  0.00    -0.321 N 
ATOM      9  H   UNL     1       0.477   1.663  -0.615  1.00  0.00     0.349 HD
BRANCH   8  10
ATOM     10  C   UNL     1       0.281   0.123   0.583  1.00  0.00     0.259 C 
ATOM     11  C   UNL     1       0.252  -0.665  -0.725  1.00  0.00     0.071 C 
ENDBRANCH   8  10
BRANCH   8  12
ATOM     12  C   UNL     1      -0.302   2.413   1.092  1.00  0.00     0.259 C 
ATOM     13  C   UNL     1      -0.493   2.144   2.589  1.00  0.00     0.071 C 
ENDBRANCH   8  12
ENDBRANCH   7   8
BRANCH   7  14
ATOM     14  C   UNL     1       2.979   1.016  -0.403  1.00  0.00     0.019 A 
ATOM     15  C   UNL     1       3.354  -0.255   0.059  1.00  0.00     0.011 A 
ATOM     16  C   UNL     1       3.314   1.346  -1.725  1.00  0.00     0.011 A 
ATOM     17  C   UNL     1       3.858  -1.221  -0.819  1.00  0.00     0.004 A 
ATOM     18  C   UNL     1       3.845   0.379  -2.593  1.00  0.00     0.004 A 
ATOM     19  C   UNL     1       4.048  -0.945  -2.178  1.00  0.00    -0.045 A 
BRANCH  19  20
ATOM     20  C   UNL     1       4.304  -2.075  -3.146  1.00  0.00     0.019 C 
ATOM     21  C   UNL     1       5.232  -1.943  -4.324  1.00  0.00     0.009 C 
ATOM     22  C   UNL     1       5.632  -2.787  -3.151  1.00  0.00     0.009 C 
ENDBRANCH  19  20
ENDBRANCH   7  14
ENDBRANCH   4   7
ENDBRANCH   2   3
ENDBRANCH   1   2
BRANCH   1  23
ATOM     23  C   UNL     1       0.859   5.161   4.115  1.00  0.00     0.023 C 
BRANCH  23  24
ATOM     24  C   UNL     1       1.621   6.225   4.881  1.00  0.00     0.116 C 
BRANCH  24  25
ATOM     25  N   UNL     1       1.013   7.538   4.713  1.00  0.00    -0.352 N 
ATOM     26  C   UNL     1       0.637   8.455   5.661  1.00  0.00     0.251 C 
ATOM     27  H   UNL     1       0.848   7.808   3.781  1.00  0.00     0.163 HD
ATOM     28  O   UNL     1      -0.060   9.413   5.346  1.00  0.00    -0.269 OA
BRANCH  26  29
ATOM     29  C   UNL     1       1.067   8.282   7.063  1.00  0.00     0.039 A 
ATOM     30  C   UNL     1       0.172   8.591   8.091  1.00  0.00     0.014 A 
ATOM     31  C   UNL     1       2.359   7.843   7.362  1.00  0.00     0.014 A 
ATOM     32  C   UNL     1       0.564   8.425   9.419  1.00  0.00     0.010 A 
ATOM     33  C   UNL     1       2.717   7.591   8.678  1.00  0.00     0.010 A 
ATOM     34  C   UNL     1       1.833   7.906   9.719  1.00  0.00    -0.014 A 
BRANCH  34  35
ATOM     35  C   UNL     1       2.285   7.732  11.117  1.00  0.00     0.031 A 
ATOM     36  C   UNL     1       3.449   8.538  11.625  1.00  0.00     0.074 A 
ATOM     37  C   UNL     1       1.696   6.808  11.898  1.00  0.00     0.049 A 
ATOM     38  N   UNL     1       4.048   8.483  12.786  1.00  0.00    -0.248 NA
ATOM     39  C   UNL     1       4.042   9.510  10.690  1.00  0.00     0.031 C 
ATOM     40  C   UNL     1       0.592   5.934  11.495  1.00  0.00     0.029 A 
ATOM     41  N   UNL     1       1.953   6.444  13.194  1.00  0.00    -0.354 N 
ATOM     42  C   UNL     1       5.101   9.386  12.708  1.00  0.00     0.074 A 
ATOM     43  C   UNL     1       5.093   9.937  11.371  1.00  0.00     0.031 C 
ATOM     44  C   UNL     1       0.247   5.156  12.534  1.00  0.00     0.029 A 
ATOM     45  C   UNL     1       1.127   5.451  13.659  1.00  0.00     0.049 A 
ATOM     46  H   UNL     1       2.663   6.855  13.739  1.00  0.00     0.167 HD
ATOM     47  C   UNL     1       5.982   9.743  13.671  1.00  0.00     0.031 A 
ATOM     48  C   UNL     1       1.086   4.848  14.862  1.00  0.00     0.031 A 
ATOM     49  C   UNL     1       5.964   9.214  15.007  1.00  0.00     0.049 A 
ATOM     50  C   UNL     1       2.058   5.280  15.923  1.00  0.00     0.074 A 
ATOM     51  C   UNL     1       6.765   9.553  16.082  1.00  0.00     0.029 A 
ATOM     52  N   UNL     1       5.090   8.232  15.449  1.00  0.00    -0.354 N 
ATOM     53  N   UNL     1       3.005   6.186  15.857  1.00  0.00    -0.248 NA
ATOM     54  C   UNL     1       1.946   4.618  17.230  1.00  0.00     0.031 C 
ATOM     55  C   UNL     1       6.401   8.747  17.166  1.00  0.00     0.029 A 
ATOM     56  C   UNL     1       5.342   7.942  16.778  1.00  0.00     0.049 A 
ATOM     57  H   UNL     1       4.394   7.806  14.899  1.00  0.00     0.167 HD
ATOM     58  C   UNL     1       3.585   6.220  17.117  1.00  0.00     0.074 A 
ATOM     59  C   UNL     1       2.871   5.257  17.932  1.00  0.00     0.031 C 
ATOM     60  C   UNL     1       4.615   6.979  17.564  1.00  0.00     0.031 A 
BRANCH  47  61
ATOM     61  C   UNL     1       7.035  10.753  13.306  1.00  0.00    -0.014 A 
ATOM     62  C   UNL     1       6.703  12.095  13.060  1.00  0.00     0.009 A 
ATOM     63  C   UNL     1       8.380  10.361  13.221  1.00  0.00     0.009 A 
ATOM     64  C   UNL     1       7.689  13.014  12.696  1.00  0.00     0.001 A 
ATOM     65  C   UNL     1       9.368  11.289  12.886  1.00  0.00     0.001 A 
ATOM     66  C   UNL     1       9.021  12.611  12.613  1.00  0.00     0.000 A 
ENDBRANCH  47  61
BRANCH  48  67
ATOM     67  C   UNL     1       0.071   3.799  15.134  1.00  0.00    -0.014 A 
ATOM     68  C   UNL     1      -1.012   4.063  15.986  1.00  0.00     0.009 A 
ATOM     69  C   UNL     1       0.172   2.533  14.537  1.00  0.00     0.009 A 
ATOM     70  C   UNL     1      -1.959   3.072  16.256  1.00  0.00     0.001 A 
ATOM     71  C   UNL     1      -0.792   1.553  14.788  1.00  0.00     0.001 A 
ATOM     72  C   UNL     1      -1.851   1.820  15.654  1.00  0.00     0.000 A 
ENDBRANCH  48  67
BRANCH  60  73
ATOM     73  C   UNL     1       5.007   6.817  19.003  1.00  0.00    -0.014 A 
ATOM     74  C   UNL     1       5.695   5.678  19.446  1.00  0.00     0.009 A 
ATOM     75  C   UNL     1       4.719   7.842  19.919  1.00  0.00     0.009 A 
ATOM     76  C   UNL     1       6.059   5.553  20.787  1.00  0.00     0.001 A 
ATOM     77  C   UNL     1       5.109   7.726  21.253  1.00  0.00     0.001 A 
ATOM     78  C   UNL     1       5.771   6.578  21.688  1.00  0.00     0.000 A 
ENDBRANCH  60  73
ENDBRANCH  34  35
ENDBRANCH  26  29
ENDBRANCH  24  25
ENDBRANCH  23  24
ENDBRANCH   1  23
TORSDOF 16
