REMARK SMILES O=C(CN1C(=O)/C(=C2/Sc3ccccc3N2CCCS(=O)(=O)[O-])SC1=S)NCCCCNC(=O)c1ccc(-c2c3nc(c(-c4ccccc4)c4ccc([nH]4)c(-c4ccccc4)c4nc(c(-c5ccccc5)c5ccc2[nH]5)C=C4)C=C3)cc1
REMARK SMILES IDX 28 1 27 2 1 3 2 4 3 6 4 7 5 8 25 9 6 10 7 11 24 12 26 13
REMARK SMILES IDX 8 14 9 15 16 16 10 17 15 18 11 19 14 20 12 21 13 22 17 23
REMARK SMILES IDX 18 24 19 25 20 26 21 27 22 28 23 29 29 30 30 31 31 32 32 33
REMARK SMILES IDX 33 34 34 36 35 37 36 38 82 39 37 40 81 41 38 42 39 43 40 44
REMARK SMILES IDX 75 45 41 46 80 47 74 48 76 49 42 50 79 51 73 52 72 53 43 55
REMARK SMILES IDX 65 56 50 57 64 58 51 59 54 60 63 61 77 62 52 63 53 64 62 66
REMARK SMILES IDX 78 67 55 68 44 69 45 70 49 71 46 72 48 73 47 74 66 75 67 76
REMARK SMILES IDX 71 77 68 78 70 79 69 80 56 81 57 82 61 83 58 84 60 85 59 86
REMARK H PARENT 27 5 32 35 76 54 54 65
REMARK Flexibility Score: inf
ROOT
ATOM      1  C   UNL     1       2.048  -0.180   2.069  1.00  0.00     0.116 C 
ENDROOT
BRANCH   1   2
ATOM      2  N   UNL     1       2.957  -0.358   0.932  1.00  0.00    -0.355 N 
ATOM      3  O   UNL     1       1.426   0.290  -0.661  1.00  0.00    -0.273 OA
ATOM      4  C   UNL     1       2.571  -0.063  -0.379  1.00  0.00     0.240 C 
ATOM      5  H   UNL     1       3.867  -0.695   1.097  1.00  0.00     0.163 HD
BRANCH   4   6
ATOM      6  C   UNL     1       3.672  -0.188  -1.470  1.00  0.00     0.227 C 
BRANCH   6   7
ATOM      7  N   UNL     1       3.641   0.873  -2.514  1.00  0.00    -0.283 N 
ATOM      8  C   UNL     1       3.981   2.167  -2.180  1.00  0.00     0.269 C 
ATOM      9  C   UNL     1       3.666   0.655  -3.873  1.00  0.00     0.148 C 
ATOM     10  O   UNL     1       4.680   2.443  -1.210  1.00  0.00    -0.268 OA
ATOM     11  C   UNL     1       3.659   3.135  -3.274  1.00  0.00     0.111 C 
ATOM     12  S   UNL     1       3.783   2.197  -4.735  1.00  0.00    -0.052 SA
ATOM     13  S   UNL     1       3.691  -0.801  -4.687  1.00  0.00    -0.052 S 
ATOM     14  C   UNL     1       3.245   4.428  -3.177  1.00  0.00     0.100 C 
ATOM     15  S   UNL     1       3.135   5.430  -4.702  1.00  0.00    -0.068 SA
ATOM     16  N   UNL     1       2.842   5.192  -2.057  1.00  0.00    -0.334 N 
ATOM     17  C   UNL     1       2.542   6.820  -3.750  1.00  0.00     0.037 A 
ATOM     18  C   UNL     1       2.349   6.477  -2.406  1.00  0.00     0.056 A 
ATOM     19  C   UNL     1       2.310   8.113  -4.200  1.00  0.00     0.017 A 
ATOM     20  C   UNL     1       1.754   7.400  -1.543  1.00  0.00     0.027 A 
ATOM     21  C   UNL     1       1.788   9.056  -3.307  1.00  0.00     0.001 A 
ATOM     22  C   UNL     1       1.475   8.690  -1.995  1.00  0.00     0.002 A 
BRANCH  16  23
ATOM     23  C   UNL     1       3.329   5.101  -0.692  1.00  0.00     0.124 C 
BRANCH  23  24
ATOM     24  C   UNL     1       2.305   4.477   0.243  1.00  0.00     0.037 C 
BRANCH  24  25
ATOM     25  C   UNL     1       2.719   3.133   0.776  1.00  0.00     0.124 C 
BRANCH  25  26
ATOM     26  S   UNL     1       4.191   3.075   1.800  1.00  0.00     0.095 S 
ATOM     27  O   UNL     1       3.908   3.753   3.041  1.00  0.00    -0.243 OA
ATOM     28  O   UNL     1       4.738   1.732   1.764  1.00  0.00    -0.243 OA
ATOM     29  O   UNL     1       5.267   3.972   1.018  1.00  0.00    -0.748 OA
ENDBRANCH  25  26
ENDBRANCH  24  25
ENDBRANCH  23  24
ENDBRANCH  16  23
ENDBRANCH   6   7
ENDBRANCH   4   6
ENDBRANCH   1   2
BRANCH   1  30
ATOM     30  C   UNL     1       2.429  -0.835   3.416  1.00  0.00     0.023 C 
BRANCH  30  31
ATOM     31  C   UNL     1       3.777  -0.479   4.073  1.00  0.00     0.023 C 
BRANCH  31  32
ATOM     32  C   UNL     1       3.969   0.983   4.480  1.00  0.00     0.116 C 
BRANCH  32  33
ATOM     33  N   UNL     1       3.685   1.348   5.856  1.00  0.00    -0.352 N 
ATOM     34  C   UNL     1       4.440   2.052   6.775  1.00  0.00     0.251 C 
ATOM     35  H   UNL     1       2.810   1.043   6.190  1.00  0.00     0.163 HD
ATOM     36  O   UNL     1       3.896   2.456   7.802  1.00  0.00    -0.269 OA
BRANCH  34  37
ATOM     37  C   UNL     1       5.912   2.225   6.636  1.00  0.00     0.039 A 
ATOM     38  C   UNL     1       6.544   2.671   5.476  1.00  0.00     0.014 A 
ATOM     39  C   UNL     1       6.697   1.912   7.755  1.00  0.00     0.014 A 
ATOM     40  C   UNL     1       7.939   2.592   5.363  1.00  0.00     0.010 A 
ATOM     41  C   UNL     1       8.094   1.904   7.666  1.00  0.00     0.010 A 
ATOM     42  C   UNL     1       8.728   2.163   6.443  1.00  0.00    -0.014 A 
BRANCH  42  43
ATOM     43  C   UNL     1      10.191   1.920   6.284  1.00  0.00     0.031 A 
ATOM     44  C   UNL     1      10.750   0.522   6.429  1.00  0.00     0.074 A 
ATOM     45  C   UNL     1      11.031   2.933   5.992  1.00  0.00     0.049 A 
ATOM     46  N   UNL     1      11.992   0.113   6.336  1.00  0.00    -0.248 NA
ATOM     47  C   UNL     1       9.790  -0.556   6.718  1.00  0.00     0.031 C 
ATOM     48  C   UNL     1      10.634   4.327   5.806  1.00  0.00     0.029 A 
ATOM     49  N   UNL     1      12.391   2.942   5.790  1.00  0.00    -0.354 N 
ATOM     50  C   UNL     1      11.963  -1.257   6.574  1.00  0.00     0.074 A 
ATOM     51  C   UNL     1      10.588  -1.608   6.849  1.00  0.00     0.031 C 
ATOM     52  C   UNL     1      11.718   5.049   5.480  1.00  0.00     0.029 A 
ATOM     53  C   UNL     1      12.896   4.184   5.491  1.00  0.00     0.049 A 
ATOM     54  H   UNL     1      12.951   2.134   5.853  1.00  0.00     0.167 HD
ATOM     55  C   UNL     1      12.984  -2.147   6.552  1.00  0.00     0.031 A 
ATOM     56  C   UNL     1      14.161   4.594   5.263  1.00  0.00     0.031 A 
ATOM     57  C   UNL     1      14.353  -1.809   6.262  1.00  0.00     0.049 A 
ATOM     58  C   UNL     1      15.287   3.598   5.297  1.00  0.00     0.074 A 
ATOM     59  C   UNL     1      15.443  -2.659   6.174  1.00  0.00     0.029 A 
ATOM     60  N   UNL     1      14.822  -0.529   6.018  1.00  0.00    -0.354 N 
ATOM     61  N   UNL     1      15.235   2.303   5.490  1.00  0.00    -0.248 NA
ATOM     62  C   UNL     1      16.646   4.117   5.076  1.00  0.00     0.031 C 
ATOM     63  C   UNL     1      16.583  -1.885   5.953  1.00  0.00     0.029 A 
ATOM     64  C   UNL     1      16.193  -0.563   5.817  1.00  0.00     0.049 A 
ATOM     65  H   UNL     1      14.266   0.283   5.991  1.00  0.00     0.167 HD
ATOM     66  C   UNL     1      16.546   1.849   5.396  1.00  0.00     0.074 A 
ATOM     67  C   UNL     1      17.370   3.004   5.109  1.00  0.00     0.031 C 
ATOM     68  C   UNL     1      17.016   0.586   5.534  1.00  0.00     0.031 A 
BRANCH  55  69
ATOM     69  C   UNL     1      12.681  -3.592   6.854  1.00  0.00    -0.014 A 
ATOM     70  C   UNL     1      13.213  -4.186   8.011  1.00  0.00     0.009 A 
ATOM     71  C   UNL     1      11.977  -4.396   5.944  1.00  0.00     0.009 A 
ATOM     72  C   UNL     1      13.063  -5.555   8.242  1.00  0.00     0.001 A 
ATOM     73  C   UNL     1      11.801  -5.759   6.194  1.00  0.00     0.001 A 
ATOM     74  C   UNL     1      12.355  -6.340   7.335  1.00  0.00     0.000 A 
ENDBRANCH  55  69
BRANCH  56  75
ATOM     75  C   UNL     1      14.413   6.030   4.963  1.00  0.00    -0.014 A 
ATOM     76  C   UNL     1      14.206   7.013   5.946  1.00  0.00     0.009 A 
ATOM     77  C   UNL     1      14.797   6.432   3.676  1.00  0.00     0.009 A 
ATOM     78  C   UNL     1      14.339   8.368   5.635  1.00  0.00     0.001 A 
ATOM     79  C   UNL     1      14.963   7.787   3.377  1.00  0.00     0.001 A 
ATOM     80  C   UNL     1      14.720   8.754   4.352  1.00  0.00     0.000 A 
ENDBRANCH  56  75
BRANCH  68  81
ATOM     81  C   UNL     1      18.493   0.350   5.370  1.00  0.00    -0.014 A 
ATOM     82  C   UNL     1      18.960  -0.414   4.286  1.00  0.00     0.009 A 
ATOM     83  C   UNL     1      19.410   0.770   6.346  1.00  0.00     0.009 A 
ATOM     84  C   UNL     1      20.306  -0.774   4.196  1.00  0.00     0.001 A 
ATOM     85  C   UNL     1      20.762   0.436   6.236  1.00  0.00     0.001 A 
ATOM     86  C   UNL     1      21.206  -0.345   5.170  1.00  0.00     0.000 A 
ENDBRANCH  68  81
ENDBRANCH  42  43
ENDBRANCH  34  37
ENDBRANCH  32  33
ENDBRANCH  31  32
ENDBRANCH  30  31
ENDBRANCH   1  30
TORSDOF 16
