REMARK SMILES [NH3+][C@H]1COC[C@H]1C(=O)N[C@@H]1C=C[C@@H](C(=O)NCCCCNC(=O)c2ccc(-c3c4nc(c(-c5ccccc5)c5ccc([nH]5)c(-c5ccccc5)c5nc(c(-c6ccccc6)c6ccc3[nH]6)C=C5)C=C4)cc2)C1
REMARK SMILES IDX 18 1 17 2 16 3 14 4 15 5 13 7 10 8 11 9 72 10 12 11 9 12
REMARK SMILES IDX 7 13 8 14 6 16 2 17 3 18 4 19 5 20 1 21 19 25 20 26 21 27
REMARK SMILES IDX 22 28 23 30 24 31 25 32 71 33 26 34 70 35 27 36 28 37 29 38
REMARK SMILES IDX 64 39 30 40 69 41 63 42 65 43 31 44 68 45 62 46 61 47 32 49
REMARK SMILES IDX 54 50 39 51 53 52 40 53 43 54 52 55 66 56 41 57 42 58 51 60
REMARK SMILES IDX 67 61 44 62 33 63 34 64 38 65 35 66 37 67 36 68 55 69 56 70
REMARK SMILES IDX 60 71 57 72 59 73 58 74 45 75 46 76 50 77 47 78 49 79 48 80
REMARK H PARENT 16 6 9 15 1 22 1 23 1 24 21 29 65 48 43 59
REMARK Flexibility Score: inf
ROOT
ATOM      1  C   UNL     1       1.272  -1.681   0.776  1.00  0.00     0.023 C 
ENDROOT
BRANCH   1   2
ATOM      2  C   UNL     1       0.201  -2.654   0.290  1.00  0.00     0.116 C 
BRANCH   2   3
ATOM      3  N   UNL     1      -1.050  -1.987  -0.007  1.00  0.00    -0.356 N 
ATOM      4  C   UNL     1      -1.737  -1.835  -1.171  1.00  0.00     0.227 C 
ATOM      5  O   UNL     1      -2.839  -1.282  -1.096  1.00  0.00    -0.274 OA
ATOM      6  H   UNL     1      -1.480  -1.568   0.773  1.00  0.00     0.163 HD
BRANCH   4   7
ATOM      7  C   UNL     1      -1.206  -2.299  -2.533  1.00  0.00     0.103 C 
ATOM      8  C   UNL     1       1.117  -2.885  -3.124  1.00  0.00     0.106 C 
ATOM      9  C   UNL     1       0.233  -4.087  -3.041  1.00  0.00    -0.006 C 
ATOM     10  C   UNL     1       0.147  -1.704  -2.932  1.00  0.00     0.047 C 
ATOM     11  C   UNL     1      -1.017  -3.775  -2.679  1.00  0.00    -0.016 C 
BRANCH   8  12
ATOM     12  N   UNL     1       1.752  -2.857  -4.419  1.00  0.00    -0.349 N 
ATOM     13  C   UNL     1       3.051  -2.698  -4.778  1.00  0.00     0.232 C 
ATOM     14  O   UNL     1       3.282  -2.612  -5.989  1.00  0.00    -0.274 OA
ATOM     15  H   UNL     1       1.134  -2.974  -5.176  1.00  0.00     0.164 HD
BRANCH  13  16
ATOM     16  C   UNL     1       4.208  -2.630  -3.793  1.00  0.00     0.164 C 
ATOM     17  C   UNL     1       4.425  -1.365  -2.961  1.00  0.00     0.221 C 
ATOM     18  C   UNL     1       5.061  -1.942  -1.692  1.00  0.00     0.225 C 
ATOM     19  O   UNL     1       4.446  -3.227  -1.507  1.00  0.00    -0.374 OA
ATOM     20  C   UNL     1       4.278  -3.791  -2.816  1.00  0.00     0.180 C 
BRANCH  17  21
ATOM     21  N   UNL     1       3.265  -0.546  -2.606  1.00  0.00    -0.352 N 
ATOM     22  H   UNL     1       3.571   0.256  -2.055  1.00  0.00     0.344 HD
ATOM     23  H   UNL     1       2.609  -1.104  -2.059  1.00  0.00     0.344 HD
ATOM     24  H   UNL     1       2.806  -0.219  -3.457  1.00  0.00     0.344 HD
ENDBRANCH  17  21
ENDBRANCH  13  16
ENDBRANCH   8  12
ENDBRANCH   4   7
ENDBRANCH   2   3
ENDBRANCH   1   2
BRANCH   1  25
ATOM     25  C   UNL     1       1.007  -1.083   2.159  1.00  0.00     0.023 C 
BRANCH  25  26
ATOM     26  C   UNL     1       0.783  -2.098   3.275  1.00  0.00     0.116 C 
BRANCH  26  27
ATOM     27  N   UNL     1       1.898  -3.015   3.446  1.00  0.00    -0.352 N 
ATOM     28  C   UNL     1       2.482  -3.463   4.604  1.00  0.00     0.251 C 
ATOM     29  H   UNL     1       2.289  -3.365   2.612  1.00  0.00     0.163 HD
ATOM     30  O   UNL     1       3.504  -4.145   4.552  1.00  0.00    -0.269 OA
BRANCH  28  31
ATOM     31  C   UNL     1       1.908  -3.100   5.917  1.00  0.00     0.039 A 
ATOM     32  C   UNL     1       2.775  -2.702   6.938  1.00  0.00     0.014 A 
ATOM     33  C   UNL     1       0.531  -3.147   6.148  1.00  0.00     0.014 A 
ATOM     34  C   UNL     1       2.256  -2.297   8.169  1.00  0.00     0.010 A 
ATOM     35  C   UNL     1       0.010  -2.664   7.346  1.00  0.00     0.010 A 
ATOM     36  C   UNL     1       0.867  -2.241   8.372  1.00  0.00    -0.014 A 
BRANCH  36  37
ATOM     37  C   UNL     1       0.308  -1.734   9.651  1.00  0.00     0.031 A 
ATOM     38  C   UNL     1      -0.500  -2.635  10.545  1.00  0.00     0.074 A 
ATOM     39  C   UNL     1       0.498  -0.444   9.993  1.00  0.00     0.049 A 
ATOM     40  N   UNL     1      -1.054  -2.368  11.701  1.00  0.00    -0.248 NA
ATOM     41  C   UNL     1      -0.740  -4.006  10.068  1.00  0.00     0.031 C 
ATOM     42  C   UNL     1       1.218   0.548   9.191  1.00  0.00     0.029 A 
ATOM     43  N   UNL     1       0.105   0.253  11.107  1.00  0.00    -0.354 N 
ATOM     44  C   UNL     1      -1.713  -3.530  12.082  1.00  0.00     0.074 A 
ATOM     45  C   UNL     1      -1.540  -4.485  11.010  1.00  0.00     0.031 C 
ATOM     46  C   UNL     1       1.250   1.712   9.857  1.00  0.00     0.029 A 
ATOM     47  C   UNL     1       0.520   1.563  11.112  1.00  0.00     0.049 A 
ATOM     48  H   UNL     1      -0.423  -0.147  11.835  1.00  0.00     0.167 HD
ATOM     49  C   UNL     1      -2.384  -3.789  13.230  1.00  0.00     0.031 A 
ATOM     50  C   UNL     1       0.337   2.536  12.024  1.00  0.00     0.031 A 
ATOM     51  C   UNL     1      -2.556  -2.841  14.299  1.00  0.00     0.049 A 
ATOM     52  C   UNL     1      -0.416   2.225  13.287  1.00  0.00     0.074 A 
ATOM     53  C   UNL     1      -3.169  -3.026  15.526  1.00  0.00     0.029 A 
ATOM     54  N   UNL     1      -2.120  -1.525  14.265  1.00  0.00    -0.354 N 
ATOM     55  N   UNL     1      -0.961   1.095  13.669  1.00  0.00    -0.248 NA
ATOM     56  C   UNL     1      -0.563   3.322  14.253  1.00  0.00     0.031 C 
ATOM     57  C   UNL     1      -3.158  -1.805  16.210  1.00  0.00     0.029 A 
ATOM     58  C   UNL     1      -2.477  -0.878  15.437  1.00  0.00     0.049 A 
ATOM     59  H   UNL     1      -1.630  -1.111  13.518  1.00  0.00     0.167 HD
ATOM     60  C   UNL     1      -1.491   1.337  14.930  1.00  0.00     0.074 A 
ATOM     61  C   UNL     1      -1.180   2.714  15.256  1.00  0.00     0.031 C 
ATOM     62  C   UNL     1      -2.172   0.496  15.745  1.00  0.00     0.031 A 
BRANCH  49  63
ATOM     63  C   UNL     1      -2.995  -5.157  13.382  1.00  0.00    -0.014 A 
ATOM     64  C   UNL     1      -2.196  -6.302  13.531  1.00  0.00     0.009 A 
ATOM     65  C   UNL     1      -4.392  -5.298  13.409  1.00  0.00     0.009 A 
ATOM     66  C   UNL     1      -2.782  -7.563  13.662  1.00  0.00     0.001 A 
ATOM     67  C   UNL     1      -4.975  -6.556  13.573  1.00  0.00     0.001 A 
ATOM     68  C   UNL     1      -4.170  -7.688  13.688  1.00  0.00     0.000 A 
ENDBRANCH  49  63
BRANCH  50  69
ATOM     69  C   UNL     1       0.893   3.894  11.786  1.00  0.00    -0.014 A 
ATOM     70  C   UNL     1       1.958   4.378  12.562  1.00  0.00     0.009 A 
ATOM     71  C   UNL     1       0.355   4.719  10.786  1.00  0.00     0.009 A 
ATOM     72  C   UNL     1       2.452   5.669  12.361  1.00  0.00     0.001 A 
ATOM     73  C   UNL     1       0.872   5.997  10.566  1.00  0.00     0.001 A 
ATOM     74  C   UNL     1       1.912   6.475  11.361  1.00  0.00     0.000 A 
ENDBRANCH  50  69
BRANCH  62  75
ATOM     75  C   UNL     1      -2.598   1.035  17.083  1.00  0.00    -0.014 A 
ATOM     76  C   UNL     1      -3.599   2.013  17.195  1.00  0.00     0.009 A 
ATOM     77  C   UNL     1      -1.996   0.544  18.252  1.00  0.00     0.009 A 
ATOM     78  C   UNL     1      -3.953   2.522  18.447  1.00  0.00     0.001 A 
ATOM     79  C   UNL     1      -2.377   1.029  19.504  1.00  0.00     0.001 A 
ATOM     80  C   UNL     1      -3.345   2.027  19.599  1.00  0.00     0.000 A 
ENDBRANCH  62  75
ENDBRANCH  36  37
ENDBRANCH  28  31
ENDBRANCH  26  27
ENDBRANCH  25  26
ENDBRANCH   1  25
TORSDOF 14
