REMARK SMILES CC[C@@](C)(C(=O)NCCCCNC(=O)c1ccc(-c2c3nc(c(-c4ccccc4)c4ccc([nH]4)c(-c4ccccc4)c4nc(c(-c5ccccc5)c5ccc2[nH]5)C=C4)C=C3)cc1)n1nnnc1-c1ccc(Br)c(F)c1
REMARK SMILES IDX 9 1 8 2 7 3 5 4 6 5 3 7 4 8 2 9 1 10 63 11 64 12 67 13 65 14
REMARK SMILES IDX 66 15 68 16 69 17 75 18 70 19 73 20 71 21 74 22 72 23 10 24
REMARK SMILES IDX 11 25 12 26 13 27 14 29 15 30 16 31 62 32 17 33 61 34 18 35
REMARK SMILES IDX 19 36 20 37 55 38 21 39 60 40 54 41 56 42 22 43 59 44 53 45
REMARK SMILES IDX 52 46 23 48 45 49 30 50 44 51 31 52 34 53 43 54 57 55 32 56
REMARK SMILES IDX 33 57 42 59 58 60 35 61 24 62 25 63 29 64 26 65 28 66 27 67
REMARK SMILES IDX 46 68 47 69 51 70 48 71 50 72 49 73 36 74 37 75 41 76 38 77
REMARK SMILES IDX 40 78 39 79
REMARK H PARENT 7 6 12 28 56 47 34 58
REMARK Flexibility Score: inf
ROOT
ATOM      1  C   UNL     1      -2.734  -1.172   2.409  1.00  0.00     0.023 C 
ENDROOT
BRANCH   1   2
ATOM      2  C   UNL     1      -2.012   0.037   2.997  1.00  0.00     0.116 C 
BRANCH   2   3
ATOM      3  N   UNL     1      -0.848  -0.365   3.765  1.00  0.00    -0.354 N 
ATOM      4  C   UNL     1       0.493  -0.310   3.526  1.00  0.00     0.247 C 
ATOM      5  O   UNL     1       1.194  -0.771   4.434  1.00  0.00    -0.272 OA
ATOM      6  H   UNL     1      -1.074  -0.759   4.639  1.00  0.00     0.163 HD
BRANCH   4   7
ATOM      7  C   UNL     1       1.113   0.326   2.252  1.00  0.00     0.142 C 
ATOM      8  C   UNL     1       0.797   1.847   2.317  1.00  0.00     0.048 C 
BRANCH   7   9
ATOM      9  C   UNL     1       0.513  -0.277   0.952  1.00  0.00     0.037 C 
ATOM     10  C   UNL     1       1.188   0.141  -0.351  1.00  0.00     0.007 C 
ENDBRANCH   7   9
BRANCH   7  11
ATOM     11  N   UNL     1       2.581   0.117   2.290  1.00  0.00    -0.210 N 
ATOM     12  N   UNL     1       3.407   1.191   2.257  1.00  0.00    -0.044 NA
ATOM     13  C   UNL     1       3.359  -1.030   2.322  1.00  0.00     0.183 A 
ATOM     14  N   UNL     1       4.635   0.712   2.324  1.00  0.00    -0.023 NA
ATOM     15  N   UNL     1       4.624  -0.651   2.365  1.00  0.00    -0.108 NA
BRANCH  13  16
ATOM     16  C   UNL     1       2.932  -2.423   2.337  1.00  0.00     0.024 A 
ATOM     17  C   UNL     1       3.128  -3.196   3.491  1.00  0.00     0.013 A 
ATOM     18  C   UNL     1       2.421  -3.042   1.193  1.00  0.00     0.052 A 
ATOM     19  C   UNL     1       2.752  -4.544   3.524  1.00  0.00     0.019 A 
ATOM     20  C   UNL     1       2.019  -4.375   1.237  1.00  0.00     0.138 A 
ATOM     21  C   UNL     1       2.176  -5.127   2.397  1.00  0.00     0.053 A 
ATOM     22  F   UNL     1       1.471  -4.911   0.137  1.00  0.00    -0.206 F 
ATOM     23  Br  UNL     1       1.623  -6.932   2.456  1.00  0.00    -0.048 Br
ENDBRANCH  13  16
ENDBRANCH   7  11
ENDBRANCH   4   7
ENDBRANCH   2   3
ENDBRANCH   1   2
BRANCH   1  24
ATOM     24  C   UNL     1      -3.534  -1.979   3.433  1.00  0.00     0.023 C 
BRANCH  24  25
ATOM     25  C   UNL     1      -4.571  -1.179   4.214  1.00  0.00     0.116 C 
BRANCH  25  26
ATOM     26  N   UNL     1      -5.518  -0.480   3.359  1.00  0.00    -0.352 N 
ATOM     27  C   UNL     1      -6.864  -0.290   3.545  1.00  0.00     0.251 C 
ATOM     28  H   UNL     1      -5.142  -0.092   2.536  1.00  0.00     0.163 HD
ATOM     29  O   UNL     1      -7.544   0.214   2.655  1.00  0.00    -0.269 OA
BRANCH  27  30
ATOM     30  C   UNL     1      -7.496  -0.720   4.809  1.00  0.00     0.039 A 
ATOM     31  C   UNL     1      -8.704  -1.417   4.754  1.00  0.00     0.014 A 
ATOM     32  C   UNL     1      -6.894  -0.447   6.040  1.00  0.00     0.014 A 
ATOM     33  C   UNL     1      -9.287  -1.879   5.935  1.00  0.00     0.010 A 
ATOM     34  C   UNL     1      -7.429  -0.984   7.205  1.00  0.00     0.010 A 
ATOM     35  C   UNL     1      -8.640  -1.689   7.168  1.00  0.00    -0.014 A 
BRANCH  35  36
ATOM     36  C   UNL     1      -9.237  -2.195   8.428  1.00  0.00     0.031 A 
ATOM     37  C   UNL     1      -9.660  -1.231   9.504  1.00  0.00     0.074 A 
ATOM     38  C   UNL     1      -9.365  -3.522   8.622  1.00  0.00     0.049 A 
ATOM     39  N   UNL     1     -10.204  -1.480  10.669  1.00  0.00    -0.248 NA
ATOM     40  C   UNL     1      -9.415   0.199   9.251  1.00  0.00     0.031 C 
ATOM     41  C   UNL     1      -8.956  -4.561   7.674  1.00  0.00     0.029 A 
ATOM     42  N   UNL     1      -9.885  -4.223   9.680  1.00  0.00    -0.354 N 
ATOM     43  C   UNL     1     -10.347  -0.245  11.289  1.00  0.00     0.074 A 
ATOM     44  C   UNL     1      -9.779   0.744  10.401  1.00  0.00     0.031 C 
ATOM     45  C   UNL     1      -9.285  -5.764   8.174  1.00  0.00     0.029 A 
ATOM     46  C   UNL     1      -9.888  -5.584   9.490  1.00  0.00     0.049 A 
ATOM     47  H   UNL     1     -10.223  -3.792  10.498  1.00  0.00     0.167 HD
ATOM     48  C   UNL     1     -10.920   0.046  12.482  1.00  0.00     0.031 A 
ATOM     49  C   UNL     1     -10.333  -6.574  10.285  1.00  0.00     0.031 A 
ATOM     50  C   UNL     1     -11.493  -0.938  13.360  1.00  0.00     0.049 A 
ATOM     51  C   UNL     1     -10.952  -6.226  11.611  1.00  0.00     0.074 A 
ATOM     52  C   UNL     1     -12.155  -0.742  14.559  1.00  0.00     0.029 A 
ATOM     53  N   UNL     1     -11.466  -2.306  13.136  1.00  0.00    -0.354 N 
ATOM     54  N   UNL     1     -11.156  -5.047  12.147  1.00  0.00    -0.248 NA
ATOM     55  C   UNL     1     -11.416  -7.351  12.435  1.00  0.00     0.031 C 
ATOM     56  C   UNL     1     -12.472  -1.995  15.092  1.00  0.00     0.029 A 
ATOM     57  C   UNL     1     -12.072  -2.968  14.191  1.00  0.00     0.049 A 
ATOM     58  H   UNL     1     -11.075  -2.741  12.345  1.00  0.00     0.167 HD
ATOM     59  C   UNL     1     -11.806  -5.286  13.351  1.00  0.00     0.074 A 
ATOM     60  C   UNL     1     -11.975  -6.721  13.458  1.00  0.00     0.031 C 
ATOM     61  C   UNL     1     -12.230  -4.397  14.284  1.00  0.00     0.031 A 
BRANCH  48  62
ATOM     62  C   UNL     1     -10.935   1.489  12.909  1.00  0.00    -0.014 A 
ATOM     63  C   UNL     1     -11.709   2.447  12.232  1.00  0.00     0.009 A 
ATOM     64  C   UNL     1     -10.177   1.894  14.018  1.00  0.00     0.009 A 
ATOM     65  C   UNL     1     -11.686   3.786  12.629  1.00  0.00     0.001 A 
ATOM     66  C   UNL     1     -10.184   3.227  14.435  1.00  0.00     0.001 A 
ATOM     67  C   UNL     1     -10.928   4.174  13.733  1.00  0.00     0.000 A 
ENDBRANCH  48  62
BRANCH  49  68
ATOM     68  C   UNL     1     -10.247  -7.989   9.838  1.00  0.00    -0.014 A 
ATOM     69  C   UNL     1     -11.412  -8.708   9.526  1.00  0.00     0.009 A 
ATOM     70  C   UNL     1      -9.005  -8.635   9.734  1.00  0.00     0.009 A 
ATOM     71  C   UNL     1     -11.338 -10.051   9.151  1.00  0.00     0.001 A 
ATOM     72  C   UNL     1      -8.932  -9.969   9.327  1.00  0.00     0.001 A 
ATOM     73  C   UNL     1     -10.098 -10.679   9.047  1.00  0.00     0.000 A 
ENDBRANCH  49  68
BRANCH  61  74
ATOM     74  C   UNL     1     -12.960  -4.950  15.477  1.00  0.00    -0.014 A 
ATOM     75  C   UNL     1     -12.301  -5.707  16.458  1.00  0.00     0.009 A 
ATOM     76  C   UNL     1     -14.331  -4.684  15.632  1.00  0.00     0.009 A 
ATOM     77  C   UNL     1     -13.010  -6.224  17.545  1.00  0.00     0.001 A 
ATOM     78  C   UNL     1     -15.028  -5.171  16.737  1.00  0.00     0.001 A 
ATOM     79  C   UNL     1     -14.370  -5.952  17.686  1.00  0.00     0.000 A 
ENDBRANCH  61  74
ENDBRANCH  35  36
ENDBRANCH  27  30
ENDBRANCH  25  26
ENDBRANCH  24  25
ENDBRANCH   1  24
TORSDOF 14
