REMARK SMILES [NH3+][C@@]1(C(=O)NCCCCNC(=O)c2ccc(-c3c4nc(c(-c5ccccc5)c5ccc([nH]5)c(-c5ccccc5)c5nc(c(-c6ccccc6)c6ccc3[nH]6)C=C5)C=C4)cc2)CCC[C@H]1CCOc1ccccc1
REMARK SMILES IDX 6 1 5 2 3 3 4 4 2 6 61 7 64 8 62 9 63 10 1 11 65 15 66 16
REMARK SMILES IDX 67 17 68 18 69 19 73 20 70 21 72 22 71 23 7 24 8 25 9 26
REMARK SMILES IDX 10 27 11 28 12 30 13 31 14 32 60 33 15 34 59 35 16 36 17 37
REMARK SMILES IDX 18 38 53 39 19 40 58 41 52 42 54 43 20 44 57 45 51 46 50 47
REMARK SMILES IDX 21 49 43 50 28 51 42 52 29 53 32 54 41 55 55 56 30 57 31 58
REMARK SMILES IDX 40 60 56 61 33 62 22 63 23 64 27 65 24 66 26 67 25 68 44 69
REMARK SMILES IDX 45 70 49 71 46 72 48 73 47 74 34 75 35 76 39 77 36 78 38 79
REMARK SMILES IDX 37 80
REMARK H PARENT 5 5 1 12 1 13 1 14 10 29 54 48 32 59
REMARK Flexibility Score: inf
ROOT
ATOM      1  C   UNL     1      -0.785   3.720  -2.164  1.00  0.00     0.116 C 
ENDROOT
BRANCH   1   2
ATOM      2  N   UNL     1      -0.431   2.383  -2.573  1.00  0.00    -0.351 N 
ATOM      3  C   UNL     1      -0.015   1.300  -1.868  1.00  0.00     0.281 C 
ATOM      4  O   UNL     1       0.078   0.247  -2.518  1.00  0.00    -0.268 OA
ATOM      5  H   UNL     1      -0.505   2.227  -3.542  1.00  0.00     0.163 HD
BRANCH   3   6
ATOM      6  C   UNL     1       0.333   1.299  -0.322  1.00  0.00     0.176 C 
ATOM      7  C   UNL     1      -0.903   1.510   0.571  1.00  0.00     0.079 C 
ATOM      8  C   UNL     1       1.367   2.386   0.079  1.00  0.00     0.064 C 
ATOM      9  C   UNL     1      -0.825   2.902   1.167  1.00  0.00     0.008 C 
ATOM     10  C   UNL     1       0.627   3.340   1.051  1.00  0.00     0.011 C 
BRANCH   6  11
ATOM     11  N   UNL     1       0.805  -0.086  -0.026  1.00  0.00    -0.345 N 
ATOM     12  H   UNL     1       0.090  -0.756  -0.308  1.00  0.00     0.345 HD
ATOM     13  H   UNL     1       0.982  -0.178   0.975  1.00  0.00     0.345 HD
ATOM     14  H   UNL     1       1.665  -0.269  -0.542  1.00  0.00     0.345 HD
ENDBRANCH   6  11
BRANCH   8  15
ATOM     15  C   UNL     1       2.690   1.946   0.761  1.00  0.00     0.052 C 
BRANCH  15  16
ATOM     16  C   UNL     1       3.686   1.091  -0.034  1.00  0.00     0.230 C 
BRANCH  16  17
ATOM     17  O   UNL     1       4.431   1.884  -0.964  1.00  0.00    -0.494 OA
BRANCH  17  18
ATOM     18  C   UNL     1       3.955   1.821  -2.241  1.00  0.00     0.119 A 
ATOM     19  C   UNL     1       3.939   0.649  -2.994  1.00  0.00     0.046 A 
ATOM     20  C   UNL     1       3.550   3.024  -2.809  1.00  0.00     0.046 A 
ATOM     21  C   UNL     1       3.435   0.673  -4.297  1.00  0.00     0.004 A 
ATOM     22  C   UNL     1       3.048   3.047  -4.108  1.00  0.00     0.004 A 
ATOM     23  C   UNL     1       2.971   1.869  -4.846  1.00  0.00     0.000 A 
ENDBRANCH  17  18
ENDBRANCH  16  17
ENDBRANCH  15  16
ENDBRANCH   8  15
ENDBRANCH   3   6
ENDBRANCH   1   2
BRANCH   1  24
ATOM     24  C   UNL     1       0.104   4.806  -2.753  1.00  0.00     0.023 C 
BRANCH  24  25
ATOM     25  C   UNL     1      -0.028   4.982  -4.261  1.00  0.00     0.023 C 
BRANCH  25  26
ATOM     26  C   UNL     1      -1.432   5.322  -4.731  1.00  0.00     0.116 C 
BRANCH  26  27
ATOM     27  N   UNL     1      -1.933   6.565  -4.161  1.00  0.00    -0.352 N 
ATOM     28  C   UNL     1      -2.471   7.649  -4.812  1.00  0.00     0.251 C 
ATOM     29  H   UNL     1      -1.880   6.639  -3.180  1.00  0.00     0.163 HD
ATOM     30  O   UNL     1      -2.697   8.694  -4.214  1.00  0.00    -0.269 OA
BRANCH  28  31
ATOM     31  C   UNL     1      -2.747   7.540  -6.257  1.00  0.00     0.039 A 
ATOM     32  C   UNL     1      -2.296   8.541  -7.118  1.00  0.00     0.014 A 
ATOM     33  C   UNL     1      -3.393   6.406  -6.757  1.00  0.00     0.014 A 
ATOM     34  C   UNL     1      -2.435   8.370  -8.496  1.00  0.00     0.010 A 
ATOM     35  C   UNL     1      -3.437   6.193  -8.127  1.00  0.00     0.010 A 
ATOM     36  C   UNL     1      -2.970   7.178  -9.010  1.00  0.00    -0.014 A 
BRANCH  36  37
ATOM     37  C   UNL     1      -3.086   6.941 -10.469  1.00  0.00     0.031 A 
ATOM     38  C   UNL     1      -4.445   6.736 -11.080  1.00  0.00     0.074 A 
ATOM     39  C   UNL     1      -1.976   6.833 -11.224  1.00  0.00     0.049 A 
ATOM     40  N   UNL     1      -4.759   6.422 -12.310  1.00  0.00    -0.248 NA
ATOM     41  C   UNL     1      -5.604   6.866 -10.179  1.00  0.00     0.031 C 
ATOM     42  C   UNL     1      -0.600   6.971 -10.740  1.00  0.00     0.029 A 
ATOM     43  N   UNL     1      -1.831   6.571 -12.563  1.00  0.00    -0.354 N 
ATOM     44  C   UNL     1      -6.142   6.294 -12.322  1.00  0.00     0.074 A 
ATOM     45  C   UNL     1      -6.602   6.503 -10.968  1.00  0.00     0.031 C 
ATOM     46  C   UNL     1       0.246   6.824 -11.773  1.00  0.00     0.029 A 
ATOM     47  C   UNL     1      -0.522   6.535 -12.979  1.00  0.00     0.049 A 
ATOM     48  H   UNL     1      -2.593   6.423 -13.168  1.00  0.00     0.167 HD
ATOM     49  C   UNL     1      -6.961   6.050 -13.372  1.00  0.00     0.031 A 
ATOM     50  C   UNL     1      -0.000   6.287 -14.195  1.00  0.00     0.031 A 
ATOM     51  C   UNL     1      -6.500   5.862 -14.720  1.00  0.00     0.049 A 
ATOM     52  C   UNL     1      -0.929   6.002 -15.343  1.00  0.00     0.074 A 
ATOM     53  C   UNL     1      -7.249   5.669 -15.867  1.00  0.00     0.029 A 
ATOM     54  N   UNL     1      -5.168   5.844 -15.101  1.00  0.00    -0.354 N 
ATOM     55  N   UNL     1      -2.240   5.954 -15.353  1.00  0.00    -0.248 NA
ATOM     56  C   UNL     1      -0.308   5.746 -16.650  1.00  0.00     0.031 C 
ATOM     57  C   UNL     1      -6.367   5.479 -16.934  1.00  0.00     0.029 A 
ATOM     58  C   UNL     1      -5.071   5.617 -16.462  1.00  0.00     0.049 A 
ATOM     59  H   UNL     1      -4.404   5.974 -14.493  1.00  0.00     0.167 HD
ATOM     60  C   UNL     1      -2.600   5.694 -16.669  1.00  0.00     0.074 A 
ATOM     61  C   UNL     1      -1.371   5.608 -17.430  1.00  0.00     0.031 C 
ATOM     62  C   UNL     1      -3.837   5.541 -17.201  1.00  0.00     0.031 A 
BRANCH  49  63
ATOM     63  C   UNL     1      -8.436   5.967 -13.095  1.00  0.00    -0.014 A 
ATOM     64  C   UNL     1      -9.173   7.102 -12.717  1.00  0.00     0.009 A 
ATOM     65  C   UNL     1      -9.106   4.742 -13.239  1.00  0.00     0.009 A 
ATOM     66  C   UNL     1     -10.540   7.002 -12.449  1.00  0.00     0.001 A 
ATOM     67  C   UNL     1     -10.479   4.652 -13.002  1.00  0.00     0.001 A 
ATOM     68  C   UNL     1     -11.192   5.779 -12.597  1.00  0.00     0.000 A 
ENDBRANCH  49  63
BRANCH  50  69
ATOM     69  C   UNL     1       1.473   6.311 -14.397  1.00  0.00    -0.014 A 
ATOM     70  C   UNL     1       2.073   7.332 -15.150  1.00  0.00     0.009 A 
ATOM     71  C   UNL     1       2.289   5.312 -13.842  1.00  0.00     0.009 A 
ATOM     72  C   UNL     1       3.453   7.336 -15.368  1.00  0.00     0.001 A 
ATOM     73  C   UNL     1       3.672   5.335 -14.036  1.00  0.00     0.001 A 
ATOM     74  C   UNL     1       4.251   6.341 -14.807  1.00  0.00     0.000 A 
ENDBRANCH  50  69
BRANCH  62  75
ATOM     75  C   UNL     1      -3.929   5.309 -18.682  1.00  0.00    -0.014 A 
ATOM     76  C   UNL     1      -3.558   4.082 -19.254  1.00  0.00     0.009 A 
ATOM     77  C   UNL     1      -4.457   6.314 -19.508  1.00  0.00     0.009 A 
ATOM     78  C   UNL     1      -3.688   3.879 -20.629  1.00  0.00     0.001 A 
ATOM     79  C   UNL     1      -4.615   6.096 -20.876  1.00  0.00     0.001 A 
ATOM     80  C   UNL     1      -4.223   4.882 -21.437  1.00  0.00     0.000 A 
ENDBRANCH  62  75
ENDBRANCH  36  37
ENDBRANCH  28  31
ENDBRANCH  26  27
ENDBRANCH  25  26
ENDBRANCH  24  25
ENDBRANCH   1  24
TORSDOF 16
