REMARK SMILES [NH2+]=C1S[C@@H](C(=O)Nc2ccc(C(=O)NCCCCNC(=O)c3ccc(-c4c5nc(c(-c6ccccc6)c6ccc([nH]6)c(-c6ccccc6)c6nc(c(-c7ccccc7)c7ccc4[nH]7)C=C6)C=C5)cc3)cc2)CC(=O)N1/N=C/c1ccc(Cl)cc1
REMARK SMILES IDX 15 1 14 2 12 3 13 4 11 6 8 7 9 8 71 9 10 10 70 11 7 12 5 13
REMARK SMILES IDX 6 14 4 16 1 17 2 18 3 21 75 22 73 23 72 24 74 25 76 26 77 27
REMARK SMILES IDX 78 28 79 29 84 30 80 31 83 32 81 33 82 34 16 35 17 36 18 37
REMARK SMILES IDX 19 38 20 39 21 41 22 42 23 43 69 44 24 45 68 46 25 47 26 48
REMARK SMILES IDX 27 49 62 50 28 51 67 52 61 53 63 54 29 55 66 56 60 57 59 58
REMARK SMILES IDX 30 60 52 61 37 62 51 63 38 64 41 65 50 66 64 67 39 68 40 69
REMARK SMILES IDX 49 71 65 72 42 73 31 74 32 75 36 76 33 77 35 78 34 79 53 80
REMARK SMILES IDX 54 81 58 82 55 83 57 84 56 85 43 86 44 87 48 88 45 89 47 90
REMARK SMILES IDX 46 91
REMARK H PARENT 14 5 7 15 1 19 1 20 19 40 63 59 41 70
REMARK Flexibility Score: inf
ROOT
ATOM      1  C   UNL     1      -4.776  -1.315  -0.092  1.00  0.00     0.116 C 
ENDROOT
BRANCH   1   2
ATOM      2  N   UNL     1      -4.952   0.072  -0.504  1.00  0.00    -0.352 N 
ATOM      3  C   UNL     1      -4.147   1.165  -0.299  1.00  0.00     0.251 C 
ATOM      4  O   UNL     1      -4.365   2.196  -0.931  1.00  0.00    -0.269 OA
ATOM      5  H   UNL     1      -5.777   0.253  -1.010  1.00  0.00     0.163 HD
BRANCH   3   6
ATOM      6  C   UNL     1      -2.974   1.098   0.601  1.00  0.00     0.039 A 
ATOM      7  C   UNL     1      -0.656   0.793   2.111  1.00  0.00     0.041 A 
ATOM      8  C   UNL     1      -0.623   1.560   0.948  1.00  0.00     0.027 A 
ATOM      9  C   UNL     1      -1.871   0.321   2.603  1.00  0.00     0.027 A 
ATOM     10  C   UNL     1      -1.777   1.684   0.173  1.00  0.00     0.016 A 
ATOM     11  C   UNL     1      -3.036   0.492   1.857  1.00  0.00     0.016 A 
BRANCH   7  12
ATOM     12  N   UNL     1       0.529   0.595   2.811  1.00  0.00    -0.325 N 
ATOM     13  C   UNL     1       1.069  -0.544   3.329  1.00  0.00     0.238 C 
ATOM     14  O   UNL     1       1.905  -0.404   4.232  1.00  0.00    -0.273 OA
ATOM     15  H   UNL     1       1.064   1.409   2.955  1.00  0.00     0.169 HD
BRANCH  13  16
ATOM     16  C   UNL     1       0.867  -1.937   2.702  1.00  0.00     0.160 C 
ATOM     17  N   UNL     1       1.194  -0.651  -0.808  1.00  0.00    -0.279 N 
ATOM     18  C   UNL     1       0.704  -1.469   0.059  1.00  0.00     0.338 C 
ATOM     19  H   UNL     1       2.147  -0.409  -0.773  1.00  0.00     0.302 HD
ATOM     20  H   UNL     1       0.614  -0.269  -1.506  1.00  0.00     0.302 HD
ATOM     21  S   UNL     1       1.844  -2.107   1.197  1.00  0.00    -0.022 SA
ATOM     22  N   UNL     1      -0.624  -1.896   0.123  1.00  0.00    -0.057 N 
ATOM     23  C   UNL     1      -1.200  -2.557   1.219  1.00  0.00     0.337 C 
ATOM     24  C   UNL     1      -0.486  -2.574   2.560  1.00  0.00     0.155 C 
ATOM     25  O   UNL     1      -2.289  -3.149   1.164  1.00  0.00    -0.244 OA
BRANCH  22  26
ATOM     26  N   UNL     1      -1.534  -1.736  -0.947  1.00  0.00    -0.082 NA
ATOM     27  C   UNL     1      -1.135  -1.484  -2.149  1.00  0.00     0.167 C 
BRANCH  27  28
ATOM     28  C   UNL     1      -2.093  -1.474  -3.273  1.00  0.00    -0.003 A 
ATOM     29  C   UNL     1      -1.943  -2.461  -4.251  1.00  0.00     0.011 A 
ATOM     30  C   UNL     1      -3.102  -0.517  -3.383  1.00  0.00     0.011 A 
ATOM     31  C   UNL     1      -2.826  -2.506  -5.332  1.00  0.00     0.021 A 
ATOM     32  C   UNL     1      -3.987  -0.566  -4.465  1.00  0.00     0.021 A 
ATOM     33  C   UNL     1      -3.847  -1.562  -5.433  1.00  0.00     0.041 A 
ATOM     34  Cl  UNL     1      -4.937  -1.626  -6.762  1.00  0.00    -0.084 Cl
ENDBRANCH  27  28
ENDBRANCH  22  26
ENDBRANCH  13  16
ENDBRANCH   7  12
ENDBRANCH   3   6
ENDBRANCH   1   2
BRANCH   1  35
ATOM     35  C   UNL     1      -6.055  -1.861   0.536  1.00  0.00     0.023 C 
BRANCH  35  36
ATOM     36  C   UNL     1      -7.103  -2.272  -0.502  1.00  0.00     0.023 C 
BRANCH  36  37
ATOM     37  C   UNL     1      -6.750  -3.545  -1.271  1.00  0.00     0.116 C 
BRANCH  37  38
ATOM     38  N   UNL     1      -6.745  -4.724  -0.415  1.00  0.00    -0.352 N 
ATOM     39  C   UNL     1      -7.561  -5.825  -0.427  1.00  0.00     0.251 C 
ATOM     40  H   UNL     1      -6.047  -4.730   0.280  1.00  0.00     0.163 HD
ATOM     41  O   UNL     1      -7.534  -6.623   0.513  1.00  0.00    -0.269 OA
BRANCH  39  42
ATOM     42  C   UNL     1      -8.488  -6.060  -1.552  1.00  0.00     0.039 A 
ATOM     43  C   UNL     1      -9.792  -6.485  -1.280  1.00  0.00     0.014 A 
ATOM     44  C   UNL     1      -8.072  -5.889  -2.875  1.00  0.00     0.014 A 
ATOM     45  C   UNL     1     -10.696  -6.669  -2.329  1.00  0.00     0.010 A 
ATOM     46  C   UNL     1      -8.994  -5.999  -3.913  1.00  0.00     0.010 A 
ATOM     47  C   UNL     1     -10.316  -6.389  -3.652  1.00  0.00    -0.014 A 
BRANCH  47  48
ATOM     48  C   UNL     1     -11.286  -6.493  -4.772  1.00  0.00     0.031 A 
ATOM     49  C   UNL     1     -11.073  -7.499  -5.871  1.00  0.00     0.074 A 
ATOM     50  C   UNL     1     -12.330  -5.644  -4.832  1.00  0.00     0.049 A 
ATOM     51  N   UNL     1     -11.773  -7.692  -6.961  1.00  0.00    -0.248 NA
ATOM     52  C   UNL     1      -9.911  -8.392  -5.738  1.00  0.00     0.031 C 
ATOM     53  C   UNL     1     -12.638  -4.605  -3.846  1.00  0.00     0.029 A 
ATOM     54  N   UNL     1     -13.326  -5.516  -5.769  1.00  0.00    -0.354 N 
ATOM     55  C   UNL     1     -11.133  -8.719  -7.644  1.00  0.00     0.074 A 
ATOM     56  C   UNL     1      -9.960  -9.071  -6.875  1.00  0.00     0.031 C 
ATOM     57  C   UNL     1     -13.762  -3.969  -4.214  1.00  0.00     0.029 A 
ATOM     58  C   UNL     1     -14.228  -4.520  -5.482  1.00  0.00     0.049 A 
ATOM     59  H   UNL     1     -13.388  -6.085  -6.570  1.00  0.00     0.167 HD
ATOM     60  C   UNL     1     -11.500  -9.330  -8.796  1.00  0.00     0.031 A 
ATOM     61  C   UNL     1     -15.305  -4.092  -6.168  1.00  0.00     0.031 A 
ATOM     62  C   UNL     1     -12.665  -8.983  -9.565  1.00  0.00     0.049 A 
ATOM     63  C   UNL     1     -15.660  -4.756  -7.470  1.00  0.00     0.074 A 
ATOM     64  C   UNL     1     -13.135  -9.565 -10.729  1.00  0.00     0.029 A 
ATOM     65  N   UNL     1     -13.544  -7.960  -9.245  1.00  0.00    -0.354 N 
ATOM     66  N   UNL     1     -15.073  -5.760  -8.074  1.00  0.00    -0.248 NA
ATOM     67  C   UNL     1     -16.835  -4.230  -8.179  1.00  0.00     0.031 C 
ATOM     68  C   UNL     1     -14.273  -8.863 -11.141  1.00  0.00     0.029 A 
ATOM     69  C   UNL     1     -14.544  -7.882 -10.201  1.00  0.00     0.049 A 
ATOM     70  H   UNL     1     -13.470  -7.376  -8.456  1.00  0.00     0.167 HD
ATOM     71  C   UNL     1     -15.827  -6.008  -9.214  1.00  0.00     0.074 A 
ATOM     72  C   UNL     1     -16.921  -5.060  -9.209  1.00  0.00     0.031 C 
ATOM     73  C   UNL     1     -15.631  -6.939 -10.178  1.00  0.00     0.031 A 
BRANCH  60  74
ATOM     74  C   UNL     1     -10.624 -10.446  -9.296  1.00  0.00    -0.014 A 
ATOM     75  C   UNL     1     -10.570 -11.679  -8.625  1.00  0.00     0.009 A 
ATOM     76  C   UNL     1      -9.876 -10.280 -10.472  1.00  0.00     0.009 A 
ATOM     77  C   UNL     1      -9.758 -12.710  -9.103  1.00  0.00     0.001 A 
ATOM     78  C   UNL     1      -9.089 -11.323 -10.963  1.00  0.00     0.001 A 
ATOM     79  C   UNL     1      -9.023 -12.533 -10.274  1.00  0.00     0.000 A 
ENDBRANCH  60  74
BRANCH  61  80
ATOM     80  C   UNL     1     -16.140  -2.980  -5.640  1.00  0.00    -0.014 A 
ATOM     81  C   UNL     1     -17.450  -3.225  -5.198  1.00  0.00     0.009 A 
ATOM     82  C   UNL     1     -15.647  -1.667  -5.605  1.00  0.00     0.009 A 
ATOM     83  C   UNL     1     -18.260  -2.172  -4.766  1.00  0.00     0.001 A 
ATOM     84  C   UNL     1     -16.449  -0.621  -5.143  1.00  0.00     0.001 A 
ATOM     85  C   UNL     1     -17.758  -0.872  -4.736  1.00  0.00     0.000 A 
ENDBRANCH  61  80
BRANCH  73  86
ATOM     86  C   UNL     1     -16.649  -7.011 -11.283  1.00  0.00    -0.014 A 
ATOM     87  C   UNL     1     -16.729  -6.017 -12.270  1.00  0.00     0.009 A 
ATOM     88  C   UNL     1     -17.518  -8.111 -11.353  1.00  0.00     0.009 A 
ATOM     89  C   UNL     1     -17.683  -6.107 -13.286  1.00  0.00     0.001 A 
ATOM     90  C   UNL     1     -18.449  -8.214 -12.386  1.00  0.00     0.001 A 
ATOM     91  C   UNL     1     -18.538  -7.207 -13.346  1.00  0.00     0.000 A 
ENDBRANCH  73  86
ENDBRANCH  47  48
ENDBRANCH  39  42
ENDBRANCH  37  38
ENDBRANCH  36  37
ENDBRANCH  35  36
ENDBRANCH   1  35
TORSDOF 15
