REMARK SMILES O=C(NCCCCNC(=O)[C@@H]1[C@@H](C(=O)Nc2cccc([N+](=O)[O-])c2)[C@@H]2C=C[C@H]1O2)c1ccc(-c2c3nc(c(-c4ccccc4)c4ccc([nH]4)c(-c4ccccc4)c4nc(c(-c5ccccc5)c5ccc2[nH]5)C=C4)C=C3)cc1
REMARK SMILES IDX 6 1 5 2 4 3 3 4 1 5 2 6 30 8 31 9 77 10 32 11 76 12 33 13
REMARK SMILES IDX 34 14 35 15 70 16 36 17 75 18 69 19 71 20 37 21 74 22 68 23
REMARK SMILES IDX 67 24 38 26 60 27 45 28 59 29 46 30 49 31 58 32 72 33 47 34
REMARK SMILES IDX 48 35 57 37 73 38 50 39 39 40 40 41 44 42 41 43 43 44 42 45
REMARK SMILES IDX 61 46 62 47 66 48 63 49 65 50 64 51 51 52 52 53 56 54 53 55
REMARK SMILES IDX 55 56 54 57 7 58 8 59 9 60 10 62 11 63 12 64 28 65 25 66
REMARK SMILES IDX 27 67 29 68 26 69 13 70 14 71 15 72 16 74 17 75 24 76 18 77
REMARK SMILES IDX 20 78 19 79 21 80 22 81 23 82
REMARK H PARENT 3 7 71 25 49 36 8 61 15 73
REMARK Flexibility Score: inf
ROOT
ATOM      1  C   UNL     1       4.564   2.240  -3.000  1.00  0.00     0.023 C 
ENDROOT
BRANCH   1   2
ATOM      2  C   UNL     1       5.051   0.952  -2.347  1.00  0.00     0.023 C 
BRANCH   2   3
ATOM      3  C   UNL     1       4.673   0.788  -0.881  1.00  0.00     0.116 C 
BRANCH   3   4
ATOM      4  N   UNL     1       3.236   0.803  -0.646  1.00  0.00    -0.352 N 
ATOM      5  O   UNL     1       1.238  -0.032   0.015  1.00  0.00    -0.269 OA
ATOM      6  C   UNL     1       2.455  -0.133  -0.001  1.00  0.00     0.251 C 
ATOM      7  H   UNL     1       2.756   1.588  -0.996  1.00  0.00     0.163 HD
BRANCH   6   8
ATOM      8  C   UNL     1       3.117  -1.287   0.640  1.00  0.00     0.039 A 
ATOM      9  C   UNL     1       4.226  -1.084   1.461  1.00  0.00     0.014 A 
ATOM     10  C   UNL     1       2.666  -2.579   0.362  1.00  0.00     0.014 A 
ATOM     11  C   UNL     1       4.994  -2.172   1.848  1.00  0.00     0.010 A 
ATOM     12  C   UNL     1       3.383  -3.678   0.845  1.00  0.00     0.010 A 
ATOM     13  C   UNL     1       4.575  -3.482   1.556  1.00  0.00    -0.014 A 
BRANCH  13  14
ATOM     14  C   UNL     1       5.384  -4.615   2.069  1.00  0.00     0.031 A 
ATOM     15  C   UNL     1       6.085  -5.570   1.143  1.00  0.00     0.074 A 
ATOM     16  C   UNL     1       5.537  -4.729   3.403  1.00  0.00     0.049 A 
ATOM     17  N   UNL     1       6.880  -6.567   1.443  1.00  0.00    -0.248 NA
ATOM     18  C   UNL     1       5.868  -5.394  -0.302  1.00  0.00     0.031 C 
ATOM     19  C   UNL     1       4.900  -3.862   4.400  1.00  0.00     0.029 A 
ATOM     20  N   UNL     1       6.302  -5.585   4.150  1.00  0.00    -0.354 N 
ATOM     21  C   UNL     1       7.241  -7.147   0.234  1.00  0.00     0.074 A 
ATOM     22  C   UNL     1       6.566  -6.403  -0.808  1.00  0.00     0.031 C 
ATOM     23  C   UNL     1       5.358  -4.182   5.618  1.00  0.00     0.029 A 
ATOM     24  C   UNL     1       6.259  -5.321   5.497  1.00  0.00     0.049 A 
ATOM     25  H   UNL     1       6.831  -6.318   3.759  1.00  0.00     0.167 HD
ATOM     26  C   UNL     1       8.063  -8.202   0.014  1.00  0.00     0.031 A 
ATOM     27  C   UNL     1       6.865  -5.933   6.529  1.00  0.00     0.031 A 
ATOM     28  C   UNL     1       8.737  -8.938   1.053  1.00  0.00     0.049 A 
ATOM     29  C   UNL     1       7.756  -7.105   6.253  1.00  0.00     0.074 A 
ATOM     30  C   UNL     1       9.597 -10.016   0.928  1.00  0.00     0.029 A 
ATOM     31  N   UNL     1       8.629  -8.670   2.409  1.00  0.00    -0.354 N 
ATOM     32  N   UNL     1       8.091  -7.632   5.100  1.00  0.00    -0.248 NA
ATOM     33  C   UNL     1       8.348  -7.770   7.420  1.00  0.00     0.031 C 
ATOM     34  C   UNL     1       9.976 -10.426   2.211  1.00  0.00     0.029 A 
ATOM     35  C   UNL     1       9.391  -9.573   3.132  1.00  0.00     0.049 A 
ATOM     36  H   UNL     1       8.089  -7.945   2.800  1.00  0.00     0.167 HD
ATOM     37  C   UNL     1       8.933  -8.691   5.403  1.00  0.00     0.074 A 
ATOM     38  C   UNL     1       9.087  -8.707   6.844  1.00  0.00     0.031 C 
ATOM     39  C   UNL     1       9.518  -9.581   4.565  1.00  0.00     0.031 A 
BRANCH  26  40
ATOM     40  C   UNL     1       8.270  -8.646  -1.408  1.00  0.00    -0.014 A 
ATOM     41  C   UNL     1       9.081  -7.914  -2.288  1.00  0.00     0.009 A 
ATOM     42  C   UNL     1       7.706  -9.854  -1.850  1.00  0.00     0.009 A 
ATOM     43  C   UNL     1       9.308  -8.374  -3.588  1.00  0.00     0.001 A 
ATOM     44  C   UNL     1       7.952 -10.322  -3.142  1.00  0.00     0.001 A 
ATOM     45  C   UNL     1       8.749  -9.580  -4.012  1.00  0.00     0.000 A 
ENDBRANCH  26  40
BRANCH  27  46
ATOM     46  C   UNL     1       6.621  -5.462   7.915  1.00  0.00    -0.014 A 
ATOM     47  C   UNL     1       7.640  -4.843   8.653  1.00  0.00     0.009 A 
ATOM     48  C   UNL     1       5.356  -5.622   8.503  1.00  0.00     0.009 A 
ATOM     49  C   UNL     1       7.401  -4.413   9.961  1.00  0.00     0.001 A 
ATOM     50  C   UNL     1       5.111  -5.163   9.797  1.00  0.00     0.001 A 
ATOM     51  C   UNL     1       6.137  -4.568  10.529  1.00  0.00     0.000 A 
ENDBRANCH  27  46
BRANCH  39  52
ATOM     52  C   UNL     1      10.380 -10.632   5.200  1.00  0.00    -0.014 A 
ATOM     53  C   UNL     1       9.810 -11.695   5.919  1.00  0.00     0.009 A 
ATOM     54  C   UNL     1      11.775 -10.557   5.081  1.00  0.00     0.009 A 
ATOM     55  C   UNL     1      10.626 -12.640   6.543  1.00  0.00     0.001 A 
ATOM     56  C   UNL     1      12.587 -11.518   5.684  1.00  0.00     0.001 A 
ATOM     57  C   UNL     1      12.013 -12.551   6.423  1.00  0.00     0.000 A 
ENDBRANCH  39  52
ENDBRANCH  13  14
ENDBRANCH   6   8
ENDBRANCH   3   4
ENDBRANCH   2   3
ENDBRANCH   1   2
BRANCH   1  58
ATOM     58  C   UNL     1       4.903   3.511  -2.235  1.00  0.00     0.116 C 
BRANCH  58  59
ATOM     59  N   UNL     1       6.328   3.791  -2.185  1.00  0.00    -0.356 N 
ATOM     60  C   UNL     1       6.939   5.017  -2.107  1.00  0.00     0.227 C 
ATOM     61  H   UNL     1       6.926   3.009  -2.210  1.00  0.00     0.163 HD
ATOM     62  O   UNL     1       8.164   5.073  -2.077  1.00  0.00    -0.275 OA
BRANCH  60  63
ATOM     63  C   UNL     1       6.045   6.237  -2.105  1.00  0.00     0.127 C 
ATOM     64  C   UNL     1       6.741   7.612  -2.227  1.00  0.00     0.127 C 
ATOM     65  C   UNL     1       5.300   6.389  -0.767  1.00  0.00     0.155 C 
ATOM     66  C   UNL     1       6.258   8.332  -0.960  1.00  0.00     0.155 C 
ATOM     67  C   UNL     1       6.246   6.493   0.388  1.00  0.00     0.004 C 
ATOM     68  O   UNL     1       4.915   7.786  -0.851  1.00  0.00    -0.365 OA
ATOM     69  C   UNL     1       6.846   7.685   0.264  1.00  0.00     0.004 C 
BRANCH  64  70
ATOM     70  C   UNL     1       6.513   8.489  -3.464  1.00  0.00     0.231 C 
ATOM     71  O   UNL     1       7.317   9.409  -3.679  1.00  0.00    -0.274 OA
ATOM     72  N   UNL     1       5.564   8.293  -4.426  1.00  0.00    -0.325 N 
ATOM     73  H   UNL     1       5.783   8.711  -5.290  1.00  0.00     0.169 HD
BRANCH  72  74
ATOM     74  C   UNL     1       4.343   7.613  -4.422  1.00  0.00     0.048 A 
ATOM     75  C   UNL     1       4.053   6.775  -5.505  1.00  0.00     0.026 A 
ATOM     76  C   UNL     1       3.432   7.725  -3.375  1.00  0.00     0.111 A 
ATOM     77  C   UNL     1       2.933   5.937  -5.472  1.00  0.00     0.009 A 
ATOM     78  C   UNL     1       2.326   6.871  -3.340  1.00  0.00     0.271 A 
ATOM     79  C   UNL     1       2.077   5.960  -4.372  1.00  0.00     0.086 A 
BRANCH  78  80
ATOM     80  N   UNL     1       1.464   6.871  -2.163  1.00  0.00     0.062 N 
ATOM     81  O   UNL     1       1.026   5.773  -1.791  1.00  0.00    -0.258 OA
ATOM     82  O   UNL     1       1.244   7.956  -1.611  1.00  0.00    -0.258 OA
ENDBRANCH  78  80
ENDBRANCH  72  74
ENDBRANCH  64  70
ENDBRANCH  60  63
ENDBRANCH  58  59
ENDBRANCH   1  58
TORSDOF 14
