REMARK SMILES C[C@@H](C(=O)NCCCCNC(=O)c1ccc(-c2c3nc(c(-c4ccccc4)c4ccc([nH]4)c(-c4ccccc4)c4nc(c(-c5ccccc5)c5ccc2[nH]5)C=C4)C=C3)cc1)n1ccc(C(=O)N2CC[NH+](Cc3cccc(F)c3)CC2)n1
REMARK SMILES IDX 6 1 5 2 3 3 4 4 2 6 1 7 61 8 62 9 81 10 63 11 64 12 65 13
REMARK SMILES IDX 66 14 67 15 68 16 80 17 69 18 79 19 70 20 71 22 72 23 73 24
REMARK SMILES IDX 78 25 74 26 76 27 75 28 77 29 7 30 8 31 9 32 10 33 11 34
REMARK SMILES IDX 12 36 13 37 14 38 60 39 15 40 59 41 16 42 17 43 18 44 53 45
REMARK SMILES IDX 19 46 58 47 52 48 54 49 20 50 57 51 51 52 50 53 21 55 43 56
REMARK SMILES IDX 28 57 42 58 29 59 32 60 41 61 55 62 30 63 31 64 40 66 56 67
REMARK SMILES IDX 33 68 22 69 23 70 27 71 24 72 26 73 25 74 44 75 45 76 49 77
REMARK SMILES IDX 46 78 48 79 47 80 34 81 35 82 39 83 36 84 38 85 37 86
REMARK H PARENT 5 5 70 21 10 35 54 54 32 65
REMARK Flexibility Score: inf
ROOT
ATOM      1  C   UNL     1       3.450   1.609  -1.015  1.00  0.00     0.116 C 
ENDROOT
BRANCH   1   2
ATOM      2  N   UNL     1       2.404   1.573  -2.018  1.00  0.00    -0.354 N 
ATOM      3  C   UNL     1       1.093   1.198  -1.897  1.00  0.00     0.244 C 
ATOM      4  O   UNL     1       0.447   1.096  -2.942  1.00  0.00    -0.273 OA
ATOM      5  H   UNL     1       2.676   1.862  -2.920  1.00  0.00     0.163 HD
BRANCH   3   6
ATOM      6  C   UNL     1       0.507   0.924  -0.515  1.00  0.00     0.193 C 
ATOM      7  C   UNL     1       0.934  -0.429   0.050  1.00  0.00     0.044 C 
BRANCH   6   8
ATOM      8  N   UNL     1      -0.948   1.069  -0.543  1.00  0.00    -0.260 N 
ATOM      9  C   UNL     1      -1.882   0.121  -0.850  1.00  0.00     0.110 A 
ATOM     10  N   UNL     1      -1.487   2.229  -0.124  1.00  0.00    -0.167 NA
ATOM     11  C   UNL     1      -3.102   0.697  -0.595  1.00  0.00     0.056 A 
ATOM     12  C   UNL     1      -2.817   2.021  -0.172  1.00  0.00     0.150 A 
BRANCH  12  13
ATOM     13  C   UNL     1      -3.795   3.026   0.273  1.00  0.00     0.274 C 
ATOM     14  O   UNL     1      -4.794   2.677   0.908  1.00  0.00    -0.267 OA
ATOM     15  N   UNL     1      -3.558   4.373  -0.040  1.00  0.00    -0.326 N 
ATOM     16  C   UNL     1      -4.466   5.341   0.559  1.00  0.00     0.181 C 
ATOM     17  C   UNL     1      -2.893   4.768  -1.287  1.00  0.00     0.181 C 
ATOM     18  C   UNL     1      -4.003   6.802   0.448  1.00  0.00     0.284 C 
ATOM     19  C   UNL     1      -2.490   6.253  -1.353  1.00  0.00     0.284 C 
ATOM     20  N   UNL     1      -3.473   7.219  -0.854  1.00  0.00    -0.328 N 
ATOM     21  H   UNL     1      -2.958   8.084  -0.688  1.00  0.00     0.348 HD
BRANCH  20  22
ATOM     22  C   UNL     1      -4.446   7.726  -1.823  1.00  0.00     0.299 C 
BRANCH  22  23
ATOM     23  C   UNL     1      -5.425   6.745  -2.424  1.00  0.00     0.009 A 
ATOM     24  C   UNL     1      -5.134   6.086  -3.631  1.00  0.00     0.010 A 
ATOM     25  C   UNL     1      -6.644   6.469  -1.789  1.00  0.00     0.048 A 
ATOM     26  C   UNL     1      -6.007   5.127  -4.151  1.00  0.00     0.004 A 
ATOM     27  C   UNL     1      -7.500   5.504  -2.309  1.00  0.00     0.123 A 
ATOM     28  C   UNL     1      -7.188   4.824  -3.479  1.00  0.00     0.039 A 
ATOM     29  F   UNL     1      -8.637   5.217  -1.661  1.00  0.00    -0.207 F 
ENDBRANCH  22  23
ENDBRANCH  20  22
ENDBRANCH  12  13
ENDBRANCH   6   8
ENDBRANCH   3   6
ENDBRANCH   1   2
BRANCH   1  30
ATOM     30  C   UNL     1       4.319   0.353  -1.085  1.00  0.00     0.023 C 
BRANCH  30  31
ATOM     31  C   UNL     1       5.115   0.196  -2.383  1.00  0.00     0.023 C 
BRANCH  31  32
ATOM     32  C   UNL     1       6.097   1.323  -2.683  1.00  0.00     0.116 C 
BRANCH  32  33
ATOM     33  N   UNL     1       7.104   1.486  -1.647  1.00  0.00    -0.352 N 
ATOM     34  C   UNL     1       8.444   1.746  -1.782  1.00  0.00     0.251 C 
ATOM     35  H   UNL     1       6.779   1.397  -0.722  1.00  0.00     0.163 HD
ATOM     36  O   UNL     1       9.179   1.730  -0.797  1.00  0.00    -0.269 OA
BRANCH  34  37
ATOM     37  C   UNL     1       9.011   2.011  -3.120  1.00  0.00     0.039 A 
ATOM     38  C   UNL     1      10.175   1.337  -3.502  1.00  0.00     0.014 A 
ATOM     39  C   UNL     1       8.396   2.909  -3.997  1.00  0.00     0.014 A 
ATOM     40  C   UNL     1      10.684   1.512  -4.790  1.00  0.00     0.010 A 
ATOM     41  C   UNL     1       8.872   3.039  -5.298  1.00  0.00     0.010 A 
ATOM     42  C   UNL     1      10.017   2.338  -5.707  1.00  0.00    -0.014 A 
BRANCH  42  43
ATOM     43  C   UNL     1      10.490   2.477  -7.105  1.00  0.00     0.031 A 
ATOM     44  C   UNL     1      11.016   3.795  -7.598  1.00  0.00     0.074 A 
ATOM     45  C   UNL     1      10.367   1.440  -7.955  1.00  0.00     0.049 A 
ATOM     46  N   UNL     1      11.385   4.135  -8.806  1.00  0.00    -0.248 NA
ATOM     47  C   UNL     1      11.116   4.879  -6.608  1.00  0.00     0.031 C 
ATOM     48  C   UNL     1       9.831   0.120  -7.613  1.00  0.00     0.029 A 
ATOM     49  N   UNL     1      10.669   1.341  -9.290  1.00  0.00    -0.354 N 
ATOM     50  C   UNL     1      11.734   5.477  -8.728  1.00  0.00     0.074 A 
ATOM     51  C   UNL     1      11.504   5.896  -7.362  1.00  0.00     0.031 C 
ATOM     52  C   UNL     1       9.854  -0.659  -8.706  1.00  0.00     0.029 A 
ATOM     53  C   UNL     1      10.374   0.113  -9.830  1.00  0.00     0.049 A 
ATOM     54  H   UNL     1      11.061   2.079  -9.810  1.00  0.00     0.167 HD
ATOM     55  C   UNL     1      12.214   6.285  -9.703  1.00  0.00     0.031 A 
ATOM     56  C   UNL     1      10.499  -0.338 -11.092  1.00  0.00     0.031 A 
ATOM     57  C   UNL     1      12.466   5.866 -11.055  1.00  0.00     0.049 A 
ATOM     58  C   UNL     1      11.049   0.572 -12.151  1.00  0.00     0.074 A 
ATOM     59  C   UNL     1      13.019   6.595 -12.095  1.00  0.00     0.029 A 
ATOM     60  N   UNL     1      12.184   4.605 -11.554  1.00  0.00    -0.354 N 
ATOM     61  N   UNL     1      11.434   1.821 -12.046  1.00  0.00    -0.248 NA
ATOM     62  C   UNL     1      11.189   0.008 -13.501  1.00  0.00     0.031 C 
ATOM     63  C   UNL     1      13.038   5.783 -13.234  1.00  0.00     0.029 A 
ATOM     64  C   UNL     1      12.532   4.539 -12.892  1.00  0.00     0.049 A 
ATOM     65  H   UNL     1      11.793   3.866 -11.034  1.00  0.00     0.167 HD
ATOM     66  C   UNL     1      11.881   2.185 -13.309  1.00  0.00     0.074 A 
ATOM     67  C   UNL     1      11.730   1.023 -14.161  1.00  0.00     0.031 C 
ATOM     68  C   UNL     1      12.374   3.376 -13.725  1.00  0.00     0.031 A 
BRANCH  55  69
ATOM     69  C   UNL     1      12.489   7.715  -9.336  1.00  0.00    -0.014 A 
ATOM     70  C   UNL     1      13.591   8.060  -8.538  1.00  0.00     0.009 A 
ATOM     71  C   UNL     1      11.647   8.731  -9.813  1.00  0.00     0.009 A 
ATOM     72  C   UNL     1      13.824   9.393  -8.196  1.00  0.00     0.001 A 
ATOM     73  C   UNL     1      11.896  10.066  -9.488  1.00  0.00     0.001 A 
ATOM     74  C   UNL     1      12.979  10.395  -8.673  1.00  0.00     0.000 A 
ENDBRANCH  55  69
BRANCH  56  75
ATOM     75  C   UNL     1      10.104  -1.730 -11.420  1.00  0.00    -0.014 A 
ATOM     76  C   UNL     1      11.083  -2.711 -11.638  1.00  0.00     0.009 A 
ATOM     77  C   UNL     1       8.750  -2.086 -11.510  1.00  0.00     0.009 A 
ATOM     78  C   UNL     1      10.713  -4.018 -11.959  1.00  0.00     0.001 A 
ATOM     79  C   UNL     1       8.383  -3.399 -11.811  1.00  0.00     0.001 A 
ATOM     80  C   UNL     1       9.364  -4.362 -12.042  1.00  0.00     0.000 A 
ENDBRANCH  56  75
BRANCH  68  81
ATOM     81  C   UNL     1      12.809   3.474 -15.157  1.00  0.00    -0.014 A 
ATOM     82  C   UNL     1      11.869   3.594 -16.192  1.00  0.00     0.009 A 
ATOM     83  C   UNL     1      14.177   3.487 -15.470  1.00  0.00     0.009 A 
ATOM     84  C   UNL     1      12.293   3.702 -17.517  1.00  0.00     0.001 A 
ATOM     85  C   UNL     1      14.597   3.616 -16.794  1.00  0.00     0.001 A 
ATOM     86  C   UNL     1      13.655   3.716 -17.817  1.00  0.00     0.000 A 
ENDBRANCH  68  81
ENDBRANCH  42  43
ENDBRANCH  34  37
ENDBRANCH  32  33
ENDBRANCH  31  32
ENDBRANCH  30  31
ENDBRANCH   1  30
TORSDOF 15
