REMARK SMILES Cc1ccc2oc(C(=O)N[C@@H]3C=C[C@H](C(=O)NCCCCNC(=O)c4ccc(-c5c6nc(c(-c7ccccc7)c7ccc([nH]7)c(-c7ccccc7)c7nc(c(-c8ccccc8)c8ccc5[nH]8)C=C7)C=C6)cc4)C3)cc2c1
REMARK SMILES IDX 19 1 18 2 17 3 15 4 16 5 14 7 11 8 12 9 73 10 13 11 10 12
REMARK SMILES IDX 8 13 9 14 7 16 1 17 2 18 3 19 76 20 4 21 75 22 5 23 74 24
REMARK SMILES IDX 6 25 20 26 21 27 22 28 23 29 24 31 25 32 26 33 72 34 27 35
REMARK SMILES IDX 71 36 28 37 29 38 30 39 65 40 31 41 70 42 64 43 66 44 32 45
REMARK SMILES IDX 69 46 63 47 62 48 33 50 55 51 40 52 54 53 41 54 44 55 53 56
REMARK SMILES IDX 67 57 42 58 43 59 52 61 68 62 45 63 34 64 35 65 39 66 36 67
REMARK SMILES IDX 38 68 37 69 56 70 57 71 61 72 58 73 60 74 59 75 46 76 47 77
REMARK SMILES IDX 51 78 48 79 50 80 49 81
REMARK H PARENT 17 6 10 15 22 30 66 49 44 60
REMARK Flexibility Score: inf
ROOT
ATOM      1  C   UNL     1       1.013  -7.807   3.809  1.00  0.00     0.023 C 
ENDROOT
BRANCH   1   2
ATOM      2  C   UNL     1       1.605  -6.924   2.709  1.00  0.00     0.116 C 
BRANCH   2   3
ATOM      3  N   UNL     1       0.894  -5.680   2.499  1.00  0.00    -0.356 N 
ATOM      4  C   UNL     1       1.285  -4.453   2.061  1.00  0.00     0.227 C 
ATOM      5  O   UNL     1       0.351  -3.692   1.779  1.00  0.00    -0.274 OA
ATOM      6  H   UNL     1      -0.064  -5.733   2.718  1.00  0.00     0.163 HD
BRANCH   4   7
ATOM      7  C   UNL     1       2.754  -3.942   2.029  1.00  0.00     0.103 C 
ATOM      8  C   UNL     1       3.586  -3.174  -0.184  1.00  0.00     0.106 C 
ATOM      9  C   UNL     1       4.300  -4.386   0.276  1.00  0.00    -0.006 C 
ATOM     10  C   UNL     1       2.854  -2.712   1.087  1.00  0.00     0.047 C 
ATOM     11  C   UNL     1       3.883  -4.781   1.491  1.00  0.00    -0.016 C 
BRANCH   8  12
ATOM     12  N   UNL     1       2.759  -3.287  -1.385  1.00  0.00    -0.343 N 
ATOM     13  C   UNL     1       2.116  -4.217  -2.172  1.00  0.00     0.287 C 
ATOM     14  O   UNL     1       1.570  -3.740  -3.177  1.00  0.00    -0.266 OA
ATOM     15  H   UNL     1       2.610  -2.389  -1.761  1.00  0.00     0.164 HD
BRANCH  13  16
ATOM     16  C   UNL     1       2.101  -5.635  -1.895  1.00  0.00     0.192 A 
ATOM     17  C   UNL     1       2.748 -11.376  -0.200  1.00  0.00     0.044 C 
ATOM     18  C   UNL     1       2.403 -10.132  -0.968  1.00  0.00    -0.050 A 
ATOM     19  C   UNL     1       1.952 -10.178  -2.297  1.00  0.00     0.007 A 
ATOM     20  C   UNL     1       2.597  -8.894  -0.351  1.00  0.00     0.015 A 
ATOM     21  C   UNL     1       1.710  -9.008  -3.046  1.00  0.00     0.048 A 
ATOM     22  C   UNL     1       2.309  -7.727  -1.068  1.00  0.00     0.021 A 
ATOM     23  C   UNL     1       1.925  -7.797  -2.393  1.00  0.00     0.135 A 
ATOM     24  C   UNL     1       2.270  -6.366  -0.749  1.00  0.00     0.065 A 
ATOM     25  O   UNL     1       1.809  -6.533  -2.912  1.00  0.00    -0.451 OA
ENDBRANCH  13  16
ENDBRANCH   8  12
ENDBRANCH   4   7
ENDBRANCH   2   3
ENDBRANCH   1   2
BRANCH   1  26
ATOM     26  C   UNL     1      -0.441  -8.270   3.619  1.00  0.00     0.023 C 
BRANCH  26  27
ATOM     27  C   UNL     1      -0.748  -9.155   2.406  1.00  0.00     0.116 C 
BRANCH  27  28
ATOM     28  N   UNL     1      -0.070 -10.441   2.438  1.00  0.00    -0.352 N 
ATOM     29  C   UNL     1      -0.545 -11.729   2.350  1.00  0.00     0.251 C 
ATOM     30  H   UNL     1       0.907 -10.378   2.542  1.00  0.00     0.163 HD
ATOM     31  O   UNL     1       0.253 -12.657   2.475  1.00  0.00    -0.269 OA
BRANCH  29  32
ATOM     32  C   UNL     1      -1.984 -12.040   2.145  1.00  0.00     0.039 A 
ATOM     33  C   UNL     1      -2.529 -13.127   2.843  1.00  0.00     0.014 A 
ATOM     34  C   UNL     1      -2.791 -11.339   1.246  1.00  0.00     0.014 A 
ATOM     35  C   UNL     1      -3.881 -13.460   2.699  1.00  0.00     0.010 A 
ATOM     36  C   UNL     1      -4.158 -11.636   1.145  1.00  0.00     0.010 A 
ATOM     37  C   UNL     1      -4.721 -12.693   1.876  1.00  0.00    -0.014 A 
BRANCH  37  38
ATOM     38  C   UNL     1      -6.183 -12.977   1.804  1.00  0.00     0.031 A 
ATOM     39  C   UNL     1      -6.819 -13.477   0.534  1.00  0.00     0.074 A 
ATOM     40  C   UNL     1      -6.957 -12.757   2.886  1.00  0.00     0.049 A 
ATOM     41  N   UNL     1      -8.076 -13.767   0.299  1.00  0.00    -0.248 NA
ATOM     42  C   UNL     1      -5.934 -13.663  -0.625  1.00  0.00     0.031 C 
ATOM     43  C   UNL     1      -6.488 -12.244   4.175  1.00  0.00     0.029 A 
ATOM     44  N   UNL     1      -8.307 -12.938   3.074  1.00  0.00    -0.354 N 
ATOM     45  C   UNL     1      -8.133 -14.165  -1.031  1.00  0.00     0.074 A 
ATOM     46  C   UNL     1      -6.793 -14.037  -1.563  1.00  0.00     0.031 C 
ATOM     47  C   UNL     1      -7.524 -12.179   5.027  1.00  0.00     0.029 A 
ATOM     48  C   UNL     1      -8.736 -12.614   4.339  1.00  0.00     0.049 A 
ATOM     49  H   UNL     1      -8.909 -13.269   2.369  1.00  0.00     0.167 HD
ATOM     50  C   UNL     1      -9.195 -14.614  -1.743  1.00  0.00     0.031 A 
ATOM     51  C   UNL     1      -9.964 -12.662   4.889  1.00  0.00     0.031 A 
ATOM     52  C   UNL     1     -10.534 -14.746  -1.229  1.00  0.00     0.049 A 
ATOM     53  C   UNL     1     -11.127 -13.152   4.074  1.00  0.00     0.074 A 
ATOM     54  C   UNL     1     -11.666 -15.213  -1.877  1.00  0.00     0.029 A 
ATOM     55  N   UNL     1     -10.921 -14.411   0.058  1.00  0.00    -0.354 N 
ATOM     56  N   UNL     1     -11.149 -13.570   2.832  1.00  0.00    -0.248 NA
ATOM     57  C   UNL     1     -12.435 -13.189   4.745  1.00  0.00     0.031 C 
ATOM     58  C   UNL     1     -12.745 -15.133  -0.990  1.00  0.00     0.029 A 
ATOM     59  C   UNL     1     -12.276 -14.655   0.222  1.00  0.00     0.049 A 
ATOM     60  H   UNL     1     -10.323 -14.054   0.753  1.00  0.00     0.167 HD
ATOM     61  C   UNL     1     -12.463 -13.946   2.584  1.00  0.00     0.074 A 
ATOM     62  C   UNL     1     -13.205 -13.722   3.806  1.00  0.00     0.031 C 
ATOM     63  C   UNL     1     -13.005 -14.433   1.442  1.00  0.00     0.031 A 
BRANCH  50  64
ATOM     64  C   UNL     1      -8.948 -15.006  -3.173  1.00  0.00    -0.014 A 
ATOM     65  C   UNL     1      -8.260 -16.190  -3.485  1.00  0.00     0.009 A 
ATOM     66  C   UNL     1      -9.444 -14.212  -4.218  1.00  0.00     0.009 A 
ATOM     67  C   UNL     1      -8.046 -16.553  -4.816  1.00  0.00     0.001 A 
ATOM     68  C   UNL     1      -9.250 -14.591  -5.548  1.00  0.00     0.001 A 
ATOM     69  C   UNL     1      -8.544 -15.756  -5.846  1.00  0.00     0.000 A 
ENDBRANCH  50  64
BRANCH  51  70
ATOM     70  C   UNL     1     -10.166 -12.255   6.304  1.00  0.00    -0.014 A 
ATOM     71  C   UNL     1     -10.439 -13.218   7.288  1.00  0.00     0.009 A 
ATOM     72  C   UNL     1     -10.116 -10.902   6.671  1.00  0.00     0.009 A 
ATOM     73  C   UNL     1     -10.690 -12.831   8.606  1.00  0.00     0.001 A 
ATOM     74  C   UNL     1     -10.341 -10.520   7.995  1.00  0.00     0.001 A 
ATOM     75  C   UNL     1     -10.638 -11.483   8.959  1.00  0.00     0.000 A 
ENDBRANCH  51  70
BRANCH  63  76
ATOM     76  C   UNL     1     -14.463 -14.793   1.477  1.00  0.00    -0.014 A 
ATOM     77  C   UNL     1     -15.457 -13.803   1.489  1.00  0.00     0.009 A 
ATOM     78  C   UNL     1     -14.845 -16.143   1.484  1.00  0.00     0.009 A 
ATOM     79  C   UNL     1     -16.806 -14.159   1.545  1.00  0.00     0.001 A 
ATOM     80  C   UNL     1     -16.195 -16.496   1.515  1.00  0.00     0.001 A 
ATOM     81  C   UNL     1     -17.174 -15.505   1.556  1.00  0.00     0.000 A 
ENDBRANCH  63  76
ENDBRANCH  37  38
ENDBRANCH  29  32
ENDBRANCH  27  28
ENDBRANCH  26  27
ENDBRANCH   1  26
TORSDOF 13
