REMARK SMILES CS(=O)(=O)c1ccc(/C=C(/C(=O)NCCCCNC(=O)c2ccc(-c3c4nc(c(-c5ccccc5)c5ccc([nH]5)c(-c5ccccc5)c5nc(c(-c6ccccc6)c6ccc3[nH]6)C=C5)C=C4)cc2)c2ccc(F)cc2)cc1
REMARK SMILES IDX 15 1 14 2 13 3 11 4 12 5 10 7 9 8 8 9 5 10 6 11 77 12 7 13
REMARK SMILES IDX 76 14 2 15 1 16 3 17 4 18 69 19 70 20 75 21 71 22 74 23
REMARK SMILES IDX 72 24 73 25 16 26 17 27 18 28 19 29 20 31 21 32 22 33 68 34
REMARK SMILES IDX 23 35 67 36 24 37 25 38 26 39 61 40 27 41 66 42 60 43 62 44
REMARK SMILES IDX 28 45 65 46 59 47 58 48 29 50 51 51 36 52 50 53 37 54 40 55
REMARK SMILES IDX 49 56 63 57 38 58 39 59 48 61 64 62 41 63 30 64 31 65 35 66
REMARK SMILES IDX 32 67 34 68 33 69 52 70 53 71 57 72 54 73 56 74 55 75 42 76
REMARK SMILES IDX 43 77 47 78 44 79 46 80 45 81
REMARK H PARENT 13 6 18 30 62 49 40 60
REMARK Flexibility Score: inf
ROOT
ATOM      1  C   UNL     1       2.091   4.340   8.890  1.00  0.00     0.023 C 
ENDROOT
BRANCH   1   2
ATOM      2  C   UNL     1       3.283   3.488   8.442  1.00  0.00     0.116 C 
BRANCH   2   3
ATOM      3  N   UNL     1       3.203   2.161   9.021  1.00  0.00    -0.352 N 
ATOM      4  C   UNL     1       2.769   0.959   8.552  1.00  0.00     0.251 C 
ATOM      5  O   UNL     1       2.816   0.017   9.346  1.00  0.00    -0.269 OA
ATOM      6  H   UNL     1       3.530   2.121   9.948  1.00  0.00     0.163 HD
BRANCH   4   7
ATOM      7  C   UNL     1       2.331   0.730   7.123  1.00  0.00     0.047 C 
ATOM      8  C   UNL     1       1.667   1.669   6.413  1.00  0.00     0.022 C 
BRANCH   8   9
ATOM      9  C   UNL     1       1.259   1.648   4.993  1.00  0.00    -0.025 A 
ATOM     10  C   UNL     1       0.644   1.709   2.259  1.00  0.00     0.067 A 
ATOM     11  C   UNL     1       0.265   0.610   3.031  1.00  0.00     0.021 A 
ATOM     12  C   UNL     1       1.280   2.802   2.846  1.00  0.00     0.021 A 
ATOM     13  C   UNL     1       0.561   0.591   4.398  1.00  0.00     0.009 A 
ATOM     14  C   UNL     1       1.584   2.768   4.209  1.00  0.00     0.009 A 
BRANCH  10  15
ATOM     15  S   UNL     1       0.304   1.720   0.515  1.00  0.00     0.175 S 
ATOM     16  C   UNL     1       1.117   0.269  -0.103  1.00  0.00     0.163 C 
ATOM     17  O   UNL     1       0.978   2.867  -0.056  1.00  0.00    -0.224 OA
ATOM     18  O   UNL     1      -1.130   1.541   0.367  1.00  0.00    -0.224 OA
ENDBRANCH  10  15
ENDBRANCH   8   9
BRANCH   7  19
ATOM     19  C   UNL     1       2.499  -0.641   6.577  1.00  0.00    -0.013 A 
ATOM     20  C   UNL     1       1.708  -1.678   7.106  1.00  0.00     0.012 A 
ATOM     21  C   UNL     1       3.352  -0.915   5.499  1.00  0.00     0.012 A 
ATOM     22  C   UNL     1       1.744  -2.956   6.549  1.00  0.00     0.040 A 
ATOM     23  C   UNL     1       3.380  -2.195   4.937  1.00  0.00     0.040 A 
ATOM     24  C   UNL     1       2.572  -3.199   5.462  1.00  0.00     0.123 A 
ATOM     25  F   UNL     1       2.583  -4.415   4.903  1.00  0.00    -0.207 F 
ENDBRANCH   7  19
ENDBRANCH   4   7
ENDBRANCH   2   3
ENDBRANCH   1   2
BRANCH   1  26
ATOM     26  C   UNL     1       2.140   4.779  10.359  1.00  0.00     0.023 C 
BRANCH  26  27
ATOM     27  C   UNL     1       3.321   5.668  10.733  1.00  0.00     0.116 C 
BRANCH  27  28
ATOM     28  N   UNL     1       3.391   6.887   9.943  1.00  0.00    -0.352 N 
ATOM     29  C   UNL     1       3.836   8.131  10.316  1.00  0.00     0.251 C 
ATOM     30  H   UNL     1       3.075   6.810   9.014  1.00  0.00     0.163 HD
ATOM     31  O   UNL     1       3.728   9.082   9.549  1.00  0.00    -0.269 OA
BRANCH  29  32
ATOM     32  C   UNL     1       4.410   8.331  11.663  1.00  0.00     0.039 A 
ATOM     33  C   UNL     1       3.958   9.408  12.430  1.00  0.00     0.014 A 
ATOM     34  C   UNL     1       5.378   7.460  12.170  1.00  0.00     0.014 A 
ATOM     35  C   UNL     1       4.429   9.575  13.733  1.00  0.00     0.010 A 
ATOM     36  C   UNL     1       5.804   7.594  13.489  1.00  0.00     0.010 A 
ATOM     37  C   UNL     1       5.331   8.649  14.283  1.00  0.00    -0.014 A 
BRANCH  37  38
ATOM     38  C   UNL     1       5.782   8.763  15.691  1.00  0.00     0.031 A 
ATOM     39  C   UNL     1       7.221   9.062  16.004  1.00  0.00     0.074 A 
ATOM     40  C   UNL     1       4.908   8.529  16.689  1.00  0.00     0.049 A 
ATOM     41  N   UNL     1       7.812   9.138  17.169  1.00  0.00    -0.248 NA
ATOM     42  C   UNL     1       8.117   9.281  14.857  1.00  0.00     0.031 C 
ATOM     43  C   UNL     1       3.494   8.188  16.516  1.00  0.00     0.029 A 
ATOM     44  N   UNL     1       5.086   8.534  18.049  1.00  0.00    -0.354 N 
ATOM     45  C   UNL     1       9.150   9.393  16.895  1.00  0.00     0.074 A 
ATOM     46  C   UNL     1       9.291   9.418  15.456  1.00  0.00     0.031 C 
ATOM     47  C   UNL     1       2.929   8.038  17.725  1.00  0.00     0.029 A 
ATOM     48  C   UNL     1       3.944   8.239  18.753  1.00  0.00     0.049 A 
ATOM     49  H   UNL     1       5.949   8.730  18.479  1.00  0.00     0.167 HD
ATOM     50  C   UNL     1      10.167   9.602  17.764  1.00  0.00     0.031 A 
ATOM     51  C   UNL     1       3.739   8.138  20.080  1.00  0.00     0.031 A 
ATOM     52  C   UNL     1      10.027   9.594  19.195  1.00  0.00     0.049 A 
ATOM     53  C   UNL     1       4.883   8.380  21.023  1.00  0.00     0.074 A 
ATOM     54  C   UNL     1      10.987   9.854  20.158  1.00  0.00     0.029 A 
ATOM     55  N   UNL     1       8.850   9.310  19.869  1.00  0.00    -0.354 N 
ATOM     56  N   UNL     1       6.128   8.683  20.749  1.00  0.00    -0.248 NA
ATOM     57  C   UNL     1       4.588   8.277  22.459  1.00  0.00     0.031 C 
ATOM     58  C   UNL     1      10.399   9.689  21.417  1.00  0.00     0.029 A 
ATOM     59  C   UNL     1       9.062   9.371  21.236  1.00  0.00     0.049 A 
ATOM     60  H   UNL     1       7.990   9.096  19.440  1.00  0.00     0.167 HD
ATOM     61  C   UNL     1       6.760   8.832  21.976  1.00  0.00     0.074 A 
ATOM     62  C   UNL     1       5.757   8.599  22.996  1.00  0.00     0.031 C 
ATOM     63  C   UNL     1       8.054   9.136  22.236  1.00  0.00     0.031 A 
BRANCH  50  64
ATOM     64  C   UNL     1      11.529   9.855  17.182  1.00  0.00    -0.014 A 
ATOM     65  C   UNL     1      11.829  11.065  16.537  1.00  0.00     0.009 A 
ATOM     66  C   UNL     1      12.533   8.882  17.305  1.00  0.00     0.009 A 
ATOM     67  C   UNL     1      13.097  11.281  15.994  1.00  0.00     0.001 A 
ATOM     68  C   UNL     1      13.808   9.112  16.784  1.00  0.00     0.001 A 
ATOM     69  C   UNL     1      14.086  10.307  16.121  1.00  0.00     0.000 A 
ENDBRANCH  50  64
BRANCH  51  70
ATOM     70  C   UNL     1       2.387   7.811  20.599  1.00  0.00    -0.014 A 
ATOM     71  C   UNL     1       1.612   8.798  21.227  1.00  0.00     0.009 A 
ATOM     72  C   UNL     1       1.866   6.514  20.474  1.00  0.00     0.009 A 
ATOM     73  C   UNL     1       0.351   8.487  21.741  1.00  0.00     0.001 A 
ATOM     74  C   UNL     1       0.595   6.212  20.967  1.00  0.00     0.001 A 
ATOM     75  C   UNL     1      -0.157   7.196  21.607  1.00  0.00     0.000 A 
ENDBRANCH  51  70
BRANCH  63  76
ATOM     76  C   UNL     1       8.450   9.266  23.678  1.00  0.00    -0.014 A 
ATOM     77  C   UNL     1       8.600   8.135  24.495  1.00  0.00     0.009 A 
ATOM     78  C   UNL     1       8.713  10.536  24.215  1.00  0.00     0.009 A 
ATOM     79  C   UNL     1       8.977   8.277  25.832  1.00  0.00     0.001 A 
ATOM     80  C   UNL     1       9.113  10.673  25.544  1.00  0.00     0.001 A 
ATOM     81  C   UNL     1       9.237   9.544  26.354  1.00  0.00     0.000 A 
ENDBRANCH  63  76
ENDBRANCH  37  38
ENDBRANCH  29  32
ENDBRANCH  27  28
ENDBRANCH  26  27
ENDBRANCH   1  26
TORSDOF 14
