REMARK SMILES O=C(CN1N[C@H](C(=O)NCCCCNC(=O)c2ccc(-c3c4nc(c(-c5ccccc5)c5ccc([nH]5)c(-c5ccccc5)c5nc(c(-c6ccccc6)c6ccc3[nH]6)C=C5)C=C4)cc2)c2ccccc2C1=O)C1=c2ccccc2=N[C@@H]1c1ccccc1
REMARK SMILES IDX 10 1 9 2 7 3 8 4 6 6 4 7 5 8 71 9 70 11 72 12 65 13 69 14
REMARK SMILES IDX 66 15 68 16 67 17 3 18 2 19 1 20 73 21 74 22 81 23 75 24
REMARK SMILES IDX 79 25 80 26 76 27 78 28 77 29 82 30 83 31 87 32 84 33 86 34
REMARK SMILES IDX 85 35 11 36 12 37 13 38 14 39 15 40 16 42 17 43 18 44 64 45
REMARK SMILES IDX 19 46 63 47 20 48 21 49 22 50 57 51 23 52 62 53 56 54 58 55
REMARK SMILES IDX 24 56 61 57 55 58 54 59 25 61 47 62 32 63 46 64 33 65 36 66
REMARK SMILES IDX 45 67 59 68 34 69 35 70 44 72 60 73 37 74 26 75 27 76 31 77
REMARK SMILES IDX 28 78 30 79 29 80 48 81 49 82 53 83 50 84 52 85 51 86 38 87
REMARK SMILES IDX 39 88 43 89 40 90 42 91 41 92
REMARK H PARENT 9 5 5 10 14 41 58 60 36 71
REMARK Flexibility Score: inf
ROOT
ATOM      1  C   UNL     1       6.866  -4.240  -0.963  1.00  0.00     0.116 C 
ENDROOT
BRANCH   1   2
ATOM      2  N   UNL     1       6.324  -5.276  -0.106  1.00  0.00    -0.354 N 
ATOM      3  C   UNL     1       5.014  -5.554   0.193  1.00  0.00     0.243 C 
ATOM      4  O   UNL     1       4.796  -6.532   0.918  1.00  0.00    -0.273 OA
ATOM      5  H   UNL     1       6.989  -5.864   0.321  1.00  0.00     0.163 HD
BRANCH   3   6
ATOM      6  C   UNL     1       3.840  -4.698  -0.356  1.00  0.00     0.195 C 
ATOM      7  N   UNL     1       3.577  -2.282  -0.718  1.00  0.00    -0.265 N 
ATOM      8  N   UNL     1       3.951  -3.319   0.200  1.00  0.00    -0.214 NA
ATOM      9  C   UNL     1       4.093  -2.355  -2.014  1.00  0.00     0.268 C 
ATOM     10  H   UNL     1       3.345  -3.254   1.019  1.00  0.00     0.149 HD
ATOM     11  C   UNL     1       3.873  -3.656  -2.656  1.00  0.00     0.046 A 
ATOM     12  O   UNL     1       4.593  -1.436  -2.634  1.00  0.00    -0.268 OA
ATOM     13  C   UNL     1       3.710  -4.793  -1.862  1.00  0.00    -0.007 A 
ATOM     14  C   UNL     1       3.736  -3.691  -4.045  1.00  0.00     0.014 A 
ATOM     15  C   UNL     1       3.393  -5.997  -2.502  1.00  0.00     0.007 A 
ATOM     16  C   UNL     1       3.409  -4.888  -4.663  1.00  0.00     0.001 A 
ATOM     17  C   UNL     1       3.237  -6.039  -3.893  1.00  0.00     0.000 A 
BRANCH   7  18
ATOM     18  C   UNL     1       3.276  -0.949  -0.211  1.00  0.00     0.220 C 
BRANCH  18  19
ATOM     19  C   UNL     1       2.526  -0.162  -1.320  1.00  0.00     0.183 C 
ATOM     20  O   UNL     1       1.598  -0.667  -1.958  1.00  0.00    -0.292 OA
BRANCH  19  21
ATOM     21  C   UNL     1       2.913   1.266  -1.597  1.00  0.00     0.035 C 
ATOM     22  C   UNL     1       4.201   1.589  -1.510  1.00  0.00     0.009 A 
ATOM     23  C   UNL     1       2.191   2.291  -0.778  1.00  0.00     0.170 C 
ATOM     24  C   UNL     1       5.358   1.404  -2.315  1.00  0.00     0.011 A 
ATOM     25  C   UNL     1       4.254   2.230  -0.177  1.00  0.00     0.066 A 
ATOM     26  N   UNL     1       3.109   2.527   0.382  1.00  0.00    -0.272 NA
ATOM     27  C   UNL     1       6.550   1.734  -1.795  1.00  0.00     0.001 A 
ATOM     28  C   UNL     1       5.614   2.329   0.406  1.00  0.00     0.028 A 
ATOM     29  C   UNL     1       6.675   2.088  -0.389  1.00  0.00     0.002 A 
BRANCH  23  30
ATOM     30  C   UNL     1       0.716   2.057  -0.591  1.00  0.00    -0.019 A 
ATOM     31  C   UNL     1       0.087   2.030   0.650  1.00  0.00     0.006 A 
ATOM     32  C   UNL     1      -0.073   1.905  -1.756  1.00  0.00     0.006 A 
ATOM     33  C   UNL     1      -1.296   1.823   0.722  1.00  0.00     0.000 A 
ATOM     34  C   UNL     1      -1.444   1.686  -1.683  1.00  0.00     0.000 A 
ATOM     35  C   UNL     1      -2.056   1.644  -0.438  1.00  0.00     0.000 A 
ENDBRANCH  23  30
ENDBRANCH  19  21
ENDBRANCH  18  19
ENDBRANCH   7  18
ENDBRANCH   3   6
ENDBRANCH   1   2
BRANCH   1  36
ATOM     36  C   UNL     1       7.991  -3.443  -0.312  1.00  0.00     0.023 C 
BRANCH  36  37
ATOM     37  C   UNL     1       9.283  -4.217  -0.086  1.00  0.00     0.023 C 
BRANCH  37  38
ATOM     38  C   UNL     1       9.874  -4.870  -1.327  1.00  0.00     0.116 C 
BRANCH  38  39
ATOM     39  N   UNL     1      10.258  -3.925  -2.369  1.00  0.00    -0.352 N 
ATOM     40  C   UNL     1      11.403  -3.926  -3.138  1.00  0.00     0.251 C 
ATOM     41  H   UNL     1       9.621  -3.196  -2.546  1.00  0.00     0.163 HD
ATOM     42  O   UNL     1      11.640  -3.015  -3.922  1.00  0.00    -0.269 OA
BRANCH  40  43
ATOM     43  C   UNL     1      12.372  -5.028  -2.960  1.00  0.00     0.039 A 
ATOM     44  C   UNL     1      11.928  -6.351  -2.954  1.00  0.00     0.014 A 
ATOM     45  C   UNL     1      13.710  -4.727  -2.693  1.00  0.00     0.014 A 
ATOM     46  C   UNL     1      12.771  -7.347  -2.482  1.00  0.00     0.010 A 
ATOM     47  C   UNL     1      14.584  -5.751  -2.315  1.00  0.00     0.010 A 
ATOM     48  C   UNL     1      14.107  -7.059  -2.148  1.00  0.00    -0.014 A 
BRANCH  48  49
ATOM     49  C   UNL     1      14.969  -8.155  -1.635  1.00  0.00     0.031 A 
ATOM     50  C   UNL     1      15.513  -8.135  -0.232  1.00  0.00     0.074 A 
ATOM     51  C   UNL     1      15.190  -9.224  -2.425  1.00  0.00     0.049 A 
ATOM     52  N   UNL     1      16.192  -9.063   0.397  1.00  0.00    -0.248 NA
ATOM     53  C   UNL     1      15.275  -6.924   0.569  1.00  0.00     0.031 C 
ATOM     54  C   UNL     1      14.706  -9.364  -3.800  1.00  0.00     0.029 A 
ATOM     55  N   UNL     1      15.830 -10.410  -2.173  1.00  0.00    -0.354 N 
ATOM     56  C   UNL     1      16.481  -8.541   1.652  1.00  0.00     0.074 A 
ATOM     57  C   UNL     1      15.925  -7.206   1.691  1.00  0.00     0.031 C 
ATOM     58  C   UNL     1      14.988 -10.598  -4.239  1.00  0.00     0.029 A 
ATOM     59  C   UNL     1      15.733 -11.310  -3.207  1.00  0.00     0.049 A 
ATOM     60  H   UNL     1      16.311 -10.599  -1.335  1.00  0.00     0.167 HD
ATOM     61  C   UNL     1      17.143  -9.125   2.679  1.00  0.00     0.031 A 
ATOM     62  C   UNL     1      16.189 -12.571  -3.320  1.00  0.00     0.031 A 
ATOM     63  C   UNL     1      17.680 -10.461   2.645  1.00  0.00     0.049 A 
ATOM     64  C   UNL     1      16.946 -13.183  -2.180  1.00  0.00     0.074 A 
ATOM     65  C   UNL     1      18.320 -11.154   3.659  1.00  0.00     0.029 A 
ATOM     66  N   UNL     1      17.644 -11.303   1.545  1.00  0.00    -0.354 N 
ATOM     67  N   UNL     1      17.190 -12.683  -0.994  1.00  0.00    -0.248 NA
ATOM     68  C   UNL     1      17.499 -14.526  -2.398  1.00  0.00     0.031 C 
ATOM     69  C   UNL     1      18.729 -12.390   3.151  1.00  0.00     0.029 A 
ATOM     70  C   UNL     1      18.288 -12.493   1.842  1.00  0.00     0.049 A 
ATOM     71  H   UNL     1      17.224 -11.087   0.681  1.00  0.00     0.167 HD
ATOM     72  C   UNL     1      17.929 -13.646  -0.323  1.00  0.00     0.074 A 
ATOM     73  C   UNL     1      18.069 -14.772  -1.225  1.00  0.00     0.031 C 
ATOM     74  C   UNL     1      18.449 -13.595   0.927  1.00  0.00     0.031 A 
BRANCH  61  75
ATOM     75  C   UNL     1      17.354  -8.320   3.933  1.00  0.00    -0.014 A 
ATOM     76  C   UNL     1      18.650  -7.900   4.277  1.00  0.00     0.009 A 
ATOM     77  C   UNL     1      16.298  -8.048   4.816  1.00  0.00     0.009 A 
ATOM     78  C   UNL     1      18.885  -7.232   5.480  1.00  0.00     0.001 A 
ATOM     79  C   UNL     1      16.532  -7.355   6.006  1.00  0.00     0.001 A 
ATOM     80  C   UNL     1      17.825  -6.955   6.341  1.00  0.00     0.000 A 
ENDBRANCH  61  75
BRANCH  62  81
ATOM     81  C   UNL     1      15.914 -13.325  -4.569  1.00  0.00    -0.014 A 
ATOM     82  C   UNL     1      16.528 -12.952  -5.776  1.00  0.00     0.009 A 
ATOM     83  C   UNL     1      14.969 -14.361  -4.578  1.00  0.00     0.009 A 
ATOM     84  C   UNL     1      16.171 -13.574  -6.974  1.00  0.00     0.001 A 
ATOM     85  C   UNL     1      14.636 -15.000  -5.774  1.00  0.00     0.001 A 
ATOM     86  C   UNL     1      15.226 -14.598  -6.971  1.00  0.00     0.000 A 
ENDBRANCH  62  81
BRANCH  74  87
ATOM     87  C   UNL     1      19.242 -14.781   1.397  1.00  0.00    -0.014 A 
ATOM     88  C   UNL     1      18.730 -15.616   2.402  1.00  0.00     0.009 A 
ATOM     89  C   UNL     1      20.532 -15.025   0.901  1.00  0.00     0.009 A 
ATOM     90  C   UNL     1      19.497 -16.665   2.910  1.00  0.00     0.001 A 
ATOM     91  C   UNL     1      21.287 -16.093   1.392  1.00  0.00     0.001 A 
ATOM     92  C   UNL     1      20.772 -16.906   2.401  1.00  0.00     0.000 A 
ENDBRANCH  74  87
ENDBRANCH  48  49
ENDBRANCH  40  43
ENDBRANCH  38  39
ENDBRANCH  37  38
ENDBRANCH  36  37
ENDBRANCH   1  36
TORSDOF 15
