REMARK SMILES Cc1cc(C)c2c(O[C@@H](C)C(=O)NCCCCNC(=O)c3ccc(-c4c5nc(c(-c6ccccc6)c6ccc([nH]6)c(-c6ccccc6)c6nc(c(-c7ccccc7)c7ccc4[nH]7)C=C6)C=C5)cc3)nsc2n1
REMARK SMILES IDX 15 1 14 2 13 3 11 4 12 5 9 7 10 8 8 9 7 10 1 11 2 12 3 13
REMARK SMILES IDX 72 14 4 15 71 16 5 17 6 18 70 19 69 20 16 21 17 22 18 23
REMARK SMILES IDX 19 24 20 26 21 27 22 28 68 29 23 30 67 31 24 32 25 33 26 34
REMARK SMILES IDX 61 35 27 36 66 37 60 38 62 39 28 40 65 41 59 42 58 43 29 45
REMARK SMILES IDX 51 46 36 47 50 48 37 49 40 50 49 51 63 52 38 53 39 54 48 56
REMARK SMILES IDX 64 57 41 58 30 59 31 60 35 61 32 62 34 63 33 64 52 65 53 66
REMARK SMILES IDX 57 67 54 68 56 69 55 70 42 71 43 72 47 73 44 74 46 75 45 76
REMARK H PARENT 13 6 18 25 62 44 40 55
REMARK Flexibility Score: inf
ROOT
ATOM      1  C   UNL     1      -2.581   1.635  -2.866  1.00  0.00     0.023 C 
ENDROOT
BRANCH   1   2
ATOM      2  C   UNL     1      -2.367   0.195  -3.343  1.00  0.00     0.116 C 
BRANCH   2   3
ATOM      3  N   UNL     1      -3.089  -0.209  -4.529  1.00  0.00    -0.353 N 
ATOM      4  C   UNL     1      -2.563  -0.873  -5.606  1.00  0.00     0.260 C 
ATOM      5  O   UNL     1      -3.198  -1.848  -6.023  1.00  0.00    -0.271 OA
ATOM      6  H   UNL     1      -4.048   0.014  -4.566  1.00  0.00     0.163 HD
BRANCH   4   7
ATOM      7  C   UNL     1      -1.322  -0.339  -6.389  1.00  0.00     0.260 C 
ATOM      8  C   UNL     1      -0.413  -1.395  -7.029  1.00  0.00     0.064 C 
BRANCH   7   9
ATOM      9  O   UNL     1      -0.679   0.868  -6.131  1.00  0.00    -0.463 OA
BRANCH   9  10
ATOM     10  C   UNL     1       0.338   1.061  -5.265  1.00  0.00     0.235 A 
ATOM     11  C   UNL     1       2.889  -0.254  -0.366  1.00  0.00     0.067 C 
ATOM     12  C   UNL     1       2.278  -0.101  -1.727  1.00  0.00     0.039 A 
ATOM     13  C   UNL     1       1.659  -1.168  -2.357  1.00  0.00     0.027 A 
ATOM     14  N   UNL     1       2.353   1.113  -2.272  1.00  0.00    -0.240 NA
ATOM     15  C   UNL     1       0.968  -1.003  -3.583  1.00  0.00    -0.034 A 
ATOM     16  C   UNL     1       1.724   1.254  -3.450  1.00  0.00     0.147 A 
ATOM     17  C   UNL     1       0.318  -2.261  -4.101  1.00  0.00     0.045 C 
ATOM     18  C   UNL     1       0.972   0.310  -4.170  1.00  0.00     0.078 A 
ATOM     19  S   UNL     1       1.761   2.753  -4.241  1.00  0.00    -0.012 S 
ATOM     20  N   UNL     1       0.739   2.320  -5.441  1.00  0.00    -0.153 NA
ENDBRANCH   9  10
ENDBRANCH   7   9
ENDBRANCH   4   7
ENDBRANCH   2   3
ENDBRANCH   1   2
BRANCH   1  21
ATOM     21  C   UNL     1      -3.041   1.740  -1.397  1.00  0.00     0.023 C 
BRANCH  21  22
ATOM     22  C   UNL     1      -2.130   1.044  -0.385  1.00  0.00     0.116 C 
BRANCH  22  23
ATOM     23  N   UNL     1      -1.058   1.855   0.171  1.00  0.00    -0.352 N 
ATOM     24  C   UNL     1      -0.237   1.539   1.246  1.00  0.00     0.251 C 
ATOM     25  H   UNL     1      -0.896   2.725  -0.262  1.00  0.00     0.163 HD
ATOM     26  O   UNL     1       0.422   2.396   1.810  1.00  0.00    -0.269 OA
BRANCH  24  27
ATOM     27  C   UNL     1      -0.161   0.131   1.715  1.00  0.00     0.039 A 
ATOM     28  C   UNL     1      -0.056  -0.176   3.074  1.00  0.00     0.014 A 
ATOM     29  C   UNL     1      -0.166  -0.897   0.775  1.00  0.00     0.014 A 
ATOM     30  C   UNL     1      -0.063  -1.515   3.474  1.00  0.00     0.010 A 
ATOM     31  C   UNL     1      -0.243  -2.214   1.161  1.00  0.00     0.010 A 
ATOM     32  C   UNL     1      -0.187  -2.530   2.512  1.00  0.00    -0.014 A 
BRANCH  32  33
ATOM     33  C   UNL     1      -0.481  -3.904   2.905  1.00  0.00     0.031 A 
ATOM     34  C   UNL     1      -1.746  -4.073   3.680  1.00  0.00     0.074 A 
ATOM     35  C   UNL     1       0.129  -4.985   2.376  1.00  0.00     0.049 A 
ATOM     36  N   UNL     1      -1.884  -4.567   4.865  1.00  0.00    -0.248 NA
ATOM     37  C   UNL     1      -2.997  -3.558   3.099  1.00  0.00     0.031 C 
ATOM     38  C   UNL     1       1.156  -5.036   1.331  1.00  0.00     0.029 A 
ATOM     39  N   UNL     1      -0.165  -6.299   2.576  1.00  0.00    -0.354 N 
ATOM     40  C   UNL     1      -3.249  -4.555   5.141  1.00  0.00     0.074 A 
ATOM     41  C   UNL     1      -3.873  -3.814   4.073  1.00  0.00     0.031 C 
ATOM     42  C   UNL     1       1.219  -6.290   0.828  1.00  0.00     0.029 A 
ATOM     43  C   UNL     1       0.355  -7.154   1.615  1.00  0.00     0.049 A 
ATOM     44  H   UNL     1      -0.702  -6.616   3.338  1.00  0.00     0.167 HD
ATOM     45  C   UNL     1      -3.790  -5.307   6.140  1.00  0.00     0.031 A 
ATOM     46  C   UNL     1       0.061  -8.468   1.456  1.00  0.00     0.031 A 
ATOM     47  C   UNL     1      -2.781  -5.838   7.016  1.00  0.00     0.049 A 
ATOM     48  C   UNL     1      -0.515  -8.951   2.734  1.00  0.00     0.074 A 
ATOM     49  C   UNL     1      -1.821  -5.282   7.837  1.00  0.00     0.029 A 
ATOM     50  N   UNL     1      -2.399  -7.145   6.820  1.00  0.00    -0.354 N 
ATOM     51  N   UNL     1       0.174  -9.048   3.834  1.00  0.00    -0.248 NA
ATOM     52  C   UNL     1      -1.959  -8.908   2.905  1.00  0.00     0.031 C 
ATOM     53  C   UNL     1      -0.675  -6.112   7.664  1.00  0.00     0.029 A 
ATOM     54  C   UNL     1      -1.028  -7.158   6.809  1.00  0.00     0.049 A 
ATOM     55  H   UNL     1      -2.995  -7.921   6.710  1.00  0.00     0.167 HD
ATOM     56  C   UNL     1      -0.694  -8.630   4.832  1.00  0.00     0.074 A 
ATOM     57  C   UNL     1      -2.021  -8.669   4.219  1.00  0.00     0.031 C 
ATOM     58  C   UNL     1      -0.231  -8.016   5.961  1.00  0.00     0.031 A 
BRANCH  45  59
ATOM     59  C   UNL     1      -5.193  -5.852   6.138  1.00  0.00    -0.014 A 
ATOM     60  C   UNL     1      -5.663  -6.519   7.285  1.00  0.00     0.009 A 
ATOM     61  C   UNL     1      -5.966  -5.976   4.970  1.00  0.00     0.009 A 
ATOM     62  C   UNL     1      -6.809  -7.322   7.243  1.00  0.00     0.001 A 
ATOM     63  C   UNL     1      -7.134  -6.743   4.936  1.00  0.00     0.001 A 
ATOM     64  C   UNL     1      -7.540  -7.439   6.066  1.00  0.00     0.000 A 
ENDBRANCH  45  59
BRANCH  46  65
ATOM     65  C   UNL     1       0.047  -9.280   0.221  1.00  0.00    -0.014 A 
ATOM     66  C   UNL     1       0.043 -10.683   0.280  1.00  0.00     0.009 A 
ATOM     67  C   UNL     1      -0.223  -8.678  -1.022  1.00  0.00     0.009 A 
ATOM     68  C   UNL     1      -0.260 -11.451  -0.853  1.00  0.00     0.001 A 
ATOM     69  C   UNL     1      -0.521  -9.444  -2.154  1.00  0.00     0.001 A 
ATOM     70  C   UNL     1      -0.555 -10.831  -2.065  1.00  0.00     0.000 A 
ENDBRANCH  46  65
BRANCH  58  71
ATOM     71  C   UNL     1       1.262  -7.969   6.189  1.00  0.00    -0.014 A 
ATOM     72  C   UNL     1       2.149  -7.344   5.293  1.00  0.00     0.009 A 
ATOM     73  C   UNL     1       1.762  -8.390   7.429  1.00  0.00     0.009 A 
ATOM     74  C   UNL     1       3.497  -7.165   5.622  1.00  0.00     0.001 A 
ATOM     75  C   UNL     1       3.103  -8.191   7.767  1.00  0.00     0.001 A 
ATOM     76  C   UNL     1       3.971  -7.581   6.863  1.00  0.00     0.000 A 
ENDBRANCH  58  71
ENDBRANCH  32  33
ENDBRANCH  24  27
ENDBRANCH  22  23
ENDBRANCH  21  22
ENDBRANCH   1  21
TORSDOF 13
