REMARK SMILES Cc1nc2nc(CNC(=O)OC(C)(C)C)nn2c(C)c1CCC(=O)NCCCCNC(=O)c1ccc(-c2c3nc(c(-c4ccccc4)c4ccc([nH]4)c(-c4ccccc4)c4nc(c(-c5ccccc5)c5ccc2[nH]5)C=C4)C=C3)cc1
REMARK SMILES IDX 23 1 24 2 25 3 22 5 21 6 20 7 1 8 2 9 3 10 4 11 18 12 5 13
REMARK SMILES IDX 17 14 19 15 6 16 16 17 7 18 8 19 9 20 10 22 11 23 12 24
REMARK SMILES IDX 13 25 14 26 15 27 26 28 27 29 28 30 29 31 30 32 31 33 32 35
REMARK SMILES IDX 33 36 34 37 80 38 35 39 79 40 36 41 37 42 38 43 73 44 39 45
REMARK SMILES IDX 78 46 72 47 74 48 40 49 77 50 71 51 70 52 41 54 63 55 48 56
REMARK SMILES IDX 62 57 49 58 52 59 61 60 75 61 50 62 51 63 60 65 76 66 53 67
REMARK SMILES IDX 42 68 43 69 47 70 44 71 46 72 45 73 64 74 65 75 69 76 66 77
REMARK SMILES IDX 68 78 67 79 54 80 55 81 59 82 56 83 58 84 57 85
REMARK H PARENT 25 4 8 21 30 34 74 53 52 64
REMARK Flexibility Score: inf
ROOT
ATOM      1  C   UNL     1      -2.466  -0.199  -3.605  1.00  0.00     0.220 C 
ATOM      2  O   UNL     1      -2.574  -0.987  -4.545  1.00  0.00    -0.275 OA
ATOM      3  N   UNL     1      -3.167   0.977  -3.659  1.00  0.00    -0.356 N 
ATOM      4  H   UNL     1      -3.881   1.022  -4.335  1.00  0.00     0.163 HD
ENDROOT
BRANCH   1   5
ATOM      5  C   UNL     1      -1.592  -0.531  -2.396  1.00  0.00     0.105 C 
BRANCH   5   6
ATOM      6  C   UNL     1      -0.098  -0.755  -2.735  1.00  0.00     0.049 C 
BRANCH   6   7
ATOM      7  C   UNL     1       0.776   0.487  -2.614  1.00  0.00    -0.005 A 
ATOM      8  C   UNL     1       0.898   0.236   0.001  1.00  0.00     0.067 C 
ATOM      9  C   UNL     1       1.044   1.093  -1.243  1.00  0.00     0.046 A 
ATOM     10  N   UNL     1       1.463   2.307  -1.035  1.00  0.00    -0.216 NA
ATOM     11  C   UNL     1       1.710   3.078  -2.126  1.00  0.00     0.252 A 
ATOM     12  C   UNL     1       1.265   1.218  -3.655  1.00  0.00     0.048 A 
ATOM     13  N   UNL     1       1.841   4.385  -2.204  1.00  0.00    -0.192 NA
ATOM     14  N   UNL     1       1.731   2.536  -3.414  1.00  0.00    -0.201 N 
ATOM     15  C   UNL     1       1.119   0.811  -5.096  1.00  0.00     0.067 C 
ATOM     16  C   UNL     1       2.064   4.634  -3.535  1.00  0.00     0.172 A 
ATOM     17  N   UNL     1       2.036   3.533  -4.307  1.00  0.00    -0.148 NA
BRANCH  16  18
ATOM     18  C   UNL     1       2.163   6.053  -4.077  1.00  0.00     0.199 C 
BRANCH  18  19
ATOM     19  N   UNL     1       1.199   6.907  -3.408  1.00  0.00    -0.314 N 
ATOM     20  C   UNL     1       1.079   8.246  -3.283  1.00  0.00     0.408 C 
ATOM     21  H   UNL     1       0.486   6.406  -2.950  1.00  0.00     0.167 HD
ATOM     22  O   UNL     1       0.078   8.724  -2.768  1.00  0.00    -0.225 OA
BRANCH  20  23
ATOM     23  O   UNL     1       2.124   8.965  -3.742  1.00  0.00    -0.444 OA
BRANCH  23  24
ATOM     24  C   UNL     1       2.136  10.389  -3.432  1.00  0.00     0.106 C 
ATOM     25  C   UNL     1       1.000  11.153  -4.134  1.00  0.00     0.056 C 
ATOM     26  C   UNL     1       2.111  10.642  -1.912  1.00  0.00     0.056 C 
ATOM     27  C   UNL     1       3.475  10.888  -3.984  1.00  0.00     0.056 C 
ENDBRANCH  23  24
ENDBRANCH  20  23
ENDBRANCH  18  19
ENDBRANCH  16  18
ENDBRANCH   6   7
ENDBRANCH   5   6
ENDBRANCH   1   5
BRANCH   3  28
ATOM     28  C   UNL     1      -2.989   2.166  -2.841  1.00  0.00     0.116 C 
BRANCH  28  29
ATOM     29  C   UNL     1      -1.627   2.769  -3.128  1.00  0.00     0.023 C 
BRANCH  29  30
ATOM     30  C   UNL     1      -1.518   3.818  -4.226  1.00  0.00     0.023 C 
BRANCH  30  31
ATOM     31  C   UNL     1      -1.678   5.247  -3.745  1.00  0.00     0.116 C 
BRANCH  31  32
ATOM     32  N   UNL     1      -1.070   5.526  -2.428  1.00  0.00    -0.352 N 
ATOM     33  C   UNL     1      -1.462   6.497  -1.506  1.00  0.00     0.251 C 
ATOM     34  H   UNL     1      -0.303   4.964  -2.173  1.00  0.00     0.163 HD
ATOM     35  O   UNL     1      -0.822   6.772  -0.513  1.00  0.00    -0.269 OA
BRANCH  33  36
ATOM     36  C   UNL     1      -2.798   7.042  -1.740  1.00  0.00     0.039 A 
ATOM     37  C   UNL     1      -3.034   8.308  -2.284  1.00  0.00     0.014 A 
ATOM     38  C   UNL     1      -3.746   6.031  -1.748  1.00  0.00     0.014 A 
ATOM     39  C   UNL     1      -4.262   8.541  -2.898  1.00  0.00     0.010 A 
ATOM     40  C   UNL     1      -4.808   6.196  -2.584  1.00  0.00     0.010 A 
ATOM     41  C   UNL     1      -5.146   7.468  -3.051  1.00  0.00    -0.014 A 
BRANCH  41  42
ATOM     42  C   UNL     1      -6.467   7.598  -3.647  1.00  0.00     0.031 A 
ATOM     43  C   UNL     1      -6.607   8.276  -4.959  1.00  0.00     0.074 A 
ATOM     44  C   UNL     1      -7.517   6.965  -3.078  1.00  0.00     0.049 A 
ATOM     45  N   UNL     1      -7.208   9.399  -5.178  1.00  0.00    -0.248 NA
ATOM     46  C   UNL     1      -6.002   7.683  -6.159  1.00  0.00     0.031 C 
ATOM     47  C   UNL     1      -7.529   6.082  -1.893  1.00  0.00     0.029 A 
ATOM     48  N   UNL     1      -8.793   6.870  -3.523  1.00  0.00    -0.354 N 
ATOM     49  C   UNL     1      -7.231   9.575  -6.557  1.00  0.00     0.074 A 
ATOM     50  C   UNL     1      -6.359   8.562  -7.102  1.00  0.00     0.031 C 
ATOM     51  C   UNL     1      -8.646   5.333  -1.892  1.00  0.00     0.029 A 
ATOM     52  C   UNL     1      -9.527   5.877  -2.898  1.00  0.00     0.049 A 
ATOM     53  H   UNL     1      -9.163   7.453  -4.224  1.00  0.00     0.167 HD
ATOM     54  C   UNL     1      -8.141  10.401  -7.149  1.00  0.00     0.031 A 
ATOM     55  C   UNL     1     -10.815   5.547  -3.114  1.00  0.00     0.031 A 
ATOM     56  C   UNL     1      -8.801  11.244  -6.184  1.00  0.00     0.049 A 
ATOM     57  C   UNL     1     -11.466   6.753  -3.663  1.00  0.00     0.074 A 
ATOM     58  C   UNL     1      -8.390  12.212  -5.291  1.00  0.00     0.029 A 
ATOM     59  N   UNL     1     -10.051  10.848  -5.768  1.00  0.00    -0.354 N 
ATOM     60  N   UNL     1     -11.596   7.859  -2.982  1.00  0.00    -0.248 NA
ATOM     61  C   UNL     1     -11.573   6.895  -5.104  1.00  0.00     0.031 C 
ATOM     62  C   UNL     1      -9.197  12.007  -4.132  1.00  0.00     0.029 A 
ATOM     63  C   UNL     1     -10.096  10.971  -4.403  1.00  0.00     0.049 A 
ATOM     64  H   UNL     1     -10.782  10.534  -6.346  1.00  0.00     0.167 HD
ATOM     65  C   UNL     1     -11.361   8.872  -3.902  1.00  0.00     0.074 A 
ATOM     66  C   UNL     1     -11.497   8.226  -5.206  1.00  0.00     0.031 C 
ATOM     67  C   UNL     1     -10.807  10.063  -3.522  1.00  0.00     0.031 A 
BRANCH  54  68
ATOM     68  C   UNL     1      -8.714  10.198  -8.530  1.00  0.00    -0.014 A 
ATOM     69  C   UNL     1      -9.584  11.172  -9.057  1.00  0.00     0.009 A 
ATOM     70  C   UNL     1      -8.651   8.972  -9.216  1.00  0.00     0.009 A 
ATOM     71  C   UNL     1     -10.389  10.909 -10.174  1.00  0.00     0.001 A 
ATOM     72  C   UNL     1      -9.423   8.720 -10.355  1.00  0.00     0.001 A 
ATOM     73  C   UNL     1     -10.312   9.679 -10.819  1.00  0.00     0.000 A 
ENDBRANCH  54  68
BRANCH  55  74
ATOM     74  C   UNL     1     -11.420   4.213  -2.994  1.00  0.00    -0.014 A 
ATOM     75  C   UNL     1     -12.797   4.054  -2.823  1.00  0.00     0.009 A 
ATOM     76  C   UNL     1     -10.648   3.067  -3.277  1.00  0.00     0.009 A 
ATOM     77  C   UNL     1     -13.391   2.796  -2.974  1.00  0.00     0.001 A 
ATOM     78  C   UNL     1     -11.240   1.810  -3.426  1.00  0.00     0.001 A 
ATOM     79  C   UNL     1     -12.617   1.680  -3.292  1.00  0.00     0.000 A 
ENDBRANCH  55  74
BRANCH  67  80
ATOM     80  C   UNL     1     -10.669  10.345  -2.041  1.00  0.00    -0.014 A 
ATOM     81  C   UNL     1      -9.817   9.601  -1.205  1.00  0.00     0.009 A 
ATOM     82  C   UNL     1     -11.256  11.506  -1.519  1.00  0.00     0.009 A 
ATOM     83  C   UNL     1      -9.569  10.002   0.113  1.00  0.00     0.001 A 
ATOM     84  C   UNL     1     -10.995  11.917  -0.208  1.00  0.00     0.001 A 
ATOM     85  C   UNL     1     -10.152  11.165   0.608  1.00  0.00     0.000 A 
ENDBRANCH  67  80
ENDBRANCH  41  42
ENDBRANCH  33  36
ENDBRANCH  31  32
ENDBRANCH  30  31
ENDBRANCH  29  30
ENDBRANCH  28  29
ENDBRANCH   3  28
TORSDOF 17
