REMARK SMILES CCCCCCNC(=O)Oc1cccc(-c2ccc([C@@H](C)C(=O)NCCCCNC(=O)c3ccc(-c4c5nc(c(-c6ccccc6)c6ccc([nH]6)c(-c6ccccc6)c6nc(c(-c7ccccc7)c7ccc4[nH]7)C=C6)C=C5)cc3)cc2N)c1
REMARK SMILES IDX 20 1 21 2 19 3 16 4 17 5 81 6 18 7 80 8 15 9 11 10 12 11
REMARK SMILES IDX 83 12 13 13 14 14 10 15 8 16 7 17 9 19 6 20 5 21 4 22 3 23
REMARK SMILES IDX 2 24 1 25 82 26 22 29 23 30 24 31 25 33 26 34 27 35 28 36
REMARK SMILES IDX 29 37 30 38 31 40 32 41 33 42 79 43 34 44 78 45 35 46 36 47
REMARK SMILES IDX 37 48 72 49 38 50 77 51 71 52 73 53 39 54 76 55 70 56 69 57
REMARK SMILES IDX 40 59 62 60 47 61 61 62 48 63 51 64 60 65 74 66 49 67 50 68
REMARK SMILES IDX 59 70 75 71 52 72 41 73 42 74 46 75 43 76 45 77 44 78 63 79
REMARK SMILES IDX 64 80 68 81 65 82 67 83 66 84 53 85 54 86 58 87 55 88 57 89
REMARK SMILES IDX 56 90
REMARK H PARENT 7 18 82 27 82 28 24 32 29 39 73 58 51 69
REMARK Flexibility Score: inf
ROOT
ATOM      1  C   UNL     1      -5.144   9.622   9.499  1.00  0.00     0.105 C 
ATOM      2  C   UNL     1      -6.420  10.266  10.041  1.00  0.00     0.023 C 
ENDROOT
BRANCH   1   3
ATOM      3  C   UNL     1      -5.307   8.219   8.935  1.00  0.00    -0.034 A 
ATOM      4  C   UNL     1      -5.392   5.554   7.895  1.00  0.00     0.005 A 
ATOM      5  C   UNL     1      -6.005   5.905   9.113  1.00  0.00     0.011 A 
ATOM      6  C   UNL     1      -4.821   6.604   7.138  1.00  0.00     0.040 A 
ATOM      7  C   UNL     1      -6.019   7.218   9.590  1.00  0.00     0.005 A 
ATOM      8  C   UNL     1      -4.712   7.889   7.707  1.00  0.00     0.030 A 
BRANCH   4   9
ATOM      9  C   UNL     1      -5.402   4.125   7.475  1.00  0.00    -0.013 A 
ATOM     10  C   UNL     1      -4.345   2.180   6.461  1.00  0.00     0.133 A 
ATOM     11  C   UNL     1      -5.480   1.404   6.678  1.00  0.00     0.047 A 
ATOM     12  C   UNL     1      -4.287   3.514   6.872  1.00  0.00     0.056 A 
ATOM     13  C   UNL     1      -6.577   1.973   7.310  1.00  0.00     0.004 A 
ATOM     14  C   UNL     1      -6.542   3.320   7.685  1.00  0.00     0.009 A 
BRANCH  10  15
ATOM     15  O   UNL     1      -3.349   1.603   5.652  1.00  0.00    -0.410 OA
BRANCH  15  16
ATOM     16  C   UNL     1      -2.009   1.710   5.986  1.00  0.00     0.412 C 
ATOM     17  N   UNL     1      -1.183   1.238   5.000  1.00  0.00    -0.321 N 
ATOM     18  H   UNL     1      -0.217   1.256   5.186  1.00  0.00     0.167 HD
ATOM     19  O   UNL     1      -1.561   2.153   7.035  1.00  0.00    -0.224 OA
BRANCH  17  20
ATOM     20  C   UNL     1      -1.590   0.715   3.710  1.00  0.00     0.119 C 
BRANCH  20  21
ATOM     21  C   UNL     1      -1.004   1.524   2.552  1.00  0.00     0.021 C 
BRANCH  21  22
ATOM     22  C   UNL     1       0.524   1.472   2.438  1.00  0.00     0.002 C 
BRANCH  22  23
ATOM     23  C   UNL     1       1.127   0.071   2.283  1.00  0.00    -0.000 C 
BRANCH  23  24
ATOM     24  C   UNL     1       0.631  -0.728   1.075  1.00  0.00    -0.003 C 
ATOM     25  C   UNL     1       0.983  -0.085  -0.257  1.00  0.00     0.004 C 
ENDBRANCH  23  24
ENDBRANCH  22  23
ENDBRANCH  21  22
ENDBRANCH  20  21
ENDBRANCH  17  20
ENDBRANCH  15  16
ENDBRANCH  10  15
ENDBRANCH   4   9
BRANCH   6  26
ATOM     26  N   UNL     1      -4.258   6.406   5.875  1.00  0.00    -0.398 N 
ATOM     27  H   UNL     1      -4.314   5.522   5.444  1.00  0.00     0.156 HD
ATOM     28  H   UNL     1      -3.806   7.150   5.415  1.00  0.00     0.156 HD
ENDBRANCH   6  26
ENDBRANCH   1   3
BRANCH   1  29
ATOM     29  C   UNL     1      -3.920   9.796  10.413  1.00  0.00     0.227 C 
ATOM     30  O   UNL     1      -2.937  10.431  10.011  1.00  0.00    -0.274 OA
ATOM     31  N   UNL     1      -3.842   9.313  11.684  1.00  0.00    -0.356 N 
ATOM     32  H   UNL     1      -3.027   9.579  12.168  1.00  0.00     0.163 HD
BRANCH  31  33
ATOM     33  C   UNL     1      -4.742   8.480  12.451  1.00  0.00     0.116 C 
BRANCH  33  34
ATOM     34  C   UNL     1      -4.373   6.999  12.358  1.00  0.00     0.023 C 
BRANCH  34  35
ATOM     35  C   UNL     1      -3.360   6.519  13.393  1.00  0.00     0.023 C 
BRANCH  35  36
ATOM     36  C   UNL     1      -3.812   6.639  14.842  1.00  0.00     0.116 C 
BRANCH  36  37
ATOM     37  N   UNL     1      -5.053   5.938  15.144  1.00  0.00    -0.352 N 
ATOM     38  C   UNL     1      -5.427   5.356  16.334  1.00  0.00     0.251 C 
ATOM     39  H   UNL     1      -5.702   5.872  14.407  1.00  0.00     0.163 HD
ATOM     40  O   UNL     1      -6.480   4.735  16.429  1.00  0.00    -0.269 OA
BRANCH  38  41
ATOM     41  C   UNL     1      -4.509   5.448  17.486  1.00  0.00     0.039 A 
ATOM     42  C   UNL     1      -4.126   4.276  18.141  1.00  0.00     0.014 A 
ATOM     43  C   UNL     1      -3.963   6.680  17.855  1.00  0.00     0.014 A 
ATOM     44  C   UNL     1      -3.129   4.330  19.116  1.00  0.00     0.010 A 
ATOM     45  C   UNL     1      -2.912   6.718  18.763  1.00  0.00     0.010 A 
ATOM     46  C   UNL     1      -2.483   5.544  19.400  1.00  0.00    -0.014 A 
BRANCH  46  47
ATOM     47  C   UNL     1      -1.356   5.614  20.361  1.00  0.00     0.031 A 
ATOM     48  C   UNL     1      -1.490   6.428  21.617  1.00  0.00     0.074 A 
ATOM     49  C   UNL     1      -0.188   5.009  20.070  1.00  0.00     0.049 A 
ATOM     50  N   UNL     1      -0.602   6.664  22.548  1.00  0.00    -0.248 NA
ATOM     51  C   UNL     1      -2.787   7.088  21.840  1.00  0.00     0.031 C 
ATOM     52  C   UNL     1       0.086   4.225  18.863  1.00  0.00     0.029 A 
ATOM     53  N   UNL     1       0.990   4.962  20.771  1.00  0.00    -0.354 N 
ATOM     54  C   UNL     1      -1.224   7.513  23.453  1.00  0.00     0.074 A 
ATOM     55  C   UNL     1      -2.542   7.798  22.930  1.00  0.00     0.031 C 
ATOM     56  C   UNL     1       1.337   3.741  18.929  1.00  0.00     0.029 A 
ATOM     57  C   UNL     1       1.965   4.213  20.159  1.00  0.00     0.049 A 
ATOM     58  H   UNL     1       1.124   5.422  21.631  1.00  0.00     0.167 HD
ATOM     59  C   UNL     1      -0.753   7.995  24.628  1.00  0.00     0.031 A 
ATOM     60  C   UNL     1       3.223   3.934  20.549  1.00  0.00     0.031 A 
ATOM     61  C   UNL     1       0.552   7.704  25.154  1.00  0.00     0.049 A 
ATOM     62  C   UNL     1       3.730   4.492  21.848  1.00  0.00     0.074 A 
ATOM     63  C   UNL     1       1.106   8.099  26.359  1.00  0.00     0.029 A 
ATOM     64  N   UNL     1       1.511   6.944  24.502  1.00  0.00    -0.354 N 
ATOM     65  N   UNL     1       3.109   5.244  22.724  1.00  0.00    -0.248 NA
ATOM     66  C   UNL     1       5.113   4.155  22.214  1.00  0.00     0.031 C 
ATOM     67  C   UNL     1       2.416   7.612  26.417  1.00  0.00     0.029 A 
ATOM     68  C   UNL     1       2.660   6.873  25.270  1.00  0.00     0.049 A 
ATOM     69  H   UNL     1       1.392   6.518  23.622  1.00  0.00     0.167 HD
ATOM     70  C   UNL     1       4.013   5.446  23.758  1.00  0.00     0.074 A 
ATOM     71  C   UNL     1       5.221   4.729  23.405  1.00  0.00     0.031 C 
ATOM     72  C   UNL     1       3.854   6.158  24.901  1.00  0.00     0.031 A 
BRANCH  59  73
ATOM     73  C   UNL     1      -1.669   8.893  25.412  1.00  0.00    -0.014 A 
ATOM     74  C   UNL     1      -2.832   8.392  26.021  1.00  0.00     0.009 A 
ATOM     75  C   UNL     1      -1.372  10.259  25.538  1.00  0.00     0.009 A 
ATOM     76  C   UNL     1      -3.704   9.248  26.695  1.00  0.00     0.001 A 
ATOM     77  C   UNL     1      -2.230  11.107  26.240  1.00  0.00     0.001 A 
ATOM     78  C   UNL     1      -3.401  10.605  26.806  1.00  0.00     0.000 A 
ENDBRANCH  59  73
BRANCH  60  79
ATOM     79  C   UNL     1       4.077   3.047  19.719  1.00  0.00    -0.014 A 
ATOM     80  C   UNL     1       4.358   1.740  20.146  1.00  0.00     0.009 A 
ATOM     81  C   UNL     1       4.609   3.492  18.499  1.00  0.00     0.009 A 
ATOM     82  C   UNL     1       5.171   0.902  19.378  1.00  0.00     0.001 A 
ATOM     83  C   UNL     1       5.402   2.644  17.722  1.00  0.00     0.001 A 
ATOM     84  C   UNL     1       5.688   1.353  18.165  1.00  0.00     0.000 A 
ENDBRANCH  60  79
BRANCH  72  85
ATOM     85  C   UNL     1       5.005   6.167  25.866  1.00  0.00    -0.014 A 
ATOM     86  C   UNL     1       6.169   6.907  25.605  1.00  0.00     0.009 A 
ATOM     87  C   UNL     1       4.904   5.455  27.071  1.00  0.00     0.009 A 
ATOM     88  C   UNL     1       7.222   6.908  26.522  1.00  0.00     0.001 A 
ATOM     89  C   UNL     1       5.948   5.480  27.997  1.00  0.00     0.001 A 
ATOM     90  C   UNL     1       7.109   6.199  27.718  1.00  0.00     0.000 A 
ENDBRANCH  72  85
ENDBRANCH  46  47
ENDBRANCH  38  41
ENDBRANCH  36  37
ENDBRANCH  35  36
ENDBRANCH  34  35
ENDBRANCH  33  34
ENDBRANCH  31  33
ENDBRANCH   1  29
TORSDOF 21
