REMARK SMILES CC1(C)[C@H](C(=O)NCCCCNC(=O)c2ccc(-c3c4nc(c(-c5ccccc5)c5ccc([nH]5)c(-c5ccccc5)c5nc(c(-c6ccccc6)c6ccc3[nH]6)C=C5)C=C4)cc2)[C@H]1C(=O)Nc1ccc(C(=O)NCCc2ccccc2)cc1
REMARK SMILES IDX 5 1 6 2 7 3 4 5 1 6 2 7 3 8 63 9 64 10 65 11 66 12 67 14
REMARK SMILES IDX 68 15 83 16 69 17 82 18 70 19 71 20 72 21 73 22 74 24 75 25
REMARK SMILES IDX 76 26 77 27 81 28 78 29 80 30 79 31 8 32 9 33 10 34 11 35
REMARK SMILES IDX 12 36 13 37 14 39 15 40 16 41 62 42 17 43 61 44 18 45 19 46
REMARK SMILES IDX 20 47 55 48 21 49 60 50 54 51 56 52 22 53 59 54 53 55 52 56
REMARK SMILES IDX 23 58 45 59 30 60 44 61 31 62 34 63 43 64 57 65 32 66 33 67
REMARK SMILES IDX 42 69 58 70 35 71 24 72 25 73 29 74 26 75 28 76 27 77 46 78
REMARK SMILES IDX 47 79 51 80 48 81 50 82 49 83 36 84 37 85 41 86 38 87 40 88
REMARK SMILES IDX 39 89
REMARK H PARENT 7 4 66 13 73 23 12 38 56 57 34 68
REMARK Flexibility Score: inf
ROOT
ATOM      1  C   UNL     1      -1.284   0.733  -1.490  1.00  0.00     0.224 C 
ATOM      2  O   UNL     1      -1.646   0.198  -2.540  1.00  0.00    -0.275 OA
ATOM      3  N   UNL     1      -1.713   2.015  -1.317  1.00  0.00    -0.356 N 
ATOM      4  H   UNL     1      -2.329   2.310  -2.026  1.00  0.00     0.163 HD
ENDROOT
BRANCH   1   5
ATOM      5  C   UNL     1      -0.483  -0.106  -0.558  1.00  0.00     0.098 C 
ATOM      6  C   UNL     1       1.816  -0.812   0.315  1.00  0.00     0.013 C 
ATOM      7  C   UNL     1       0.677   0.180   0.396  1.00  0.00    -0.011 C 
ATOM      8  C   UNL     1       1.210   1.529   0.783  1.00  0.00     0.013 C 
ATOM      9  C   UNL     1      -0.724  -0.186   0.919  1.00  0.00     0.098 C 
BRANCH   9  10
ATOM     10  C   UNL     1      -1.075  -1.422   1.694  1.00  0.00     0.228 C 
ATOM     11  O   UNL     1      -1.083  -1.353   2.918  1.00  0.00    -0.274 OA
ATOM     12  N   UNL     1      -1.698  -2.453   1.026  1.00  0.00    -0.326 N 
ATOM     13  H   UNL     1      -2.651  -2.608   1.219  1.00  0.00     0.169 HD
BRANCH  12  14
ATOM     14  C   UNL     1      -1.084  -3.298   0.094  1.00  0.00     0.041 A 
ATOM     15  C   UNL     1      -1.838  -3.820  -0.955  1.00  0.00     0.027 A 
ATOM     16  C   UNL     1       0.276  -3.595   0.186  1.00  0.00     0.027 A 
ATOM     17  C   UNL     1      -1.184  -4.442  -2.022  1.00  0.00     0.016 A 
ATOM     18  C   UNL     1       0.929  -4.235  -0.865  1.00  0.00     0.016 A 
ATOM     19  C   UNL     1       0.211  -4.572  -2.010  1.00  0.00     0.039 A 
BRANCH  19  20
ATOM     20  C   UNL     1       0.893  -5.061  -3.227  1.00  0.00     0.251 C 
ATOM     21  O   UNL     1       0.478  -6.072  -3.786  1.00  0.00    -0.269 OA
ATOM     22  N   UNL     1       1.951  -4.363  -3.758  1.00  0.00    -0.352 N 
ATOM     23  H   UNL     1       2.396  -4.806  -4.516  1.00  0.00     0.163 HD
BRANCH  22  24
ATOM     24  C   UNL     1       2.526  -3.072  -3.385  1.00  0.00     0.121 C 
BRANCH  24  25
ATOM     25  C   UNL     1       3.961  -3.204  -2.857  1.00  0.00     0.057 C 
BRANCH  25  26
ATOM     26  C   UNL     1       4.958  -3.473  -3.961  1.00  0.00    -0.046 A 
ATOM     27  C   UNL     1       5.205  -4.782  -4.397  1.00  0.00     0.004 A 
ATOM     28  C   UNL     1       5.621  -2.411  -4.592  1.00  0.00     0.004 A 
ATOM     29  C   UNL     1       6.087  -5.021  -5.452  1.00  0.00     0.000 A 
ATOM     30  C   UNL     1       6.507  -2.653  -5.643  1.00  0.00     0.000 A 
ATOM     31  C   UNL     1       6.736  -3.958  -6.076  1.00  0.00     0.000 A 
ENDBRANCH  25  26
ENDBRANCH  24  25
ENDBRANCH  22  24
ENDBRANCH  19  20
ENDBRANCH  12  14
ENDBRANCH   9  10
ENDBRANCH   1   5
BRANCH   3  32
ATOM     32  C   UNL     1      -1.467   3.036  -0.330  1.00  0.00     0.116 C 
BRANCH  32  33
ATOM     33  C   UNL     1      -0.287   3.917  -0.742  1.00  0.00     0.023 C 
BRANCH  33  34
ATOM     34  C   UNL     1      -0.651   5.109  -1.620  1.00  0.00     0.023 C 
BRANCH  34  35
ATOM     35  C   UNL     1      -1.586   6.123  -0.976  1.00  0.00     0.116 C 
BRANCH  35  36
ATOM     36  N   UNL     1      -1.107   6.639   0.300  1.00  0.00    -0.352 N 
ATOM     37  C   UNL     1      -1.128   7.934   0.764  1.00  0.00     0.251 C 
ATOM     38  H   UNL     1      -0.718   5.972   0.911  1.00  0.00     0.163 HD
ATOM     39  O   UNL     1      -0.610   8.227   1.836  1.00  0.00    -0.269 OA
BRANCH  37  40
ATOM     40  C   UNL     1      -1.741   8.977  -0.079  1.00  0.00     0.039 A 
ATOM     41  C   UNL     1      -0.984  10.099  -0.421  1.00  0.00     0.014 A 
ATOM     42  C   UNL     1      -3.016   8.783  -0.617  1.00  0.00     0.014 A 
ATOM     43  C   UNL     1      -1.463  10.976  -1.393  1.00  0.00     0.010 A 
ATOM     44  C   UNL     1      -3.456   9.615  -1.638  1.00  0.00     0.010 A 
ATOM     45  C   UNL     1      -2.673  10.704  -2.051  1.00  0.00    -0.014 A 
BRANCH  45  46
ATOM     46  C   UNL     1      -3.124  11.509  -3.211  1.00  0.00     0.031 A 
ATOM     47  C   UNL     1      -4.406  12.286  -3.134  1.00  0.00     0.074 A 
ATOM     48  C   UNL     1      -2.435  11.450  -4.367  1.00  0.00     0.049 A 
ATOM     49  N   UNL     1      -5.029  12.942  -4.078  1.00  0.00    -0.248 NA
ATOM     50  C   UNL     1      -5.091  12.303  -1.832  1.00  0.00     0.031 C 
ATOM     51  C   UNL     1      -1.196  10.697  -4.583  1.00  0.00     0.029 A 
ATOM     52  N   UNL     1      -2.690  12.023  -5.588  1.00  0.00    -0.354 N 
ATOM     53  C   UNL     1      -6.188  13.432  -3.491  1.00  0.00     0.074 A 
ATOM     54  C   UNL     1      -6.202  12.961  -2.122  1.00  0.00     0.031 C 
ATOM     55  C   UNL     1      -0.790  10.872  -5.851  1.00  0.00     0.029 A 
ATOM     56  C   UNL     1      -1.760  11.707  -6.550  1.00  0.00     0.049 A 
ATOM     57  H   UNL     1      -3.466  12.604  -5.759  1.00  0.00     0.167 HD
ATOM     58  C   UNL     1      -7.146  14.217  -4.037  1.00  0.00     0.031 A 
ATOM     59  C   UNL     1      -1.704  12.039  -7.853  1.00  0.00     0.031 A 
ATOM     60  C   UNL     1      -7.124  14.694  -5.393  1.00  0.00     0.049 A 
ATOM     61  C   UNL     1      -2.797  12.883  -8.444  1.00  0.00     0.074 A 
ATOM     62  C   UNL     1      -8.010  15.554  -6.018  1.00  0.00     0.029 A 
ATOM     63  N   UNL     1      -6.168  14.348  -6.334  1.00  0.00    -0.354 N 
ATOM     64  N   UNL     1      -3.852  13.393  -7.858  1.00  0.00    -0.248 NA
ATOM     65  C   UNL     1      -2.692  13.193  -9.877  1.00  0.00     0.031 C 
ATOM     66  C   UNL     1      -7.617  15.689  -7.353  1.00  0.00     0.029 A 
ATOM     67  C   UNL     1      -6.460  14.950  -7.546  1.00  0.00     0.049 A 
ATOM     68  H   UNL     1      -5.395  13.762  -6.166  1.00  0.00     0.167 HD
ATOM     69  C   UNL     1      -4.529  14.097  -8.844  1.00  0.00     0.074 A 
ATOM     70  C   UNL     1      -3.757  13.961 -10.063  1.00  0.00     0.031 C 
ATOM     71  C   UNL     1      -5.686  14.794  -8.749  1.00  0.00     0.031 A 
BRANCH  58  72
ATOM     72  C   UNL     1      -8.303  14.599  -3.160  1.00  0.00    -0.014 A 
ATOM     73  C   UNL     1      -8.144  15.512  -2.106  1.00  0.00     0.009 A 
ATOM     74  C   UNL     1      -9.574  14.057  -3.405  1.00  0.00     0.009 A 
ATOM     75  C   UNL     1      -9.227  15.846  -1.290  1.00  0.00     0.001 A 
ATOM     76  C   UNL     1     -10.661  14.413  -2.605  1.00  0.00     0.001 A 
ATOM     77  C   UNL     1     -10.484  15.299  -1.543  1.00  0.00     0.000 A 
ENDBRANCH  58  72
BRANCH  59  78
ATOM     78  C   UNL     1      -0.571  11.569  -8.691  1.00  0.00    -0.014 A 
ATOM     79  C   UNL     1       0.419  12.470  -9.109  1.00  0.00     0.009 A 
ATOM     80  C   UNL     1      -0.471  10.222  -9.073  1.00  0.00     0.009 A 
ATOM     81  C   UNL     1       1.478  12.035  -9.909  1.00  0.00     0.001 A 
ATOM     82  C   UNL     1       0.602   9.786  -9.852  1.00  0.00     0.001 A 
ATOM     83  C   UNL     1       1.571  10.693 -10.276  1.00  0.00     0.000 A 
ENDBRANCH  59  78
BRANCH  71  84
ATOM     84  C   UNL     1      -6.183  15.472  -9.993  1.00  0.00    -0.014 A 
ATOM     85  C   UNL     1      -6.787  14.736 -11.023  1.00  0.00     0.009 A 
ATOM     86  C   UNL     1      -6.092  16.867 -10.111  1.00  0.00     0.009 A 
ATOM     87  C   UNL     1      -7.273  15.385 -12.159  1.00  0.00     0.001 A 
ATOM     88  C   UNL     1      -6.600  17.515 -11.237  1.00  0.00     0.001 A 
ATOM     89  C   UNL     1      -7.185  16.773 -12.262  1.00  0.00     0.000 A 
ENDBRANCH  71  84
ENDBRANCH  45  46
ENDBRANCH  37  40
ENDBRANCH  35  36
ENDBRANCH  34  35
ENDBRANCH  33  34
ENDBRANCH  32  33
ENDBRANCH   3  32
TORSDOF 17
