REMARK SMILES COc1cccc(-c2ccc(Nc3cccc(C(=O)NCCCCNC(=O)c4ccc(-c5c6nc(c(-c7ccccc7)c7ccc([nH]7)c(-c7ccccc7)c7nc(c(-c8ccccc8)c8ccc5[nH]8)C=C7)C=C6)cc4)c3)nn2)c1
REMARK SMILES IDX 21 1 20 2 18 3 19 4 17 6 13 7 14 8 76 9 15 10 16 11 12 12
REMARK SMILES IDX 11 14 8 15 9 16 78 17 10 18 77 19 7 20 3 21 4 22 79 23 5 24
REMARK SMILES IDX 6 25 2 26 1 27 22 28 23 29 24 30 25 31 26 32 27 34 28 35
REMARK SMILES IDX 29 36 75 37 30 38 74 39 31 40 32 41 33 42 68 43 34 44 73 45
REMARK SMILES IDX 67 46 69 47 35 48 72 49 66 50 65 51 36 53 58 54 43 55 57 56
REMARK SMILES IDX 44 57 47 58 56 59 70 60 45 61 46 62 55 64 71 65 48 66 37 67
REMARK SMILES IDX 38 68 42 69 39 70 41 71 40 72 59 73 60 74 64 75 61 76 63 77
REMARK SMILES IDX 62 78 49 79 50 80 54 81 51 82 53 83 52 84
REMARK H PARENT 20 5 12 13 25 33 69 52 47 63
REMARK Flexibility Score: inf
ROOT
ATOM      1  C   UNL     1       7.141   4.520   1.910  1.00  0.00     0.116 C 
ENDROOT
BRANCH   1   2
ATOM      2  N   UNL     1       7.549   5.816   2.433  1.00  0.00    -0.352 N 
ATOM      3  C   UNL     1       8.200   6.871   1.827  1.00  0.00     0.251 C 
ATOM      4  O   UNL     1       8.456   7.871   2.495  1.00  0.00    -0.269 OA
ATOM      5  H   UNL     1       7.322   5.964   3.380  1.00  0.00     0.163 HD
BRANCH   3   6
ATOM      6  C   UNL     1       8.664   6.799   0.415  1.00  0.00     0.041 A 
ATOM      7  C   UNL     1       8.503   5.821  -1.811  1.00  0.00     0.040 A 
ATOM      8  C   UNL     1       9.748   6.381  -2.121  1.00  0.00     0.026 A 
ATOM      9  C   UNL     1       7.936   6.131  -0.570  1.00  0.00     0.040 A 
ATOM     10  C   UNL     1      10.418   7.193  -1.199  1.00  0.00     0.003 A 
ATOM     11  C   UNL     1       9.889   7.381   0.078  1.00  0.00     0.014 A 
BRANCH   7  12
ATOM     12  N   UNL     1       7.900   4.903  -2.689  1.00  0.00    -0.339 N 
ATOM     13  H   UNL     1       8.472   4.574  -3.420  1.00  0.00     0.168 HD
BRANCH  12  14
ATOM     14  C   UNL     1       6.592   4.394  -2.666  1.00  0.00     0.153 A 
ATOM     15  C   UNL     1       4.033   3.370  -2.534  1.00  0.00     0.093 A 
ATOM     16  C   UNL     1       5.065   2.554  -2.972  1.00  0.00     0.035 A 
ATOM     17  N   UNL     1       4.286   4.639  -2.157  1.00  0.00    -0.148 NA
ATOM     18  C   UNL     1       6.359   3.077  -3.045  1.00  0.00     0.051 A 
ATOM     19  N   UNL     1       5.566   5.141  -2.214  1.00  0.00    -0.132 NA
BRANCH  15  20
ATOM     20  C   UNL     1       2.624   2.967  -2.503  1.00  0.00     0.006 A 
ATOM     21  C   UNL     1       0.843   1.428  -1.878  1.00  0.00     0.119 A 
ATOM     22  C   UNL     1      -0.093   2.238  -2.519  1.00  0.00     0.046 A 
ATOM     23  C   UNL     1       2.197   1.777  -1.886  1.00  0.00     0.056 A 
ATOM     24  C   UNL     1       0.307   3.425  -3.123  1.00  0.00     0.005 A 
ATOM     25  C   UNL     1       1.653   3.789  -3.106  1.00  0.00     0.011 A 
BRANCH  21  26
ATOM     26  O   UNL     1       0.351   0.280  -1.316  1.00  0.00    -0.497 OA
ATOM     27  C   UNL     1       0.906  -0.028  -0.038  1.00  0.00     0.278 C 
ENDBRANCH  21  26
ENDBRANCH  15  20
ENDBRANCH  12  14
ENDBRANCH   7  12
ENDBRANCH   3   6
ENDBRANCH   1   2
BRANCH   1  28
ATOM     28  C   UNL     1       7.505   3.335   2.795  1.00  0.00     0.023 C 
BRANCH  28  29
ATOM     29  C   UNL     1       6.851   3.286   4.169  1.00  0.00     0.023 C 
BRANCH  29  30
ATOM     30  C   UNL     1       5.337   3.451   4.200  1.00  0.00     0.116 C 
BRANCH  30  31
ATOM     31  N   UNL     1       4.614   2.482   3.387  1.00  0.00    -0.352 N 
ATOM     32  C   UNL     1       3.556   1.665   3.721  1.00  0.00     0.251 C 
ATOM     33  H   UNL     1       4.929   2.398   2.458  1.00  0.00     0.163 HD
ATOM     34  O   UNL     1       3.111   0.866   2.907  1.00  0.00    -0.269 OA
BRANCH  32  35
ATOM     35  C   UNL     1       2.986   1.722   5.088  1.00  0.00     0.039 A 
ATOM     36  C   UNL     1       2.778   0.527   5.782  1.00  0.00     0.014 A 
ATOM     37  C   UNL     1       2.691   2.944   5.696  1.00  0.00     0.014 A 
ATOM     38  C   UNL     1       2.366   0.563   7.117  1.00  0.00     0.010 A 
ATOM     39  C   UNL     1       2.362   2.981   7.049  1.00  0.00     0.010 A 
ATOM     40  C   UNL     1       2.202   1.792   7.777  1.00  0.00    -0.014 A 
BRANCH  40  41
ATOM     41  C   UNL     1       1.878   1.858   9.226  1.00  0.00     0.031 A 
ATOM     42  C   UNL     1       0.591   2.483   9.688  1.00  0.00     0.074 A 
ATOM     43  C   UNL     1       2.776   1.425  10.134  1.00  0.00     0.049 A 
ATOM     44  N   UNL     1       0.167   2.694  10.909  1.00  0.00    -0.248 NA
ATOM     45  C   UNL     1      -0.330   2.957   8.643  1.00  0.00     0.031 C 
ATOM     46  C   UNL     1       4.084   0.841   9.826  1.00  0.00     0.029 A 
ATOM     47  N   UNL     1       2.726   1.418  11.506  1.00  0.00    -0.354 N 
ATOM     48  C   UNL     1      -1.054   3.343  10.777  1.00  0.00     0.074 A 
ATOM     49  C   UNL     1      -1.281   3.533   9.361  1.00  0.00     0.031 C 
ATOM     50  C   UNL     1       4.697   0.507  10.973  1.00  0.00     0.029 A 
ATOM     51  C   UNL     1       3.847   0.887  12.097  1.00  0.00     0.049 A 
ATOM     52  H   UNL     1       1.958   1.760  12.019  1.00  0.00     0.167 HD
ATOM     53  C   UNL     1      -1.921   3.729  11.744  1.00  0.00     0.031 A 
ATOM     54  C   UNL     1       4.159   0.726  13.397  1.00  0.00     0.031 A 
ATOM     55  C   UNL     1      -1.710   3.527  13.152  1.00  0.00     0.049 A 
ATOM     56  C   UNL     1       3.181   1.163  14.451  1.00  0.00     0.074 A 
ATOM     57  C   UNL     1      -2.558   3.830  14.203  1.00  0.00     0.029 A 
ATOM     58  N   UNL     1      -0.568   2.971  13.706  1.00  0.00    -0.354 N 
ATOM     59  N   UNL     1       2.001   1.713  14.305  1.00  0.00    -0.248 NA
ATOM     60  C   UNL     1       3.577   0.946  15.851  1.00  0.00     0.031 C 
ATOM     61  C   UNL     1      -1.911   3.494  15.397  1.00  0.00     0.029 A 
ATOM     62  C   UNL     1      -0.682   2.938  15.085  1.00  0.00     0.049 A 
ATOM     63  H   UNL     1       0.208   2.647  13.194  1.00  0.00     0.167 HD
ATOM     64  C   UNL     1       1.501   1.882  15.590  1.00  0.00     0.074 A 
ATOM     65  C   UNL     1       2.500   1.363  16.502  1.00  0.00     0.031 C 
ATOM     66  C   UNL     1       0.319   2.417  15.979  1.00  0.00     0.031 A 
BRANCH  53  67
ATOM     67  C   UNL     1      -3.184   4.413  11.303  1.00  0.00    -0.014 A 
ATOM     68  C   UNL     1      -4.203   3.703  10.647  1.00  0.00     0.009 A 
ATOM     69  C   UNL     1      -3.371   5.779  11.569  1.00  0.00     0.009 A 
ATOM     70  C   UNL     1      -5.366   4.355  10.233  1.00  0.00     0.001 A 
ATOM     71  C   UNL     1      -4.547   6.421  11.179  1.00  0.00     0.001 A 
ATOM     72  C   UNL     1      -5.538   5.712  10.502  1.00  0.00     0.000 A 
ENDBRANCH  53  67
BRANCH  54  73
ATOM     73  C   UNL     1       5.451   0.099  13.782  1.00  0.00    -0.014 A 
ATOM     74  C   UNL     1       5.477  -1.196  14.321  1.00  0.00     0.009 A 
ATOM     75  C   UNL     1       6.660   0.794  13.625  1.00  0.00     0.009 A 
ATOM     76  C   UNL     1       6.684  -1.773  14.720  1.00  0.00     0.001 A 
ATOM     77  C   UNL     1       7.869   0.203  14.000  1.00  0.00     0.001 A 
ATOM     78  C   UNL     1       7.879  -1.075  14.555  1.00  0.00     0.000 A 
ENDBRANCH  54  73
BRANCH  66  79
ATOM     79  C   UNL     1       0.025   2.436  17.452  1.00  0.00    -0.014 A 
ATOM     80  C   UNL     1       0.676   3.332  18.314  1.00  0.00     0.009 A 
ATOM     81  C   UNL     1      -0.946   1.569  17.977  1.00  0.00     0.009 A 
ATOM     82  C   UNL     1       0.381   3.338  19.678  1.00  0.00     0.001 A 
ATOM     83  C   UNL     1      -1.258   1.595  19.337  1.00  0.00     0.001 A 
ATOM     84  C   UNL     1      -0.588   2.473  20.188  1.00  0.00     0.000 A 
ENDBRANCH  66  79
ENDBRANCH  40  41
ENDBRANCH  32  35
ENDBRANCH  30  31
ENDBRANCH  29  30
ENDBRANCH  28  29
ENDBRANCH   1  28
TORSDOF 15
