REMARK SMILES Cc1n[nH]c2c1[C@@]1(C(=O)N([C@@H](C)C(=O)NCCCCNC(=O)c3ccc(-c4c5nc(c(-c6ccccc6)c6ccc([nH]6)c(-c6ccccc6)c6nc(c(-c7ccccc7)c7ccc4[nH]7)C=C6)C=C5)cc3)c3ccccc31)C(C#N)=C(N)O2
REMARK SMILES IDX 17 1 16 2 15 3 13 4 14 5 11 7 12 8 10 9 1 10 2 11 3 12 6 13
REMARK SMILES IDX 4 14 5 15 7 16 82 18 8 19 76 20 77 21 80 22 9 23 71 24 75 25
REMARK SMILES IDX 72 26 74 27 73 28 78 29 79 30 81 31 18 34 19 35 20 36 21 37
REMARK SMILES IDX 22 39 23 40 24 41 70 42 25 43 69 44 26 45 27 46 28 47 63 48
REMARK SMILES IDX 29 49 68 50 62 51 64 52 30 53 67 54 61 55 60 56 31 58 53 59
REMARK SMILES IDX 38 60 52 61 39 62 42 63 51 64 65 65 40 66 41 67 50 69 66 70
REMARK SMILES IDX 43 71 32 72 33 73 37 74 34 75 36 76 35 77 54 78 55 79 59 80
REMARK SMILES IDX 56 81 58 82 57 83 44 84 45 85 49 86 46 87 48 88 47 89
REMARK H PARENT 15 6 4 17 81 32 81 33 20 38 64 57 42 68
REMARK Flexibility Score: inf
ROOT
ATOM      1  C   UNL     1       2.887  -2.296  -4.792  1.00  0.00     0.023 C 
ENDROOT
BRANCH   1   2
ATOM      2  C   UNL     1       3.672  -0.985  -4.649  1.00  0.00     0.116 C 
BRANCH   2   3
ATOM      3  N   UNL     1       3.094   0.087  -5.436  1.00  0.00    -0.354 N 
ATOM      4  C   UNL     1       2.354   1.181  -5.112  1.00  0.00     0.242 C 
ATOM      5  O   UNL     1       2.076   1.936  -6.056  1.00  0.00    -0.273 OA
ATOM      6  H   UNL     1       3.274   0.007  -6.401  1.00  0.00     0.163 HD
BRANCH   4   7
ATOM      7  C   UNL     1       1.845   1.538  -3.691  1.00  0.00     0.176 C 
ATOM      8  C   UNL     1       2.942   1.789  -2.660  1.00  0.00     0.042 C 
BRANCH   7   9
ATOM      9  N   UNL     1       0.751   0.690  -3.218  1.00  0.00    -0.298 N 
ATOM     10  C   UNL     1       0.774  -0.053   0.477  1.00  0.00     0.069 C 
ATOM     11  C   UNL     1       0.052  -1.315   0.164  1.00  0.00     0.068 A 
ATOM     12  N   UNL     1      -0.041  -2.280   1.093  1.00  0.00    -0.177 NA
ATOM     13  C   UNL     1      -0.490  -1.741  -1.074  1.00  0.00     0.063 A 
ATOM     14  N   UNL     1      -0.549  -3.337   0.425  1.00  0.00    -0.246 N 
ATOM     15  C   UNL     1      -0.826  -3.054  -0.873  1.00  0.00     0.222 A 
ATOM     16  C   UNL     1      -0.496  -1.187  -2.452  1.00  0.00     0.149 C 
ATOM     17  H   UNL     1      -0.704  -4.218   0.836  1.00  0.00     0.193 HD
ATOM     18  O   UNL     1      -1.216  -3.947  -1.775  1.00  0.00    -0.422 OA
ATOM     19  C   UNL     1       0.905  -0.611  -2.738  1.00  0.00     0.248 C 
ATOM     20  C   UNL     1      -1.347   0.053  -2.499  1.00  0.00     0.002 A 
ATOM     21  C   UNL     1      -0.898  -2.252  -3.474  1.00  0.00     0.114 C 
ATOM     22  C   UNL     1      -1.231  -3.522  -3.116  1.00  0.00     0.208 C 
ATOM     23  O   UNL     1       1.953  -1.174  -2.466  1.00  0.00    -0.273 OA
ATOM     24  C   UNL     1      -0.580   1.116  -3.009  1.00  0.00     0.050 A 
ATOM     25  C   UNL     1      -2.686   0.216  -2.175  1.00  0.00     0.008 A 
ATOM     26  C   UNL     1      -1.137   2.371  -3.177  1.00  0.00     0.027 A 
ATOM     27  C   UNL     1      -3.247   1.483  -2.329  1.00  0.00     0.001 A 
ATOM     28  C   UNL     1      -2.479   2.550  -2.821  1.00  0.00     0.002 A 
BRANCH  21  29
ATOM     29  C   UNL     1      -0.938  -1.873  -4.854  1.00  0.00     0.102 C 
ATOM     30  N   UNL     1      -0.960  -1.588  -5.971  1.00  0.00    -0.193 NA
ENDBRANCH  21  29
BRANCH  22  31
ATOM     31  N   UNL     1      -1.610  -4.510  -3.979  1.00  0.00    -0.369 N 
ATOM     32  H   UNL     1      -1.657  -4.328  -4.945  1.00  0.00     0.159 HD
ATOM     33  H   UNL     1      -1.837  -5.404  -3.635  1.00  0.00     0.159 HD
ENDBRANCH  22  31
ENDBRANCH   7   9
ENDBRANCH   4   7
ENDBRANCH   2   3
ENDBRANCH   1   2
BRANCH   1  34
ATOM     34  C   UNL     1       3.308  -3.194  -5.957  1.00  0.00     0.023 C 
BRANCH  34  35
ATOM     35  C   UNL     1       4.749  -3.693  -5.858  1.00  0.00     0.116 C 
BRANCH  35  36
ATOM     36  N   UNL     1       5.016  -4.416  -4.630  1.00  0.00    -0.352 N 
ATOM     37  C   UNL     1       5.185  -5.728  -4.296  1.00  0.00     0.251 C 
ATOM     38  H   UNL     1       5.095  -3.817  -3.852  1.00  0.00     0.163 HD
ATOM     39  O   UNL     1       5.646  -5.941  -3.171  1.00  0.00    -0.269 OA
BRANCH  37  40
ATOM     40  C   UNL     1       4.787  -6.899  -5.124  1.00  0.00     0.039 A 
ATOM     41  C   UNL     1       4.106  -6.847  -6.336  1.00  0.00     0.014 A 
ATOM     42  C   UNL     1       5.026  -8.166  -4.546  1.00  0.00     0.014 A 
ATOM     43  C   UNL     1       3.556  -8.014  -6.867  1.00  0.00     0.010 A 
ATOM     44  C   UNL     1       4.508  -9.337  -5.093  1.00  0.00     0.010 A 
ATOM     45  C   UNL     1       3.701  -9.255  -6.214  1.00  0.00    -0.014 A 
BRANCH  45  46
ATOM     46  C   UNL     1       3.157 -10.457  -6.859  1.00  0.00     0.031 A 
ATOM     47  C   UNL     1       3.640 -10.569  -8.257  1.00  0.00     0.074 A 
ATOM     48  C   UNL     1       2.337 -11.393  -6.318  1.00  0.00     0.049 A 
ATOM     49  N   UNL     1       2.939 -10.313  -9.308  1.00  0.00    -0.248 NA
ATOM     50  C   UNL     1       5.076 -10.746  -8.526  1.00  0.00     0.031 C 
ATOM     51  C   UNL     1       1.926 -11.551  -4.920  1.00  0.00     0.029 A 
ATOM     52  N   UNL     1       1.703 -12.452  -6.925  1.00  0.00    -0.354 N 
ATOM     53  C   UNL     1       3.783 -10.512 -10.390  1.00  0.00     0.074 A 
ATOM     54  C   UNL     1       5.114 -10.617  -9.855  1.00  0.00     0.031 C 
ATOM     55  C   UNL     1       1.314 -12.752  -4.748  1.00  0.00     0.029 A 
ATOM     56  C   UNL     1       1.137 -13.382  -6.046  1.00  0.00     0.049 A 
ATOM     57  H   UNL     1       1.651 -12.549  -7.903  1.00  0.00     0.167 HD
ATOM     58  C   UNL     1       3.256 -10.843 -11.600  1.00  0.00     0.031 A 
ATOM     59  C   UNL     1       0.464 -14.527  -6.354  1.00  0.00     0.031 A 
ATOM     60  C   UNL     1       1.842 -10.569 -11.633  1.00  0.00     0.049 A 
ATOM     61  C   UNL     1      -0.066 -14.354  -7.718  1.00  0.00     0.074 A 
ATOM     62  C   UNL     1       1.049  -9.452 -11.779  1.00  0.00     0.029 A 
ATOM     63  N   UNL     1       1.093 -11.521 -10.992  1.00  0.00    -0.354 N 
ATOM     64  N   UNL     1      -1.014 -13.511  -8.006  1.00  0.00    -0.248 NA
ATOM     65  C   UNL     1       0.706 -14.862  -8.843  1.00  0.00     0.031 C 
ATOM     66  C   UNL     1      -0.154  -9.722 -11.060  1.00  0.00     0.029 A 
ATOM     67  C   UNL     1      -0.113 -11.027 -10.577  1.00  0.00     0.049 A 
ATOM     68  H   UNL     1       1.389 -12.449 -10.846  1.00  0.00     0.167 HD
ATOM     69  C   UNL     1      -0.663 -13.043  -9.254  1.00  0.00     0.074 A 
ATOM     70  C   UNL     1       0.288 -14.015  -9.786  1.00  0.00     0.031 C 
ATOM     71  C   UNL     1      -0.912 -11.752  -9.611  1.00  0.00     0.031 A 
BRANCH  58  72
ATOM     72  C   UNL     1       3.891 -11.860 -12.514  1.00  0.00    -0.014 A 
ATOM     73  C   UNL     1       4.907 -12.741 -12.092  1.00  0.00     0.009 A 
ATOM     74  C   UNL     1       3.288 -12.144 -13.752  1.00  0.00     0.009 A 
ATOM     75  C   UNL     1       5.324 -13.825 -12.868  1.00  0.00     0.001 A 
ATOM     76  C   UNL     1       3.684 -13.248 -14.521  1.00  0.00     0.001 A 
ATOM     77  C   UNL     1       4.706 -14.084 -14.081  1.00  0.00     0.000 A 
ENDBRANCH  58  72
BRANCH  59  78
ATOM     78  C   UNL     1       0.613 -15.906  -5.804  1.00  0.00    -0.014 A 
ATOM     79  C   UNL     1       1.848 -16.314  -5.275  1.00  0.00     0.009 A 
ATOM     80  C   UNL     1      -0.314 -16.918  -6.135  1.00  0.00     0.009 A 
ATOM     81  C   UNL     1       2.173 -17.674  -5.151  1.00  0.00     0.001 A 
ATOM     82  C   UNL     1       0.011 -18.280  -6.006  1.00  0.00     0.001 A 
ATOM     83  C   UNL     1       1.264 -18.656  -5.535  1.00  0.00     0.000 A 
ENDBRANCH  59  78
BRANCH  71  84
ATOM     84  C   UNL     1      -1.980 -10.992  -8.876  1.00  0.00    -0.014 A 
ATOM     85  C   UNL     1      -3.035 -10.486  -9.651  1.00  0.00     0.009 A 
ATOM     86  C   UNL     1      -1.933 -10.659  -7.512  1.00  0.00     0.009 A 
ATOM     87  C   UNL     1      -3.993  -9.637  -9.101  1.00  0.00     0.001 A 
ATOM     88  C   UNL     1      -2.913  -9.828  -6.952  1.00  0.00     0.001 A 
ATOM     89  C   UNL     1      -3.931  -9.305  -7.751  1.00  0.00     0.000 A 
ENDBRANCH  71  84
ENDBRANCH  45  46
ENDBRANCH  37  40
ENDBRANCH  35  36
ENDBRANCH  34  35
ENDBRANCH   1  34
TORSDOF 14
