REMARK SMILES CC[C@H](NC(=O)c1ccc(C)nc1)C(=O)NCCCCNC(=O)c1ccc(-c2c3nc(c(-c4ccccc4)c4ccc([nH]4)c(-c4ccccc4)c4nc(c(-c5ccccc5)c5ccc2[nH]5)C=C4)C=C3)cc1
REMARK SMILES IDX 18 1 17 2 16 3 14 4 15 5 3 7 2 8 1 9 4 10 5 11 6 13 7 14
REMARK SMILES IDX 8 15 13 16 9 17 12 18 10 19 11 20 19 21 20 22 21 23 22 24
REMARK SMILES IDX 23 26 24 27 25 28 71 29 26 30 70 31 27 32 28 33 29 34 64 35
REMARK SMILES IDX 30 36 69 37 63 38 65 39 31 40 68 41 62 42 61 43 32 45 54 46
REMARK SMILES IDX 39 47 53 48 40 49 43 50 52 51 66 52 41 53 42 54 51 56 67 57
REMARK SMILES IDX 44 58 33 59 34 60 38 61 35 62 37 63 36 64 55 65 56 66 60 67
REMARK SMILES IDX 57 68 59 69 58 70 45 71 46 72 50 73 47 74 49 75 48 76
REMARK H PARENT 16 6 4 12 21 25 65 44 43 55
REMARK Flexibility Score: inf
ROOT
ATOM      1  C   UNL     1      -2.850  -0.213   2.608  1.00  0.00     0.023 C 
ENDROOT
BRANCH   1   2
ATOM      2  C   UNL     1      -2.189   1.163   2.703  1.00  0.00     0.116 C 
BRANCH   2   3
ATOM      3  N   UNL     1      -1.224   1.303   3.773  1.00  0.00    -0.354 N 
ATOM      4  C   UNL     1       0.140   1.209   3.743  1.00  0.00     0.242 C 
ATOM      5  O   UNL     1       0.753   1.555   4.757  1.00  0.00    -0.273 OA
ATOM      6  H   UNL     1      -1.609   1.497   4.658  1.00  0.00     0.163 HD
BRANCH   4   7
ATOM      7  C   UNL     1       0.898   0.809   2.457  1.00  0.00     0.171 C 
BRANCH   7   8
ATOM      8  C   UNL     1       0.886   2.053   1.522  1.00  0.00     0.032 C 
ATOM      9  C   UNL     1       0.408   1.885   0.085  1.00  0.00     0.006 C 
ENDBRANCH   7   8
BRANCH   7  10
ATOM     10  N   UNL     1       0.472  -0.453   1.831  1.00  0.00    -0.340 N 
ATOM     11  C   UNL     1       0.695  -1.745   2.273  1.00  0.00     0.253 C 
ATOM     12  H   UNL     1      -0.036  -0.367   0.992  1.00  0.00     0.164 HD
ATOM     13  O   UNL     1       0.727  -2.658   1.452  1.00  0.00    -0.269 OA
BRANCH  11  14
ATOM     14  C   UNL     1       0.845  -2.069   3.704  1.00  0.00     0.058 A 
ATOM     15  C   UNL     1      -0.088  -1.648   4.639  1.00  0.00     0.017 A 
ATOM     16  C   UNL     1       1.830  -2.928   4.154  1.00  0.00     0.125 A 
ATOM     17  C   UNL     1       0.049  -1.963   5.984  1.00  0.00     0.024 A 
ATOM     18  N   UNL     1       1.996  -3.267   5.464  1.00  0.00    -0.261 NA
ATOM     19  C   UNL     1       1.124  -2.747   6.365  1.00  0.00     0.037 A 
ATOM     20  C   UNL     1       1.314  -3.078   7.815  1.00  0.00     0.066 C 
ENDBRANCH  11  14
ENDBRANCH   7  10
ENDBRANCH   4   7
ENDBRANCH   2   3
ENDBRANCH   1   2
BRANCH   1  21
ATOM     21  C   UNL     1      -3.620  -0.672   3.847  1.00  0.00     0.023 C 
BRANCH  21  22
ATOM     22  C   UNL     1      -4.589   0.346   4.414  1.00  0.00     0.116 C 
BRANCH  22  23
ATOM     23  N   UNL     1      -5.597   0.746   3.451  1.00  0.00    -0.352 N 
ATOM     24  C   UNL     1      -6.955   0.844   3.626  1.00  0.00     0.251 C 
ATOM     25  H   UNL     1      -5.264   0.978   2.554  1.00  0.00     0.163 HD
ATOM     26  O   UNL     1      -7.690   1.036   2.667  1.00  0.00    -0.269 OA
BRANCH  24  27
ATOM     27  C   UNL     1      -7.521   0.681   4.981  1.00  0.00     0.039 A 
ATOM     28  C   UNL     1      -8.645  -0.130   5.146  1.00  0.00     0.014 A 
ATOM     29  C   UNL     1      -6.928   1.302   6.084  1.00  0.00     0.014 A 
ATOM     30  C   UNL     1      -9.148  -0.353   6.427  1.00  0.00     0.010 A 
ATOM     31  C   UNL     1      -7.372   1.003   7.366  1.00  0.00     0.010 A 
ATOM     32  C   UNL     1      -8.498   0.187   7.549  1.00  0.00    -0.014 A 
BRANCH  32  33
ATOM     33  C   UNL     1      -8.999  -0.069   8.921  1.00  0.00     0.031 A 
ATOM     34  C   UNL     1      -9.485   1.075   9.769  1.00  0.00     0.074 A 
ATOM     35  C   UNL     1      -8.973  -1.320   9.420  1.00  0.00     0.049 A 
ATOM     36  N   UNL     1      -9.929   1.060  11.000  1.00  0.00    -0.248 NA
ATOM     37  C   UNL     1      -9.440   2.418   9.165  1.00  0.00     0.031 C 
ATOM     38  C   UNL     1      -8.485  -2.506   8.713  1.00  0.00     0.029 A 
ATOM     39  N   UNL     1      -9.368  -1.801  10.643  1.00  0.00    -0.354 N 
ATOM     40  C   UNL     1     -10.200   2.384  11.319  1.00  0.00     0.074 A 
ATOM     41  C   UNL     1      -9.813   3.184  10.178  1.00  0.00     0.031 C 
ATOM     42  C   UNL     1      -8.645  -3.583   9.500  1.00  0.00     0.029 A 
ATOM     43  C   UNL     1      -9.204  -3.158  10.779  1.00  0.00     0.049 A 
ATOM     44  H   UNL     1      -9.734  -1.228  11.354  1.00  0.00     0.167 HD
ATOM     45  C   UNL     1     -10.744   2.890  12.450  1.00  0.00     0.031 A 
ATOM     46  C   UNL     1      -9.473  -3.969  11.819  1.00  0.00     0.031 A 
ATOM     47  C   UNL     1     -11.139   2.092  13.580  1.00  0.00     0.049 A 
ATOM     48  C   UNL     1     -10.065  -3.381  13.070  1.00  0.00     0.074 A 
ATOM     49  C   UNL     1     -11.751   2.501  14.752  1.00  0.00     0.029 A 
ATOM     50  N   UNL     1     -10.958   0.721  13.678  1.00  0.00    -0.354 N 
ATOM     51  N   UNL     1     -10.381  -2.135  13.329  1.00  0.00    -0.248 NA
ATOM     52  C   UNL     1     -10.349  -4.316  14.168  1.00  0.00     0.031 C 
ATOM     53  C   UNL     1     -11.887   1.385  15.583  1.00  0.00     0.029 A 
ATOM     54  C   UNL     1     -11.421   0.271  14.902  1.00  0.00     0.049 A 
ATOM     55  H   UNL     1     -10.559   0.152  12.980  1.00  0.00     0.167 HD
ATOM     56  C   UNL     1     -10.929  -2.141  14.606  1.00  0.00     0.074 A 
ATOM     57  C   UNL     1     -10.918  -3.517  15.059  1.00  0.00     0.031 C 
ATOM     58  C   UNL     1     -11.401  -1.101  15.337  1.00  0.00     0.031 A 
BRANCH  45  59
ATOM     59  C   UNL     1     -10.937   4.380  12.521  1.00  0.00    -0.014 A 
ATOM     60  C   UNL     1     -11.884   5.033  11.715  1.00  0.00     0.009 A 
ATOM     61  C   UNL     1     -10.181   5.139  13.428  1.00  0.00     0.009 A 
ATOM     62  C   UNL     1     -12.041   6.419  11.788  1.00  0.00     0.001 A 
ATOM     63  C   UNL     1     -10.364   6.520  13.522  1.00  0.00     0.001 A 
ATOM     64  C   UNL     1     -11.286   7.160  12.695  1.00  0.00     0.000 A 
ENDBRANCH  45  59
BRANCH  46  65
ATOM     65  C   UNL     1      -9.203  -5.427  11.719  1.00  0.00    -0.014 A 
ATOM     66  C   UNL     1     -10.262  -6.348  11.672  1.00  0.00     0.009 A 
ATOM     67  C   UNL     1      -7.885  -5.909  11.677  1.00  0.00     0.009 A 
ATOM     68  C   UNL     1     -10.006  -7.720  11.618  1.00  0.00     0.001 A 
ATOM     69  C   UNL     1      -7.633  -7.279  11.591  1.00  0.00     0.001 A 
ATOM     70  C   UNL     1      -8.692  -8.184  11.573  1.00  0.00     0.000 A 
ENDBRANCH  46  65
BRANCH  58  71
ATOM     71  C   UNL     1     -11.980  -1.419  16.688  1.00  0.00    -0.014 A 
ATOM     72  C   UNL     1     -11.165  -1.816  17.759  1.00  0.00     0.009 A 
ATOM     73  C   UNL     1     -13.361  -1.281  16.898  1.00  0.00     0.009 A 
ATOM     74  C   UNL     1     -11.728  -2.106  19.004  1.00  0.00     0.001 A 
ATOM     75  C   UNL     1     -13.916  -1.538  18.152  1.00  0.00     0.001 A 
ATOM     76  C   UNL     1     -13.101  -1.962  19.200  1.00  0.00     0.000 A 
ENDBRANCH  58  71
ENDBRANCH  32  33
ENDBRANCH  24  27
ENDBRANCH  22  23
ENDBRANCH  21  22
ENDBRANCH   1  21
TORSDOF 14
