REMARK SMILES CC(C)(O)CCOc1ccc(C(=O)NCCCCNC(=O)c2ccc(-c3c4nc(c(-c5ccccc5)c5ccc([nH]5)c(-c5ccccc5)c5nc(c(-c6ccccc6)c6ccc3[nH]6)C=C5)C=C4)cc2)cc1
REMARK SMILES IDX 15 1 14 2 12 3 13 4 11 6 8 7 9 8 71 9 10 10 70 11 7 12 6 13
REMARK SMILES IDX 5 14 2 15 1 16 3 17 4 18 16 20 17 21 18 22 19 23 20 24 21 26
REMARK SMILES IDX 22 27 23 28 69 29 24 30 68 31 25 32 26 33 27 34 62 35 28 36
REMARK SMILES IDX 67 37 61 38 63 39 29 40 66 41 60 42 59 43 30 45 52 46 37 47
REMARK SMILES IDX 51 48 38 49 41 50 50 51 64 52 39 53 40 54 49 56 65 57 42 58
REMARK SMILES IDX 31 59 32 60 36 61 33 62 35 63 34 64 53 65 54 66 58 67 55 68
REMARK SMILES IDX 57 69 56 70 43 71 44 72 48 73 45 74 47 75 46 76
REMARK H PARENT 14 5 4 19 19 25 63 44 41 55
REMARK Flexibility Score: inf
ROOT
ATOM      1  C   UNL     1       0.120  -1.260   3.579  1.00  0.00     0.116 C 
ENDROOT
BRANCH   1   2
ATOM      2  N   UNL     1      -0.115  -0.055   4.362  1.00  0.00    -0.352 N 
ATOM      3  C   UNL     1      -0.291   1.248   3.950  1.00  0.00     0.251 C 
ATOM      4  O   UNL     1      -0.363   2.147   4.783  1.00  0.00    -0.269 OA
ATOM      5  H   UNL     1      -0.154  -0.193   5.336  1.00  0.00     0.163 HD
BRANCH   3   6
ATOM      6  C   UNL     1      -0.338   1.580   2.509  1.00  0.00     0.040 A 
ATOM      7  C   UNL     1      -0.056   1.925  -0.246  1.00  0.00     0.119 A 
ATOM      8  C   UNL     1       0.650   2.745   0.640  1.00  0.00     0.047 A 
ATOM      9  C   UNL     1      -1.051   1.088   0.255  1.00  0.00     0.047 A 
ATOM     10  C   UNL     1       0.510   2.577   2.020  1.00  0.00     0.017 A 
ATOM     11  C   UNL     1      -1.184   0.900   1.633  1.00  0.00     0.017 A 
BRANCH   7  12
ATOM     12  O   UNL     1       0.383   1.965  -1.539  1.00  0.00    -0.493 OA
BRANCH  12  13
ATOM     13  C   UNL     1       0.024   0.906  -2.431  1.00  0.00     0.232 C 
BRANCH  13  14
ATOM     14  C   UNL     1       1.003  -0.288  -2.482  1.00  0.00     0.076 C 
BRANCH  14  15
ATOM     15  C   UNL     1       0.964  -1.327  -1.337  1.00  0.00     0.062 C 
ATOM     16  C   UNL     1       1.859  -0.930  -0.158  1.00  0.00     0.042 C 
ATOM     17  C   UNL     1       1.436  -2.702  -1.834  1.00  0.00     0.042 C 
BRANCH  15  18
ATOM     18  O   UNL     1      -0.383  -1.512  -0.904  1.00  0.00    -0.390 OA
ATOM     19  H   UNL     1      -0.405  -2.163  -0.186  1.00  0.00     0.211 HD
ENDBRANCH  15  18
ENDBRANCH  14  15
ENDBRANCH  13  14
ENDBRANCH  12  13
ENDBRANCH   7  12
ENDBRANCH   3   6
ENDBRANCH   1   2
BRANCH   1  20
ATOM     20  C   UNL     1       1.384  -2.014   3.998  1.00  0.00     0.023 C 
BRANCH  20  21
ATOM     21  C   UNL     1       1.345  -2.659   5.385  1.00  0.00     0.023 C 
BRANCH  21  22
ATOM     22  C   UNL     1       0.260  -3.711   5.601  1.00  0.00     0.116 C 
BRANCH  22  23
ATOM     23  N   UNL     1       0.394  -4.875   4.738  1.00  0.00    -0.352 N 
ATOM     24  C   UNL     1       0.236  -6.208   5.040  1.00  0.00     0.251 C 
ATOM     25  H   UNL     1       0.633  -4.680   3.803  1.00  0.00     0.163 HD
ATOM     26  O   UNL     1       0.484  -7.059   4.189  1.00  0.00    -0.269 OA
BRANCH  24  27
ATOM     27  C   UNL     1      -0.193  -6.627   6.394  1.00  0.00     0.039 A 
ATOM     28  C   UNL     1       0.468  -7.695   7.009  1.00  0.00     0.014 A 
ATOM     29  C   UNL     1      -1.235  -5.979   7.061  1.00  0.00     0.014 A 
ATOM     30  C   UNL     1       0.135  -8.062   8.316  1.00  0.00     0.010 A 
ATOM     31  C   UNL     1      -1.516  -6.296   8.390  1.00  0.00     0.010 A 
ATOM     32  C   UNL     1      -0.833  -7.340   9.033  1.00  0.00    -0.014 A 
BRANCH  32  33
ATOM     33  C   UNL     1      -1.134  -7.657  10.454  1.00  0.00     0.031 A 
ATOM     34  C   UNL     1      -2.500  -8.146  10.854  1.00  0.00     0.074 A 
ATOM     35  C   UNL     1      -0.195  -7.451  11.398  1.00  0.00     0.049 A 
ATOM     36  N   UNL     1      -2.956  -8.439  12.047  1.00  0.00    -0.248 NA
ATOM     37  C   UNL     1      -3.492  -8.302   9.778  1.00  0.00     0.031 C 
ATOM     38  C   UNL     1       1.155  -6.937  11.155  1.00  0.00     0.029 A 
ATOM     39  N   UNL     1      -0.235  -7.645  12.757  1.00  0.00    -0.354 N 
ATOM     40  C   UNL     1      -4.286  -8.797  11.866  1.00  0.00     0.074 A 
ATOM     41  C   UNL     1      -4.579  -8.635  10.459  1.00  0.00     0.031 C 
ATOM     42  C   UNL     1       1.822  -6.886  12.320  1.00  0.00     0.029 A 
ATOM     43  C   UNL     1       0.940  -7.326  13.395  1.00  0.00     0.049 A 
ATOM     44  H   UNL     1      -1.031  -7.980  13.230  1.00  0.00     0.167 HD
ATOM     45  C   UNL     1      -5.181  -9.240  12.782  1.00  0.00     0.031 A 
ATOM     46  C   UNL     1       1.271  -7.381  14.699  1.00  0.00     0.031 A 
ATOM     47  C   UNL     1      -4.892  -9.411  14.182  1.00  0.00     0.049 A 
ATOM     48  C   UNL     1       0.260  -7.874  15.697  1.00  0.00     0.074 A 
ATOM     49  C   UNL     1      -5.716  -9.906  15.178  1.00  0.00     0.029 A 
ATOM     50  N   UNL     1      -3.687  -9.089  14.784  1.00  0.00    -0.354 N 
ATOM     51  N   UNL     1      -0.971  -8.278  15.496  1.00  0.00    -0.248 NA
ATOM     52  C   UNL     1       0.693  -7.934  17.100  1.00  0.00     0.031 C 
ATOM     53  C   UNL     1      -5.025  -9.837  16.392  1.00  0.00     0.029 A 
ATOM     54  C   UNL     1      -3.751  -9.355  16.142  1.00  0.00     0.049 A 
ATOM     55  H   UNL     1      -2.901  -8.724  14.316  1.00  0.00     0.167 HD
ATOM     56  C   UNL     1      -1.448  -8.669  16.741  1.00  0.00     0.074 A 
ATOM     57  C   UNL     1      -0.368  -8.470  17.685  1.00  0.00     0.031 C 
ATOM     58  C   UNL     1      -2.670  -9.151  17.072  1.00  0.00     0.031 A 
BRANCH  45  59
ATOM     59  C   UNL     1      -6.565  -9.568  12.294  1.00  0.00    -0.014 A 
ATOM     60  C   UNL     1      -6.802 -10.681  11.471  1.00  0.00     0.009 A 
ATOM     61  C   UNL     1      -7.653  -8.773  12.688  1.00  0.00     0.009 A 
ATOM     62  C   UNL     1      -8.093 -10.967  11.020  1.00  0.00     0.001 A 
ATOM     63  C   UNL     1      -8.947  -9.079  12.261  1.00  0.00     0.001 A 
ATOM     64  C   UNL     1      -9.164 -10.169  11.419  1.00  0.00     0.000 A 
ENDBRANCH  45  59
BRANCH  46  65
ATOM     65  C   UNL     1       2.634  -6.982  15.140  1.00  0.00    -0.014 A 
ATOM     66  C   UNL     1       3.544  -7.946  15.601  1.00  0.00     0.009 A 
ATOM     67  C   UNL     1       3.026  -5.635  15.118  1.00  0.00     0.009 A 
ATOM     68  C   UNL     1       4.808  -7.565  16.059  1.00  0.00     0.001 A 
ATOM     69  C   UNL     1       4.302  -5.261  15.548  1.00  0.00     0.001 A 
ATOM     70  C   UNL     1       5.187  -6.225  16.028  1.00  0.00     0.000 A 
ENDBRANCH  46  65
BRANCH  58  71
ATOM     71  C   UNL     1      -2.890  -9.537  18.509  1.00  0.00    -0.014 A 
ATOM     72  C   UNL     1      -2.989  -8.569  19.521  1.00  0.00     0.009 A 
ATOM     73  C   UNL     1      -3.023 -10.892  18.849  1.00  0.00     0.009 A 
ATOM     74  C   UNL     1      -3.175  -8.955  20.850  1.00  0.00     0.001 A 
ATOM     75  C   UNL     1      -3.240 -11.273  20.174  1.00  0.00     0.001 A 
ATOM     76  C   UNL     1      -3.304 -10.305  21.175  1.00  0.00     0.000 A 
ENDBRANCH  58  71
ENDBRANCH  32  33
ENDBRANCH  24  27
ENDBRANCH  22  23
ENDBRANCH  21  22
ENDBRANCH  20  21
ENDBRANCH   1  20
TORSDOF 16
