REMARK SMILES C[C@@H](C(=O)NCCCCNC(=O)c1ccc(-c2c3nc(c(-c4ccccc4)c4ccc([nH]4)c(-c4ccccc4)c4nc(c(-c5ccccc5)c5ccc2[nH]5)C=C4)C=C3)cc1)c1ccc(C[C@H]2CCCC2=O)c(-c2ccc(F)cc2)c1
REMARK SMILES IDX 7 1 6 2 5 3 3 4 4 5 2 7 1 8 61 9 62 10 80 11 63 12 72 13
REMARK SMILES IDX 64 14 73 15 74 16 79 17 75 18 78 19 76 20 77 21 65 22 66 23
REMARK SMILES IDX 67 24 70 25 68 26 69 27 71 28 8 29 9 30 10 31 11 32 12 34
REMARK SMILES IDX 13 35 14 36 60 37 15 38 59 39 16 40 17 41 18 42 53 43 19 44
REMARK SMILES IDX 58 45 52 46 54 47 20 48 57 49 51 50 50 51 21 53 43 54 28 55
REMARK SMILES IDX 42 56 29 57 32 58 41 59 55 60 30 61 31 62 40 64 56 65 33 66
REMARK SMILES IDX 22 67 23 68 27 69 24 70 26 71 25 72 44 73 45 74 49 75 46 76
REMARK SMILES IDX 48 77 47 78 34 79 35 80 39 81 36 82 38 83 37 84
REMARK H PARENT 5 6 10 33 54 52 32 63
REMARK Flexibility Score: inf
ROOT
ATOM      1  C   UNL     1       4.271  -0.095  -1.164  1.00  0.00     0.023 C 
ENDROOT
BRANCH   1   2
ATOM      2  C   UNL     1       3.471   1.133  -1.604  1.00  0.00     0.116 C 
BRANCH   2   3
ATOM      3  N   UNL     1       2.425   0.763  -2.535  1.00  0.00    -0.356 N 
ATOM      4  C   UNL     1       1.092   0.555  -2.320  1.00  0.00     0.227 C 
ATOM      5  O   UNL     1       0.442   0.111  -3.268  1.00  0.00    -0.274 OA
ATOM      6  H   UNL     1       2.720   0.643  -3.466  1.00  0.00     0.163 HD
BRANCH   4   7
ATOM      7  C   UNL     1       0.471   0.906  -0.959  1.00  0.00     0.105 C 
ATOM      8  C   UNL     1       0.922  -0.050   0.153  1.00  0.00     0.023 C 
BRANCH   7   9
ATOM      9  C   UNL     1      -1.052   0.965  -1.024  1.00  0.00    -0.035 A 
ATOM     10  C   UNL     1      -1.707   2.187  -1.173  1.00  0.00     0.005 A 
ATOM     11  C   UNL     1      -1.832  -0.199  -0.936  1.00  0.00     0.013 A 
ATOM     12  C   UNL     1      -3.101   2.242  -1.165  1.00  0.00     0.004 A 
ATOM     13  C   UNL     1      -3.241  -0.170  -0.886  1.00  0.00    -0.015 A 
ATOM     14  C   UNL     1      -3.885   1.085  -0.973  1.00  0.00    -0.039 A 
BRANCH  13  15
ATOM     15  C   UNL     1      -3.940  -1.459  -0.720  1.00  0.00    -0.018 A 
ATOM     16  C   UNL     1      -4.824  -1.949  -1.696  1.00  0.00     0.012 A 
ATOM     17  C   UNL     1      -3.689  -2.260   0.412  1.00  0.00     0.012 A 
ATOM     18  C   UNL     1      -5.466  -3.179  -1.528  1.00  0.00     0.040 A 
ATOM     19  C   UNL     1      -4.317  -3.496   0.574  1.00  0.00     0.040 A 
ATOM     20  C   UNL     1      -5.207  -3.940  -0.395  1.00  0.00     0.123 A 
ATOM     21  F   UNL     1      -5.818  -5.121  -0.236  1.00  0.00    -0.207 F 
ENDBRANCH  13  15
BRANCH  14  22
ATOM     22  C   UNL     1      -5.385   1.267  -0.835  1.00  0.00     0.047 C 
BRANCH  22  23
ATOM     23  C   UNL     1      -5.895   1.814   0.506  1.00  0.00     0.060 C 
ATOM     24  C   UNL     1      -5.430   1.091   1.773  1.00  0.00     0.012 C 
ATOM     25  C   UNL     1      -5.442   3.232   0.771  1.00  0.00     0.136 C 
ATOM     26  C   UNL     1      -4.253   1.895   2.313  1.00  0.00     0.009 C 
ATOM     27  C   UNL     1      -4.588   3.347   2.006  1.00  0.00     0.076 C 
ATOM     28  O   UNL     1      -5.751   4.190   0.071  1.00  0.00    -0.299 OA
ENDBRANCH  22  23
ENDBRANCH  14  22
ENDBRANCH   7   9
ENDBRANCH   4   7
ENDBRANCH   2   3
ENDBRANCH   1   2
BRANCH   1  29
ATOM     29  C   UNL     1       5.066  -0.773  -2.283  1.00  0.00     0.023 C 
BRANCH  29  30
ATOM     30  C   UNL     1       6.063   0.124  -3.006  1.00  0.00     0.116 C 
BRANCH  30  31
ATOM     31  N   UNL     1       7.061   0.698  -2.115  1.00  0.00    -0.352 N 
ATOM     32  C   UNL     1       8.411   0.842  -2.316  1.00  0.00     0.251 C 
ATOM     33  H   UNL     1       6.722   1.026  -1.251  1.00  0.00     0.163 HD
ATOM     34  O   UNL     1       9.137   1.238  -1.411  1.00  0.00    -0.269 OA
BRANCH  32  35
ATOM     35  C   UNL     1       8.990   0.478  -3.626  1.00  0.00     0.039 A 
ATOM     36  C   UNL     1      10.090  -0.382  -3.661  1.00  0.00     0.014 A 
ATOM     37  C   UNL     1       8.420   0.950  -4.811  1.00  0.00     0.014 A 
ATOM     38  C   UNL     1      10.570  -0.838  -4.890  1.00  0.00     0.010 A 
ATOM     39  C   UNL     1       8.861   0.448  -6.032  1.00  0.00     0.010 A 
ATOM     40  C   UNL     1       9.930  -0.460  -6.082  1.00  0.00    -0.014 A 
BRANCH  40  41
ATOM     41  C   UNL     1      10.332  -1.030  -7.391  1.00  0.00     0.031 A 
ATOM     42  C   UNL     1      10.896  -0.141  -8.461  1.00  0.00     0.074 A 
ATOM     43  C   UNL     1      10.093  -2.331  -7.649  1.00  0.00     0.049 A 
ATOM     44  N   UNL     1      11.195  -0.432  -9.702  1.00  0.00    -0.248 NA
ATOM     45  C   UNL     1      11.132   1.266  -8.099  1.00  0.00     0.031 C 
ATOM     46  C   UNL     1       9.510  -3.291  -6.708  1.00  0.00     0.029 A 
ATOM     47  N   UNL     1      10.291  -3.066  -8.791  1.00  0.00    -0.354 N 
ATOM     48  C   UNL     1      11.627   0.757 -10.274  1.00  0.00     0.074 A 
ATOM     49  C   UNL     1      11.522   1.780  -9.256  1.00  0.00     0.031 C 
ATOM     50  C   UNL     1       9.405  -4.487  -7.309  1.00  0.00     0.029 A 
ATOM     51  C   UNL     1       9.871  -4.371  -8.686  1.00  0.00     0.049 A 
ATOM     52  H   UNL     1      10.695  -2.694  -9.608  1.00  0.00     0.167 HD
ATOM     53  C   UNL     1      12.079   0.975 -11.531  1.00  0.00     0.031 A 
ATOM     54  C   UNL     1       9.844  -5.357  -9.602  1.00  0.00     0.031 A 
ATOM     55  C   UNL     1      12.203  -0.046 -12.536  1.00  0.00     0.049 A 
ATOM     56  C   UNL     1      10.340  -5.084 -10.994  1.00  0.00     0.074 A 
ATOM     57  C   UNL     1      12.734   0.060 -13.810  1.00  0.00     0.029 A 
ATOM     58  N   UNL     1      11.784  -1.358 -12.384  1.00  0.00    -0.354 N 
ATOM     59  N   UNL     1      10.827  -3.975 -11.493  1.00  0.00    -0.248 NA
ATOM     60  C   UNL     1      10.283  -6.201 -11.949  1.00  0.00     0.031 C 
ATOM     61  C   UNL     1      12.588  -1.175 -14.448  1.00  0.00     0.029 A 
ATOM     62  C   UNL     1      12.011  -2.062 -13.554  1.00  0.00     0.049 A 
ATOM     63  H   UNL     1      11.384  -1.733 -11.566  1.00  0.00     0.167 HD
ATOM     64  C   UNL     1      11.154  -4.264 -12.811  1.00  0.00     0.074 A 
ATOM     65  C   UNL     1      10.825  -5.658 -13.030  1.00  0.00     0.031 C 
ATOM     66  C   UNL     1      11.678  -3.448 -13.756  1.00  0.00     0.031 A 
BRANCH  53  67
ATOM     67  C   UNL     1      12.466   2.379 -11.899  1.00  0.00    -0.014 A 
ATOM     68  C   UNL     1      13.634   2.969 -11.394  1.00  0.00     0.009 A 
ATOM     69  C   UNL     1      11.676   3.101 -12.808  1.00  0.00     0.009 A 
ATOM     70  C   UNL     1      13.989   4.267 -11.770  1.00  0.00     0.001 A 
ATOM     71  C   UNL     1      12.046   4.388 -13.201  1.00  0.00     0.001 A 
ATOM     72  C   UNL     1      13.198   4.972 -12.676  1.00  0.00     0.000 A 
ENDBRANCH  53  67
BRANCH  54  73
ATOM     73  C   UNL     1       9.314  -6.697  -9.239  1.00  0.00    -0.014 A 
ATOM     74  C   UNL     1      10.178  -7.796  -9.120  1.00  0.00     0.009 A 
ATOM     75  C   UNL     1       7.940  -6.887  -9.024  1.00  0.00     0.009 A 
ATOM     76  C   UNL     1       9.673  -9.064  -8.820  1.00  0.00     0.001 A 
ATOM     77  C   UNL     1       7.441  -8.150  -8.697  1.00  0.00     0.001 A 
ATOM     78  C   UNL     1       8.306  -9.238  -8.605  1.00  0.00     0.000 A 
ENDBRANCH  54  73
BRANCH  66  79
ATOM     79  C   UNL     1      11.950  -4.043 -15.107  1.00  0.00    -0.014 A 
ATOM     80  C   UNL     1      10.904  -4.321 -16.000  1.00  0.00     0.009 A 
ATOM     81  C   UNL     1      13.273  -4.278 -15.511  1.00  0.00     0.009 A 
ATOM     82  C   UNL     1      11.178  -4.843 -17.265  1.00  0.00     0.001 A 
ATOM     83  C   UNL     1      13.545  -4.776 -16.786  1.00  0.00     0.001 A 
ATOM     84  C   UNL     1      12.497  -5.064 -17.659  1.00  0.00     0.000 A 
ENDBRANCH  66  79
ENDBRANCH  40  41
ENDBRANCH  32  35
ENDBRANCH  30  31
ENDBRANCH  29  30
ENDBRANCH   1  29
TORSDOF 15
