REMARK SMILES Cc1c(C(=O)Nc2ccc(C(=O)Nc3ccccc3C(=O)NCCCCNC(=O)c3ccc(-c4c5nc(c(-c6ccccc6)c6ccc([nH]6)c(-c6ccccc6)c6nc(c(-c7ccccc7)c7ccc4[nH]7)C=C6)C=C5)cc3)cc2)cccc1[N+](=O)[O-]
REMARK SMILES IDX 23 1 22 2 20 3 21 4 19 6 14 7 15 8 16 9 18 10 17 11 13 12
REMARK SMILES IDX 11 13 12 14 10 16 7 17 8 18 79 19 9 20 78 21 6 22 4 23 5 24
REMARK SMILES IDX 3 26 1 27 2 28 83 29 80 30 82 31 81 32 84 33 85 34 86 35
REMARK SMILES IDX 24 36 25 37 26 38 27 39 28 40 29 42 30 43 31 44 77 45 32 46
REMARK SMILES IDX 76 47 33 48 34 49 35 50 70 51 36 52 75 53 69 54 71 55 37 56
REMARK SMILES IDX 74 57 68 58 67 59 38 61 60 62 45 63 59 64 46 65 49 66 58 67
REMARK SMILES IDX 72 68 47 69 48 70 57 72 73 73 50 74 39 75 40 76 44 77 41 78
REMARK SMILES IDX 43 79 42 80 61 81 62 82 66 83 63 84 65 85 64 86 51 87 52 88
REMARK SMILES IDX 56 89 53 90 55 91 54 92
REMARK H PARENT 22 5 13 15 6 25 27 41 71 60 49 71
REMARK Flexibility Score: inf
ROOT
ATOM      1  C   UNL     1       3.122  -0.342   4.453  1.00  0.00     0.116 C 
ENDROOT
BRANCH   1   2
ATOM      2  N   UNL     1       4.394   0.091   3.885  1.00  0.00    -0.352 N 
ATOM      3  C   UNL     1       4.901   1.316   3.489  1.00  0.00     0.253 C 
ATOM      4  O   UNL     1       6.105   1.377   3.245  1.00  0.00    -0.269 OA
ATOM      5  H   UNL     1       5.031  -0.649   3.757  1.00  0.00     0.163 HD
BRANCH   3   6
ATOM      6  C   UNL     1       4.054   2.529   3.300  1.00  0.00     0.063 A 
ATOM      7  C   UNL     1       4.229   3.417   2.207  1.00  0.00     0.054 A 
ATOM      8  C   UNL     1       3.391   4.543   2.097  1.00  0.00     0.027 A 
ATOM      9  C   UNL     1       2.365   4.770   3.011  1.00  0.00     0.002 A 
ATOM     10  C   UNL     1       3.104   2.858   4.280  1.00  0.00     0.016 A 
ATOM     11  C   UNL     1       2.232   3.937   4.113  1.00  0.00     0.001 A 
BRANCH   7  12
ATOM     12  N   UNL     1       5.143   3.287   1.137  1.00  0.00    -0.321 N 
ATOM     13  C   UNL     1       5.570   2.204   0.399  1.00  0.00     0.255 C 
ATOM     14  O   UNL     1       6.538   2.340  -0.352  1.00  0.00    -0.269 OA
ATOM     15  H   UNL     1       5.556   4.138   0.865  1.00  0.00     0.170 HD
BRANCH  13  16
ATOM     16  C   UNL     1       4.780   0.945   0.314  1.00  0.00     0.040 A 
ATOM     17  C   UNL     1       3.204  -1.334  -0.187  1.00  0.00     0.041 A 
ATOM     18  C   UNL     1       2.700  -0.265   0.534  1.00  0.00     0.027 A 
ATOM     19  C   UNL     1       4.560  -1.330  -0.529  1.00  0.00     0.027 A 
ATOM     20  C   UNL     1       3.441   0.895   0.684  1.00  0.00     0.016 A 
ATOM     21  C   UNL     1       5.346  -0.194  -0.273  1.00  0.00     0.016 A 
BRANCH  17  22
ATOM     22  N   UNL     1       2.381  -2.369  -0.662  1.00  0.00    -0.322 N 
ATOM     23  C   UNL     1       1.009  -2.426  -0.857  1.00  0.00     0.256 C 
ATOM     24  O   UNL     1       0.490  -3.502  -1.151  1.00  0.00    -0.269 OA
ATOM     25  H   UNL     1       2.860  -3.196  -0.897  1.00  0.00     0.170 HD
BRANCH  23  26
ATOM     26  C   UNL     1       0.116  -1.236  -0.707  1.00  0.00     0.049 A 
ATOM     27  C   UNL     1       1.355   0.199  -2.411  1.00  0.00     0.053 C 
ATOM     28  C   UNL     1       0.354   0.029  -1.297  1.00  0.00     0.039 A 
ATOM     29  C   UNL     1      -0.380   1.124  -0.783  1.00  0.00     0.273 A 
ATOM     30  C   UNL     1      -0.990  -1.420   0.145  1.00  0.00     0.014 A 
ATOM     31  C   UNL     1      -1.466   0.937   0.090  1.00  0.00     0.086 A 
ATOM     32  C   UNL     1      -1.801  -0.346   0.509  1.00  0.00     0.008 A 
BRANCH  29  33
ATOM     33  N   UNL     1       0.041   2.512  -1.022  1.00  0.00     0.063 N 
ATOM     34  O   UNL     1      -0.844   3.377  -1.071  1.00  0.00    -0.258 OA
ATOM     35  O   UNL     1       1.256   2.742  -1.079  1.00  0.00    -0.258 OA
ENDBRANCH  29  33
ENDBRANCH  23  26
ENDBRANCH  17  22
ENDBRANCH  13  16
ENDBRANCH   7  12
ENDBRANCH   3   6
ENDBRANCH   1   2
BRANCH   1  36
ATOM     36  C   UNL     1       2.402  -1.514   3.768  1.00  0.00     0.023 C 
BRANCH  36  37
ATOM     37  C   UNL     1       3.252  -2.652   3.215  1.00  0.00     0.023 C 
BRANCH  37  38
ATOM     38  C   UNL     1       3.821  -3.576   4.278  1.00  0.00     0.116 C 
BRANCH  38  39
ATOM     39  N   UNL     1       2.913  -4.634   4.713  1.00  0.00    -0.352 N 
ATOM     40  C   UNL     1       3.066  -5.563   5.734  1.00  0.00     0.251 C 
ATOM     41  H   UNL     1       2.069  -4.697   4.210  1.00  0.00     0.163 HD
ATOM     42  O   UNL     1       2.206  -6.401   5.940  1.00  0.00    -0.269 OA
BRANCH  40  43
ATOM     43  C   UNL     1       4.215  -5.429   6.666  1.00  0.00     0.039 A 
ATOM     44  C   UNL     1       3.942  -5.472   8.038  1.00  0.00     0.014 A 
ATOM     45  C   UNL     1       5.455  -4.997   6.210  1.00  0.00     0.014 A 
ATOM     46  C   UNL     1       4.787  -4.803   8.915  1.00  0.00     0.010 A 
ATOM     47  C   UNL     1       6.229  -4.229   7.052  1.00  0.00     0.010 A 
ATOM     48  C   UNL     1       5.847  -4.070   8.387  1.00  0.00    -0.014 A 
BRANCH  48  49
ATOM     49  C   UNL     1       6.533  -3.019   9.123  1.00  0.00     0.031 A 
ATOM     50  C   UNL     1       7.902  -3.240   9.615  1.00  0.00     0.074 A 
ATOM     51  C   UNL     1       5.930  -1.821   9.282  1.00  0.00     0.049 A 
ATOM     52  N   UNL     1       8.440  -2.582  10.583  1.00  0.00    -0.248 NA
ATOM     53  C   UNL     1       8.759  -4.293   9.085  1.00  0.00     0.031 C 
ATOM     54  C   UNL     1       6.526  -0.569   9.738  1.00  0.00     0.029 A 
ATOM     55  N   UNL     1       4.559  -1.564   9.261  1.00  0.00    -0.354 N 
ATOM     56  C   UNL     1       9.777  -2.902  10.604  1.00  0.00     0.074 A 
ATOM     57  C   UNL     1       9.900  -4.046   9.733  1.00  0.00     0.031 C 
ATOM     58  C   UNL     1       5.550   0.233  10.195  1.00  0.00     0.029 A 
ATOM     59  C   UNL     1       4.317  -0.538  10.191  1.00  0.00     0.049 A 
ATOM     60  H   UNL     1       3.888  -2.017   8.701  1.00  0.00     0.167 HD
ATOM     61  C   UNL     1      10.646  -2.067  11.239  1.00  0.00     0.031 A 
ATOM     62  C   UNL     1       3.544  -0.771  11.292  1.00  0.00     0.031 A 
ATOM     63  C   UNL     1       9.938  -1.026  11.987  1.00  0.00     0.049 A 
ATOM     64  C   UNL     1       4.293  -0.632  12.602  1.00  0.00     0.074 A 
ATOM     65  C   UNL     1       9.683   0.314  11.744  1.00  0.00     0.029 A 
ATOM     66  N   UNL     1       9.096  -1.401  13.030  1.00  0.00    -0.354 N 
ATOM     67  N   UNL     1       5.593  -0.609  12.707  1.00  0.00    -0.248 NA
ATOM     68  C   UNL     1       3.632  -0.546  13.902  1.00  0.00     0.031 C 
ATOM     69  C   UNL     1       8.614   0.717  12.590  1.00  0.00     0.029 A 
ATOM     70  C   UNL     1       8.248  -0.365  13.371  1.00  0.00     0.049 A 
ATOM     71  H   UNL     1       9.103  -2.284  13.464  1.00  0.00     0.167 HD
ATOM     72  C   UNL     1       5.951  -0.534  14.028  1.00  0.00     0.074 A 
ATOM     73  C   UNL     1       4.684  -0.473  14.736  1.00  0.00     0.031 C 
ATOM     74  C   UNL     1       7.257  -0.549  14.427  1.00  0.00     0.031 A 
BRANCH  61  75
ATOM     75  C   UNL     1      12.132  -2.029  10.950  1.00  0.00    -0.014 A 
ATOM     76  C   UNL     1      12.865  -0.864  11.243  1.00  0.00     0.009 A 
ATOM     77  C   UNL     1      12.857  -3.056  10.321  1.00  0.00     0.009 A 
ATOM     78  C   UNL     1      14.205  -0.707  10.857  1.00  0.00     0.001 A 
ATOM     79  C   UNL     1      14.187  -2.900   9.907  1.00  0.00     0.001 A 
ATOM     80  C   UNL     1      14.860  -1.718  10.166  1.00  0.00     0.000 A 
ENDBRANCH  61  75
BRANCH  62  81
ATOM     81  C   UNL     1       2.434  -1.735  11.042  1.00  0.00    -0.014 A 
ATOM     82  C   UNL     1       1.417  -1.359  10.139  1.00  0.00     0.009 A 
ATOM     83  C   UNL     1       2.566  -3.091  11.369  1.00  0.00     0.009 A 
ATOM     84  C   UNL     1       0.641  -2.323   9.489  1.00  0.00     0.001 A 
ATOM     85  C   UNL     1       1.775  -4.053  10.725  1.00  0.00     0.001 A 
ATOM     86  C   UNL     1       0.842  -3.672   9.760  1.00  0.00     0.000 A 
ENDBRANCH  62  81
BRANCH  74  87
ATOM     87  C   UNL     1       7.754  -0.694  15.848  1.00  0.00    -0.014 A 
ATOM     88  C   UNL     1       7.006  -1.236  16.901  1.00  0.00     0.009 A 
ATOM     89  C   UNL     1       9.107  -0.391  16.128  1.00  0.00     0.009 A 
ATOM     90  C   UNL     1       7.566  -1.423  18.174  1.00  0.00     0.001 A 
ATOM     91  C   UNL     1       9.682  -0.622  17.380  1.00  0.00     0.001 A 
ATOM     92  C   UNL     1       8.905  -1.128  18.410  1.00  0.00     0.000 A 
ENDBRANCH  74  87
ENDBRANCH  48  49
ENDBRANCH  40  43
ENDBRANCH  38  39
ENDBRANCH  37  38
ENDBRANCH  36  37
ENDBRANCH   1  36
TORSDOF 16
