REMARK SMILES CCc1cc(OC(F)(F)F)cc2c1O[C@@H](C(F)(F)F)C(C(=O)NCCCCNC(=O)c1ccc(-c3c4nc(c(-c5ccccc5)c5ccc([nH]5)c(-c5ccccc5)c5nc(c(-c6ccccc6)c6ccc3[nH]6)C=C5)C=C4)cc1)=C2
REMARK SMILES IDX 25 1 24 2 23 3 21 4 22 5 20 7 3 8 4 9 13 10 5 11 12 12 14 13
REMARK SMILES IDX 11 14 79 15 15 16 2 17 1 18 6 19 7 20 8 21 9 22 10 23 16 24
REMARK SMILES IDX 17 25 18 26 19 27 26 28 27 29 28 30 29 31 30 33 31 34 32 35
REMARK SMILES IDX 78 36 33 37 77 38 34 39 35 40 36 41 71 42 37 43 76 44 70 45
REMARK SMILES IDX 72 46 38 47 75 48 69 49 68 50 39 52 61 53 46 54 60 55 47 56
REMARK SMILES IDX 50 57 59 58 73 59 48 60 49 61 58 63 74 64 51 65 40 66 41 67
REMARK SMILES IDX 45 68 42 69 44 70 43 71 62 72 63 73 67 74 64 75 66 76 65 77
REMARK SMILES IDX 52 78 53 79 57 80 54 81 56 82 55 83
REMARK H PARENT 23 6 28 32 72 51 50 62
REMARK Flexibility Score: inf
ROOT
ATOM      1  C   UNL     1       2.994   4.624  -7.819  1.00  0.00     0.023 C 
ENDROOT
BRANCH   1   2
ATOM      2  C   UNL     1       3.631   5.096  -6.506  1.00  0.00     0.116 C 
BRANCH   2   3
ATOM      3  N   UNL     1       2.767   6.055  -5.841  1.00  0.00    -0.352 N 
ATOM      4  C   UNL     1       1.762   5.910  -4.937  1.00  0.00     0.251 C 
ATOM      5  O   UNL     1       1.098   6.902  -4.647  1.00  0.00    -0.270 OA
ATOM      6  H   UNL     1       2.942   6.991  -6.094  1.00  0.00     0.163 HD
BRANCH   4   7
ATOM      7  C   UNL     1       1.479   4.625  -4.242  1.00  0.00     0.067 C 
ATOM      8  C   UNL     1       0.785   1.118  -2.003  1.00  0.00    -0.002 A 
ATOM      9  C   UNL     1       0.882  -0.126  -2.662  1.00  0.00     0.054 A 
ATOM     10  C   UNL     1       0.988   2.294  -2.747  1.00  0.00     0.131 A 
ATOM     11  C   UNL     1       1.217  -0.201  -4.015  1.00  0.00     0.130 A 
ATOM     12  C   UNL     1       1.305   2.223  -4.101  1.00  0.00     0.021 A 
ATOM     13  O   UNL     1       0.916   3.485  -2.084  1.00  0.00    -0.475 OA
ATOM     14  C   UNL     1       1.421   0.979  -4.728  1.00  0.00     0.058 A 
ATOM     15  C   UNL     1       1.581   3.436  -4.848  1.00  0.00     0.025 C 
ATOM     16  C   UNL     1       0.899   4.733  -2.836  1.00  0.00     0.314 C 
BRANCH   8  17
ATOM     17  C   UNL     1       0.398   1.199  -0.538  1.00  0.00     0.036 C 
ATOM     18  C   UNL     1       0.933   0.081   0.349  1.00  0.00     0.009 C 
ENDBRANCH   8  17
BRANCH  11  19
ATOM     19  O   UNL     1       1.381  -1.335  -4.758  1.00  0.00    -0.406 OA
BRANCH  19  20
ATOM     20  C   UNL     1       1.278  -2.584  -4.098  1.00  0.00     0.573 C 
ATOM     21  F   UNL     1       2.175  -2.683  -3.094  1.00  0.00    -0.132 F 
ATOM     22  F   UNL     1       0.032  -2.772  -3.613  1.00  0.00    -0.132 F 
ATOM     23  F   UNL     1       1.536  -3.566  -4.990  1.00  0.00    -0.132 F 
ENDBRANCH  19  20
ENDBRANCH  11  19
BRANCH  16  24
ATOM     24  C   UNL     1       1.529   5.816  -1.930  1.00  0.00     0.429 C 
ATOM     25  F   UNL     1       0.986   7.039  -2.118  1.00  0.00    -0.167 F 
ATOM     26  F   UNL     1       1.331   5.528  -0.616  1.00  0.00    -0.167 F 
ATOM     27  F   UNL     1       2.867   5.920  -2.108  1.00  0.00    -0.167 F 
ENDBRANCH  16  24
ENDBRANCH   4   7
ENDBRANCH   2   3
ENDBRANCH   1   2
BRANCH   1  28
ATOM     28  C   UNL     1       3.090   5.632  -8.967  1.00  0.00     0.023 C 
BRANCH  28  29
ATOM     29  C   UNL     1       4.502   5.858  -9.487  1.00  0.00     0.116 C 
BRANCH  29  30
ATOM     30  N   UNL     1       5.112   4.655 -10.033  1.00  0.00    -0.352 N 
ATOM     31  C   UNL     1       6.086   4.568 -11.003  1.00  0.00     0.251 C 
ATOM     32  H   UNL     1       4.789   3.801  -9.666  1.00  0.00     0.163 HD
ATOM     33  O   UNL     1       6.443   3.489 -11.441  1.00  0.00    -0.269 OA
BRANCH  31  34
ATOM     34  C   UNL     1       6.655   5.823 -11.537  1.00  0.00     0.039 A 
ATOM     35  C   UNL     1       6.626   6.042 -12.916  1.00  0.00     0.014 A 
ATOM     36  C   UNL     1       7.153   6.796 -10.668  1.00  0.00     0.014 A 
ATOM     37  C   UNL     1       7.035   7.276 -13.423  1.00  0.00     0.010 A 
ATOM     38  C   UNL     1       7.500   8.045 -11.169  1.00  0.00     0.010 A 
ATOM     39  C   UNL     1       7.441   8.297 -12.549  1.00  0.00    -0.014 A 
BRANCH  39  40
ATOM     40  C   UNL     1       7.826   9.640 -13.042  1.00  0.00     0.031 A 
ATOM     41  C   UNL     1       9.239  10.117 -12.862  1.00  0.00     0.074 A 
ATOM     42  C   UNL     1       6.891  10.462 -13.555  1.00  0.00     0.049 A 
ATOM     43  N   UNL     1       9.743  11.305 -13.075  1.00  0.00    -0.248 NA
ATOM     44  C   UNL     1      10.204   9.134 -12.343  1.00  0.00     0.031 C 
ATOM     45  C   UNL     1       5.480  10.128 -13.756  1.00  0.00     0.029 A 
ATOM     46  N   UNL     1       6.989  11.762 -13.982  1.00  0.00    -0.354 N 
ATOM     47  C   UNL     1      11.073  11.221 -12.683  1.00  0.00     0.074 A 
ATOM     48  C   UNL     1      11.288   9.878 -12.190  1.00  0.00     0.031 C 
ATOM     49  C   UNL     1       4.847  11.191 -14.279  1.00  0.00     0.029 A 
ATOM     50  C   UNL     1       5.796  12.291 -14.411  1.00  0.00     0.049 A 
ATOM     51  H   UNL     1       7.834  12.267 -13.982  1.00  0.00     0.167 HD
ATOM     52  C   UNL     1      12.032  12.175 -12.738  1.00  0.00     0.031 A 
ATOM     53  C   UNL     1       5.500  13.530 -14.847  1.00  0.00     0.031 A 
ATOM     54  C   UNL     1      11.825  13.500 -13.252  1.00  0.00     0.049 A 
ATOM     55  C   UNL     1       6.585  14.568 -14.910  1.00  0.00     0.074 A 
ATOM     56  C   UNL     1      12.746  14.523 -13.399  1.00  0.00     0.029 A 
ATOM     57  N   UNL     1      10.610  13.983 -13.713  1.00  0.00    -0.354 N 
ATOM     58  N   UNL     1       7.847  14.464 -14.572  1.00  0.00    -0.248 NA
ATOM     59  C   UNL     1       6.204  15.892 -15.422  1.00  0.00     0.031 C 
ATOM     60  C   UNL     1      12.080  15.637 -13.921  1.00  0.00     0.029 A 
ATOM     61  C   UNL     1      10.755  15.293 -14.137  1.00  0.00     0.049 A 
ATOM     62  H   UNL     1       9.770  13.472 -13.735  1.00  0.00     0.167 HD
ATOM     63  C   UNL     1       8.418  15.696 -14.859  1.00  0.00     0.074 A 
ATOM     64  C   UNL     1       7.367  16.530 -15.404  1.00  0.00     0.031 C 
ATOM     65  C   UNL     1       9.700  16.100 -14.689  1.00  0.00     0.031 A 
BRANCH  52  66
ATOM     66  C   UNL     1      13.393  11.810 -12.217  1.00  0.00    -0.014 A 
ATOM     67  C   UNL     1      14.226  10.925 -12.919  1.00  0.00     0.009 A 
ATOM     68  C   UNL     1      13.852  12.371 -11.016  1.00  0.00     0.009 A 
ATOM     69  C   UNL     1      15.478  10.579 -12.408  1.00  0.00     0.001 A 
ATOM     70  C   UNL     1      15.116  12.043 -10.521  1.00  0.00     0.001 A 
ATOM     71  C   UNL     1      15.923  11.140 -11.211  1.00  0.00     0.000 A 
ENDBRANCH  52  66
BRANCH  53  72
ATOM     72  C   UNL     1       4.116  13.856 -15.276  1.00  0.00    -0.014 A 
ATOM     73  C   UNL     1       3.817  14.018 -16.637  1.00  0.00     0.009 A 
ATOM     74  C   UNL     1       3.090  14.012 -14.331  1.00  0.00     0.009 A 
ATOM     75  C   UNL     1       2.524  14.353 -17.043  1.00  0.00     0.001 A 
ATOM     76  C   UNL     1       1.792  14.324 -14.742  1.00  0.00     0.001 A 
ATOM     77  C   UNL     1       1.512  14.502 -16.096  1.00  0.00     0.000 A 
ENDBRANCH  53  72
BRANCH  65  78
ATOM     78  C   UNL     1      10.049  17.487 -15.144  1.00  0.00    -0.014 A 
ATOM     79  C   UNL     1       9.677  18.614 -14.397  1.00  0.00     0.009 A 
ATOM     80  C   UNL     1      10.810  17.660 -16.311  1.00  0.00     0.009 A 
ATOM     81  C   UNL     1      10.040  19.892 -14.825  1.00  0.00     0.001 A 
ATOM     82  C   UNL     1      11.190  18.937 -16.724  1.00  0.00     0.001 A 
ATOM     83  C   UNL     1      10.800  20.052 -15.984  1.00  0.00     0.000 A 
ENDBRANCH  65  78
ENDBRANCH  39  40
ENDBRANCH  31  34
ENDBRANCH  29  30
ENDBRANCH  28  29
ENDBRANCH   1  28
TORSDOF 15
