REMARK SMILES O=C(COc1ccccc1/C=C1/SC(=O)N(c2ccc(F)cc2)C1=O)NCCCCNC(=O)c1ccc(-c2c3nc(c(-c4ccccc4)c4ccc([nH]4)c(-c4ccccc4)c4nc(c(-c5ccccc5)c5ccc2[nH]5)C=C4)C=C3)cc1
REMARK SMILES IDX 27 1 26 2 1 3 2 4 3 6 4 7 5 8 6 9 10 10 7 11 9 12 8 13 11 14
REMARK SMILES IDX 12 15 13 16 24 17 14 18 16 19 25 20 15 21 17 22 18 23 23 24
REMARK SMILES IDX 19 25 22 26 20 27 21 28 28 29 29 30 30 31 31 32 32 33 33 35
REMARK SMILES IDX 34 36 35 37 81 38 36 39 80 40 37 41 38 42 39 43 74 44 40 45
REMARK SMILES IDX 79 46 73 47 75 48 41 49 78 50 72 51 71 52 42 54 64 55 49 56
REMARK SMILES IDX 63 57 50 58 53 59 62 60 76 61 51 62 52 63 61 65 77 66 54 67
REMARK SMILES IDX 43 68 44 69 48 70 45 71 47 72 46 73 65 74 66 75 70 76 67 77
REMARK SMILES IDX 69 78 68 79 55 80 56 81 60 82 57 83 59 84 58 85
REMARK H PARENT 26 5 31 34 75 53 53 64
REMARK Flexibility Score: inf
ROOT
ATOM      1  C   UNL     1       2.477  -0.859   2.465  1.00  0.00     0.116 C 
ENDROOT
BRANCH   1   2
ATOM      2  N   UNL     1       2.909  -0.373   0.457  1.00  0.00    -0.353 N 
ATOM      3  O   UNL     1       1.693  -0.947  -1.614  1.00  0.00    -0.271 OA
ATOM      4  C   UNL     1       2.519  -0.298  -0.981  1.00  0.00     0.257 C 
ATOM      5  H   UNL     1       3.827  -0.018   0.482  1.00  0.00     0.163 HD
BRANCH   4   6
ATOM      6  C   UNL     1       3.281   0.809  -1.708  1.00  0.00     0.329 C 
BRANCH   6   7
ATOM      7  O   UNL     1       3.818   1.766  -0.815  1.00  0.00    -0.483 OA
BRANCH   7   8
ATOM      8  C   UNL     1       3.028   2.859  -0.533  1.00  0.00     0.127 A 
ATOM      9  C   UNL     1       3.690   4.064  -0.796  1.00  0.00     0.047 A 
ATOM     10  C   UNL     1       1.805   2.851   0.192  1.00  0.00     0.018 A 
ATOM     11  C   UNL     1       3.184   5.266  -0.316  1.00  0.00     0.004 A 
ATOM     12  C   UNL     1       1.327   4.075   0.683  1.00  0.00     0.012 A 
ATOM     13  C   UNL     1       2.019   5.268   0.445  1.00  0.00     0.001 A 
BRANCH  10  14
ATOM     14  C   UNL     1       1.023   1.650   0.556  1.00  0.00     0.033 C 
ATOM     15  C   UNL     1       1.569   0.711   1.354  1.00  0.00     0.084 C 
ATOM     16  S   UNL     1       1.069  -1.469   0.882  1.00  0.00    -0.022 SA
ATOM     17  C   UNL     1       3.454   0.902   1.871  1.00  0.00     0.272 C 
ATOM     18  C   UNL     1       3.327  -2.098   1.042  1.00  0.00     0.298 C 
ATOM     19  N   UNL     1       4.298  -0.692   1.666  1.00  0.00    -0.236 N 
ATOM     20  O   UNL     1       3.918   1.923   2.356  1.00  0.00    -0.268 OA
ATOM     21  O   UNL     1       3.672  -3.214   0.685  1.00  0.00    -0.260 OA
BRANCH  19  22
ATOM     22  C   UNL     1       5.700  -0.779   1.961  1.00  0.00     0.053 A 
ATOM     23  C   UNL     1       6.336   0.248   2.682  1.00  0.00     0.030 A 
ATOM     24  C   UNL     1       6.465  -1.889   1.591  1.00  0.00     0.030 A 
ATOM     25  C   UNL     1       7.682   0.166   3.043  1.00  0.00     0.041 A 
ATOM     26  C   UNL     1       7.819  -1.973   1.952  1.00  0.00     0.041 A 
ATOM     27  C   UNL     1       8.412  -0.949   2.679  1.00  0.00     0.123 A 
ATOM     28  F   UNL     1       9.696  -1.042   3.043  1.00  0.00    -0.207 F 
ENDBRANCH  19  22
ENDBRANCH  10  14
ENDBRANCH   7   8
ENDBRANCH   6   7
ENDBRANCH   4   6
ENDBRANCH   1   2
BRANCH   1  29
ATOM     29  C   UNL     1       2.433  -2.386   3.252  1.00  0.00     0.023 C 
BRANCH  29  30
ATOM     30  C   UNL     1       3.730  -2.946   3.852  1.00  0.00     0.023 C 
BRANCH  30  31
ATOM     31  C   UNL     1       4.433  -2.049   4.855  1.00  0.00     0.116 C 
BRANCH  31  32
ATOM     32  N   UNL     1       3.852  -2.124   6.181  1.00  0.00    -0.352 N 
ATOM     33  C   UNL     1       4.532  -2.289   7.365  1.00  0.00     0.251 C 
ATOM     34  H   UNL     1       2.872  -2.050   6.239  1.00  0.00     0.163 HD
ATOM     35  O   UNL     1       3.938  -2.498   8.415  1.00  0.00    -0.269 OA
BRANCH  33  36
ATOM     36  C   UNL     1       6.009  -2.240   7.334  1.00  0.00     0.039 A 
ATOM     37  C   UNL     1       6.735  -3.318   7.841  1.00  0.00     0.014 A 
ATOM     38  C   UNL     1       6.663  -1.165   6.724  1.00  0.00     0.014 A 
ATOM     39  C   UNL     1       8.125  -3.329   7.709  1.00  0.00     0.010 A 
ATOM     40  C   UNL     1       8.037  -1.224   6.517  1.00  0.00     0.010 A 
ATOM     41  C   UNL     1       8.787  -2.293   7.028  1.00  0.00    -0.014 A 
BRANCH  41  42
ATOM     42  C   UNL     1      10.267  -2.291   6.891  1.00  0.00     0.031 A 
ATOM     43  C   UNL     1      11.077  -1.185   7.516  1.00  0.00     0.074 A 
ATOM     44  C   UNL     1      10.885  -3.264   6.193  1.00  0.00     0.049 A 
ATOM     45  N   UNL     1      12.375  -1.012   7.522  1.00  0.00    -0.248 NA
ATOM     46  C   UNL     1      10.330  -0.118   8.203  1.00  0.00     0.031 C 
ATOM     47  C   UNL     1      10.217  -4.365   5.495  1.00  0.00     0.029 A 
ATOM     48  N   UNL     1      12.220  -3.489   5.965  1.00  0.00    -0.354 N 
ATOM     49  C   UNL     1      12.592   0.184   8.196  1.00  0.00     0.074 A 
ATOM     50  C   UNL     1      11.295   0.730   8.521  1.00  0.00     0.031 C 
ATOM     51  C   UNL     1      11.146  -5.171   4.956  1.00  0.00     0.029 A 
ATOM     52  C   UNL     1      12.472  -4.625   5.234  1.00  0.00     0.049 A 
ATOM     53  H   UNL     1      12.931  -2.892   6.294  1.00  0.00     0.167 HD
ATOM     54  C   UNL     1      13.765   0.764   8.545  1.00  0.00     0.031 A 
ATOM     55  C   UNL     1      13.638  -5.168   4.836  1.00  0.00     0.031 A 
ATOM     56  C   UNL     1      15.057   0.218   8.234  1.00  0.00     0.049 A 
ATOM     57  C   UNL     1      14.929  -4.500   5.225  1.00  0.00     0.074 A 
ATOM     58  C   UNL     1      16.305   0.699   8.588  1.00  0.00     0.029 A 
ATOM     59  N   UNL     1      15.266  -0.933   7.490  1.00  0.00    -0.354 N 
ATOM     60  N   UNL     1      15.118  -3.413   5.933  1.00  0.00    -0.248 NA
ATOM     61  C   UNL     1      16.170  -5.146   4.772  1.00  0.00     0.031 C 
ATOM     62  C   UNL     1      17.271  -0.129   8.008  1.00  0.00     0.029 A 
ATOM     63  C   UNL     1      16.624  -1.164   7.352  1.00  0.00     0.049 A 
ATOM     64  H   UNL     1      14.554  -1.502   7.116  1.00  0.00     0.167 HD
ATOM     65  C   UNL     1      16.495  -3.259   6.032  1.00  0.00     0.074 A 
ATOM     66  C   UNL     1      17.093  -4.376   5.331  1.00  0.00     0.031 C 
ATOM     67  C   UNL     1      17.202  -2.280   6.649  1.00  0.00     0.031 A 
BRANCH  54  68
ATOM     68  C   UNL     1      13.694   2.061   9.306  1.00  0.00    -0.014 A 
ATOM     69  C   UNL     1      13.200   2.111  10.620  1.00  0.00     0.009 A 
ATOM     70  C   UNL     1      14.148   3.248   8.709  1.00  0.00     0.009 A 
ATOM     71  C   UNL     1      13.118   3.326  11.302  1.00  0.00     0.001 A 
ATOM     72  C   UNL     1      14.098   4.456   9.407  1.00  0.00     0.001 A 
ATOM     73  C   UNL     1      13.573   4.497  10.697  1.00  0.00     0.000 A 
ENDBRANCH  54  68
BRANCH  55  74
ATOM     74  C   UNL     1      13.643  -6.423   4.036  1.00  0.00    -0.014 A 
ATOM     75  C   UNL     1      14.129  -7.621   4.583  1.00  0.00     0.009 A 
ATOM     76  C   UNL     1      13.172  -6.426   2.713  1.00  0.00     0.009 A 
ATOM     77  C   UNL     1      14.171  -8.787   3.814  1.00  0.00     0.001 A 
ATOM     78  C   UNL     1      13.184  -7.601   1.958  1.00  0.00     0.001 A 
ATOM     79  C   UNL     1      13.694  -8.777   2.504  1.00  0.00     0.000 A 
ENDBRANCH  55  74
BRANCH  67  80
ATOM     80  C   UNL     1      18.702  -2.392   6.627  1.00  0.00    -0.014 A 
ATOM     81  C   UNL     1      19.433  -2.189   5.446  1.00  0.00     0.009 A 
ATOM     82  C   UNL     1      19.394  -2.658   7.819  1.00  0.00     0.009 A 
ATOM     83  C   UNL     1      20.826  -2.287   5.454  1.00  0.00     0.001 A 
ATOM     84  C   UNL     1      20.788  -2.720   7.830  1.00  0.00     0.001 A 
ATOM     85  C   UNL     1      21.502  -2.546   6.647  1.00  0.00     0.000 A 
ENDBRANCH  67  80
ENDBRANCH  41  42
ENDBRANCH  33  36
ENDBRANCH  31  32
ENDBRANCH  30  31
ENDBRANCH  29  30
ENDBRANCH   1  29
TORSDOF 15
