REMARK SMILES C[C@H](C(=O)NCCCCNC(=O)c1ccc(-c2c3nc(c(-c4ccccc4)c4ccc([nH]4)c(-c4ccccc4)c4nc(c(-c5ccccc5)c5ccc2[nH]5)C=C4)C=C3)cc1)c1ccc2c(c1)[nH]c1ccc(Cl)cc12
REMARK SMILES IDX 8 1 7 2 6 3 5 4 3 5 4 6 2 8 1 9 61 10 62 11 66 12 63 13
REMARK SMILES IDX 65 14 64 15 67 16 74 17 68 18 73 20 69 21 71 22 70 23 72 24
REMARK SMILES IDX 9 25 10 26 11 27 12 29 13 30 14 31 60 32 15 33 59 34 16 35
REMARK SMILES IDX 17 36 18 37 53 38 19 39 58 40 52 41 54 42 20 43 57 44 51 45
REMARK SMILES IDX 50 46 21 48 43 49 28 50 42 51 29 52 32 53 41 54 55 55 30 56
REMARK SMILES IDX 31 57 40 59 56 60 33 61 22 62 23 63 27 64 24 65 26 66 25 67
REMARK SMILES IDX 44 68 45 69 49 70 46 71 48 72 47 73 34 74 35 75 39 76 36 77
REMARK SMILES IDX 38 78 37 79
REMARK H PARENT 5 7 67 19 10 28 54 47 32 58
REMARK Flexibility Score: inf
ROOT
ATOM      1  C   UNL     1       0.935  -3.056  -3.103  1.00  0.00     0.023 C 
ENDROOT
BRANCH   1   2
ATOM      2  C   UNL     1      -0.006  -1.852  -3.083  1.00  0.00     0.023 C 
BRANCH   2   3
ATOM      3  C   UNL     1      -0.321  -1.268  -1.708  1.00  0.00     0.116 C 
BRANCH   3   4
ATOM      4  N   UNL     1       0.859  -0.938  -0.924  1.00  0.00    -0.356 N 
ATOM      5  C   UNL     1       1.079   0.104  -0.069  1.00  0.00     0.227 C 
ATOM      6  O   UNL     1       2.080   0.033   0.651  1.00  0.00    -0.274 OA
ATOM      7  H   UNL     1       1.614  -1.561  -1.026  1.00  0.00     0.163 HD
BRANCH   5   8
ATOM      8  C   UNL     1       0.192   1.356  -0.047  1.00  0.00     0.105 C 
ATOM      9  C   UNL     1       0.539   2.172  -1.301  1.00  0.00     0.023 C 
BRANCH   8  10
ATOM     10  C   UNL     1      -1.299   1.108   0.185  1.00  0.00    -0.034 A 
ATOM     11  C   UNL     1      -2.271   1.989  -0.314  1.00  0.00     0.005 A 
ATOM     12  C   UNL     1      -1.720  -0.018   0.919  1.00  0.00     0.031 A 
ATOM     13  C   UNL     1      -3.641   1.715  -0.202  1.00  0.00     0.011 A 
ATOM     14  C   UNL     1      -3.089  -0.308   0.969  1.00  0.00     0.047 A 
ATOM     15  C   UNL     1      -4.059   0.522   0.416  1.00  0.00     0.007 A 
ATOM     16  N   UNL     1      -3.741  -1.393   1.504  1.00  0.00    -0.355 N 
ATOM     17  C   UNL     1      -5.330  -0.098   0.634  1.00  0.00     0.009 A 
ATOM     18  C   UNL     1      -5.098  -1.300   1.302  1.00  0.00     0.047 A 
ATOM     19  H   UNL     1      -3.297  -2.137   1.970  1.00  0.00     0.167 HD
ATOM     20  C   UNL     1      -6.657   0.249   0.309  1.00  0.00     0.031 A 
ATOM     21  C   UNL     1      -6.123  -2.182   1.661  1.00  0.00     0.028 A 
ATOM     22  C   UNL     1      -7.692  -0.619   0.670  1.00  0.00     0.041 A 
ATOM     23  C   UNL     1      -7.432  -1.816   1.334  1.00  0.00     0.022 A 
ATOM     24  Cl  UNL     1      -9.318  -0.200   0.287  1.00  0.00    -0.084 Cl
ENDBRANCH   8  10
ENDBRANCH   5   8
ENDBRANCH   3   4
ENDBRANCH   2   3
ENDBRANCH   1   2
BRANCH   1  25
ATOM     25  C   UNL     1       0.505  -4.246  -2.251  1.00  0.00     0.116 C 
BRANCH  25  26
ATOM     26  N   UNL     1      -0.673  -4.926  -2.768  1.00  0.00    -0.352 N 
ATOM     27  C   UNL     1      -0.810  -6.201  -3.276  1.00  0.00     0.251 C 
ATOM     28  H   UNL     1      -1.500  -4.393  -2.754  1.00  0.00     0.163 HD
ATOM     29  O   UNL     1      -1.866  -6.550  -3.785  1.00  0.00    -0.269 OA
BRANCH  27  30
ATOM     30  C   UNL     1       0.332  -7.143  -3.239  1.00  0.00     0.039 A 
ATOM     31  C   UNL     1       0.666  -7.848  -4.400  1.00  0.00     0.014 A 
ATOM     32  C   UNL     1       1.078  -7.324  -2.073  1.00  0.00     0.014 A 
ATOM     33  C   UNL     1       1.811  -8.652  -4.421  1.00  0.00     0.010 A 
ATOM     34  C   UNL     1       2.257  -8.063  -2.117  1.00  0.00     0.010 A 
ATOM     35  C   UNL     1       2.645  -8.722  -3.295  1.00  0.00    -0.014 A 
BRANCH  35  36
ATOM     36  C   UNL     1       3.946  -9.441  -3.317  1.00  0.00     0.031 A 
ATOM     37  C   UNL     1       4.187 -10.594  -2.384  1.00  0.00     0.074 A 
ATOM     38  C   UNL     1       4.956  -8.973  -4.077  1.00  0.00     0.049 A 
ATOM     39  N   UNL     1       5.303 -11.225  -2.120  1.00  0.00    -0.248 NA
ATOM     40  C   UNL     1       3.024 -11.076  -1.623  1.00  0.00     0.031 C 
ATOM     41  C   UNL     1       4.871  -7.838  -4.997  1.00  0.00     0.029 A 
ATOM     42  N   UNL     1       6.266  -9.377  -4.166  1.00  0.00    -0.354 N 
ATOM     43  C   UNL     1       4.986 -12.151  -1.134  1.00  0.00     0.074 A 
ATOM     44  C   UNL     1       3.582 -11.976  -0.827  1.00  0.00     0.031 C 
ATOM     45  C   UNL     1       6.075  -7.634  -5.554  1.00  0.00     0.029 A 
ATOM     46  C   UNL     1       7.027  -8.590  -4.997  1.00  0.00     0.049 A 
ATOM     47  H   UNL     1       6.625 -10.155  -3.682  1.00  0.00     0.167 HD
ATOM     48  C   UNL     1       5.788 -13.068  -0.541  1.00  0.00     0.031 A 
ATOM     49  C   UNL     1       8.347  -8.612  -5.261  1.00  0.00     0.031 A 
ATOM     50  C   UNL     1       7.179 -13.252  -0.857  1.00  0.00     0.049 A 
ATOM     51  C   UNL     1       9.220  -9.637  -4.597  1.00  0.00     0.074 A 
ATOM     52  C   UNL     1       8.055 -14.206  -0.367  1.00  0.00     0.029 A 
ATOM     53  N   UNL     1       7.900 -12.463  -1.740  1.00  0.00    -0.354 N 
ATOM     54  N   UNL     1       8.892 -10.552  -3.717  1.00  0.00    -0.248 NA
ATOM     55  C   UNL     1      10.643  -9.639  -4.967  1.00  0.00     0.031 C 
ATOM     56  C   UNL     1       9.318 -13.961  -0.914  1.00  0.00     0.029 A 
ATOM     57  C   UNL     1       9.216 -12.890  -1.788  1.00  0.00     0.049 A 
ATOM     58  H   UNL     1       7.530 -11.711  -2.256  1.00  0.00     0.167 HD
ATOM     59  C   UNL     1      10.060 -11.254  -3.447  1.00  0.00     0.074 A 
ATOM     60  C   UNL     1      11.102 -10.665  -4.262  1.00  0.00     0.031 C 
ATOM     61  C   UNL     1      10.246 -12.297  -2.602  1.00  0.00     0.031 A 
BRANCH  48  62
ATOM     62  C   UNL     1       5.176 -13.923   0.533  1.00  0.00    -0.014 A 
ATOM     63  C   UNL     1       4.214 -14.901   0.234  1.00  0.00     0.009 A 
ATOM     64  C   UNL     1       5.577 -13.753   1.868  1.00  0.00     0.009 A 
ATOM     65  C   UNL     1       3.628 -15.653   1.255  1.00  0.00     0.001 A 
ATOM     66  C   UNL     1       5.014 -14.529   2.882  1.00  0.00     0.001 A 
ATOM     67  C   UNL     1       4.030 -15.468   2.577  1.00  0.00     0.000 A 
ENDBRANCH  48  62
BRANCH  49  68
ATOM     68  C   UNL     1       8.920  -7.616  -6.203  1.00  0.00    -0.014 A 
ATOM     69  C   UNL     1       9.310  -7.999  -7.495  1.00  0.00     0.009 A 
ATOM     70  C   UNL     1       9.048  -6.269  -5.826  1.00  0.00     0.009 A 
ATOM     71  C   UNL     1       9.827  -7.056  -8.386  1.00  0.00     0.001 A 
ATOM     72  C   UNL     1       9.542  -5.324  -6.728  1.00  0.00     0.001 A 
ATOM     73  C   UNL     1       9.936  -5.720  -8.005  1.00  0.00     0.000 A 
ENDBRANCH  49  68
BRANCH  61  74
ATOM     74  C   UNL     1      11.620 -12.901  -2.538  1.00  0.00    -0.014 A 
ATOM     75  C   UNL     1      12.671 -12.254  -1.871  1.00  0.00     0.009 A 
ATOM     76  C   UNL     1      11.845 -14.170  -3.095  1.00  0.00     0.009 A 
ATOM     77  C   UNL     1      13.927 -12.859  -1.781  1.00  0.00     0.001 A 
ATOM     78  C   UNL     1      13.094 -14.783  -2.982  1.00  0.00     0.001 A 
ATOM     79  C   UNL     1      14.135 -14.125  -2.329  1.00  0.00     0.000 A 
ENDBRANCH  61  74
ENDBRANCH  35  36
ENDBRANCH  27  30
ENDBRANCH  25  26
ENDBRANCH   1  25
TORSDOF 12
