REMARK SMILES NC(=O)C[NH+]1CCC(C(=O)N[C@H](C(=O)NCCCCNC(=O)c2ccc(-c3c4nc(c(-c5ccccc5)c5ccc([nH]5)c(-c5ccccc5)c5nc(c(-c6ccccc6)c6ccc3[nH]6)C=C5)C=C4)cc2)c2ccc(Cl)cc2)CC1
REMARK SMILES IDX 16 1 15 2 13 3 14 4 12 6 11 7 9 8 10 9 8 11 5 12 6 13 79 14
REMARK SMILES IDX 7 16 78 17 4 18 2 19 1 20 3 23 71 24 72 25 77 26 73 27 76 28
REMARK SMILES IDX 74 29 75 30 17 31 18 32 19 33 20 34 21 35 22 37 23 38 24 39
REMARK SMILES IDX 70 40 25 41 69 42 26 43 27 44 28 45 63 46 29 47 68 48 62 49
REMARK SMILES IDX 64 50 30 51 67 52 61 53 60 54 31 56 53 57 38 58 52 59 39 60
REMARK SMILES IDX 42 61 51 62 65 63 40 64 41 65 50 67 66 68 43 69 32 70 33 71
REMARK SMILES IDX 37 72 34 73 36 74 35 75 54 76 55 77 59 78 56 79 58 80 57 81
REMARK SMILES IDX 44 82 45 83 49 84 46 85 48 86 47 87
REMARK H PARENT 15 5 11 10 5 15 1 21 1 22 20 36 64 55 42 66
REMARK Flexibility Score: inf
ROOT
ATOM      1  C   UNL     1       7.087   1.305  -6.824  1.00  0.00     0.116 C 
ENDROOT
BRANCH   1   2
ATOM      2  N   UNL     1       5.714   1.771  -6.769  1.00  0.00    -0.354 N 
ATOM      3  C   UNL     1       4.833   1.792  -5.709  1.00  0.00     0.247 C 
ATOM      4  O   UNL     1       3.725   2.283  -5.950  1.00  0.00    -0.272 OA
ATOM      5  H   UNL     1       5.358   2.126  -7.615  1.00  0.00     0.163 HD
BRANCH   3   6
ATOM      6  C   UNL     1       5.151   1.093  -4.335  1.00  0.00     0.202 C 
BRANCH   6   7
ATOM      7  N   UNL     1       6.559   0.767  -4.071  1.00  0.00    -0.340 N 
ATOM      8  C   UNL     1       7.659   1.455  -3.694  1.00  0.00     0.224 C 
ATOM      9  O   UNL     1       8.692   0.776  -3.618  1.00  0.00    -0.275 OA
ATOM     10  H   UNL     1       6.748  -0.191  -4.200  1.00  0.00     0.164 HD
BRANCH   8  11
ATOM     11  C   UNL     1       7.732   2.941  -3.343  1.00  0.00     0.089 C 
ATOM     12  N   UNL     1       6.440   5.299  -2.191  1.00  0.00    -0.327 N 
ATOM     13  C   UNL     1       6.853   5.320  -3.601  1.00  0.00     0.263 C 
ATOM     14  C   UNL     1       7.456   4.577  -1.406  1.00  0.00     0.263 C 
ATOM     15  H   UNL     1       5.547   4.818  -2.082  1.00  0.00     0.348 HD
ATOM     16  C   UNL     1       6.906   3.910  -4.178  1.00  0.00     0.075 C 
ATOM     17  C   UNL     1       7.544   3.116  -1.838  1.00  0.00     0.075 C 
BRANCH  12  18
ATOM     18  C   UNL     1       6.281   6.695  -1.716  1.00  0.00     0.363 C 
BRANCH  18  19
ATOM     19  C   UNL     1       5.855   6.762  -0.248  1.00  0.00     0.272 C 
ATOM     20  N   UNL     1       4.522   6.598  -0.006  1.00  0.00    -0.365 N 
ATOM     21  H   UNL     1       4.182   6.630   0.917  1.00  0.00     0.159 HD
ATOM     22  H   UNL     1       3.901   6.448  -0.755  1.00  0.00     0.159 HD
ATOM     23  O   UNL     1       6.643   6.949   0.675  1.00  0.00    -0.269 OA
ENDBRANCH  18  19
ENDBRANCH  12  18
ENDBRANCH   8  11
ENDBRANCH   6   7
BRANCH   6  24
ATOM     24  C   UNL     1       4.478   1.607  -3.057  1.00  0.00    -0.016 A 
ATOM     25  C   UNL     1       4.621   0.843  -1.877  1.00  0.00     0.008 A 
ATOM     26  C   UNL     1       3.814   2.838  -2.955  1.00  0.00     0.008 A 
ATOM     27  C   UNL     1       4.234   1.346  -0.632  1.00  0.00     0.021 A 
ATOM     28  C   UNL     1       3.421   3.341  -1.709  1.00  0.00     0.021 A 
ATOM     29  C   UNL     1       3.663   2.610  -0.550  1.00  0.00     0.041 A 
ATOM     30  Cl  UNL     1       3.288   3.286   0.986  1.00  0.00    -0.084 Cl
ENDBRANCH   6  24
ENDBRANCH   3   6
ENDBRANCH   1   2
BRANCH   1  31
ATOM     31  C   UNL     1       7.745   1.313  -8.201  1.00  0.00     0.023 C 
BRANCH  31  32
ATOM     32  C   UNL     1       7.755   2.636  -8.968  1.00  0.00     0.023 C 
BRANCH  32  33
ATOM     33  C   UNL     1       8.090   3.898  -8.181  1.00  0.00     0.116 C 
BRANCH  33  34
ATOM     34  N   UNL     1       9.445   3.941  -7.652  1.00  0.00    -0.352 N 
ATOM     35  C   UNL     1      10.543   4.671  -8.051  1.00  0.00     0.251 C 
ATOM     36  H   UNL     1       9.604   3.349  -6.881  1.00  0.00     0.163 HD
ATOM     37  O   UNL     1      11.625   4.500  -7.495  1.00  0.00    -0.269 OA
BRANCH  35  38
ATOM     38  C   UNL     1      10.452   5.623  -9.180  1.00  0.00     0.039 A 
ATOM     39  C   UNL     1      11.425   5.567 -10.183  1.00  0.00     0.014 A 
ATOM     40  C   UNL     1       9.418   6.556  -9.269  1.00  0.00     0.014 A 
ATOM     41  C   UNL     1      11.291   6.357 -11.328  1.00  0.00     0.010 A 
ATOM     42  C   UNL     1       9.238   7.279 -10.447  1.00  0.00     0.010 A 
ATOM     43  C   UNL     1      10.160   7.172 -11.499  1.00  0.00    -0.014 A 
BRANCH  43  44
ATOM     44  C   UNL     1       9.894   7.864 -12.788  1.00  0.00     0.031 A 
ATOM     45  C   UNL     1       9.796   9.362 -12.856  1.00  0.00     0.074 A 
ATOM     46  C   UNL     1       9.635   7.130 -13.889  1.00  0.00     0.049 A 
ATOM     47  N   UNL     1       9.495  10.124 -13.878  1.00  0.00    -0.248 NA
ATOM     48  C   UNL     1      10.034  10.098 -11.606  1.00  0.00     0.031 C 
ATOM     49  C   UNL     1       9.627   5.666 -13.951  1.00  0.00     0.029 A 
ATOM     50  N   UNL     1       9.310   7.516 -15.167  1.00  0.00    -0.354 N 
ATOM     51  C   UNL     1       9.482  11.424 -13.389  1.00  0.00     0.074 A 
ATOM     52  C   UNL     1       9.760  11.342 -11.971  1.00  0.00     0.031 C 
ATOM     53  C   UNL     1       9.331   5.280 -15.201  1.00  0.00     0.029 A 
ATOM     54  C   UNL     1       9.090   6.463 -16.021  1.00  0.00     0.049 A 
ATOM     55  H   UNL     1       9.241   8.459 -15.444  1.00  0.00     0.167 HD
ATOM     56  C   UNL     1       9.273  12.582 -14.060  1.00  0.00     0.031 A 
ATOM     57  C   UNL     1       8.724   6.443 -17.316  1.00  0.00     0.031 A 
ATOM     58  C   UNL     1       9.008  12.668 -15.472  1.00  0.00     0.049 A 
ATOM     59  C   UNL     1       8.514   7.738 -18.046  1.00  0.00     0.074 A 
ATOM     60  C   UNL     1       8.873  13.800 -16.257  1.00  0.00     0.029 A 
ATOM     61  N   UNL     1       8.826  11.578 -16.310  1.00  0.00    -0.354 N 
ATOM     62  N   UNL     1       8.603   8.964 -17.591  1.00  0.00    -0.248 NA
ATOM     63  C   UNL     1       8.166   7.647 -19.471  1.00  0.00     0.031 C 
ATOM     64  C   UNL     1       8.552  13.396 -17.558  1.00  0.00     0.029 A 
ATOM     65  C   UNL     1       8.544  12.011 -17.596  1.00  0.00     0.049 A 
ATOM     66  H   UNL     1       8.888  10.636 -16.032  1.00  0.00     0.167 HD
ATOM     67  C   UNL     1       8.338   9.790 -18.674  1.00  0.00     0.074 A 
ATOM     68  C   UNL     1       8.104   8.926 -19.814  1.00  0.00     0.031 C 
ATOM     69  C   UNL     1       8.294  11.144 -18.719  1.00  0.00     0.031 A 
BRANCH  56  70
ATOM     70  C   UNL     1       9.304  13.855 -13.258  1.00  0.00    -0.014 A 
ATOM     71  C   UNL     1      10.498  14.338 -12.698  1.00  0.00     0.009 A 
ATOM     72  C   UNL     1       8.122  14.589 -13.071  1.00  0.00     0.009 A 
ATOM     73  C   UNL     1      10.497  15.500 -11.923  1.00  0.00     0.001 A 
ATOM     74  C   UNL     1       8.130  15.767 -12.322  1.00  0.00     0.001 A 
ATOM     75  C   UNL     1       9.314  16.214 -11.737  1.00  0.00     0.000 A 
ENDBRANCH  56  70
BRANCH  57  76
ATOM     76  C   UNL     1       8.543   5.139 -18.006  1.00  0.00    -0.014 A 
ATOM     77  C   UNL     1       9.490   4.688 -18.937  1.00  0.00     0.009 A 
ATOM     78  C   UNL     1       7.438   4.325 -17.710  1.00  0.00     0.009 A 
ATOM     79  C   UNL     1       9.327   3.452 -19.568  1.00  0.00     0.001 A 
ATOM     80  C   UNL     1       7.292   3.079 -18.323  1.00  0.00     0.001 A 
ATOM     81  C   UNL     1       8.233   2.647 -19.256  1.00  0.00     0.000 A 
ENDBRANCH  57  76
BRANCH  69  82
ATOM     82  C   UNL     1       7.991  11.778 -20.047  1.00  0.00    -0.014 A 
ATOM     83  C   UNL     1       6.700  11.734 -20.597  1.00  0.00     0.009 A 
ATOM     84  C   UNL     1       9.001  12.464 -20.740  1.00  0.00     0.009 A 
ATOM     85  C   UNL     1       6.435  12.339 -21.828  1.00  0.00     0.001 A 
ATOM     86  C   UNL     1       8.727  13.091 -21.956  1.00  0.00     0.001 A 
ATOM     87  C   UNL     1       7.447  13.021 -22.503  1.00  0.00     0.000 A 
ENDBRANCH  69  82
ENDBRANCH  43  44
ENDBRANCH  35  38
ENDBRANCH  33  34
ENDBRANCH  32  33
ENDBRANCH  31  32
ENDBRANCH   1  31
TORSDOF 16
