REMARK SMILES Cc1cc(Br)ccc1NS(=O)(=O)c1ccc(C(=O)NCCCCNC(=O)c2ccc(-c3c4nc(c(-c5ccccc5)c5ccc([nH]5)c(-c5ccccc5)c5nc(c(-c6ccccc6)c6ccc3[nH]6)C=C5)C=C4)cc2)cc1
REMARK SMILES IDX 21 1 20 2 19 3 17 4 18 5 16 7 13 8 14 9 76 10 15 11 75 12
REMARK SMILES IDX 10 13 11 14 12 15 9 16 8 18 1 19 2 20 3 21 4 22 7 23 5 24
REMARK SMILES IDX 6 25 22 26 23 27 24 28 25 29 26 31 27 32 28 33 74 34 29 35
REMARK SMILES IDX 73 36 30 37 31 38 32 39 67 40 33 41 72 42 66 43 68 44 34 45
REMARK SMILES IDX 71 46 65 47 64 48 35 50 57 51 42 52 56 53 43 54 46 55 55 56
REMARK SMILES IDX 69 57 44 58 45 59 54 61 70 62 47 63 36 64 37 65 41 66 38 67
REMARK SMILES IDX 40 68 39 69 58 70 59 71 63 72 60 73 62 74 61 75 48 76 49 77
REMARK SMILES IDX 53 78 50 79 52 80 51 81
REMARK H PARENT 19 6 9 17 24 30 68 49 46 60
REMARK Flexibility Score: inf
ROOT
ATOM      1  C   UNL     1      -2.083   9.378   0.867  1.00  0.00     0.023 C 
ENDROOT
BRANCH   1   2
ATOM      2  C   UNL     1      -1.586   8.567  -0.327  1.00  0.00     0.116 C 
BRANCH   2   3
ATOM      3  N   UNL     1      -0.406   7.805   0.030  1.00  0.00    -0.352 N 
ATOM      4  C   UNL     1      -0.259   6.454   0.194  1.00  0.00     0.251 C 
ATOM      5  O   UNL     1       0.850   5.987   0.442  1.00  0.00    -0.269 OA
ATOM      6  H   UNL     1       0.409   8.337   0.175  1.00  0.00     0.163 HD
BRANCH   4   7
ATOM      7  C   UNL     1      -1.403   5.532   0.022  1.00  0.00     0.039 A 
ATOM      8  C   UNL     1      -3.390   3.586  -0.218  1.00  0.00     0.087 A 
ATOM      9  C   UNL     1      -2.234   3.504  -1.004  1.00  0.00     0.023 A 
ATOM     10  C   UNL     1      -3.593   4.680   0.632  1.00  0.00     0.023 A 
ATOM     11  C   UNL     1      -1.228   4.457  -0.856  1.00  0.00     0.015 A 
ATOM     12  C   UNL     1      -2.590   5.651   0.759  1.00  0.00     0.015 A 
BRANCH   8  13
ATOM     13  S   UNL     1      -4.587   2.271  -0.326  1.00  0.00     0.261 S 
ATOM     14  O   UNL     1      -4.537   1.728  -1.665  1.00  0.00    -0.201 OA
ATOM     15  O   UNL     1      -5.835   2.776   0.213  1.00  0.00    -0.201 OA
BRANCH  13  16
ATOM     16  N   UNL     1      -4.068   1.058   0.761  1.00  0.00    -0.279 N 
ATOM     17  H   UNL     1      -4.668   0.736   1.472  1.00  0.00     0.180 HD
BRANCH  16  18
ATOM     18  C   UNL     1      -2.747   0.514   0.625  1.00  0.00     0.052 A 
ATOM     19  C   UNL     1      -3.527  -1.730  -0.358  1.00  0.00     0.046 C 
ATOM     20  C   UNL     1      -2.475  -0.726   0.024  1.00  0.00    -0.026 A 
ATOM     21  C   UNL     1      -1.128  -1.123  -0.126  1.00  0.00     0.021 A 
ATOM     22  C   UNL     1      -0.086  -0.306   0.311  1.00  0.00     0.018 A 
ATOM     23  C   UNL     1      -1.688   1.284   1.124  1.00  0.00     0.028 A 
ATOM     24  Br  UNL     1       1.707  -0.848   0.069  1.00  0.00    -0.051 Br
ATOM     25  C   UNL     1      -0.361   0.894   0.948  1.00  0.00     0.018 A 
ENDBRANCH  16  18
ENDBRANCH  13  16
ENDBRANCH   8  13
ENDBRANCH   4   7
ENDBRANCH   2   3
ENDBRANCH   1   2
BRANCH   1  26
ATOM     26  C   UNL     1      -1.205  10.583   1.222  1.00  0.00     0.023 C 
BRANCH  26  27
ATOM     27  C   UNL     1      -1.052  11.620   0.115  1.00  0.00     0.116 C 
BRANCH  27  28
ATOM     28  N   UNL     1      -2.323  12.137  -0.367  1.00  0.00    -0.352 N 
ATOM     29  C   UNL     1      -2.615  13.402  -0.814  1.00  0.00     0.251 C 
ATOM     30  H   UNL     1      -3.072  11.498  -0.373  1.00  0.00     0.163 HD
ATOM     31  O   UNL     1      -3.767  13.720  -1.086  1.00  0.00    -0.269 OA
BRANCH  29  32
ATOM     32  C   UNL     1      -1.526  14.391  -0.926  1.00  0.00     0.039 A 
ATOM     33  C   UNL     1      -1.684  15.639  -0.320  1.00  0.00     0.014 A 
ATOM     34  C   UNL     1      -0.340  14.067  -1.591  1.00  0.00     0.014 A 
ATOM     35  C   UNL     1      -0.623  16.544  -0.325  1.00  0.00     0.010 A 
ATOM     36  C   UNL     1       0.739  14.943  -1.537  1.00  0.00     0.010 A 
ATOM     37  C   UNL     1       0.607  16.188  -0.903  1.00  0.00    -0.014 A 
BRANCH  37  38
ATOM     38  C   UNL     1       1.770  17.106  -0.852  1.00  0.00     0.031 A 
ATOM     39  C   UNL     1       2.328  17.686  -2.121  1.00  0.00     0.074 A 
ATOM     40  C   UNL     1       2.362  17.366   0.330  1.00  0.00     0.049 A 
ATOM     41  N   UNL     1       3.369  18.461  -2.285  1.00  0.00    -0.248 NA
ATOM     42  C   UNL     1       1.641  17.327  -3.372  1.00  0.00     0.031 C 
ATOM     43  C   UNL     1       1.941  16.829   1.627  1.00  0.00     0.029 A 
ATOM     44  N   UNL     1       3.451  18.144   0.631  1.00  0.00    -0.354 N 
ATOM     45  C   UNL     1       3.470  18.669  -3.655  1.00  0.00     0.074 A 
ATOM     46  C   UNL     1       2.417  17.900  -4.280  1.00  0.00     0.031 C 
ATOM     47  C   UNL     1       2.746  17.315   2.586  1.00  0.00     0.029 A 
ATOM     48  C   UNL     1       3.759  18.165   1.970  1.00  0.00     0.049 A 
ATOM     49  H   UNL     1       3.962  18.640  -0.048  1.00  0.00     0.167 HD
ATOM     50  C   UNL     1       4.348  19.448  -4.330  1.00  0.00     0.031 A 
ATOM     51  C   UNL     1       4.750  18.796   2.626  1.00  0.00     0.031 A 
ATOM     52  C   UNL     1       5.387  20.222  -3.707  1.00  0.00     0.049 A 
ATOM     53  C   UNL     1       5.716  19.648   1.851  1.00  0.00     0.074 A 
ATOM     54  C   UNL     1       6.292  21.085  -4.300  1.00  0.00     0.029 A 
ATOM     55  N   UNL     1       5.659  20.226  -2.348  1.00  0.00    -0.354 N 
ATOM     56  N   UNL     1       5.756  19.890   0.563  1.00  0.00    -0.248 NA
ATOM     57  C   UNL     1       6.768  20.325   2.624  1.00  0.00     0.031 C 
ATOM     58  C   UNL     1       7.142  21.576  -3.304  1.00  0.00     0.029 A 
ATOM     59  C   UNL     1       6.731  21.060  -2.085  1.00  0.00     0.049 A 
ATOM     60  H   UNL     1       5.162  19.712  -1.671  1.00  0.00     0.167 HD
ATOM     61  C   UNL     1       6.816  20.766   0.375  1.00  0.00     0.074 A 
ATOM     62  C   UNL     1       7.383  21.027   1.683  1.00  0.00     0.031 C 
ATOM     63  C   UNL     1       7.280  21.308  -0.777  1.00  0.00     0.031 A 
BRANCH  50  64
ATOM     64  C   UNL     1       4.218  19.497  -5.827  1.00  0.00    -0.014 A 
ATOM     65  C   UNL     1       3.135  20.146  -6.441  1.00  0.00     0.009 A 
ATOM     66  C   UNL     1       5.207  18.915  -6.634  1.00  0.00     0.009 A 
ATOM     67  C   UNL     1       3.027  20.180  -7.833  1.00  0.00     0.001 A 
ATOM     68  C   UNL     1       5.112  18.976  -8.026  1.00  0.00     0.001 A 
ATOM     69  C   UNL     1       4.017  19.600  -8.623  1.00  0.00     0.000 A 
ENDBRANCH  50  64
BRANCH  51  70
ATOM     70  C   UNL     1       4.873  18.662   4.101  1.00  0.00    -0.014 A 
ATOM     71  C   UNL     1       4.584  19.749   4.941  1.00  0.00     0.009 A 
ATOM     72  C   UNL     1       5.293  17.453   4.677  1.00  0.00     0.009 A 
ATOM     73  C   UNL     1       4.740  19.636   6.324  1.00  0.00     0.001 A 
ATOM     74  C   UNL     1       5.420  17.335   6.063  1.00  0.00     0.001 A 
ATOM     75  C   UNL     1       5.154  18.429   6.884  1.00  0.00     0.000 A 
ENDBRANCH  51  70
BRANCH  63  76
ATOM     76  C   UNL     1       8.435  22.262  -0.670  1.00  0.00    -0.014 A 
ATOM     77  C   UNL     1       9.732  21.808  -0.387  1.00  0.00     0.009 A 
ATOM     78  C   UNL     1       8.226  23.631  -0.897  1.00  0.00     0.009 A 
ATOM     79  C   UNL     1      10.792  22.712  -0.302  1.00  0.00     0.001 A 
ATOM     80  C   UNL     1       9.293  24.529  -0.840  1.00  0.00     0.001 A 
ATOM     81  C   UNL     1      10.573  24.070  -0.533  1.00  0.00     0.000 A 
ENDBRANCH  63  76
ENDBRANCH  37  38
ENDBRANCH  29  32
ENDBRANCH  27  28
ENDBRANCH  26  27
ENDBRANCH   1  26
TORSDOF 14
