REMARK SMILES O=C(NCCCCNC(=O)[C@H]1CC[C@H]2CCCC[C@@H]2[N@H+]1[C@@H]1CCCSC1)c1ccc(-c2c3nc(c(-c4ccccc4)c4ccc([nH]4)c(-c4ccccc4)c4nc(c(-c5ccccc5)c5ccc2[nH]5)C=C4)C=C3)cc1
REMARK SMILES IDX 5 1 4 2 3 3 1 4 2 5 27 7 28 8 74 9 29 10 73 11 30 12 31 13
REMARK SMILES IDX 32 14 67 15 33 16 72 17 66 18 68 19 34 20 71 21 65 22 64 23
REMARK SMILES IDX 35 25 57 26 42 27 56 28 43 29 46 30 55 31 69 32 44 33 45 34
REMARK SMILES IDX 54 36 70 37 47 38 36 39 37 40 41 41 38 42 40 43 39 44 58 45
REMARK SMILES IDX 59 46 63 47 60 48 62 49 61 50 48 51 49 52 53 53 50 54 52 55
REMARK SMILES IDX 51 56 6 57 7 58 8 59 9 60 10 62 11 63 12 64 20 65 13 66
REMARK SMILES IDX 19 67 14 69 18 70 15 71 17 72 16 73 21 74 22 75 26 76 23 77
REMARK SMILES IDX 25 78 24 79
REMARK H PARENT 3 6 68 24 46 35 8 61 20 68
REMARK Flexibility Score: inf
ROOT
ATOM      1  C   UNL     1       5.444  -1.965  -0.778  1.00  0.00     0.023 C 
ENDROOT
BRANCH   1   2
ATOM      2  C   UNL     1       4.751  -0.683  -0.353  1.00  0.00     0.116 C 
BRANCH   2   3
ATOM      3  N   UNL     1       3.299  -0.663  -0.515  1.00  0.00    -0.352 N 
ATOM      4  O   UNL     1       1.174  -0.063   0.047  1.00  0.00    -0.269 OA
ATOM      5  C   UNL     1       2.378   0.011   0.262  1.00  0.00     0.251 C 
ATOM      6  H   UNL     1       2.936  -1.190  -1.263  1.00  0.00     0.163 HD
BRANCH   5   7
ATOM      7  C   UNL     1       2.881   0.776   1.418  1.00  0.00     0.039 A 
ATOM      8  C   UNL     1       3.954   1.649   1.248  1.00  0.00     0.014 A 
ATOM      9  C   UNL     1       2.397   0.477   2.693  1.00  0.00     0.014 A 
ATOM     10  C   UNL     1       4.695   2.023   2.357  1.00  0.00     0.010 A 
ATOM     11  C   UNL     1       3.074   0.964   3.813  1.00  0.00     0.010 A 
ATOM     12  C   UNL     1       4.270   1.680   3.653  1.00  0.00    -0.014 A 
BRANCH  12  13
ATOM     13  C   UNL     1       5.109   2.084   4.809  1.00  0.00     0.031 A 
ATOM     14  C   UNL     1       5.736   1.061   5.719  1.00  0.00     0.074 A 
ATOM     15  C   UNL     1       5.374   3.393   4.981  1.00  0.00     0.049 A 
ATOM     16  N   UNL     1       6.529   1.254   6.745  1.00  0.00    -0.248 NA
ATOM     17  C   UNL     1       5.434  -0.356   5.459  1.00  0.00     0.031 C 
ATOM     18  C   UNL     1       4.836   4.477   4.154  1.00  0.00     0.029 A 
ATOM     19  N   UNL     1       6.200   4.031   5.867  1.00  0.00    -0.354 N 
ATOM     20  C   UNL     1       6.775  -0.005   7.281  1.00  0.00     0.074 A 
ATOM     21  C   UNL     1       6.051  -0.958   6.467  1.00  0.00     0.031 C 
ATOM     22  C   UNL     1       5.422   5.629   4.505  1.00  0.00     0.029 A 
ATOM     23  C   UNL     1       6.307   5.380   5.635  1.00  0.00     0.049 A 
ATOM     24  H   UNL     1       6.671   3.568   6.598  1.00  0.00     0.167 HD
ATOM     25  C   UNL     1       7.530  -0.335   8.356  1.00  0.00     0.031 A 
ATOM     26  C   UNL     1       7.031   6.321   6.265  1.00  0.00     0.031 A 
ATOM     27  C   UNL     1       8.283   0.609   9.140  1.00  0.00     0.049 A 
ATOM     28  C   UNL     1       7.869   5.927   7.441  1.00  0.00     0.074 A 
ATOM     29  C   UNL     1       9.101   0.367  10.231  1.00  0.00     0.029 A 
ATOM     30  N   UNL     1       8.317   1.975   8.910  1.00  0.00    -0.354 N 
ATOM     31  N   UNL     1       8.072   4.734   7.943  1.00  0.00    -0.248 NA
ATOM     32  C   UNL     1       8.561   7.012   8.147  1.00  0.00     0.031 C 
ATOM     33  C   UNL     1       9.604   1.594  10.682  1.00  0.00     0.029 A 
ATOM     34  C   UNL     1       9.129   2.592   9.848  1.00  0.00     0.049 A 
ATOM     35  H   UNL     1       7.835   2.439   8.188  1.00  0.00     0.167 HD
ATOM     36  C   UNL     1       8.914   4.923   9.029  1.00  0.00     0.074 A 
ATOM     37  C   UNL     1       9.205   6.342   9.092  1.00  0.00     0.031 C 
ATOM     38  C   UNL     1       9.394   4.005   9.901  1.00  0.00     0.031 A 
BRANCH  25  39
ATOM     39  C   UNL     1       7.551  -1.778   8.777  1.00  0.00    -0.014 A 
ATOM     40  C   UNL     1       8.291  -2.740   8.074  1.00  0.00     0.009 A 
ATOM     41  C   UNL     1       6.852  -2.168   9.931  1.00  0.00     0.009 A 
ATOM     42  C   UNL     1       8.309  -4.069   8.504  1.00  0.00     0.001 A 
ATOM     43  C   UNL     1       6.889  -3.493  10.370  1.00  0.00     0.001 A 
ATOM     44  C   UNL     1       7.612  -4.444   9.653  1.00  0.00     0.000 A 
ENDBRANCH  25  39
BRANCH  26  45
ATOM     45  C   UNL     1       6.976   7.725   5.792  1.00  0.00    -0.014 A 
ATOM     46  C   UNL     1       8.071   8.293   5.125  1.00  0.00     0.009 A 
ATOM     47  C   UNL     1       5.810   8.489   5.964  1.00  0.00     0.009 A 
ATOM     48  C   UNL     1       8.002   9.602   4.644  1.00  0.00     0.001 A 
ATOM     49  C   UNL     1       5.735   9.787   5.458  1.00  0.00     0.001 A 
ATOM     50  C   UNL     1       6.832  10.344   4.804  1.00  0.00     0.000 A 
ENDBRANCH  26  45
BRANCH  38  51
ATOM     51  C   UNL     1      10.289   4.519  10.988  1.00  0.00    -0.014 A 
ATOM     52  C   UNL     1       9.759   5.203  12.093  1.00  0.00     0.009 A 
ATOM     53  C   UNL     1      11.674   4.315  10.906  1.00  0.00     0.009 A 
ATOM     54  C   UNL     1      10.607   5.704  13.081  1.00  0.00     0.001 A 
ATOM     55  C   UNL     1      12.517   4.800  11.907  1.00  0.00     0.001 A 
ATOM     56  C   UNL     1      11.984   5.501  12.988  1.00  0.00     0.000 A 
ENDBRANCH  38  51
ENDBRANCH  12  13
ENDBRANCH   5   7
ENDBRANCH   2   3
ENDBRANCH   1   2
BRANCH   1  57
ATOM     57  C   UNL     1       5.154  -2.376  -2.207  1.00  0.00     0.023 C 
BRANCH  57  58
ATOM     58  C   UNL     1       5.658  -1.431  -3.310  1.00  0.00     0.116 C 
BRANCH  58  59
ATOM     59  N   UNL     1       6.841  -1.985  -3.927  1.00  0.00    -0.351 N 
ATOM     60  C   UNL     1       7.066  -2.930  -4.865  1.00  0.00     0.278 C 
ATOM     61  H   UNL     1       7.672  -1.582  -3.586  1.00  0.00     0.163 HD
ATOM     62  O   UNL     1       8.251  -3.317  -4.861  1.00  0.00    -0.268 OA
BRANCH  60  63
ATOM     63  C   UNL     1       6.133  -3.493  -5.975  1.00  0.00     0.274 C 
ATOM     64  C   UNL     1       6.418  -5.000  -6.166  1.00  0.00     0.076 C 
ATOM     65  N   UNL     1       4.694  -3.140  -6.110  1.00  0.00    -0.319 N 
ATOM     66  C   UNL     1       5.591  -5.643  -7.285  1.00  0.00     0.016 C 
ATOM     67  C   UNL     1       4.161  -3.568  -7.431  1.00  0.00     0.188 C 
ATOM     68  H   UNL     1       4.714  -2.123  -6.035  1.00  0.00     0.349 HD
ATOM     69  C   UNL     1       5.048  -4.566  -8.215  1.00  0.00     0.048 C 
ATOM     70  C   UNL     1       3.884  -2.365  -8.347  1.00  0.00     0.065 C 
ATOM     71  C   UNL     1       4.237  -5.129  -9.384  1.00  0.00     0.010 C 
ATOM     72  C   UNL     1       3.135  -2.829  -9.604  1.00  0.00     0.006 C 
ATOM     73  C   UNL     1       3.816  -3.997 -10.324  1.00  0.00     0.001 C 
BRANCH  65  74
ATOM     74  C   UNL     1       3.768  -3.509  -5.013  1.00  0.00     0.194 C 
ATOM     75  C   UNL     1       3.308  -4.970  -4.827  1.00  0.00     0.067 C 
ATOM     76  C   UNL     1       2.547  -2.549  -5.050  1.00  0.00     0.134 C 
ATOM     77  C   UNL     1       2.523  -5.169  -3.524  1.00  0.00     0.017 C 
ATOM     78  S   UNL     1       1.524  -2.590  -3.546  1.00  0.00    -0.156 SA
ATOM     79  C   UNL     1       1.228  -4.373  -3.459  1.00  0.00     0.070 C 
ENDBRANCH  65  74
ENDBRANCH  60  63
ENDBRANCH  58  59
ENDBRANCH  57  58
ENDBRANCH   1  57
TORSDOF 12
