REMARK SMILES COc1ccc(-n2c(SCC(=O)NCCCCNC(=O)c3ccc(-c4c5nc(c(-c6ccccc6)c6ccc([nH]6)c(-c6ccccc6)c6nc(c(-c7ccccc7)c7ccc4[nH]7)C=C6)C=C5)cc3)nc3sc4c(c3c2=O)CC[N@H+](C)C4)cc1
REMARK SMILES IDX 14 1 13 2 11 3 12 4 10 6 9 7 8 8 7 9 75 10 69 11 74 12 76 13
REMARK SMILES IDX 70 14 73 15 71 16 72 17 77 18 81 19 78 20 79 21 80 22 6 24
REMARK SMILES IDX 3 25 4 26 83 27 5 28 82 29 2 30 1 31 15 32 16 33 17 34 18 35
REMARK SMILES IDX 19 36 20 38 21 39 22 40 68 41 23 42 67 43 24 44 25 45 26 46
REMARK SMILES IDX 61 47 27 48 66 49 60 50 62 51 28 52 65 53 59 54 58 55 29 57
REMARK SMILES IDX 51 58 36 59 50 60 37 61 40 62 49 63 63 64 38 65 39 66 48 68
REMARK SMILES IDX 64 69 41 70 30 71 31 72 35 73 32 74 34 75 33 76 52 77 53 78
REMARK SMILES IDX 57 79 54 80 56 81 55 82 42 83 43 84 47 85 44 86 46 87 45 88
REMARK H PARENT 13 5 79 23 18 37 62 56 40 67
REMARK Flexibility Score: inf
ROOT
ATOM      1  C   UNL     1       6.623   1.889   3.998  1.00  0.00     0.116 C 
ENDROOT
BRANCH   1   2
ATOM      2  N   UNL     1       5.507   1.395   3.219  1.00  0.00    -0.355 N 
ATOM      3  C   UNL     1       4.275   1.915   2.998  1.00  0.00     0.230 C 
ATOM      4  O   UNL     1       3.732   1.535   1.952  1.00  0.00    -0.274 OA
ATOM      5  H   UNL     1       5.672   0.533   2.773  1.00  0.00     0.163 HD
BRANCH   3   6
ATOM      6  C   UNL     1       3.612   2.978   3.854  1.00  0.00     0.178 C 
BRANCH   6   7
ATOM      7  S   UNL     1       3.849   2.925   5.612  1.00  0.00    -0.077 SA
BRANCH   7   8
ATOM      8  C   UNL     1       2.901   1.764   6.516  1.00  0.00     0.177 A 
ATOM      9  N   UNL     1       1.818   1.004   6.058  1.00  0.00    -0.255 N 
ATOM     10  C   UNL     1       1.118   0.125   6.919  1.00  0.00     0.267 A 
ATOM     11  N   UNL     1       3.318   1.736   7.751  1.00  0.00    -0.212 NA
ATOM     12  C   UNL     1       1.607   0.103   8.280  1.00  0.00     0.081 A 
ATOM     13  O   UNL     1       0.174  -0.581   6.584  1.00  0.00    -0.268 OA
ATOM     14  C   UNL     1       2.656   0.923   8.600  1.00  0.00     0.132 A 
ATOM     15  C   UNL     1       1.162  -0.671   9.394  1.00  0.00    -0.008 A 
ATOM     16  S   UNL     1       3.053   0.836  10.259  1.00  0.00    -0.114 S 
ATOM     17  C   UNL     1       1.835  -0.317  10.548  1.00  0.00     0.065 A 
ATOM     18  C   UNL     1       0.078  -1.707   9.425  1.00  0.00     0.099 C 
ATOM     19  C   UNL     1       1.566  -0.897  11.909  1.00  0.00     0.310 C 
ATOM     20  C   UNL     1       0.063  -2.452  10.780  1.00  0.00     0.267 C 
ATOM     21  N   UNL     1       0.258  -1.595  11.973  1.00  0.00    -0.333 N 
ATOM     22  C   UNL     1      -0.848  -0.652  12.145  1.00  0.00     0.333 C 
ATOM     23  H   UNL     1       0.265  -2.200  12.795  1.00  0.00     0.348 HD
BRANCH   9  24
ATOM     24  C   UNL     1       1.361   0.969   4.726  1.00  0.00     0.052 A 
ATOM     25  C   UNL     1       0.310   0.672   2.151  1.00  0.00     0.119 A 
ATOM     26  C   UNL     1      -0.288   1.550   3.058  1.00  0.00     0.048 A 
ATOM     27  C   UNL     1       1.385  -0.115   2.565  1.00  0.00     0.048 A 
ATOM     28  C   UNL     1       0.228   1.698   4.348  1.00  0.00     0.030 A 
ATOM     29  C   UNL     1       1.906   0.027   3.853  1.00  0.00     0.030 A 
BRANCH  25  30
ATOM     30  O   UNL     1      -0.247   0.649   0.902  1.00  0.00    -0.497 OA
ATOM     31  C   UNL     1       0.584   0.125  -0.130  1.00  0.00     0.278 C 
ENDBRANCH  25  30
ENDBRANCH   9  24
ENDBRANCH   7   8
ENDBRANCH   6   7
ENDBRANCH   3   6
ENDBRANCH   1   2
BRANCH   1  32
ATOM     32  C   UNL     1       7.131   0.859   5.005  1.00  0.00     0.023 C 
BRANCH  32  33
ATOM     33  C   UNL     1       7.532  -0.511   4.423  1.00  0.00     0.023 C 
BRANCH  33  34
ATOM     34  C   UNL     1       8.543  -0.499   3.267  1.00  0.00     0.116 C 
BRANCH  34  35
ATOM     35  N   UNL     1       9.757   0.202   3.630  1.00  0.00    -0.352 N 
ATOM     36  C   UNL     1      11.076  -0.090   3.427  1.00  0.00     0.251 C 
ATOM     37  H   UNL     1       9.603   1.047   4.112  1.00  0.00     0.163 HD
ATOM     38  O   UNL     1      11.910   0.566   4.050  1.00  0.00    -0.269 OA
BRANCH  36  39
ATOM     39  C   UNL     1      11.547  -1.145   2.499  1.00  0.00     0.039 A 
ATOM     40  C   UNL     1      12.719  -1.821   2.861  1.00  0.00     0.014 A 
ATOM     41  C   UNL     1      10.987  -1.366   1.236  1.00  0.00     0.014 A 
ATOM     42  C   UNL     1      13.327  -2.708   1.974  1.00  0.00     0.010 A 
ATOM     43  C   UNL     1      11.593  -2.269   0.348  1.00  0.00     0.010 A 
ATOM     44  C   UNL     1      12.770  -2.939   0.710  1.00  0.00    -0.014 A 
BRANCH  44  45
ATOM     45  C   UNL     1      13.457  -3.928  -0.150  1.00  0.00     0.031 A 
ATOM     46  C   UNL     1      12.576  -4.957  -0.795  1.00  0.00     0.074 A 
ATOM     47  C   UNL     1      14.580  -3.565  -0.806  1.00  0.00     0.049 A 
ATOM     48  N   UNL     1      11.977  -4.837  -1.946  1.00  0.00    -0.248 NA
ATOM     49  C   UNL     1      12.149  -6.128  -0.025  1.00  0.00     0.031 C 
ATOM     50  C   UNL     1      14.679  -2.353  -1.625  1.00  0.00     0.029 A 
ATOM     51  N   UNL     1      15.706  -4.294  -1.127  1.00  0.00    -0.354 N 
ATOM     52  C   UNL     1      11.066  -5.882  -2.038  1.00  0.00     0.074 A 
ATOM     53  C   UNL     1      11.211  -6.654  -0.825  1.00  0.00     0.031 C 
ATOM     54  C   UNL     1      15.727  -2.485  -2.463  1.00  0.00     0.029 A 
ATOM     55  C   UNL     1      16.439  -3.728  -2.168  1.00  0.00     0.049 A 
ATOM     56  H   UNL     1      15.964  -5.127  -0.670  1.00  0.00     0.167 HD
ATOM     57  C   UNL     1      10.227  -6.077  -3.091  1.00  0.00     0.031 A 
ATOM     58  C   UNL     1      17.178  -4.435  -3.067  1.00  0.00     0.031 A 
ATOM     59  C   UNL     1      10.382  -5.180  -4.191  1.00  0.00     0.049 A 
ATOM     60  C   UNL     1      16.116  -4.881  -4.035  1.00  0.00     0.074 A 
ATOM     61  C   UNL     1       9.748  -4.071  -4.707  1.00  0.00     0.029 A 
ATOM     62  N   UNL     1      11.417  -5.420  -5.059  1.00  0.00    -0.354 N 
ATOM     63  N   UNL     1      15.592  -4.176  -5.000  1.00  0.00    -0.248 NA
ATOM     64  C   UNL     1      15.348  -6.071  -3.661  1.00  0.00     0.031 C 
ATOM     65  C   UNL     1      10.702  -3.458  -5.578  1.00  0.00     0.029 A 
ATOM     66  C   UNL     1      11.874  -4.208  -5.494  1.00  0.00     0.049 A 
ATOM     67  H   UNL     1      11.766  -6.303  -5.320  1.00  0.00     0.167 HD
ATOM     68  C   UNL     1      14.285  -4.649  -5.131  1.00  0.00     0.074 A 
ATOM     69  C   UNL     1      14.217  -5.846  -4.315  1.00  0.00     0.031 C 
ATOM     70  C   UNL     1      13.277  -3.932  -5.712  1.00  0.00     0.031 A 
BRANCH  57  71
ATOM     71  C   UNL     1       9.274  -7.202  -3.222  1.00  0.00    -0.014 A 
ATOM     72  C   UNL     1       9.566  -8.223  -4.142  1.00  0.00     0.009 A 
ATOM     73  C   UNL     1       8.006  -7.162  -2.631  1.00  0.00     0.009 A 
ATOM     74  C   UNL     1       8.597  -9.159  -4.500  1.00  0.00     0.001 A 
ATOM     75  C   UNL     1       7.038  -8.109  -2.986  1.00  0.00     0.001 A 
ATOM     76  C   UNL     1       7.329  -9.095  -3.930  1.00  0.00     0.000 A 
ENDBRANCH  57  71
BRANCH  58  77
ATOM     77  C   UNL     1      18.237  -5.340  -2.523  1.00  0.00    -0.014 A 
ATOM     78  C   UNL     1      19.231  -4.758  -1.710  1.00  0.00     0.009 A 
ATOM     79  C   UNL     1      18.344  -6.715  -2.775  1.00  0.00     0.009 A 
ATOM     80  C   UNL     1      20.235  -5.526  -1.111  1.00  0.00     0.001 A 
ATOM     81  C   UNL     1      19.330  -7.493  -2.151  1.00  0.00     0.001 A 
ATOM     82  C   UNL     1      20.269  -6.901  -1.313  1.00  0.00     0.000 A 
ENDBRANCH  58  77
BRANCH  70  83
ATOM     83  C   UNL     1      13.658  -2.646  -6.372  1.00  0.00    -0.014 A 
ATOM     84  C   UNL     1      14.379  -2.645  -7.571  1.00  0.00     0.009 A 
ATOM     85  C   UNL     1      13.219  -1.420  -5.841  1.00  0.00     0.009 A 
ATOM     86  C   UNL     1      14.620  -1.447  -8.246  1.00  0.00     0.001 A 
ATOM     87  C   UNL     1      13.441  -0.227  -6.527  1.00  0.00     0.001 A 
ATOM     88  C   UNL     1      14.136  -0.243  -7.734  1.00  0.00     0.000 A 
ENDBRANCH  70  83
ENDBRANCH  44  45
ENDBRANCH  36  39
ENDBRANCH  34  35
ENDBRANCH  33  34
ENDBRANCH  32  33
ENDBRANCH   1  32
TORSDOF 15
