REMARK SMILES O=C(NCCCCNC(=O)C1(CCc2ccccn2)CCCCC1)c1ccc(-c2c3nc(c(-c4ccccc4)c4ccc([nH]4)c(-c4ccccc4)c4nc(c(-c5ccccc5)c5ccc2[nH]5)C=C4)C=C3)cc1
REMARK SMILES IDX 6 1 5 2 4 3 3 4 1 5 2 6 25 8 26 9 72 10 27 11 71 12 28 13
REMARK SMILES IDX 29 14 30 15 65 16 31 17 70 18 64 19 66 20 32 21 69 22 63 23
REMARK SMILES IDX 62 24 33 26 55 27 40 28 54 29 41 30 44 31 53 32 67 33 42 34
REMARK SMILES IDX 43 35 52 37 68 38 45 39 34 40 35 41 39 42 36 43 38 44 37 45
REMARK SMILES IDX 56 46 57 47 61 48 58 49 60 50 59 51 46 52 47 53 51 54 48 55
REMARK SMILES IDX 50 56 49 57 7 58 8 59 9 60 10 62 11 63 20 64 24 65 21 66
REMARK SMILES IDX 23 67 22 68 12 69 13 70 14 71 15 72 19 73 16 74 18 75 17 76
REMARK H PARENT 3 7 66 25 44 36 8 61
REMARK Flexibility Score: inf
ROOT
ATOM      1  C   UNL     1       3.533   2.253   3.104  1.00  0.00     0.023 C 
ENDROOT
BRANCH   1   2
ATOM      2  C   UNL     1       3.919   1.988   1.655  1.00  0.00     0.023 C 
BRANCH   2   3
ATOM      3  C   UNL     1       3.905   0.539   1.234  1.00  0.00     0.116 C 
BRANCH   3   4
ATOM      4  N   UNL     1       2.548   0.056   1.061  1.00  0.00    -0.352 N 
ATOM      5  O   UNL     1       0.805  -0.721  -0.139  1.00  0.00    -0.269 OA
ATOM      6  C   UNL     1       2.020  -0.607  -0.019  1.00  0.00     0.251 C 
ATOM      7  H   UNL     1       1.930   0.223   1.809  1.00  0.00     0.163 HD
BRANCH   6   8
ATOM      8  C   UNL     1       2.924  -1.197  -1.034  1.00  0.00     0.039 A 
ATOM      9  C   UNL     1       4.099  -1.852  -0.648  1.00  0.00     0.014 A 
ATOM     10  C   UNL     1       2.543  -1.176  -2.379  1.00  0.00     0.014 A 
ATOM     11  C   UNL     1       4.913  -2.448  -1.603  1.00  0.00     0.010 A 
ATOM     12  C   UNL     1       3.319  -1.843  -3.329  1.00  0.00     0.010 A 
ATOM     13  C   UNL     1       4.493  -2.505  -2.939  1.00  0.00    -0.014 A 
BRANCH  13  14
ATOM     14  C   UNL     1       5.170  -3.442  -3.866  1.00  0.00     0.031 A 
ATOM     15  C   UNL     1       5.941  -2.957  -5.052  1.00  0.00     0.074 A 
ATOM     16  C   UNL     1       5.026  -4.761  -3.626  1.00  0.00     0.049 A 
ATOM     17  N   UNL     1       6.534  -3.660  -5.982  1.00  0.00    -0.248 NA
ATOM     18  C   UNL     1       6.061  -1.501  -5.227  1.00  0.00     0.031 C 
ATOM     19  C   UNL     1       4.273  -5.338  -2.505  1.00  0.00     0.029 A 
ATOM     20  N   UNL     1       5.496  -5.856  -4.303  1.00  0.00    -0.354 N 
ATOM     21  C   UNL     1       7.076  -2.739  -6.867  1.00  0.00     0.074 A 
ATOM     22  C   UNL     1       6.740  -1.423  -6.366  1.00  0.00     0.031 C 
ATOM     23  C   UNL     1       4.350  -6.674  -2.561  1.00  0.00     0.029 A 
ATOM     24  C   UNL     1       5.093  -7.050  -3.756  1.00  0.00     0.049 A 
ATOM     25  H   UNL     1       6.066  -5.793  -5.103  1.00  0.00     0.167 HD
ATOM     26  C   UNL     1       7.784  -2.981  -7.995  1.00  0.00     0.031 A 
ATOM     27  C   UNL     1       5.262  -8.312  -4.188  1.00  0.00     0.031 A 
ATOM     28  C   UNL     1       8.110  -4.298  -8.479  1.00  0.00     0.049 A 
ATOM     29  C   UNL     1       6.012  -8.538  -5.466  1.00  0.00     0.074 A 
ATOM     30  C   UNL     1       8.884  -4.645  -9.573  1.00  0.00     0.029 A 
ATOM     31  N   UNL     1       7.667  -5.482  -7.910  1.00  0.00    -0.354 N 
ATOM     32  N   UNL     1       6.585  -7.658  -6.249  1.00  0.00    -0.248 NA
ATOM     33  C   UNL     1       6.130  -9.928  -5.925  1.00  0.00     0.031 C 
ATOM     34  C   UNL     1       8.855  -6.037  -9.703  1.00  0.00     0.029 A 
ATOM     35  C   UNL     1       8.109  -6.559  -8.659  1.00  0.00     0.049 A 
ATOM     36  H   UNL     1       7.119  -5.547  -7.095  1.00  0.00     0.167 HD
ATOM     37  C   UNL     1       7.136  -8.386  -7.292  1.00  0.00     0.074 A 
ATOM     38  C   UNL     1       6.856  -9.782  -7.024  1.00  0.00     0.031 C 
ATOM     39  C   UNL     1       7.807  -7.938  -8.380  1.00  0.00     0.031 A 
BRANCH  26  40
ATOM     40  C   UNL     1       8.232  -1.805  -8.816  1.00  0.00    -0.014 A 
ATOM     41  C   UNL     1       9.301  -0.993  -8.409  1.00  0.00     0.009 A 
ATOM     42  C   UNL     1       7.631  -1.564 -10.062  1.00  0.00     0.009 A 
ATOM     43  C   UNL     1       9.750   0.046  -9.229  1.00  0.00     0.001 A 
ATOM     44  C   UNL     1       8.095  -0.539 -10.888  1.00  0.00     0.001 A 
ATOM     45  C   UNL     1       9.152   0.267 -10.470  1.00  0.00     0.000 A 
ENDBRANCH  26  40
BRANCH  27  46
ATOM     46  C   UNL     1       4.656  -9.443  -3.440  1.00  0.00    -0.014 A 
ATOM     47  C   UNL     1       5.461 -10.379  -2.776  1.00  0.00     0.009 A 
ATOM     48  C   UNL     1       3.260  -9.592  -3.390  1.00  0.00     0.009 A 
ATOM     49  C   UNL     1       4.881 -11.456  -2.100  1.00  0.00     0.001 A 
ATOM     50  C   UNL     1       2.682 -10.650  -2.687  1.00  0.00     0.001 A 
ATOM     51  C   UNL     1       3.494 -11.588  -2.052  1.00  0.00     0.000 A 
ENDBRANCH  27  46
BRANCH  39  52
ATOM     52  C   UNL     1       8.283  -8.975  -9.354  1.00  0.00    -0.014 A 
ATOM     53  C   UNL     1       7.382  -9.624 -10.212  1.00  0.00     0.009 A 
ATOM     54  C   UNL     1       9.650  -9.280  -9.438  1.00  0.00     0.009 A 
ATOM     55  C   UNL     1       7.840 -10.580 -11.120  1.00  0.00     0.001 A 
ATOM     56  C   UNL     1      10.107 -10.216 -10.366  1.00  0.00     0.001 A 
ATOM     57  C   UNL     1       9.201 -10.870 -11.200  1.00  0.00     0.000 A 
ENDBRANCH  39  52
ENDBRANCH  13  14
ENDBRANCH   6   8
ENDBRANCH   3   4
ENDBRANCH   2   3
ENDBRANCH   1   2
BRANCH   1  58
ATOM     58  C   UNL     1       4.367   1.615   4.236  1.00  0.00     0.116 C 
BRANCH  58  59
ATOM     59  N   UNL     1       5.818   1.742   4.209  1.00  0.00    -0.356 N 
ATOM     60  C   UNL     1       6.738   2.607   4.741  1.00  0.00     0.226 C 
ATOM     61  H   UNL     1       6.242   1.031   3.676  1.00  0.00     0.163 HD
ATOM     62  O   UNL     1       7.912   2.207   4.725  1.00  0.00    -0.274 OA
BRANCH  60  63
ATOM     63  C   UNL     1       6.378   3.950   5.432  1.00  0.00     0.050 C 
ATOM     64  C   UNL     1       5.998   3.531   6.883  1.00  0.00     0.017 C 
ATOM     65  C   UNL     1       7.618   4.887   5.549  1.00  0.00     0.017 C 
ATOM     66  C   UNL     1       5.809   4.683   7.869  1.00  0.00     0.001 C 
ATOM     67  C   UNL     1       7.350   6.106   6.444  1.00  0.00     0.001 C 
ATOM     68  C   UNL     1       6.963   5.679   7.854  1.00  0.00     0.000 C 
BRANCH  63  69
ATOM     69  C   UNL     1       5.254   4.730   4.710  1.00  0.00     0.023 C 
BRANCH  69  70
ATOM     70  C   UNL     1       5.535   5.437   3.347  1.00  0.00     0.057 C 
BRANCH  70  71
ATOM     71  C   UNL     1       6.299   4.809   2.196  1.00  0.00     0.040 A 
ATOM     72  C   UNL     1       6.475   5.508   1.004  1.00  0.00     0.024 A 
ATOM     73  N   UNL     1       6.821   3.583   2.336  1.00  0.00    -0.261 NA
ATOM     74  C   UNL     1       7.181   4.913  -0.048  1.00  0.00     0.003 A 
ATOM     75  C   UNL     1       7.511   3.020   1.318  1.00  0.00     0.111 A 
ATOM     76  C   UNL     1       7.705   3.638   0.105  1.00  0.00     0.020 A 
ENDBRANCH  70  71
ENDBRANCH  69  70
ENDBRANCH  63  69
ENDBRANCH  60  63
ENDBRANCH  58  59
ENDBRANCH   1  58
TORSDOF 14
