REMARK SMILES CC(=O)N[C@@H](C(=O)N(CC(=O)NCCCCNC(=O)c1ccc(-c2c3nc(c(-c4ccccc4)c4ccc([nH]4)c(-c4ccccc4)c4nc(c(-c5ccccc5)c5ccc2[nH]5)C=C4)C=C3)cc1)CC(F)(F)F)C(C)C
REMARK SMILES IDX 13 1 12 2 10 3 11 4 9 6 8 7 6 8 7 9 5 10 4 11 1 12 2 13 3 14
REMARK SMILES IDX 73 16 74 17 75 18 68 19 69 20 70 21 71 22 72 23 14 24 15 25
REMARK SMILES IDX 16 26 17 27 18 28 19 30 20 31 21 32 67 33 22 34 66 35 23 36
REMARK SMILES IDX 24 37 25 38 60 39 26 40 65 41 59 42 61 43 27 44 64 45 58 46
REMARK SMILES IDX 57 47 28 49 50 50 35 51 49 52 36 53 39 54 48 55 62 56 37 57
REMARK SMILES IDX 38 58 47 60 63 61 40 62 29 63 30 64 34 65 31 66 33 67 32 68
REMARK SMILES IDX 51 69 52 70 56 71 53 72 55 73 54 74 41 75 42 76 46 77 43 78
REMARK SMILES IDX 45 79 44 80
REMARK H PARENT 12 5 4 15 17 29 61 48 39 59
REMARK Flexibility Score: inf
ROOT
ATOM      1  C   UNL     1       1.749  -0.286   4.566  1.00  0.00     0.116 C 
ENDROOT
BRANCH   1   2
ATOM      2  N   UNL     1       2.800   0.692   4.436  1.00  0.00    -0.355 N 
ATOM      3  C   UNL     1       3.671   0.858   3.397  1.00  0.00     0.239 C 
ATOM      4  O   UNL     1       4.388   1.862   3.387  1.00  0.00    -0.273 OA
ATOM      5  H   UNL     1       2.902   1.318   5.189  1.00  0.00     0.163 HD
BRANCH   3   6
ATOM      6  C   UNL     1       3.683  -0.121   2.204  1.00  0.00     0.219 C 
BRANCH   6   7
ATOM      7  N   UNL     1       3.900  -1.540   2.520  1.00  0.00    -0.322 N 
BRANCH   7   8
ATOM      8  C   UNL     1       3.029  -2.602   2.279  1.00  0.00     0.246 C 
ATOM      9  O   UNL     1       3.314  -3.700   2.770  1.00  0.00    -0.272 OA
BRANCH   8  10
ATOM     10  C   UNL     1       1.790  -2.479   1.293  1.00  0.00     0.174 C 
BRANCH  10  11
ATOM     11  N   UNL     1       0.823  -1.453   1.703  1.00  0.00    -0.344 N 
ATOM     12  C   UNL     1       0.792  -0.106  -0.368  1.00  0.00     0.114 C 
ATOM     13  C   UNL     1       0.326  -0.378   1.034  1.00  0.00     0.217 C 
ATOM     14  O   UNL     1      -0.489   0.344   1.605  1.00  0.00    -0.275 OA
ATOM     15  H   UNL     1       0.475  -1.562   2.618  1.00  0.00     0.164 HD
ENDBRANCH  10  11
BRANCH  10  16
ATOM     16  C   UNL     1       1.028  -3.844   1.202  1.00  0.00     0.015 C 
ATOM     17  C   UNL     1      -0.343  -3.726   0.514  1.00  0.00     0.010 C 
ATOM     18  C   UNL     1       1.835  -4.919   0.466  1.00  0.00     0.010 C 
ENDBRANCH  10  16
ENDBRANCH   8  10
ENDBRANCH   7   8
BRANCH   7  19
ATOM     19  C   UNL     1       5.210  -1.870   3.150  1.00  0.00     0.235 C 
BRANCH  19  20
ATOM     20  C   UNL     1       5.267  -2.073   4.671  1.00  0.00     0.406 C 
ATOM     21  F   UNL     1       4.403  -3.001   5.123  1.00  0.00    -0.169 F 
ATOM     22  F   UNL     1       6.511  -2.469   5.039  1.00  0.00    -0.169 F 
ATOM     23  F   UNL     1       5.020  -0.919   5.330  1.00  0.00    -0.169 F 
ENDBRANCH  19  20
ENDBRANCH   7  19
ENDBRANCH   6   7
ENDBRANCH   3   6
ENDBRANCH   1   2
BRANCH   1  24
ATOM     24  C   UNL     1       1.827  -1.144   5.817  1.00  0.00     0.023 C 
BRANCH  24  25
ATOM     25  C   UNL     1       1.427  -0.432   7.096  1.00  0.00     0.023 C 
BRANCH  25  26
ATOM     26  C   UNL     1       0.010   0.115   7.083  1.00  0.00     0.116 C 
BRANCH  26  27
ATOM     27  N   UNL     1      -1.003  -0.915   6.889  1.00  0.00    -0.352 N 
ATOM     28  C   UNL     1      -2.164  -1.112   7.598  1.00  0.00     0.251 C 
ATOM     29  H   UNL     1      -0.834  -1.551   6.157  1.00  0.00     0.163 HD
ATOM     30  O   UNL     1      -2.860  -2.103   7.404  1.00  0.00    -0.269 OA
BRANCH  28  31
ATOM     31  C   UNL     1      -2.536  -0.127   8.631  1.00  0.00     0.039 A 
ATOM     32  C   UNL     1      -2.861  -0.576   9.911  1.00  0.00     0.014 A 
ATOM     33  C   UNL     1      -2.477   1.240   8.348  1.00  0.00     0.014 A 
ATOM     34  C   UNL     1      -3.060   0.356  10.929  1.00  0.00     0.010 A 
ATOM     35  C   UNL     1      -2.571   2.159   9.384  1.00  0.00     0.010 A 
ATOM     36  C   UNL     1      -2.877   1.727  10.682  1.00  0.00    -0.014 A 
BRANCH  36  37
ATOM     37  C   UNL     1      -3.022   2.726  11.769  1.00  0.00     0.031 A 
ATOM     38  C   UNL     1      -4.094   3.777  11.683  1.00  0.00     0.074 A 
ATOM     39  C   UNL     1      -2.163   2.715  12.807  1.00  0.00     0.049 A 
ATOM     40  N   UNL     1      -4.378   4.737  12.527  1.00  0.00    -0.248 NA
ATOM     41  C   UNL     1      -4.942   3.769  10.479  1.00  0.00     0.031 C 
ATOM     42  C   UNL     1      -1.043   1.785  12.976  1.00  0.00     0.029 A 
ATOM     43  N   UNL     1      -2.103   3.511  13.923  1.00  0.00    -0.354 N 
ATOM     44  C   UNL     1      -5.421   5.449  11.948  1.00  0.00     0.074 A 
ATOM     45  C   UNL     1      -5.677   4.856  10.656  1.00  0.00     0.031 C 
ATOM     46  C   UNL     1      -0.439   2.034  14.150  1.00  0.00     0.029 A 
ATOM     47  C   UNL     1      -1.105   3.158  14.798  1.00  0.00     0.049 A 
ATOM     48  H   UNL     1      -2.718   4.264  14.081  1.00  0.00     0.167 HD
ATOM     49  C   UNL     1      -6.128   6.484  12.459  1.00  0.00     0.031 A 
ATOM     50  C   UNL     1      -0.772   3.677  15.995  1.00  0.00     0.031 A 
ATOM     51  C   UNL     1      -5.885   7.065  13.751  1.00  0.00     0.049 A 
ATOM     52  C   UNL     1      -1.581   4.819  16.545  1.00  0.00     0.074 A 
ATOM     53  C   UNL     1      -6.573   8.087  14.381  1.00  0.00     0.029 A 
ATOM     54  N   UNL     1      -4.876   6.667  14.614  1.00  0.00    -0.354 N 
ATOM     55  N   UNL     1      -2.611   5.435  16.016  1.00  0.00    -0.248 NA
ATOM     56  C   UNL     1      -1.192   5.322  17.869  1.00  0.00     0.031 C 
ATOM     57  C   UNL     1      -5.953   8.335  15.611  1.00  0.00     0.029 A 
ATOM     58  C   UNL     1      -4.915   7.430  15.768  1.00  0.00     0.049 A 
ATOM     59  H   UNL     1      -4.228   5.949  14.432  1.00  0.00     0.167 HD
ATOM     60  C   UNL     1      -3.015   6.372  16.958  1.00  0.00     0.074 A 
ATOM     61  C   UNL     1      -2.130   6.230  18.096  1.00  0.00     0.031 C 
ATOM     62  C   UNL     1      -4.028   7.270  16.890  1.00  0.00     0.031 A 
BRANCH  49  63
ATOM     63  C   UNL     1      -7.237   7.044  11.612  1.00  0.00    -0.014 A 
ATOM     64  C   UNL     1      -8.407   6.306  11.369  1.00  0.00     0.009 A 
ATOM     65  C   UNL     1      -7.123   8.332  11.068  1.00  0.00     0.009 A 
ATOM     66  C   UNL     1      -9.423   6.831  10.568  1.00  0.00     0.001 A 
ATOM     67  C   UNL     1      -8.153   8.867  10.292  1.00  0.00     0.001 A 
ATOM     68  C   UNL     1      -9.297   8.113  10.035  1.00  0.00     0.000 A 
ENDBRANCH  49  63
BRANCH  50  69
ATOM     69  C   UNL     1       0.349   3.098  16.779  1.00  0.00    -0.014 A 
ATOM     70  C   UNL     1       0.095   2.383  17.961  1.00  0.00     0.009 A 
ATOM     71  C   UNL     1       1.679   3.275  16.367  1.00  0.00     0.009 A 
ATOM     72  C   UNL     1       1.150   1.889  18.731  1.00  0.00     0.001 A 
ATOM     73  C   UNL     1       2.731   2.753  17.124  1.00  0.00     0.001 A 
ATOM     74  C   UNL     1       2.466   2.071  18.311  1.00  0.00     0.000 A 
ENDBRANCH  50  69
BRANCH  62  75
ATOM     75  C   UNL     1      -4.260   8.129  18.101  1.00  0.00    -0.014 A 
ATOM     76  C   UNL     1      -3.366   9.150  18.458  1.00  0.00     0.009 A 
ATOM     77  C   UNL     1      -5.405   7.920  18.886  1.00  0.00     0.009 A 
ATOM     78  C   UNL     1      -3.590   9.912  19.606  1.00  0.00     0.001 A 
ATOM     79  C   UNL     1      -5.643   8.705  20.014  1.00  0.00     0.001 A 
ATOM     80  C   UNL     1      -4.729   9.691  20.381  1.00  0.00     0.000 A 
ENDBRANCH  62  75
ENDBRANCH  36  37
ENDBRANCH  28  31
ENDBRANCH  26  27
ENDBRANCH  25  26
ENDBRANCH  24  25
ENDBRANCH   1  24
TORSDOF 18
