REMARK SMILES C[C@@H](C(=O)NCCCCNC(=O)c1ccc(-c2c3nc(c(-c4ccccc4)c4ccc([nH]4)c(-c4ccccc4)c4nc(c(-c5ccccc5)c5ccc2[nH]5)C=C4)C=C3)cc1)c1ccc(-c2cccc(OC(=O)NCCC3CCCCC3)c2)c(F)c1
REMARK SMILES IDX 3 1 4 2 5 3 2 5 1 6 61 7 62 8 85 9 63 10 83 11 64 12 84 13
REMARK SMILES IDX 65 14 66 15 82 16 67 17 69 18 68 19 70 20 71 21 72 22 73 23
REMARK SMILES IDX 74 25 75 26 76 27 77 28 81 29 78 30 80 31 79 32 6 33 7 34
REMARK SMILES IDX 8 35 9 36 10 37 11 38 12 40 13 41 14 42 60 43 15 44 59 45
REMARK SMILES IDX 16 46 17 47 18 48 53 49 19 50 58 51 52 52 54 53 20 54 57 55
REMARK SMILES IDX 51 56 50 57 21 59 43 60 28 61 42 62 29 63 32 64 41 65 55 66
REMARK SMILES IDX 30 67 31 68 40 70 56 71 33 72 22 73 23 74 27 75 24 76 26 77
REMARK SMILES IDX 25 78 44 79 45 80 49 81 46 82 48 83 47 84 34 85 35 86 39 87
REMARK SMILES IDX 36 88 38 89 37 90
REMARK H PARENT 5 4 73 24 10 39 54 58 32 69
REMARK Flexibility Score: inf
ROOT
ATOM      1  C   UNL     1       1.036   0.138   2.297  1.00  0.00     0.227 C 
ATOM      2  O   UNL     1       0.391   0.777   3.130  1.00  0.00    -0.274 OA
ATOM      3  N   UNL     1       2.374   0.013   2.534  1.00  0.00    -0.356 N 
ATOM      4  H   UNL     1       2.677   0.340   3.411  1.00  0.00     0.163 HD
ENDROOT
BRANCH   1   5
ATOM      5  C   UNL     1       0.410  -0.541   1.066  1.00  0.00     0.105 C 
ATOM      6  C   UNL     1       0.806   0.115  -0.260  1.00  0.00     0.023 C 
BRANCH   5   7
ATOM      7  C   UNL     1      -1.109  -0.590   1.135  1.00  0.00    -0.033 A 
ATOM      8  C   UNL     1      -1.869   0.591   1.154  1.00  0.00     0.005 A 
ATOM      9  C   UNL     1      -1.776  -1.819   1.144  1.00  0.00     0.044 A 
ATOM     10  C   UNL     1      -3.262   0.545   1.189  1.00  0.00     0.012 A 
ATOM     11  C   UNL     1      -3.168  -1.855   1.175  1.00  0.00     0.131 A 
ATOM     12  C   UNL     1      -3.938  -0.682   1.203  1.00  0.00     0.018 A 
ATOM     13  F   UNL     1      -3.765  -3.058   1.187  1.00  0.00    -0.206 F 
BRANCH  12  14
ATOM     14  C   UNL     1      -5.397  -0.718   1.344  1.00  0.00    -0.012 A 
ATOM     15  C   UNL     1      -6.247  -0.031   0.464  1.00  0.00     0.009 A 
ATOM     16  C   UNL     1      -5.965  -1.402   2.429  1.00  0.00     0.056 A 
ATOM     17  C   UNL     1      -7.629  -0.025   0.669  1.00  0.00     0.004 A 
ATOM     18  C   UNL     1      -7.337  -1.372   2.651  1.00  0.00     0.133 A 
ATOM     19  C   UNL     1      -8.175  -0.692   1.767  1.00  0.00     0.047 A 
BRANCH  18  20
ATOM     20  O   UNL     1      -7.971  -1.989   3.757  1.00  0.00    -0.410 OA
BRANCH  20  21
ATOM     21  C   UNL     1      -7.306  -2.467   4.883  1.00  0.00     0.412 C 
ATOM     22  O   UNL     1      -6.094  -2.503   5.066  1.00  0.00    -0.224 OA
ATOM     23  N   UNL     1      -8.138  -2.906   5.869  1.00  0.00    -0.321 N 
ATOM     24  H   UNL     1      -7.702  -3.223   6.693  1.00  0.00     0.167 HD
BRANCH  23  25
ATOM     25  C   UNL     1      -9.582  -2.964   5.852  1.00  0.00     0.119 C 
BRANCH  25  26
ATOM     26  C   UNL     1     -10.077  -4.410   5.872  1.00  0.00     0.025 C 
BRANCH  26  27
ATOM     27  C   UNL     1      -9.644  -5.217   7.116  1.00  0.00    -0.009 C 
ATOM     28  C   UNL     1     -10.288  -4.679   8.405  1.00  0.00     0.003 C 
ATOM     29  C   UNL     1      -9.981  -6.704   6.918  1.00  0.00     0.003 C 
ATOM     30  C   UNL     1      -9.935  -5.530   9.624  1.00  0.00     0.000 C 
ATOM     31  C   UNL     1      -9.606  -7.537   8.141  1.00  0.00     0.000 C 
ATOM     32  C   UNL     1     -10.271  -7.001   9.403  1.00  0.00     0.000 C 
ENDBRANCH  26  27
ENDBRANCH  25  26
ENDBRANCH  23  25
ENDBRANCH  20  21
ENDBRANCH  18  20
ENDBRANCH  12  14
ENDBRANCH   5   7
ENDBRANCH   1   5
BRANCH   3  33
ATOM     33  C   UNL     1       3.412  -0.530   1.686  1.00  0.00     0.116 C 
BRANCH  33  34
ATOM     34  C   UNL     1       4.166   0.594   0.974  1.00  0.00     0.023 C 
BRANCH  34  35
ATOM     35  C   UNL     1       4.945   1.523   1.908  1.00  0.00     0.023 C 
BRANCH  35  36
ATOM     36  C   UNL     1       5.935   0.821   2.825  1.00  0.00     0.116 C 
BRANCH  36  37
ATOM     37  N   UNL     1       6.916   0.039   2.091  1.00  0.00    -0.352 N 
ATOM     38  C   UNL     1       8.268  -0.065   2.298  1.00  0.00     0.251 C 
ATOM     39  H   UNL     1       6.561  -0.490   1.340  1.00  0.00     0.163 HD
ATOM     40  O   UNL     1       8.970  -0.649   1.479  1.00  0.00    -0.269 OA
BRANCH  38  41
ATOM     41  C   UNL     1       8.879   0.547   3.497  1.00  0.00     0.039 A 
ATOM     42  C   UNL     1      10.094   1.219   3.360  1.00  0.00     0.014 A 
ATOM     43  C   UNL     1       8.268   0.447   4.750  1.00  0.00     0.014 A 
ATOM     44  C   UNL     1      10.682   1.817   4.475  1.00  0.00     0.010 A 
ATOM     45  C   UNL     1       8.807   1.122   5.840  1.00  0.00     0.010 A 
ATOM     46  C   UNL     1      10.034   1.789   5.721  1.00  0.00    -0.014 A 
BRANCH  46  47
ATOM     47  C   UNL     1      10.652   2.418   6.914  1.00  0.00     0.031 A 
ATOM     48  C   UNL     1      11.056   1.570   8.091  1.00  0.00     0.074 A 
ATOM     49  C   UNL     1      10.830   3.753   6.951  1.00  0.00     0.049 A 
ATOM     50  N   UNL     1      11.629   1.931   9.211  1.00  0.00    -0.248 NA
ATOM     51  C   UNL     1      10.755   0.131   8.011  1.00  0.00     0.031 C 
ATOM     52  C   UNL     1      10.446   4.689   5.892  1.00  0.00     0.029 A 
ATOM     53  N   UNL     1      11.391   4.552   7.915  1.00  0.00    -0.354 N 
ATOM     54  C   UNL     1      11.738   0.772   9.971  1.00  0.00     0.074 A 
ATOM     55  C   UNL     1      11.119  -0.291   9.212  1.00  0.00     0.031 C 
ATOM     56  C   UNL     1      10.827   5.928   6.244  1.00  0.00     0.029 A 
ATOM     57  C   UNL     1      11.442   5.880   7.566  1.00  0.00     0.049 A 
ATOM     58  H   UNL     1      11.724   4.207   8.774  1.00  0.00     0.167 HD
ATOM     59  C   UNL     1      12.320   0.600  11.181  1.00  0.00     0.031 A 
ATOM     60  C   UNL     1      11.937   6.938   8.235  1.00  0.00     0.031 A 
ATOM     61  C   UNL     1      12.944   1.657  11.931  1.00  0.00     0.049 A 
ATOM     62  C   UNL     1      12.567   6.723   9.584  1.00  0.00     0.074 A 
ATOM     63  C   UNL     1      13.617   1.577  13.138  1.00  0.00     0.029 A 
ATOM     64  N   UNL     1      12.964   2.990  11.549  1.00  0.00    -0.354 N 
ATOM     65  N   UNL     1      12.736   5.607  10.251  1.00  0.00    -0.248 NA
ATOM     66  C   UNL     1      13.090   7.916  10.262  1.00  0.00     0.031 C 
ATOM     67  C   UNL     1      13.987   2.871  13.518  1.00  0.00     0.029 A 
ATOM     68  C   UNL     1      13.612   3.747  12.511  1.00  0.00     0.049 A 
ATOM     69  H   UNL     1      12.576   3.345  10.717  1.00  0.00     0.167 HD
ATOM     70  C   UNL     1      13.420   5.958  11.409  1.00  0.00     0.074 A 
ATOM     71  C   UNL     1      13.647   7.387  11.342  1.00  0.00     0.031 C 
ATOM     72  C   UNL     1      13.829   5.168  12.432  1.00  0.00     0.031 A 
BRANCH  59  73
ATOM     73  C   UNL     1      12.293  -0.783  11.774  1.00  0.00    -0.014 A 
ATOM     74  C   UNL     1      13.020  -1.841  11.205  1.00  0.00     0.009 A 
ATOM     75  C   UNL     1      11.545  -1.026  12.937  1.00  0.00     0.009 A 
ATOM     76  C   UNL     1      12.963  -3.121  11.762  1.00  0.00     0.001 A 
ATOM     77  C   UNL     1      11.518  -2.298  13.512  1.00  0.00     0.001 A 
ATOM     78  C   UNL     1      12.216  -3.347  12.917  1.00  0.00     0.000 A 
ENDBRANCH  59  73
BRANCH  60  79
ATOM     79  C   UNL     1      11.891   8.295   7.628  1.00  0.00    -0.014 A 
ATOM     80  C   UNL     1      13.074   8.937   7.228  1.00  0.00     0.009 A 
ATOM     81  C   UNL     1      10.669   8.965   7.462  1.00  0.00     0.009 A 
ATOM     82  C   UNL     1      13.037  10.232   6.708  1.00  0.00     0.001 A 
ATOM     83  C   UNL     1      10.632  10.247   6.910  1.00  0.00     0.001 A 
ATOM     84  C   UNL     1      11.816  10.884   6.545  1.00  0.00     0.000 A 
ENDBRANCH  60  79
BRANCH  72  85
ATOM     85  C   UNL     1      14.611   5.826  13.537  1.00  0.00    -0.014 A 
ATOM     86  C   UNL     1      14.012   6.731  14.427  1.00  0.00     0.009 A 
ATOM     87  C   UNL     1      15.969   5.511  13.701  1.00  0.00     0.009 A 
ATOM     88  C   UNL     1      14.770   7.344  15.427  1.00  0.00     0.001 A 
ATOM     89  C   UNL     1      16.715   6.097  14.725  1.00  0.00     0.001 A 
ATOM     90  C   UNL     1      16.119   7.023  15.577  1.00  0.00     0.000 A 
ENDBRANCH  72  85
ENDBRANCH  46  47
ENDBRANCH  38  41
ENDBRANCH  36  37
ENDBRANCH  35  36
ENDBRANCH  34  35
ENDBRANCH  33  34
ENDBRANCH   3  33
TORSDOF 18
