REMARK SMILES COc1ccc(-n2ccnc2C[N@@H+]2CCn3nc(C(=O)NCCCCNC(=O)c4ccc(-c5c6nc(c(-c7ccccc7)c7ccc([nH]7)c(-c7ccccc7)c7nc(c(-c8ccccc8)c8ccc5[nH]8)C=C7)C=C6)cc4)cc3C2)cc1
REMARK SMILES IDX 22 1 21 2 19 3 20 4 18 6 13 7 14 8 79 9 15 11 78 12 16 13
REMARK SMILES IDX 77 14 17 15 12 16 11 17 7 18 8 19 9 20 10 21 6 22 3 23 4 24
REMARK SMILES IDX 81 25 5 26 80 27 2 28 1 29 23 30 24 31 25 32 26 33 27 34
REMARK SMILES IDX 28 36 29 37 30 38 76 39 31 40 75 41 32 42 33 43 34 44 69 45
REMARK SMILES IDX 35 46 74 47 68 48 70 49 36 50 73 51 67 52 66 53 37 55 59 56
REMARK SMILES IDX 44 57 58 58 45 59 48 60 57 61 71 62 46 63 47 64 56 66 72 67
REMARK SMILES IDX 49 68 38 69 39 70 43 71 40 72 42 73 41 74 60 75 61 76 65 77
REMARK SMILES IDX 62 78 64 79 63 80 50 81 51 82 55 83 52 84 54 85 53 86
REMARK H PARENT 21 5 13 10 26 35 70 54 48 65
REMARK Flexibility Score: inf
ROOT
ATOM      1  C   UNL     1      -0.165  -1.463   5.126  1.00  0.00     0.116 C 
ENDROOT
BRANCH   1   2
ATOM      2  N   UNL     1      -0.971  -2.707   5.142  1.00  0.00    -0.351 N 
ATOM      3  C   UNL     1      -1.548  -3.718   4.386  1.00  0.00     0.271 C 
ATOM      4  O   UNL     1      -2.252  -4.439   5.112  1.00  0.00    -0.267 OA
ATOM      5  H   UNL     1      -1.189  -2.894   6.083  1.00  0.00     0.163 HD
BRANCH   3   6
ATOM      6  C   UNL     1      -1.411  -4.146   2.931  1.00  0.00     0.150 A 
ATOM      7  N   UNL     1       0.615  -7.303   2.752  1.00  0.00    -0.322 N 
ATOM      8  C   UNL     1       1.454  -6.964   1.611  1.00  0.00     0.286 C 
ATOM      9  C   UNL     1      -0.811  -7.394   2.298  1.00  0.00     0.319 C 
ATOM     10  H   UNL     1       0.920  -8.211   3.104  1.00  0.00     0.348 HD
ATOM     11  C   UNL     1       0.964  -5.730   0.835  1.00  0.00     0.206 C 
ATOM     12  C   UNL     1      -1.291  -6.052   1.813  1.00  0.00     0.094 A 
ATOM     13  N   UNL     1      -0.300  -5.205   1.377  1.00  0.00    -0.257 N 
ATOM     14  C   UNL     1      -2.227  -5.180   2.359  1.00  0.00     0.065 A 
ATOM     15  N   UNL     1      -0.322  -4.081   2.136  1.00  0.00    -0.167 NA
BRANCH   7  16
ATOM     16  C   UNL     1       0.780  -6.383   3.920  1.00  0.00     0.339 C 
BRANCH  16  17
ATOM     17  C   UNL     1       2.088  -5.633   4.272  1.00  0.00     0.168 A 
ATOM     18  N   UNL     1       2.760  -4.403   3.897  1.00  0.00    -0.299 N 
ATOM     19  C   UNL     1       3.774  -4.277   4.847  1.00  0.00     0.113 A 
ATOM     20  C   UNL     1       3.770  -5.383   5.635  1.00  0.00     0.132 A 
ATOM     21  N   UNL     1       2.780  -6.212   5.258  1.00  0.00    -0.236 NA
BRANCH  18  22
ATOM     22  C   UNL     1       2.685  -3.326   2.910  1.00  0.00     0.047 A 
ATOM     23  C   UNL     1       2.647  -1.021   1.159  1.00  0.00     0.119 A 
ATOM     24  C   UNL     1       1.503  -1.448   1.790  1.00  0.00     0.048 A 
ATOM     25  C   UNL     1       3.836  -1.665   1.485  1.00  0.00     0.048 A 
ATOM     26  C   UNL     1       1.574  -2.535   2.690  1.00  0.00     0.030 A 
ATOM     27  C   UNL     1       3.853  -2.809   2.328  1.00  0.00     0.030 A 
BRANCH  23  28
ATOM     28  O   UNL     1       2.695   0.070   0.343  1.00  0.00    -0.497 OA
ATOM     29  C   UNL     1       1.716   0.094  -0.701  1.00  0.00     0.278 C 
ENDBRANCH  23  28
ENDBRANCH  18  22
ENDBRANCH  16  17
ENDBRANCH   7  16
ENDBRANCH   3   6
ENDBRANCH   1   2
BRANCH   1  30
ATOM     30  C   UNL     1      -0.769  -0.290   4.341  1.00  0.00     0.023 C 
BRANCH  30  31
ATOM     31  C   UNL     1      -1.315   0.859   5.222  1.00  0.00     0.023 C 
BRANCH  31  32
ATOM     32  C   UNL     1      -0.262   1.869   5.692  1.00  0.00     0.116 C 
BRANCH  32  33
ATOM     33  N   UNL     1       0.075   2.904   4.700  1.00  0.00    -0.352 N 
ATOM     34  C   UNL     1       0.950   3.981   4.844  1.00  0.00     0.251 C 
ATOM     35  H   UNL     1      -0.371   2.825   3.826  1.00  0.00     0.163 HD
ATOM     36  O   UNL     1       0.875   4.969   4.135  1.00  0.00    -0.269 OA
BRANCH  34  37
ATOM     37  C   UNL     1       2.005   3.882   5.872  1.00  0.00     0.039 A 
ATOM     38  C   UNL     1       2.397   4.950   6.692  1.00  0.00     0.014 A 
ATOM     39  C   UNL     1       2.577   2.629   6.018  1.00  0.00     0.014 A 
ATOM     40  C   UNL     1       3.304   4.706   7.728  1.00  0.00     0.010 A 
ATOM     41  C   UNL     1       3.281   2.347   7.149  1.00  0.00     0.010 A 
ATOM     42  C   UNL     1       3.726   3.392   7.955  1.00  0.00    -0.014 A 
BRANCH  42  43
ATOM     43  C   UNL     1       4.592   2.997   9.059  1.00  0.00     0.031 A 
ATOM     44  C   UNL     1       3.983   3.096  10.415  1.00  0.00     0.074 A 
ATOM     45  C   UNL     1       5.679   2.229   8.814  1.00  0.00     0.049 A 
ATOM     46  N   UNL     1       4.392   3.787  11.426  1.00  0.00    -0.248 NA
ATOM     47  C   UNL     1       2.696   2.413  10.646  1.00  0.00     0.031 C 
ATOM     48  C   UNL     1       6.150   1.728   7.511  1.00  0.00     0.029 A 
ATOM     49  N   UNL     1       6.479   1.563   9.686  1.00  0.00    -0.354 N 
ATOM     50  C   UNL     1       3.530   3.478  12.478  1.00  0.00     0.074 A 
ATOM     51  C   UNL     1       2.403   2.804  11.888  1.00  0.00     0.031 C 
ATOM     52  C   UNL     1       6.945   0.654   7.700  1.00  0.00     0.029 A 
ATOM     53  C   UNL     1       7.178   0.499   9.123  1.00  0.00     0.049 A 
ATOM     54  H   UNL     1       6.557   1.811  10.636  1.00  0.00     0.167 HD
ATOM     55  C   UNL     1       3.931   3.554  13.779  1.00  0.00     0.031 A 
ATOM     56  C   UNL     1       7.854  -0.473   9.785  1.00  0.00     0.031 A 
ATOM     57  C   UNL     1       5.189   4.245  13.904  1.00  0.00     0.049 A 
ATOM     58  C   UNL     1       8.068   0.009  11.170  1.00  0.00     0.074 A 
ATOM     59  C   UNL     1       5.652   5.501  13.563  1.00  0.00     0.029 A 
ATOM     60  N   UNL     1       6.309   3.467  14.084  1.00  0.00    -0.354 N 
ATOM     61  N   UNL     1       8.829   1.023  11.467  1.00  0.00    -0.248 NA
ATOM     62  C   UNL     1       7.068  -0.335  12.170  1.00  0.00     0.031 C 
ATOM     63  C   UNL     1       6.971   5.278  13.068  1.00  0.00     0.029 A 
ATOM     64  C   UNL     1       7.265   3.920  13.214  1.00  0.00     0.049 A 
ATOM     65  H   UNL     1       6.406   2.721  14.720  1.00  0.00     0.167 HD
ATOM     66  C   UNL     1       8.128   1.713  12.446  1.00  0.00     0.074 A 
ATOM     67  C   UNL     1       7.107   0.775  12.913  1.00  0.00     0.031 C 
ATOM     68  C   UNL     1       8.242   3.069  12.572  1.00  0.00     0.031 A 
BRANCH  55  69
ATOM     69  C   UNL     1       3.428   2.647  14.881  1.00  0.00    -0.014 A 
ATOM     70  C   UNL     1       3.925   2.839  16.185  1.00  0.00     0.009 A 
ATOM     71  C   UNL     1       2.722   1.452  14.650  1.00  0.00     0.009 A 
ATOM     72  C   UNL     1       3.805   1.849  17.168  1.00  0.00     0.001 A 
ATOM     73  C   UNL     1       2.560   0.480  15.643  1.00  0.00     0.001 A 
ATOM     74  C   UNL     1       3.131   0.665  16.892  1.00  0.00     0.000 A 
ENDBRANCH  55  69
BRANCH  56  75
ATOM     75  C   UNL     1       8.101  -1.877   9.386  1.00  0.00    -0.014 A 
ATOM     76  C   UNL     1       9.114  -2.632   9.998  1.00  0.00     0.009 A 
ATOM     77  C   UNL     1       7.175  -2.563   8.579  1.00  0.00     0.009 A 
ATOM     78  C   UNL     1       9.174  -4.024   9.838  1.00  0.00     0.001 A 
ATOM     79  C   UNL     1       7.237  -3.953   8.416  1.00  0.00     0.001 A 
ATOM     80  C   UNL     1       8.228  -4.685   9.059  1.00  0.00     0.000 A 
ENDBRANCH  56  75
BRANCH  68  81
ATOM     81  C   UNL     1       9.306   3.775  11.766  1.00  0.00    -0.014 A 
ATOM     82  C   UNL     1       9.333   3.776  10.360  1.00  0.00     0.009 A 
ATOM     83  C   UNL     1      10.202   4.612  12.446  1.00  0.00     0.009 A 
ATOM     84  C   UNL     1      10.243   4.574   9.659  1.00  0.00     0.001 A 
ATOM     85  C   UNL     1      11.096   5.425  11.746  1.00  0.00     0.001 A 
ATOM     86  C   UNL     1      11.120   5.403  10.354  1.00  0.00     0.000 A 
ENDBRANCH  68  81
ENDBRANCH  42  43
ENDBRANCH  34  37
ENDBRANCH  32  33
ENDBRANCH  31  32
ENDBRANCH  30  31
ENDBRANCH   1  30
TORSDOF 15
