REMARK SMILES O=C(NCCCCNC(=O)c1nc(NC[C@H]2c3ccccc3CSc3ccccc32)c2ccccc2n1)c1ccc(-c2c3nc(c(-c4ccccc4)c4ccc([nH]4)c(-c4ccccc4)c4nc(c(-c5ccccc5)c5ccc2[nH]5)C=C4)C=C3)cc1
REMARK SMILES IDX 6 1 5 2 4 3 3 4 1 5 2 6 38 8 39 9 85 10 40 11 84 12 41 13
REMARK SMILES IDX 42 14 43 15 78 16 44 17 83 18 77 19 79 20 45 21 82 22 76 23
REMARK SMILES IDX 75 24 46 26 68 27 53 28 67 29 54 30 57 31 66 32 80 33 55 34
REMARK SMILES IDX 56 35 65 37 81 38 58 39 47 40 48 41 52 42 49 43 51 44 50 45
REMARK SMILES IDX 69 46 70 47 74 48 71 49 73 50 72 51 59 52 60 53 64 54 61 55
REMARK SMILES IDX 63 56 62 57 7 58 8 59 9 60 10 62 11 63 12 64 37 65 13 66
REMARK SMILES IDX 36 67 31 68 35 69 32 70 34 71 33 72 14 73 15 75 16 76 17 77
REMARK SMILES IDX 30 78 18 79 22 80 25 81 29 82 19 83 21 84 23 85 24 86 26 87
REMARK SMILES IDX 28 88 20 89 27 90
REMARK H PARENT 3 7 79 25 57 36 8 61 14 74
REMARK Flexibility Score: inf
ROOT
ATOM      1  C   UNL     1       4.518   3.391   1.708  1.00  0.00     0.023 C 
ENDROOT
BRANCH   1   2
ATOM      2  C   UNL     1       4.971   2.447   0.593  1.00  0.00     0.023 C 
BRANCH   2   3
ATOM      3  C   UNL     1       4.542   0.990   0.746  1.00  0.00     0.116 C 
BRANCH   3   4
ATOM      4  N   UNL     1       3.098   0.829   0.782  1.00  0.00    -0.352 N 
ATOM      5  O   UNL     1       1.067   0.094   0.151  1.00  0.00    -0.269 OA
ATOM      6  C   UNL     1       2.293  -0.029   0.080  1.00  0.00     0.251 C 
ATOM      7  H   UNL     1       2.626   1.428   1.405  1.00  0.00     0.163 HD
BRANCH   6   8
ATOM      8  C   UNL     1       2.865  -1.095  -0.771  1.00  0.00     0.039 A 
ATOM      9  C   UNL     1       2.271  -1.354  -2.012  1.00  0.00     0.014 A 
ATOM     10  C   UNL     1       3.936  -1.882  -0.336  1.00  0.00     0.014 A 
ATOM     11  C   UNL     1       2.770  -2.372  -2.829  1.00  0.00     0.010 A 
ATOM     12  C   UNL     1       4.468  -2.860  -1.175  1.00  0.00     0.010 A 
ATOM     13  C   UNL     1       3.881  -3.124  -2.422  1.00  0.00    -0.014 A 
BRANCH  13  14
ATOM     14  C   UNL     1       4.425  -4.218  -3.264  1.00  0.00     0.031 A 
ATOM     15  C   UNL     1       4.319  -5.644  -2.801  1.00  0.00     0.074 A 
ATOM     16  C   UNL     1       5.069  -3.932  -4.411  1.00  0.00     0.049 A 
ATOM     17  N   UNL     1       4.815  -6.726  -3.344  1.00  0.00    -0.248 NA
ATOM     18  C   UNL     1       3.573  -5.883  -1.555  1.00  0.00     0.031 C 
ATOM     19  C   UNL     1       5.246  -2.591  -4.969  1.00  0.00     0.029 A 
ATOM     20  N   UNL     1       5.704  -4.755  -5.308  1.00  0.00    -0.354 N 
ATOM     21  C   UNL     1       4.466  -7.767  -2.494  1.00  0.00     0.074 A 
ATOM     22  C   UNL     1       3.744  -7.186  -1.384  1.00  0.00     0.031 C 
ATOM     23  C   UNL     1       5.929  -2.685  -6.121  1.00  0.00     0.029 A 
ATOM     24  C   UNL     1       6.277  -4.084  -6.359  1.00  0.00     0.049 A 
ATOM     25  H   UNL     1       5.744  -5.734  -5.206  1.00  0.00     0.167 HD
ATOM     26  C   UNL     1       4.714  -9.090  -2.633  1.00  0.00     0.031 A 
ATOM     27  C   UNL     1       7.014  -4.536  -7.392  1.00  0.00     0.031 A 
ATOM     28  C   UNL     1       5.405  -9.671  -3.752  1.00  0.00     0.049 A 
ATOM     29  C   UNL     1       7.316  -6.003  -7.505  1.00  0.00     0.074 A 
ATOM     30  C   UNL     1       5.616 -11.011  -4.026  1.00  0.00     0.029 A 
ATOM     31  N   UNL     1       6.001  -8.951  -4.774  1.00  0.00    -0.354 N 
ATOM     32  N   UNL     1       6.931  -6.983  -6.724  1.00  0.00    -0.248 NA
ATOM     33  C   UNL     1       8.157  -6.428  -8.634  1.00  0.00     0.031 C 
ATOM     34  C   UNL     1       6.395 -11.100  -5.182  1.00  0.00     0.029 A 
ATOM     35  C   UNL     1       6.622  -9.818  -5.657  1.00  0.00     0.049 A 
ATOM     36  H   UNL     1       5.986  -7.971  -4.859  1.00  0.00     0.167 HD
ATOM     37  C   UNL     1       7.473  -8.139  -7.269  1.00  0.00     0.074 A 
ATOM     38  C   UNL     1       8.205  -7.743  -8.454  1.00  0.00     0.031 C 
ATOM     39  C   UNL     1       7.366  -9.414  -6.822  1.00  0.00     0.031 A 
BRANCH  26  40
ATOM     40  C   UNL     1       4.247 -10.010  -1.541  1.00  0.00    -0.014 A 
ATOM     41  C   UNL     1       5.191 -10.646  -0.719  1.00  0.00     0.009 A 
ATOM     42  C   UNL     1       2.886 -10.301  -1.364  1.00  0.00     0.009 A 
ATOM     43  C   UNL     1       4.782 -11.555   0.258  1.00  0.00     0.001 A 
ATOM     44  C   UNL     1       2.478 -11.191  -0.368  1.00  0.00     0.001 A 
ATOM     45  C   UNL     1       3.426 -11.821   0.437  1.00  0.00     0.000 A 
ENDBRANCH  26  40
BRANCH  27  46
ATOM     46  C   UNL     1       7.506  -3.566  -8.403  1.00  0.00    -0.014 A 
ATOM     47  C   UNL     1       8.540  -2.669  -8.091  1.00  0.00     0.009 A 
ATOM     48  C   UNL     1       6.885  -3.479  -9.658  1.00  0.00     0.009 A 
ATOM     49  C   UNL     1       8.923  -1.684  -9.004  1.00  0.00     0.001 A 
ATOM     50  C   UNL     1       7.285  -2.506 -10.576  1.00  0.00     0.001 A 
ATOM     51  C   UNL     1       8.294  -1.603 -10.245  1.00  0.00     0.000 A 
ENDBRANCH  27  46
BRANCH  39  52
ATOM     52  C   UNL     1       8.062 -10.495  -7.598  1.00  0.00    -0.014 A 
ATOM     53  C   UNL     1       7.309 -11.415  -8.346  1.00  0.00     0.009 A 
ATOM     54  C   UNL     1       9.447 -10.681  -7.484  1.00  0.00     0.009 A 
ATOM     55  C   UNL     1       7.926 -12.515  -8.944  1.00  0.00     0.001 A 
ATOM     56  C   UNL     1      10.065 -11.770  -8.103  1.00  0.00     0.001 A 
ATOM     57  C   UNL     1       9.304 -12.691  -8.821  1.00  0.00     0.000 A 
ENDBRANCH  39  52
ENDBRANCH  13  14
ENDBRANCH   6   8
ENDBRANCH   3   4
ENDBRANCH   2   3
ENDBRANCH   1   2
BRANCH   1  58
ATOM     58  C   UNL     1       4.914   2.980   3.125  1.00  0.00     0.116 C 
BRANCH  58  59
ATOM     59  N   UNL     1       6.354   2.925   3.310  1.00  0.00    -0.349 N 
ATOM     60  C   UNL     1       7.121   3.562   4.273  1.00  0.00     0.289 C 
ATOM     61  H   UNL     1       6.848   2.365   2.669  1.00  0.00     0.163 HD
ATOM     62  O   UNL     1       8.347   3.463   4.215  1.00  0.00    -0.266 OA
BRANCH  60  63
ATOM     63  C   UNL     1       6.454   4.387   5.337  1.00  0.00     0.220 A 
ATOM     64  N   UNL     1       6.829   5.672   5.398  1.00  0.00    -0.206 NA
ATOM     65  N   UNL     1       5.410   3.833   5.977  1.00  0.00    -0.224 NA
ATOM     66  C   UNL     1       6.070   6.491   6.136  1.00  0.00     0.138 A 
ATOM     67  C   UNL     1       4.678   4.652   6.729  1.00  0.00     0.077 A 
ATOM     68  C   UNL     1       4.959   6.021   6.869  1.00  0.00     0.043 A 
ATOM     69  C   UNL     1       3.548   4.128   7.342  1.00  0.00     0.029 A 
ATOM     70  C   UNL     1       4.088   6.820   7.656  1.00  0.00     0.014 A 
ATOM     71  C   UNL     1       2.678   4.925   8.088  1.00  0.00     0.002 A 
ATOM     72  C   UNL     1       2.952   6.275   8.251  1.00  0.00     0.001 A 
BRANCH  66  73
ATOM     73  N   UNL     1       6.347   7.856   6.067  1.00  0.00    -0.368 N 
ATOM     74  H   UNL     1       5.912   8.477   6.694  1.00  0.00     0.162 HD
BRANCH  73  75
ATOM     75  C   UNL     1       7.288   8.368   5.059  1.00  0.00     0.127 C 
BRANCH  75  76
ATOM     76  C   UNL     1       6.767   9.655   4.308  1.00  0.00     0.070 C 
ATOM     77  C   UNL     1       5.677   9.326   3.260  1.00  0.00    -0.035 A 
ATOM     78  C   UNL     1       6.507  10.907   5.181  1.00  0.00    -0.025 A 
ATOM     79  C   UNL     1       4.818   8.216   3.358  1.00  0.00     0.005 A 
ATOM     80  C   UNL     1       5.540  10.133   2.112  1.00  0.00    -0.034 A 
ATOM     81  C   UNL     1       6.043  12.156   4.694  1.00  0.00     0.011 A 
ATOM     82  C   UNL     1       6.849  10.861   6.560  1.00  0.00     0.005 A 
ATOM     83  C   UNL     1       3.884   7.899   2.368  1.00  0.00     0.000 A 
ATOM     84  C   UNL     1       4.584   9.818   1.123  1.00  0.00     0.005 A 
ATOM     85  C   UNL     1       6.343  11.392   1.963  1.00  0.00     0.110 C 
ATOM     86  S   UNL     1       5.654  12.684   3.019  1.00  0.00    -0.121 SA
ATOM     87  C   UNL     1       5.853  13.230   5.600  1.00  0.00     0.015 A 
ATOM     88  C   UNL     1       6.673  11.940   7.431  1.00  0.00     0.000 A 
ATOM     89  C   UNL     1       3.766   8.701   1.246  1.00  0.00     0.000 A 
ATOM     90  C   UNL     1       6.158  13.126   6.952  1.00  0.00     0.001 A 
ENDBRANCH  75  76
ENDBRANCH  73  75
ENDBRANCH  66  73
ENDBRANCH  60  63
ENDBRANCH  58  59
ENDBRANCH   1  58
TORSDOF 14
