REMARK SMILES O=C(NCCCCNC(=O)[C@@H]1CCCCC[C@H]1NS(=O)(=O)C(F)F)c1ccc(-c2c3nc(c(-c4ccccc4)c4ccc([nH]4)c(-c4ccccc4)c4nc(c(-c5ccccc5)c5ccc2[nH]5)C=C4)C=C3)cc1
REMARK SMILES IDX 6 1 5 2 4 3 3 4 1 5 2 6 25 8 26 9 72 10 27 11 71 12 28 13
REMARK SMILES IDX 29 14 30 15 65 16 31 17 70 18 64 19 66 20 32 21 69 22 63 23
REMARK SMILES IDX 62 24 33 26 55 27 40 28 54 29 41 30 44 31 53 32 67 33 42 34
REMARK SMILES IDX 43 35 52 37 68 38 45 39 34 40 35 41 39 42 36 43 38 44 37 45
REMARK SMILES IDX 56 46 57 47 61 48 58 49 60 50 59 51 46 52 47 53 51 54 48 55
REMARK SMILES IDX 50 56 49 57 7 58 8 59 9 60 10 62 11 63 12 64 13 65 14 66
REMARK SMILES IDX 17 68 16 69 15 70 18 72 19 74 20 75 21 76 22 77 23 78 24 79
REMARK H PARENT 3 7 66 25 44 36 8 61 18 73
REMARK Flexibility Score: 90.00
ROOT
ATOM      1  C   UNL     1       4.382  -3.334   1.817  1.00  0.00     0.023 C 
ENDROOT
BRANCH   1   2
ATOM      2  C   UNL     1       4.864  -1.883   1.815  1.00  0.00     0.023 C 
BRANCH   2   3
ATOM      3  C   UNL     1       4.508  -1.093   0.562  1.00  0.00     0.116 C 
BRANCH   3   4
ATOM      4  N   UNL     1       3.074  -1.017   0.322  1.00  0.00    -0.352 N 
ATOM      5  O   UNL     1       1.087   0.007  -0.019  1.00  0.00    -0.269 OA
ATOM      6  C   UNL     1       2.310   0.087   0.025  1.00  0.00     0.251 C 
ATOM      7  H   UNL     1       2.587  -1.870   0.380  1.00  0.00     0.163 HD
BRANCH   6   8
ATOM      8  C   UNL     1       2.980   1.381  -0.211  1.00  0.00     0.039 A 
ATOM      9  C   UNL     1       4.104   1.451  -1.037  1.00  0.00     0.014 A 
ATOM     10  C   UNL     1       2.499   2.526   0.428  1.00  0.00     0.014 A 
ATOM     11  C   UNL     1       4.838   2.627  -1.099  1.00  0.00     0.010 A 
ATOM     12  C   UNL     1       3.185   3.735   0.284  1.00  0.00     0.010 A 
ATOM     13  C   UNL     1       4.378   3.787  -0.455  1.00  0.00    -0.014 A 
BRANCH  13  14
ATOM     14  C   UNL     1       5.124   5.057  -0.630  1.00  0.00     0.031 A 
ATOM     15  C   UNL     1       5.766   5.756   0.536  1.00  0.00     0.074 A 
ATOM     16  C   UNL     1       5.234   5.570  -1.871  1.00  0.00     0.049 A 
ATOM     17  N   UNL     1       6.456   6.870   0.547  1.00  0.00    -0.248 NA
ATOM     18  C   UNL     1       5.611   5.133   1.859  1.00  0.00     0.031 C 
ATOM     19  C   UNL     1       4.655   4.980  -3.082  1.00  0.00     0.029 A 
ATOM     20  N   UNL     1       5.881   6.689  -2.325  1.00  0.00    -0.354 N 
ATOM     21  C   UNL     1       6.801   7.091   1.874  1.00  0.00     0.074 A 
ATOM     22  C   UNL     1       6.221   6.011   2.645  1.00  0.00     0.031 C 
ATOM     23  C   UNL     1       5.013   5.715  -4.143  1.00  0.00     0.029 A 
ATOM     24  C   UNL     1       5.777   6.867  -3.683  1.00  0.00     0.049 A 
ATOM     25  H   UNL     1       6.372   7.306  -1.735  1.00  0.00     0.167 HD
ATOM     26  C   UNL     1       7.536   8.101   2.400  1.00  0.00     0.031 A 
ATOM     27  C   UNL     1       6.224   7.859  -4.473  1.00  0.00     0.031 A 
ATOM     28  C   UNL     1       8.100   9.180   1.628  1.00  0.00     0.049 A 
ATOM     29  C   UNL     1       6.984   8.994  -3.853  1.00  0.00     0.074 A 
ATOM     30  C   UNL     1       8.883  10.235   2.066  1.00  0.00     0.029 A 
ATOM     31  N   UNL     1       7.933   9.348   0.262  1.00  0.00    -0.354 N 
ATOM     32  N   UNL     1       7.333   9.168  -2.602  1.00  0.00    -0.248 NA
ATOM     33  C   UNL     1       7.413  10.068  -4.758  1.00  0.00     0.031 C 
ATOM     34  C   UNL     1       9.133  11.076   0.977  1.00  0.00     0.029 A 
ATOM     35  C   UNL     1       8.569  10.507  -0.154  1.00  0.00     0.049 A 
ATOM     36  H   UNL     1       7.435   8.735  -0.326  1.00  0.00     0.167 HD
ATOM     37  C   UNL     1       8.045  10.360  -2.572  1.00  0.00     0.074 A 
ATOM     38  C   UNL     1       8.095  10.851  -3.934  1.00  0.00     0.031 C 
ATOM     39  C   UNL     1       8.607  10.989  -1.512  1.00  0.00     0.031 A 
BRANCH  26  40
ATOM     40  C   UNL     1       7.744   8.111   3.892  1.00  0.00    -0.014 A 
ATOM     41  C   UNL     1       8.560   7.161   4.526  1.00  0.00     0.009 A 
ATOM     42  C   UNL     1       7.151   9.118   4.670  1.00  0.00     0.009 A 
ATOM     43  C   UNL     1       8.748   7.198   5.910  1.00  0.00     0.001 A 
ATOM     44  C   UNL     1       7.365   9.173   6.048  1.00  0.00     0.001 A 
ATOM     45  C   UNL     1       8.155   8.207   6.669  1.00  0.00     0.000 A 
ENDBRANCH  26  40
BRANCH  27  46
ATOM     46  C   UNL     1       5.939   7.829  -5.931  1.00  0.00    -0.014 A 
ATOM     47  C   UNL     1       6.974   7.653  -6.860  1.00  0.00     0.009 A 
ATOM     48  C   UNL     1       4.622   7.968  -6.400  1.00  0.00     0.009 A 
ATOM     49  C   UNL     1       6.700   7.646  -8.229  1.00  0.00     0.001 A 
ATOM     50  C   UNL     1       4.347   7.924  -7.767  1.00  0.00     0.001 A 
ATOM     51  C   UNL     1       5.388   7.774  -8.681  1.00  0.00     0.000 A 
ENDBRANCH  27  46
BRANCH  39  52
ATOM     52  C   UNL     1       9.359  12.260  -1.791  1.00  0.00    -0.014 A 
ATOM     53  C   UNL     1       8.695  13.439  -2.165  1.00  0.00     0.009 A 
ATOM     54  C   UNL     1      10.756  12.282  -1.652  1.00  0.00     0.009 A 
ATOM     55  C   UNL     1       9.420  14.603  -2.431  1.00  0.00     0.001 A 
ATOM     56  C   UNL     1      11.474  13.455  -1.885  1.00  0.00     0.001 A 
ATOM     57  C   UNL     1      10.806  14.611  -2.285  1.00  0.00     0.000 A 
ENDBRANCH  39  52
ENDBRANCH  13  14
ENDBRANCH   6   8
ENDBRANCH   3   4
ENDBRANCH   2   3
ENDBRANCH   1   2
BRANCH   1  58
ATOM     58  C   UNL     1       4.852  -4.147   0.611  1.00  0.00     0.116 C 
BRANCH  58  59
ATOM     59  N   UNL     1       6.282  -4.392   0.667  1.00  0.00    -0.356 N 
ATOM     60  C   UNL     1       6.953  -5.537   0.980  1.00  0.00     0.224 C 
ATOM     61  H   UNL     1       6.850  -3.619   0.448  1.00  0.00     0.163 HD
ATOM     62  O   UNL     1       8.184  -5.508   1.007  1.00  0.00    -0.275 OA
BRANCH  60  63
ATOM     63  C   UNL     1       6.173  -6.823   1.220  1.00  0.00     0.096 C 
BRANCH  63  64
ATOM     64  C   UNL     1       6.702  -7.491   2.495  1.00  0.00     0.015 C 
BRANCH  64  65
ATOM     65  C   UNL     1       5.951  -8.772   2.844  1.00  0.00     0.001 C 
BRANCH  65  66
ATOM     66  C   UNL     1       6.594 -10.014   2.244  1.00  0.00     0.000 CG0
ATOM     67  G   UNL     1       6.559 -10.102   0.724  1.00  0.00     0.000 G0
ENDBRANCH  65  66
ENDBRANCH  64  65
ENDBRANCH  63  64
BRANCH  63  68
ATOM     68  C   UNL     1       6.217  -7.655  -0.091  1.00  0.00     0.082 C 
BRANCH  68  69
ATOM     69  C   UNL     1       7.121  -8.895  -0.030  1.00  0.00     0.021 C 
BRANCH  69  70
ATOM     70  C   UNL     1       6.559 -10.102   0.724  1.00  0.00     0.002 CG0
ATOM     71  G   UNL     1       6.594 -10.014   2.244  1.00  0.00     0.000 G0
ENDBRANCH  69  70
ENDBRANCH  68  69
BRANCH  68  72
ATOM     72  N   UNL     1       4.816  -7.982  -0.479  1.00  0.00    -0.206 NA
ATOM     73  H   UNL     1       4.291  -7.111  -0.403  1.00  0.00     0.141 HD
BRANCH  72  74
ATOM     74  S   UNL     1       4.415  -8.639  -1.982  1.00  0.00     0.274 S 
ATOM     75  O   UNL     1       5.221  -9.823  -2.184  1.00  0.00    -0.206 OA
ATOM     76  O   UNL     1       2.969  -8.775  -1.930  1.00  0.00    -0.206 OA
BRANCH  74  77
ATOM     77  C   UNL     1       4.853  -7.372  -3.231  1.00  0.00     0.473 C 
ATOM     78  F   UNL     1       4.218  -6.184  -3.015  1.00  0.00    -0.191 F 
ATOM     79  F   UNL     1       6.189  -7.095  -3.240  1.00  0.00    -0.191 F 
ENDBRANCH  74  77
ENDBRANCH  72  74
ENDBRANCH  68  72
ENDBRANCH  63  68
ENDBRANCH  60  63
ENDBRANCH  58  59
ENDBRANCH   1  58
TORSDOF 14
