REMARK SMILES CCn1cc(S(=O)(=O)N2CCC(CCc3ccc(C(=O)NCCCCNC(=O)c4ccc(-c5c6nc(c(-c7ccccc7)c7ccc([nH]7)c(-c7ccccc7)c7nc(c(-c8ccccc8)c8ccc5[nH]8)C=C7)C=C6)cc4)cc3)CC2)cn1
REMARK SMILES IDX 19 1 20 2 21 3 18 5 15 6 16 7 78 8 17 9 77 10 14 11 13 12
REMARK SMILES IDX 12 13 9 14 10 15 80 16 11 17 79 18 6 19 7 20 8 21 5 22 3 23
REMARK SMILES IDX 4 24 82 25 81 26 2 27 1 28 22 29 23 30 24 31 25 32 26 33
REMARK SMILES IDX 27 34 28 36 29 37 30 38 76 39 31 40 75 41 32 42 33 43 34 44
REMARK SMILES IDX 69 45 35 46 74 47 68 48 70 49 36 50 73 51 67 52 66 53 37 55
REMARK SMILES IDX 59 56 44 57 58 58 45 59 48 60 57 61 71 62 46 63 47 64 56 66
REMARK SMILES IDX 72 67 49 68 38 69 39 70 43 71 40 72 42 73 41 74 60 75 61 76
REMARK SMILES IDX 65 77 62 78 64 79 63 80 50 81 51 82 55 83 52 84 54 85 53 86
REMARK H PARENT 21 4 26 35 70 54 48 65
REMARK Flexibility Score: inf
ROOT
ATOM      1  C   UNL     1      -0.176   2.726  -3.822  1.00  0.00     0.251 C 
ATOM      2  O   UNL     1      -1.120   2.908  -4.595  1.00  0.00    -0.269 OA
ATOM      3  N   UNL     1       0.618   1.635  -4.084  1.00  0.00    -0.352 N 
ATOM      4  H   UNL     1       0.325   1.127  -4.875  1.00  0.00     0.163 HD
ENDROOT
BRANCH   1   5
ATOM      5  C   UNL     1       0.028   3.699  -2.702  1.00  0.00     0.039 A 
ATOM      6  C   UNL     1       0.259   5.674  -0.661  1.00  0.00    -0.048 A 
ATOM      7  C   UNL     1      -0.572   5.886  -1.763  1.00  0.00     0.004 A 
ATOM      8  C   UNL     1       0.974   4.474  -0.602  1.00  0.00     0.004 A 
ATOM      9  C   UNL     1      -0.677   4.916  -2.772  1.00  0.00     0.014 A 
ATOM     10  C   UNL     1       0.832   3.487  -1.585  1.00  0.00     0.014 A 
BRANCH   6  11
ATOM     11  C   UNL     1       0.387   6.710   0.434  1.00  0.00     0.036 C 
BRANCH  11  12
ATOM     12  C   UNL     1      -0.392   6.396   1.727  1.00  0.00     0.008 C 
BRANCH  12  13
ATOM     13  C   UNL     1       0.044   5.130   2.489  1.00  0.00    -0.008 C 
ATOM     14  N   UNL     1       1.005   3.471   4.680  1.00  0.00    -0.198 NA
ATOM     15  C   UNL     1       1.901   3.833   3.558  1.00  0.00     0.103 C 
ATOM     16  C   UNL     1      -0.454   3.569   4.410  1.00  0.00     0.103 C 
ATOM     17  C   UNL     1       1.504   5.175   2.955  1.00  0.00     0.020 C 
ATOM     18  C   UNL     1      -0.825   4.888   3.731  1.00  0.00     0.020 C 
BRANCH  14  19
ATOM     19  S   UNL     1       1.496   2.088   5.569  1.00  0.00     0.246 S 
ATOM     20  O   UNL     1       0.573   1.892   6.663  1.00  0.00    -0.207 OA
ATOM     21  O   UNL     1       2.928   2.156   5.772  1.00  0.00    -0.207 OA
BRANCH  19  22
ATOM     22  C   UNL     1       1.294   0.676   4.620  1.00  0.00     0.120 A 
ATOM     23  N   UNL     1       0.748  -0.784   3.090  1.00  0.00    -0.272 N 
ATOM     24  C   UNL     1       0.733   0.550   3.371  1.00  0.00     0.130 A 
ATOM     25  N   UNL     1       1.325  -1.524   4.053  1.00  0.00    -0.180 NA
ATOM     26  C   UNL     1       1.658  -0.626   4.989  1.00  0.00     0.156 A 
BRANCH  23  27
ATOM     27  C   UNL     1       0.164  -1.433   1.933  1.00  0.00     0.141 C 
ATOM     28  C   UNL     1       0.250  -0.596   0.674  1.00  0.00     0.029 C 
ENDBRANCH  23  27
ENDBRANCH  19  22
ENDBRANCH  14  19
ENDBRANCH  12  13
ENDBRANCH  11  12
ENDBRANCH   6  11
ENDBRANCH   1   5
BRANCH   3  29
ATOM     29  C   UNL     1       1.794   1.069  -3.449  1.00  0.00     0.116 C 
BRANCH  29  30
ATOM     30  C   UNL     1       1.405   0.082  -2.346  1.00  0.00     0.023 C 
BRANCH  30  31
ATOM     31  C   UNL     1       1.030  -1.328  -2.828  1.00  0.00     0.023 C 
BRANCH  31  32
ATOM     32  C   UNL     1       2.212  -2.265  -3.054  1.00  0.00     0.116 C 
BRANCH  32  33
ATOM     33  N   UNL     1       2.968  -2.563  -1.833  1.00  0.00    -0.352 N 
ATOM     34  C   UNL     1       4.303  -2.918  -1.735  1.00  0.00     0.251 C 
ATOM     35  H   UNL     1       2.470  -2.503  -0.986  1.00  0.00     0.163 HD
ATOM     36  O   UNL     1       4.752  -3.490  -0.753  1.00  0.00    -0.269 OA
BRANCH  34  37
ATOM     37  C   UNL     1       5.173  -2.571  -2.866  1.00  0.00     0.039 A 
ATOM     38  C   UNL     1       5.906  -3.549  -3.542  1.00  0.00     0.014 A 
ATOM     39  C   UNL     1       5.079  -1.268  -3.344  1.00  0.00     0.014 A 
ATOM     40  C   UNL     1       6.447  -3.234  -4.786  1.00  0.00     0.010 A 
ATOM     41  C   UNL     1       5.495  -1.006  -4.627  1.00  0.00     0.010 A 
ATOM     42  C   UNL     1       6.200  -1.972  -5.350  1.00  0.00    -0.014 A 
BRANCH  42  43
ATOM     43  C   UNL     1       6.559  -1.698  -6.742  1.00  0.00     0.031 A 
ATOM     44  C   UNL     1       6.087  -2.682  -7.766  1.00  0.00     0.074 A 
ATOM     45  C   UNL     1       7.059  -0.512  -7.153  1.00  0.00     0.049 A 
ATOM     46  N   UNL     1       6.805  -3.401  -8.566  1.00  0.00    -0.248 NA
ATOM     47  C   UNL     1       4.641  -2.934  -7.881  1.00  0.00     0.031 C 
ATOM     48  C   UNL     1       7.278   0.710  -6.370  1.00  0.00     0.029 A 
ATOM     49  N   UNL     1       7.344  -0.109  -8.421  1.00  0.00    -0.354 N 
ATOM     50  C   UNL     1       5.915  -4.077  -9.401  1.00  0.00     0.074 A 
ATOM     51  C   UNL     1       4.601  -3.849  -8.852  1.00  0.00     0.031 C 
ATOM     52  C   UNL     1       7.391   1.765  -7.204  1.00  0.00     0.029 A 
ATOM     53  C   UNL     1       7.458   1.266  -8.563  1.00  0.00     0.049 A 
ATOM     54  H   UNL     1       7.459  -0.737  -9.170  1.00  0.00     0.167 HD
ATOM     55  C   UNL     1       6.304  -4.609 -10.596  1.00  0.00     0.031 A 
ATOM     56  C   UNL     1       7.578   1.957  -9.720  1.00  0.00     0.031 A 
ATOM     57  C   UNL     1       7.737  -4.688 -10.708  1.00  0.00     0.049 A 
ATOM     58  C   UNL     1       8.055   1.012 -10.754  1.00  0.00     0.074 A 
ATOM     59  C   UNL     1       8.742  -5.299  -9.985  1.00  0.00     0.029 A 
ATOM     60  N   UNL     1       8.366  -3.747 -11.488  1.00  0.00    -0.354 N 
ATOM     61  N   UNL     1       9.235   0.460 -10.731  1.00  0.00    -0.248 NA
ATOM     62  C   UNL     1       7.069   0.344 -11.586  1.00  0.00     0.031 C 
ATOM     63  C   UNL     1       9.808  -4.349  -9.975  1.00  0.00     0.029 A 
ATOM     64  C   UNL     1       9.408  -3.256 -10.747  1.00  0.00     0.049 A 
ATOM     65  H   UNL     1       8.115  -3.477 -12.401  1.00  0.00     0.167 HD
ATOM     66  C   UNL     1       9.025  -0.838 -11.172  1.00  0.00     0.074 A 
ATOM     67  C   UNL     1       7.701  -0.815 -11.792  1.00  0.00     0.031 C 
ATOM     68  C   UNL     1       9.816  -1.869 -10.747  1.00  0.00     0.031 A 
BRANCH  55  69
ATOM     69  C   UNL     1       5.419  -4.709 -11.817  1.00  0.00    -0.014 A 
ATOM     70  C   UNL     1       5.933  -5.316 -12.981  1.00  0.00     0.009 A 
ATOM     71  C   UNL     1       4.222  -3.985 -11.963  1.00  0.00     0.009 A 
ATOM     72  C   UNL     1       5.328  -5.133 -14.232  1.00  0.00     0.001 A 
ATOM     73  C   UNL     1       3.591  -3.838 -13.203  1.00  0.00     0.001 A 
ATOM     74  C   UNL     1       4.161  -4.385 -14.343  1.00  0.00     0.000 A 
ENDBRANCH  55  69
BRANCH  56  75
ATOM     75  C   UNL     1       7.085   3.312 -10.030  1.00  0.00    -0.014 A 
ATOM     76  C   UNL     1       7.597   4.032 -11.118  1.00  0.00     0.009 A 
ATOM     77  C   UNL     1       5.921   3.801  -9.405  1.00  0.00     0.009 A 
ATOM     78  C   UNL     1       6.944   5.178 -11.589  1.00  0.00     0.001 A 
ATOM     79  C   UNL     1       5.273   4.948  -9.872  1.00  0.00     0.001 A 
ATOM     80  C   UNL     1       5.776   5.627 -10.975  1.00  0.00     0.000 A 
ENDBRANCH  56  75
BRANCH  68  81
ATOM     81  C   UNL     1      11.064  -1.541  -9.962  1.00  0.00    -0.014 A 
ATOM     82  C   UNL     1      11.040  -0.844  -8.741  1.00  0.00     0.009 A 
ATOM     83  C   UNL     1      12.281  -2.098 -10.381  1.00  0.00     0.009 A 
ATOM     84  C   UNL     1      12.203  -0.685  -7.980  1.00  0.00     0.001 A 
ATOM     85  C   UNL     1      13.438  -1.958  -9.612  1.00  0.00     0.001 A 
ATOM     86  C   UNL     1      13.401  -1.247  -8.415  1.00  0.00     0.000 A 
ENDBRANCH  68  81
ENDBRANCH  42  43
ENDBRANCH  34  37
ENDBRANCH  32  33
ENDBRANCH  31  32
ENDBRANCH  30  31
ENDBRANCH  29  30
ENDBRANCH   3  29
TORSDOF 17
