REMARK SMILES C=CCN(CC(=O)NCCCCNC(=O)c1ccc(-c2c3nc(c(-c4ccccc4)c4ccc([nH]4)c(-c4ccccc4)c4nc(c(-c5ccccc5)c5ccc2[nH]5)C=C4)C=C3)cc1)C(=O)CSc1cccs1
REMARK SMILES IDX 9 1 8 2 6 3 7 4 5 6 4 7 3 8 2 9 1 10 64 11 65 12 66 13 67 14
REMARK SMILES IDX 68 15 69 16 72 17 70 18 71 19 10 20 11 21 12 22 13 23 14 24
REMARK SMILES IDX 15 26 16 27 17 28 63 29 18 30 62 31 19 32 20 33 21 34 56 35
REMARK SMILES IDX 22 36 61 37 55 38 57 39 23 40 60 41 54 42 53 43 24 45 46 46
REMARK SMILES IDX 31 47 45 48 32 49 35 50 44 51 58 52 33 53 34 54 43 56 59 57
REMARK SMILES IDX 36 58 25 59 26 60 30 61 27 62 29 63 28 64 47 65 48 66 52 67
REMARK SMILES IDX 49 68 51 69 50 70 37 71 38 72 42 73 39 74 41 75 40 76
REMARK H PARENT 8 5 13 25 57 44 35 55
REMARK Flexibility Score: inf
ROOT
ATOM      1  C   UNL     1      -4.478   0.902   0.144  1.00  0.00     0.116 C 
ENDROOT
BRANCH   1   2
ATOM      2  N   UNL     1      -4.765   1.647   1.349  1.00  0.00    -0.355 N 
ATOM      3  C   UNL     1      -3.967   2.503   2.048  1.00  0.00     0.239 C 
ATOM      4  O   UNL     1      -4.484   3.132   2.975  1.00  0.00    -0.273 OA
ATOM      5  H   UNL     1      -5.668   1.518   1.718  1.00  0.00     0.163 HD
BRANCH   3   6
ATOM      6  C   UNL     1      -2.501   2.740   1.653  1.00  0.00     0.219 C 
BRANCH   6   7
ATOM      7  N   UNL     1      -1.655   1.538   1.661  1.00  0.00    -0.329 N 
BRANCH   7   8
ATOM      8  C   UNL     1      -1.090   1.096   0.388  1.00  0.00     0.147 C 
BRANCH   8   9
ATOM      9  C   UNL     1       0.402   1.231   0.381  1.00  0.00    -0.014 C 
ATOM     10  C   UNL     1       1.224   0.209   0.100  1.00  0.00     0.006 C 
ENDBRANCH   8   9
ENDBRANCH   7   8
BRANCH   7  11
ATOM     11  C   UNL     1      -1.373   0.780   2.797  1.00  0.00     0.233 C 
ATOM     12  O   UNL     1      -0.824  -0.325   2.689  1.00  0.00    -0.274 OA
BRANCH  11  13
ATOM     13  C   UNL     1      -1.848   1.212   4.179  1.00  0.00     0.175 C 
BRANCH  13  14
ATOM     14  S   UNL     1      -1.213   2.787   4.787  1.00  0.00    -0.105 SA
BRANCH  14  15
ATOM     15  C   UNL     1       0.531   2.697   4.638  1.00  0.00     0.060 A 
ATOM     16  C   UNL     1       1.333   3.809   4.468  1.00  0.00     0.027 A 
ATOM     17  S   UNL     1       1.465   1.274   4.768  1.00  0.00    -0.137 S 
ATOM     18  C   UNL     1       2.718   3.482   4.407  1.00  0.00     0.013 A 
ATOM     19  C   UNL     1       2.928   2.129   4.542  1.00  0.00     0.066 A 
ENDBRANCH  14  15
ENDBRANCH  13  14
ENDBRANCH  11  13
ENDBRANCH   7  11
ENDBRANCH   6   7
ENDBRANCH   3   6
ENDBRANCH   1   2
BRANCH   1  20
ATOM     20  C   UNL     1      -4.210  -0.575   0.424  1.00  0.00     0.023 C 
BRANCH  20  21
ATOM     21  C   UNL     1      -5.426  -1.374   0.895  1.00  0.00     0.023 C 
BRANCH  21  22
ATOM     22  C   UNL     1      -6.645  -1.311  -0.018  1.00  0.00     0.116 C 
BRANCH  22  23
ATOM     23  N   UNL     1      -6.375  -1.753  -1.377  1.00  0.00    -0.352 N 
ATOM     24  C   UNL     1      -7.181  -2.479  -2.219  1.00  0.00     0.251 C 
ATOM     25  H   UNL     1      -5.497  -1.497  -1.742  1.00  0.00     0.163 HD
ATOM     26  O   UNL     1      -6.758  -2.857  -3.308  1.00  0.00    -0.269 OA
BRANCH  24  27
ATOM     27  C   UNL     1      -8.549  -2.841  -1.791  1.00  0.00     0.039 A 
ATOM     28  C   UNL     1      -8.970  -4.165  -1.933  1.00  0.00     0.014 A 
ATOM     29  C   UNL     1      -9.400  -1.887  -1.228  1.00  0.00     0.014 A 
ATOM     30  C   UNL     1     -10.220  -4.548  -1.445  1.00  0.00     0.010 A 
ATOM     31  C   UNL     1     -10.617  -2.285  -0.680  1.00  0.00     0.010 A 
ATOM     32  C   UNL     1     -11.038  -3.619  -0.780  1.00  0.00    -0.014 A 
BRANCH  32  33
ATOM     33  C   UNL     1     -12.337  -4.024  -0.185  1.00  0.00     0.031 A 
ATOM     34  C   UNL     1     -13.622  -3.449  -0.716  1.00  0.00     0.074 A 
ATOM     35  C   UNL     1     -12.358  -4.867   0.866  1.00  0.00     0.049 A 
ATOM     36  N   UNL     1     -14.845  -3.627  -0.285  1.00  0.00    -0.248 NA
ATOM     37  C   UNL     1     -13.517  -2.538  -1.868  1.00  0.00     0.031 C 
ATOM     38  C   UNL     1     -11.183  -5.476   1.494  1.00  0.00     0.029 A 
ATOM     39  N   UNL     1     -13.413  -5.357   1.596  1.00  0.00    -0.354 N 
ATOM     40  C   UNL     1     -15.651  -2.849  -1.108  1.00  0.00     0.074 A 
ATOM     41  C   UNL     1     -14.775  -2.155  -2.026  1.00  0.00     0.031 C 
ATOM     42  C   UNL     1     -11.584  -6.277   2.494  1.00  0.00     0.029 A 
ATOM     43  C   UNL     1     -13.036  -6.208   2.607  1.00  0.00     0.049 A 
ATOM     44  H   UNL     1     -14.351  -5.120   1.412  1.00  0.00     0.167 HD
ATOM     45  C   UNL     1     -17.000  -2.740  -1.116  1.00  0.00     0.031 A 
ATOM     46  C   UNL     1     -13.778  -6.855   3.526  1.00  0.00     0.031 A 
ATOM     47  C   UNL     1     -17.876  -3.433  -0.210  1.00  0.00     0.049 A 
ATOM     48  C   UNL     1     -15.273  -6.684   3.516  1.00  0.00     0.074 A 
ATOM     49  C   UNL     1     -19.259  -3.404  -0.157  1.00  0.00     0.029 A 
ATOM     50  N   UNL     1     -17.454  -4.284   0.798  1.00  0.00    -0.354 N 
ATOM     51  N   UNL     1     -16.021  -5.981   2.701  1.00  0.00    -0.248 NA
ATOM     52  C   UNL     1     -16.027  -7.407   4.551  1.00  0.00     0.031 C 
ATOM     53  C   UNL     1     -19.672  -4.209   0.910  1.00  0.00     0.029 A 
ATOM     54  C   UNL     1     -18.549  -4.778   1.486  1.00  0.00     0.049 A 
ATOM     55  H   UNL     1     -16.515  -4.504   0.996  1.00  0.00     0.167 HD
ATOM     56  C   UNL     1     -17.332  -6.207   3.101  1.00  0.00     0.074 A 
ATOM     57  C   UNL     1     -17.278  -7.123   4.221  1.00  0.00     0.031 C 
ATOM     58  C   UNL     1     -18.479  -5.702   2.587  1.00  0.00     0.031 A 
BRANCH  45  59
ATOM     59  C   UNL     1     -17.616  -1.842  -2.152  1.00  0.00    -0.014 A 
ATOM     60  C   UNL     1     -17.628  -2.208  -3.507  1.00  0.00     0.009 A 
ATOM     61  C   UNL     1     -18.236  -0.644  -1.766  1.00  0.00     0.009 A 
ATOM     62  C   UNL     1     -18.224  -1.379  -4.459  1.00  0.00     0.001 A 
ATOM     63  C   UNL     1     -18.855   0.170  -2.717  1.00  0.00     0.001 A 
ATOM     64  C   UNL     1     -18.842  -0.194  -4.062  1.00  0.00     0.000 A 
ENDBRANCH  45  59
BRANCH  46  65
ATOM     65  C   UNL     1     -13.134  -7.736   4.535  1.00  0.00    -0.014 A 
ATOM     66  C   UNL     1     -13.333  -9.125   4.497  1.00  0.00     0.009 A 
ATOM     67  C   UNL     1     -12.356  -7.192   5.569  1.00  0.00     0.009 A 
ATOM     68  C   UNL     1     -12.803  -9.946   5.495  1.00  0.00     0.001 A 
ATOM     69  C   UNL     1     -11.800  -8.019   6.548  1.00  0.00     0.001 A 
ATOM     70  C   UNL     1     -12.036  -9.392   6.519  1.00  0.00     0.000 A 
ENDBRANCH  46  65
BRANCH  58  71
ATOM     71  C   UNL     1     -19.770  -6.171   3.195  1.00  0.00    -0.014 A 
ATOM     72  C   UNL     1     -20.175  -5.749   4.470  1.00  0.00     0.009 A 
ATOM     73  C   UNL     1     -20.609  -7.024   2.461  1.00  0.00     0.009 A 
ATOM     74  C   UNL     1     -21.380  -6.201   5.012  1.00  0.00     0.001 A 
ATOM     75  C   UNL     1     -21.826  -7.451   2.993  1.00  0.00     0.001 A 
ATOM     76  C   UNL     1     -22.205  -7.047   4.272  1.00  0.00     0.000 A 
ENDBRANCH  58  71
ENDBRANCH  32  33
ENDBRANCH  24  27
ENDBRANCH  22  23
ENDBRANCH  21  22
ENDBRANCH  20  21
ENDBRANCH   1  20
TORSDOF 18
