REMARK SMILES C[C@@H](C(=O)NCCCCNC(=O)c1ccc(-c2c3nc(c(-c4ccccc4)c4ccc([nH]4)c(-c4ccccc4)c4nc(c(-c5ccccc5)c5ccc2[nH]5)C=C4)C=C3)cc1)c1ccc(N[C@H]2CCC[C@@H]2O)cc1F
REMARK SMILES IDX 6 1 5 2 3 3 4 4 2 6 1 7 61 8 62 9 73 10 63 11 72 12 74 13
REMARK SMILES IDX 64 14 65 15 66 17 67 18 70 19 68 20 69 21 71 22 7 24 8 25
REMARK SMILES IDX 9 26 10 27 11 28 12 30 13 31 14 32 60 33 15 34 59 35 16 36
REMARK SMILES IDX 17 37 18 38 53 39 19 40 58 41 52 42 54 43 20 44 57 45 51 46
REMARK SMILES IDX 50 47 21 49 43 50 28 51 42 52 29 53 32 54 41 55 55 56 30 57
REMARK SMILES IDX 31 58 40 60 56 61 33 62 22 63 23 64 27 65 24 66 26 67 25 68
REMARK SMILES IDX 44 69 45 70 49 71 46 72 48 73 47 74 34 75 35 76 39 77 36 78
REMARK SMILES IDX 38 79 37 80
REMARK H PARENT 5 5 65 16 71 23 10 29 54 48 32 59
REMARK Flexibility Score: inf
ROOT
ATOM      1  C   UNL     1       3.578  -1.998   0.018  1.00  0.00     0.116 C 
ENDROOT
BRANCH   1   2
ATOM      2  N   UNL     1       2.491  -2.528   0.813  1.00  0.00    -0.356 N 
ATOM      3  C   UNL     1       1.191  -2.113   0.885  1.00  0.00     0.227 C 
ATOM      4  O   UNL     1       0.533  -2.524   1.843  1.00  0.00    -0.274 OA
ATOM      5  H   UNL     1       2.722  -3.297   1.383  1.00  0.00     0.163 HD
BRANCH   3   6
ATOM      6  C   UNL     1       0.613  -1.199  -0.213  1.00  0.00     0.108 C 
ATOM      7  C   UNL     1       1.193   0.221  -0.112  1.00  0.00     0.023 C 
BRANCH   6   8
ATOM      8  C   UNL     1      -0.913  -1.197  -0.199  1.00  0.00     0.000 A 
ATOM      9  C   UNL     1      -1.658  -0.035   0.004  1.00  0.00     0.009 A 
ATOM     10  C   UNL     1      -1.629  -2.383  -0.389  1.00  0.00     0.129 A 
ATOM     11  C   UNL     1      -3.051  -0.066   0.014  1.00  0.00     0.026 A 
ATOM     12  C   UNL     1      -3.029  -2.412  -0.356  1.00  0.00     0.065 A 
ATOM     13  F   UNL     1      -0.970  -3.530  -0.615  1.00  0.00    -0.207 F 
ATOM     14  C   UNL     1      -3.773  -1.243  -0.166  1.00  0.00     0.037 A 
BRANCH  14  15
ATOM     15  N   UNL     1      -5.152  -1.300  -0.143  1.00  0.00    -0.380 N 
ATOM     16  H   UNL     1      -5.545  -2.202  -0.179  1.00  0.00     0.160 HD
BRANCH  15  17
ATOM     17  C   UNL     1      -6.103  -0.191  -0.073  1.00  0.00     0.107 C 
ATOM     18  C   UNL     1      -6.008   0.636   1.219  1.00  0.00     0.027 C 
ATOM     19  C   UNL     1      -6.003   0.814  -1.242  1.00  0.00     0.136 C 
ATOM     20  C   UNL     1      -5.955   2.102   0.785  1.00  0.00     0.005 C 
ATOM     21  C   UNL     1      -6.500   2.121  -0.634  1.00  0.00     0.034 C 
BRANCH  19  22
ATOM     22  O   UNL     1      -6.797   0.446  -2.366  1.00  0.00    -0.391 OA
ATOM     23  H   UNL     1      -7.726   0.375  -2.096  1.00  0.00     0.211 HD
ENDBRANCH  19  22
ENDBRANCH  15  17
ENDBRANCH  14  15
ENDBRANCH   6   8
ENDBRANCH   3   6
ENDBRANCH   1   2
BRANCH   1  24
ATOM     24  C   UNL     1       4.358  -0.952   0.822  1.00  0.00     0.023 C 
BRANCH  24  25
ATOM     25  C   UNL     1       5.165  -1.524   1.990  1.00  0.00     0.023 C 
BRANCH  25  26
ATOM     26  C   UNL     1       6.186  -2.583   1.602  1.00  0.00     0.116 C 
BRANCH  26  27
ATOM     27  N   UNL     1       7.120  -2.120   0.589  1.00  0.00    -0.352 N 
ATOM     28  C   UNL     1       8.459  -2.377   0.463  1.00  0.00     0.251 C 
ATOM     29  H   UNL     1       6.734  -1.538  -0.106  1.00  0.00     0.163 HD
ATOM     30  O   UNL     1       9.118  -1.784  -0.390  1.00  0.00    -0.269 OA
BRANCH  28  31
ATOM     31  C   UNL     1       9.119  -3.335   1.373  1.00  0.00     0.039 A 
ATOM     32  C   UNL     1      10.367  -2.996   1.900  1.00  0.00     0.014 A 
ATOM     33  C   UNL     1       8.523  -4.555   1.705  1.00  0.00     0.014 A 
ATOM     34  C   UNL     1      10.992  -3.858   2.799  1.00  0.00     0.010 A 
ATOM     35  C   UNL     1       9.112  -5.378   2.662  1.00  0.00     0.010 A 
ATOM     36  C   UNL     1      10.356  -5.041   3.212  1.00  0.00    -0.014 A 
BRANCH  36  37
ATOM     37  C   UNL     1      10.992  -5.916   4.226  1.00  0.00     0.031 A 
ATOM     38  C   UNL     1      11.447  -7.303   3.866  1.00  0.00     0.074 A 
ATOM     39  C   UNL     1      11.146  -5.459   5.483  1.00  0.00     0.049 A 
ATOM     40  N   UNL     1      12.074  -8.181   4.608  1.00  0.00    -0.248 NA
ATOM     41  C   UNL     1      11.144  -7.775   2.506  1.00  0.00     0.031 C 
ATOM     42  C   UNL     1      10.688  -4.156   5.973  1.00  0.00     0.029 A 
ATOM     43  N   UNL     1      11.741  -6.035   6.576  1.00  0.00    -0.354 N 
ATOM     44  C   UNL     1      12.242  -9.302   3.807  1.00  0.00     0.074 A 
ATOM     45  C   UNL     1      11.596  -9.020   2.543  1.00  0.00     0.031 C 
ATOM     46  C   UNL     1      11.056  -4.016   7.257  1.00  0.00     0.029 A 
ATOM     47  C   UNL     1      11.748  -5.226   7.687  1.00  0.00     0.049 A 
ATOM     48  H   UNL     1      12.126  -6.941   6.566  1.00  0.00     0.167 HD
ATOM     49  C   UNL     1      12.898 -10.454   4.085  1.00  0.00     0.031 A 
ATOM     50  C   UNL     1      12.265  -5.431   8.912  1.00  0.00     0.031 A 
ATOM     51  C   UNL     1      13.536 -10.738   5.342  1.00  0.00     0.049 A 
ATOM     52  C   UNL     1      12.996  -6.714   9.192  1.00  0.00     0.074 A 
ATOM     53  C   UNL     1      14.257 -11.861   5.710  1.00  0.00     0.029 A 
ATOM     54  N   UNL     1      13.528  -9.891   6.439  1.00  0.00    -0.354 N 
ATOM     55  N   UNL     1      13.212  -7.733   8.396  1.00  0.00    -0.248 NA
ATOM     56  C   UNL     1      13.573  -6.862  10.535  1.00  0.00     0.031 C 
ATOM     57  C   UNL     1      14.648 -11.712   7.046  1.00  0.00     0.029 A 
ATOM     58  C   UNL     1      14.218 -10.473   7.491  1.00  0.00     0.049 A 
ATOM     59  H   UNL     1      13.096  -9.007   6.467  1.00  0.00     0.167 HD
ATOM     60  C   UNL     1      13.965  -8.636   9.135  1.00  0.00     0.074 A 
ATOM     61  C   UNL     1      14.194  -8.028  10.431  1.00  0.00     0.031 C 
ATOM     62  C   UNL     1      14.422  -9.860   8.777  1.00  0.00     0.031 A 
BRANCH  49  63
ATOM     63  C   UNL     1      12.963 -11.490   2.997  1.00  0.00    -0.014 A 
ATOM     64  C   UNL     1      13.745 -11.284   1.849  1.00  0.00     0.009 A 
ATOM     65  C   UNL     1      12.267 -12.700   3.135  1.00  0.00     0.009 A 
ATOM     66  C   UNL     1      13.802 -12.254   0.846  1.00  0.00     0.001 A 
ATOM     67  C   UNL     1      12.348 -13.681   2.143  1.00  0.00     0.001 A 
ATOM     68  C   UNL     1      13.108 -13.453   0.997  1.00  0.00     0.000 A 
ENDBRANCH  49  63
BRANCH  50  69
ATOM     69  C   UNL     1      12.130  -4.388   9.961  1.00  0.00    -0.014 A 
ATOM     70  C   UNL     1      13.249  -3.661  10.396  1.00  0.00     0.009 A 
ATOM     71  C   UNL     1      10.880  -4.121  10.541  1.00  0.00     0.009 A 
ATOM     72  C   UNL     1      13.124  -2.712  11.414  1.00  0.00     0.001 A 
ATOM     73  C   UNL     1      10.753  -3.150  11.536  1.00  0.00     0.001 A 
ATOM     74  C   UNL     1      11.876  -2.454  11.979  1.00  0.00     0.000 A 
ENDBRANCH  50  69
BRANCH  62  75
ATOM     75  C   UNL     1      15.229 -10.609   9.801  1.00  0.00    -0.014 A 
ATOM     76  C   UNL     1      14.628 -11.142  10.953  1.00  0.00     0.009 A 
ATOM     77  C   UNL     1      16.607 -10.787   9.608  1.00  0.00     0.009 A 
ATOM     78  C   UNL     1      15.401 -11.797  11.913  1.00  0.00     0.001 A 
ATOM     79  C   UNL     1      17.372 -11.471  10.554  1.00  0.00     0.001 A 
ATOM     80  C   UNL     1      16.771 -11.963  11.712  1.00  0.00     0.000 A 
ENDBRANCH  62  75
ENDBRANCH  36  37
ENDBRANCH  28  31
ENDBRANCH  26  27
ENDBRANCH  25  26
ENDBRANCH  24  25
ENDBRANCH   1  24
TORSDOF 15
