REMARK SMILES O=C(NCCCCNC(=O)C1CN(C(=O)c2c(F)cc(Br)cc2F)C1)c1ccc(-c2c3nc(c(-c4ccccc4)c4ccc([nH]4)c(-c4ccccc4)c4nc(c(-c5ccccc5)c5ccc2[nH]5)C=C4)C=C3)cc1
REMARK SMILES IDX 5 1 4 2 3 3 1 4 2 5 26 7 27 8 73 9 28 10 72 11 29 12 30 13
REMARK SMILES IDX 31 14 66 15 32 16 71 17 65 18 67 19 33 20 70 21 64 22 63 23
REMARK SMILES IDX 34 25 56 26 41 27 55 28 42 29 45 30 54 31 68 32 43 33 44 34
REMARK SMILES IDX 53 36 69 37 46 38 35 39 36 40 40 41 37 42 39 43 38 44 57 45
REMARK SMILES IDX 58 46 62 47 59 48 61 49 60 50 47 51 48 52 52 53 49 54 51 55
REMARK SMILES IDX 50 56 6 57 7 58 8 59 9 60 10 62 11 63 12 64 25 65 13 66
REMARK SMILES IDX 14 67 15 68 16 69 17 70 23 71 18 72 19 73 22 74 24 75 20 76
REMARK SMILES IDX 21 77
REMARK H PARENT 3 6 67 24 45 35 8 61
REMARK Flexibility Score: inf
ROOT
ATOM      1  C   UNL     1       4.750  -1.450  -2.417  1.00  0.00     0.023 C 
ENDROOT
BRANCH   1   2
ATOM      2  C   UNL     1       4.451  -0.441  -1.316  1.00  0.00     0.116 C 
BRANCH   2   3
ATOM      3  N   UNL     1       3.033  -0.152  -1.171  1.00  0.00    -0.352 N 
ATOM      4  O   UNL     1       1.082   0.128  -0.067  1.00  0.00    -0.269 OA
ATOM      5  C   UNL     1       2.299  -0.011  -0.018  1.00  0.00     0.251 C 
ATOM      6  H   UNL     1       2.531  -0.043  -2.011  1.00  0.00     0.163 HD
BRANCH   5   7
ATOM      7  C   UNL     1       2.986  -0.060   1.290  1.00  0.00     0.039 A 
ATOM      8  C   UNL     1       4.143   0.690   1.513  1.00  0.00     0.014 A 
ATOM      9  C   UNL     1       2.468  -0.879   2.297  1.00  0.00     0.014 A 
ATOM     10  C   UNL     1       4.854   0.522   2.696  1.00  0.00     0.010 A 
ATOM     11  C   UNL     1       3.145  -0.990   3.514  1.00  0.00     0.010 A 
ATOM     12  C   UNL     1       4.357  -0.312   3.711  1.00  0.00    -0.014 A 
BRANCH  12  13
ATOM     13  C   UNL     1       5.096  -0.411   4.994  1.00  0.00     0.031 A 
ATOM     14  C   UNL     1       5.754  -1.693   5.417  1.00  0.00     0.074 A 
ATOM     15  C   UNL     1       5.192   0.688   5.765  1.00  0.00     0.049 A 
ATOM     16  N   UNL     1       6.461  -1.936   6.493  1.00  0.00    -0.248 NA
ATOM     17  C   UNL     1       5.601  -2.853   4.525  1.00  0.00     0.031 C 
ATOM     18  C   UNL     1       4.592   1.989   5.458  1.00  0.00     0.029 A 
ATOM     19  N   UNL     1       5.847   0.895   6.951  1.00  0.00    -0.354 N 
ATOM     20  C   UNL     1       6.821  -3.276   6.417  1.00  0.00     0.074 A 
ATOM     21  C   UNL     1       6.238  -3.800   5.200  1.00  0.00     0.031 C 
ATOM     22  C   UNL     1       4.947   2.870   6.404  1.00  0.00     0.029 A 
ATOM     23  C   UNL     1       5.747   2.184   7.412  1.00  0.00     0.049 A 
ATOM     24  H   UNL     1       6.340   0.188   7.426  1.00  0.00     0.167 HD
ATOM     25  C   UNL     1       7.572  -3.999   7.282  1.00  0.00     0.031 A 
ATOM     26  C   UNL     1       6.234   2.753   8.529  1.00  0.00     0.031 A 
ATOM     27  C   UNL     1       8.149  -3.476   8.493  1.00  0.00     0.049 A 
ATOM     28  C   UNL     1       7.034   1.919   9.483  1.00  0.00     0.074 A 
ATOM     29  C   UNL     1       8.945  -4.126   9.421  1.00  0.00     0.029 A 
ATOM     30  N   UNL     1       7.990  -2.175   8.946  1.00  0.00    -0.354 N 
ATOM     31  N   UNL     1       7.386   0.660   9.383  1.00  0.00    -0.248 NA
ATOM     32  C   UNL     1       7.503   2.584  10.706  1.00  0.00     0.031 C 
ATOM     33  C   UNL     1       9.230  -3.231  10.458  1.00  0.00     0.029 A 
ATOM     34  C   UNL     1       8.652  -2.010  10.151  1.00  0.00     0.049 A 
ATOM     35  H   UNL     1       7.481  -1.474   8.480  1.00  0.00     0.167 HD
ATOM     36  C   UNL     1       8.127   0.385  10.523  1.00  0.00     0.074 A 
ATOM     37  C   UNL     1       8.193   1.613  11.288  1.00  0.00     0.031 C 
ATOM     38  C   UNL     1       8.698  -0.783  10.903  1.00  0.00     0.031 A 
BRANCH  25  39
ATOM     39  C   UNL     1       7.793  -5.452   6.962  1.00  0.00    -0.014 A 
ATOM     40  C   UNL     1       8.668  -5.847   5.938  1.00  0.00     0.009 A 
ATOM     41  C   UNL     1       7.157  -6.439   7.731  1.00  0.00     0.009 A 
ATOM     42  C   UNL     1       8.878  -7.202   5.671  1.00  0.00     0.001 A 
ATOM     43  C   UNL     1       7.387  -7.793   7.477  1.00  0.00     0.001 A 
ATOM     44  C   UNL     1       8.241  -8.173   6.444  1.00  0.00     0.000 A 
ENDBRANCH  25  39
BRANCH  26  45
ATOM     45  C   UNL     1       5.962   4.186   8.804  1.00  0.00    -0.014 A 
ATOM     46  C   UNL     1       6.988   5.137   8.715  1.00  0.00     0.009 A 
ATOM     47  C   UNL     1       4.665   4.611   9.137  1.00  0.00     0.009 A 
ATOM     48  C   UNL     1       6.724   6.485   8.970  1.00  0.00     0.001 A 
ATOM     49  C   UNL     1       4.399   5.962   9.363  1.00  0.00     0.001 A 
ATOM     50  C   UNL     1       5.430   6.896   9.287  1.00  0.00     0.000 A 
ENDBRANCH  26  45
BRANCH  38  51
ATOM     51  C   UNL     1       9.460  -0.774  12.196  1.00  0.00    -0.014 A 
ATOM     52  C   UNL     1       8.791  -0.740  13.430  1.00  0.00     0.009 A 
ATOM     53  C   UNL     1      10.862  -0.817  12.180  1.00  0.00     0.009 A 
ATOM     54  C   UNL     1       9.516  -0.715  14.623  1.00  0.00     0.001 A 
ATOM     55  C   UNL     1      11.583  -0.818  13.374  1.00  0.00     0.001 A 
ATOM     56  C   UNL     1      10.910  -0.757  14.594  1.00  0.00     0.000 A 
ENDBRANCH  38  51
ENDBRANCH  12  13
ENDBRANCH   5   7
ENDBRANCH   2   3
ENDBRANCH   1   2
BRANCH   1  57
ATOM     57  C   UNL     1       4.269  -1.055  -3.815  1.00  0.00     0.023 C 
BRANCH  57  58
ATOM     58  C   UNL     1       4.768   0.303  -4.305  1.00  0.00     0.116 C 
BRANCH  58  59
ATOM     59  N   UNL     1       6.209   0.319  -4.463  1.00  0.00    -0.356 N 
ATOM     60  C   UNL     1       6.993   0.337  -5.590  1.00  0.00     0.226 C 
ATOM     61  H   UNL     1       6.712   0.318  -3.617  1.00  0.00     0.163 HD
ATOM     62  O   UNL     1       8.216   0.302  -5.387  1.00  0.00    -0.275 OA
BRANCH  60  63
ATOM     63  C   UNL     1       6.413   0.424  -7.002  1.00  0.00     0.117 C 
ATOM     64  C   UNL     1       5.320  -0.528  -7.494  1.00  0.00     0.135 C 
ATOM     65  C   UNL     1       5.515   1.609  -7.382  1.00  0.00     0.135 C 
ATOM     66  N   UNL     1       4.623   0.645  -7.988  1.00  0.00    -0.337 N 
ATOM     67  C   UNL     1       3.442   0.717  -8.673  1.00  0.00     0.259 C 
ATOM     68  O   UNL     1       2.780  -0.271  -8.975  1.00  0.00    -0.269 OA
BRANCH  67  69
ATOM     69  C   UNL     1       2.949   2.048  -9.044  1.00  0.00     0.111 A 
ATOM     70  C   UNL     1       3.714   2.905  -9.830  1.00  0.00     0.140 A 
ATOM     71  C   UNL     1       1.668   2.441  -8.662  1.00  0.00     0.140 A 
ATOM     72  F   UNL     1       4.933   2.544 -10.254  1.00  0.00    -0.206 F 
ATOM     73  C   UNL     1       3.228   4.155 -10.206  1.00  0.00     0.056 A 
ATOM     74  C   UNL     1       1.163   3.685  -9.037  1.00  0.00     0.056 A 
ATOM     75  F   UNL     1       0.904   1.647  -7.899  1.00  0.00    -0.206 F 
ATOM     76  C   UNL     1       1.950   4.539  -9.806  1.00  0.00     0.023 A 
ATOM     77  Br  UNL     1       1.279   6.231 -10.315  1.00  0.00    -0.051 Br
ENDBRANCH  67  69
ENDBRANCH  60  63
ENDBRANCH  58  59
ENDBRANCH  57  58
ENDBRANCH   1  57
TORSDOF 12
