REMARK SMILES CCCC[C@H](CC)C(=O)N1[C@H](C(=O)NCCCCNC(=O)c2ccc(-c3c4nc(c(-c5ccccc5)c5ccc([nH]5)c(-c5ccccc5)c5nc(c(-c6ccccc6)c6ccc3[nH]6)C=C5)C=C4)cc2)COC12CCCCC2
REMARK SMILES IDX 15 1 14 2 12 3 13 4 11 6 10 7 72 8 70 9 71 10 73 11 77 12
REMARK SMILES IDX 74 13 76 14 75 15 8 16 9 17 5 18 4 19 3 20 2 21 1 22 6 23
REMARK SMILES IDX 7 24 16 25 17 26 18 27 19 28 20 29 21 31 22 32 23 33 69 34
REMARK SMILES IDX 24 35 68 36 25 37 26 38 27 39 62 40 28 41 67 42 61 43 63 44
REMARK SMILES IDX 29 45 66 46 60 47 59 48 30 50 52 51 37 52 51 53 38 54 41 55
REMARK SMILES IDX 50 56 64 57 39 58 40 59 49 61 65 62 42 63 31 64 32 65 36 66
REMARK SMILES IDX 33 67 35 68 34 69 53 70 54 71 58 72 55 73 57 74 56 75 43 76
REMARK SMILES IDX 44 77 48 78 45 79 47 80 46 81
REMARK H PARENT 14 5 19 30 63 49 41 60
REMARK Flexibility Score: inf
ROOT
ATOM      1  C   UNL     1      -4.527   5.005  -6.401  1.00  0.00     0.116 C 
ENDROOT
BRANCH   1   2
ATOM      2  N   UNL     1      -4.280   3.643  -5.962  1.00  0.00    -0.354 N 
ATOM      3  C   UNL     1      -3.097   3.132  -5.483  1.00  0.00     0.245 C 
ATOM      4  O   UNL     1      -2.864   1.934  -5.642  1.00  0.00    -0.273 OA
ATOM      5  H   UNL     1      -5.040   3.020  -6.014  1.00  0.00     0.163 HD
BRANCH   3   6
ATOM      6  C   UNL     1      -2.110   4.123  -4.848  1.00  0.00     0.203 C 
ATOM      7  N   UNL     1      -1.115   3.639  -3.894  1.00  0.00    -0.299 N 
ATOM      8  C   UNL     1       0.166   4.306  -4.180  1.00  0.00     0.144 C 
ATOM      9  C   UNL     1      -1.273   4.712  -5.957  1.00  0.00     0.198 C 
ATOM     10  O   UNL     1      -0.101   5.184  -5.312  1.00  0.00    -0.353 OA
ATOM     11  C   UNL     1       0.615   5.293  -3.101  1.00  0.00     0.059 C 
ATOM     12  C   UNL     1       1.280   3.370  -4.676  1.00  0.00     0.059 C 
ATOM     13  C   UNL     1       1.919   6.008  -3.452  1.00  0.00     0.005 C 
ATOM     14  C   UNL     1       2.588   4.114  -4.966  1.00  0.00     0.005 C 
ATOM     15  C   UNL     1       3.010   5.005  -3.801  1.00  0.00     0.000 C 
BRANCH   7  16
ATOM     16  C   UNL     1      -1.608   2.922  -2.823  1.00  0.00     0.228 C 
ATOM     17  O   UNL     1      -2.810   2.602  -2.823  1.00  0.00    -0.274 OA
BRANCH  16  18
ATOM     18  C   UNL     1      -0.870   2.626  -1.504  1.00  0.00     0.078 C 
BRANCH  18  19
ATOM     19  C   UNL     1      -1.222   3.802  -0.554  1.00  0.00     0.013 C 
BRANCH  19  20
ATOM     20  C   UNL     1      -0.453   3.950   0.762  1.00  0.00     0.001 C 
BRANCH  20  21
ATOM     21  C   UNL     1       0.904   4.651   0.661  1.00  0.00    -0.003 C 
ATOM     22  C   UNL     1       0.815   6.128   0.297  1.00  0.00     0.004 C 
ENDBRANCH  20  21
ENDBRANCH  19  20
ENDBRANCH  18  19
BRANCH  18  23
ATOM     23  C   UNL     1       0.566   2.108  -1.526  1.00  0.00     0.010 C 
ATOM     24  C   UNL     1       0.714   0.785  -2.273  1.00  0.00     0.005 C 
ENDBRANCH  18  23
ENDBRANCH  16  18
ENDBRANCH   7  16
ENDBRANCH   3   6
ENDBRANCH   1   2
BRANCH   1  25
ATOM     25  C   UNL     1      -4.184   5.133  -7.887  1.00  0.00     0.023 C 
BRANCH  25  26
ATOM     26  C   UNL     1      -5.103   4.320  -8.801  1.00  0.00     0.023 C 
BRANCH  26  27
ATOM     27  C   UNL     1      -6.578   4.668  -8.671  1.00  0.00     0.116 C 
BRANCH  27  28
ATOM     28  N   UNL     1      -6.838   6.072  -8.941  1.00  0.00    -0.352 N 
ATOM     29  C   UNL     1      -7.860   6.639  -9.660  1.00  0.00     0.251 C 
ATOM     30  H   UNL     1      -6.192   6.705  -8.553  1.00  0.00     0.163 HD
ATOM     31  O   UNL     1      -7.834   7.831  -9.932  1.00  0.00    -0.269 OA
BRANCH  29  32
ATOM     32  C   UNL     1      -8.974   5.790 -10.132  1.00  0.00     0.039 A 
ATOM     33  C   UNL     1      -9.418   5.947 -11.445  1.00  0.00     0.014 A 
ATOM     34  C   UNL     1      -9.564   4.840  -9.293  1.00  0.00     0.014 A 
ATOM     35  C   UNL     1     -10.419   5.111 -11.934  1.00  0.00     0.010 A 
ATOM     36  C   UNL     1     -10.502   3.951  -9.808  1.00  0.00     0.010 A 
ATOM     37  C   UNL     1     -10.943   4.081 -11.132  1.00  0.00    -0.014 A 
BRANCH  37  38
ATOM     38  C   UNL     1     -11.926   3.124 -11.694  1.00  0.00     0.031 A 
ATOM     39  C   UNL     1     -13.327   3.053 -11.159  1.00  0.00     0.074 A 
ATOM     40  C   UNL     1     -11.539   2.297 -12.684  1.00  0.00     0.049 A 
ATOM     41  N   UNL     1     -14.336   2.336 -11.588  1.00  0.00    -0.248 NA
ATOM     42  C   UNL     1     -13.633   3.875  -9.979  1.00  0.00     0.031 C 
ATOM     43  C   UNL     1     -10.189   2.230 -13.250  1.00  0.00     0.029 A 
ATOM     44  N   UNL     1     -12.249   1.371 -13.403  1.00  0.00    -0.354 N 
ATOM     45  C   UNL     1     -15.390   2.616 -10.729  1.00  0.00     0.074 A 
ATOM     46  C   UNL     1     -14.882   3.518  -9.719  1.00  0.00     0.031 C 
ATOM     47  C   UNL     1     -10.185   1.359 -14.270  1.00  0.00     0.029 A 
ATOM     48  C   UNL     1     -11.517   0.778 -14.402  1.00  0.00     0.049 A 
ATOM     49  H   UNL     1     -13.191   1.152 -13.221  1.00  0.00     0.167 HD
ATOM     50  C   UNL     1     -16.672   2.179 -10.786  1.00  0.00     0.031 A 
ATOM     51  C   UNL     1     -11.880  -0.123 -15.334  1.00  0.00     0.031 A 
ATOM     52  C   UNL     1     -17.170   1.266 -11.782  1.00  0.00     0.049 A 
ATOM     53  C   UNL     1     -13.302  -0.606 -15.368  1.00  0.00     0.074 A 
ATOM     54  C   UNL     1     -18.462   0.805 -11.963  1.00  0.00     0.029 A 
ATOM     55  N   UNL     1     -16.391   0.660 -12.758  1.00  0.00    -0.354 N 
ATOM     56  N   UNL     1     -14.312  -0.261 -14.607  1.00  0.00    -0.248 NA
ATOM     57  C   UNL     1     -13.632  -1.594 -16.403  1.00  0.00     0.031 C 
ATOM     58  C   UNL     1     -18.452  -0.131 -13.004  1.00  0.00     0.029 A 
ATOM     59  C   UNL     1     -17.167  -0.200 -13.519  1.00  0.00     0.049 A 
ATOM     60  H   UNL     1     -15.428   0.818 -12.890  1.00  0.00     0.167 HD
ATOM     61  C   UNL     1     -15.405  -0.974 -15.083  1.00  0.00     0.074 A 
ATOM     62  C   UNL     1     -14.935  -1.746 -16.217  1.00  0.00     0.031 C 
ATOM     63  C   UNL     1     -16.681  -0.987 -14.625  1.00  0.00     0.031 A 
BRANCH  50  64
ATOM     64  C   UNL     1     -17.613   2.672  -9.718  1.00  0.00    -0.014 A 
ATOM     65  C   UNL     1     -17.986   4.025  -9.637  1.00  0.00     0.009 A 
ATOM     66  C   UNL     1     -18.138   1.771  -8.779  1.00  0.00     0.009 A 
ATOM     67  C   UNL     1     -18.818   4.472  -8.607  1.00  0.00     0.001 A 
ATOM     68  C   UNL     1     -18.998   2.214  -7.772  1.00  0.00     0.001 A 
ATOM     69  C   UNL     1     -19.325   3.566  -7.678  1.00  0.00     0.000 A 
ENDBRANCH  50  64
BRANCH  51  70
ATOM     70  C   UNL     1     -10.888  -0.589 -16.336  1.00  0.00    -0.014 A 
ATOM     71  C   UNL     1     -10.999  -0.198 -17.680  1.00  0.00     0.009 A 
ATOM     72  C   UNL     1      -9.815  -1.409 -15.954  1.00  0.00     0.009 A 
ATOM     73  C   UNL     1     -10.066  -0.635 -18.623  1.00  0.00     0.001 A 
ATOM     74  C   UNL     1      -8.867  -1.819 -16.894  1.00  0.00     0.001 A 
ATOM     75  C   UNL     1      -8.997  -1.438 -18.228  1.00  0.00     0.000 A 
ENDBRANCH  51  70
BRANCH  63  76
ATOM     76  C   UNL     1     -17.658  -1.861 -15.366  1.00  0.00    -0.014 A 
ATOM     77  C   UNL     1     -17.563  -3.262 -15.328  1.00  0.00     0.009 A 
ATOM     78  C   UNL     1     -18.688  -1.272 -16.117  1.00  0.00     0.009 A 
ATOM     79  C   UNL     1     -18.444  -4.051 -16.070  1.00  0.00     0.001 A 
ATOM     80  C   UNL     1     -19.590  -2.065 -16.827  1.00  0.00     0.001 A 
ATOM     81  C   UNL     1     -19.458  -3.453 -16.816  1.00  0.00     0.000 A 
ENDBRANCH  63  76
ENDBRANCH  37  38
ENDBRANCH  29  32
ENDBRANCH  27  28
ENDBRANCH  26  27
ENDBRANCH  25  26
ENDBRANCH   1  25
TORSDOF 17
