REMARK SMILES C[C@@H](C(=O)NCCCCNC(=O)c1ccc(-c2c3nc(c(-c4ccccc4)c4ccc([nH]4)c(-c4ccccc4)c4nc(c(-c5ccccc5)c5ccc2[nH]5)C=C4)C=C3)cc1)c1ccc2c3cc(Cl)ccc3n(C(=O)c3ccc(Cl)cc3)c2c1
REMARK SMILES IDX 7 1 6 2 5 3 3 4 4 5 2 7 1 8 61 9 62 10 83 11 63 12 82 13
REMARK SMILES IDX 64 14 72 15 65 16 71 17 66 18 70 19 67 20 69 21 68 22 73 23
REMARK SMILES IDX 74 24 75 25 76 26 81 27 77 28 80 29 78 30 79 31 8 32 9 33
REMARK SMILES IDX 10 34 11 35 12 37 13 38 14 39 60 40 15 41 59 42 16 43 17 44
REMARK SMILES IDX 18 45 53 46 19 47 58 48 52 49 54 50 20 51 57 52 51 53 50 54
REMARK SMILES IDX 21 56 43 57 28 58 42 59 29 60 32 61 41 62 55 63 30 64 31 65
REMARK SMILES IDX 40 67 56 68 33 69 22 70 23 71 27 72 24 73 26 74 25 75 44 76
REMARK SMILES IDX 45 77 49 78 46 79 48 80 47 81 34 82 35 83 39 84 36 85 38 86
REMARK SMILES IDX 37 87
REMARK H PARENT 5 6 10 36 54 55 32 66
REMARK Flexibility Score: inf
ROOT
ATOM      1  C   UNL     1       4.301  -0.896   0.953  1.00  0.00     0.023 C 
ENDROOT
BRANCH   1   2
ATOM      2  C   UNL     1       3.485  -1.827   0.050  1.00  0.00     0.116 C 
BRANCH   2   3
ATOM      3  N   UNL     1       2.392  -2.409   0.797  1.00  0.00    -0.356 N 
ATOM      4  C   UNL     1       1.119  -1.930   0.949  1.00  0.00     0.227 C 
ATOM      5  O   UNL     1       0.494  -2.330   1.931  1.00  0.00    -0.274 OA
ATOM      6  H   UNL     1       2.589  -3.257   1.256  1.00  0.00     0.163 HD
BRANCH   4   7
ATOM      7  C   UNL     1       0.544  -0.955  -0.103  1.00  0.00     0.105 C 
ATOM      8  C   UNL     1       1.073   0.457   0.176  1.00  0.00     0.023 C 
BRANCH   7   9
ATOM      9  C   UNL     1      -0.986  -1.004  -0.223  1.00  0.00    -0.034 A 
ATOM     10  C   UNL     1      -1.743   0.141  -0.489  1.00  0.00     0.005 A 
ATOM     11  C   UNL     1      -1.661  -2.235  -0.113  1.00  0.00     0.032 A 
ATOM     12  C   UNL     1      -3.130   0.083  -0.634  1.00  0.00     0.011 A 
ATOM     13  C   UNL     1      -3.074  -2.278  -0.134  1.00  0.00     0.057 A 
ATOM     14  C   UNL     1      -3.801  -1.138  -0.445  1.00  0.00     0.008 A 
ATOM     15  N   UNL     1      -3.978  -3.329   0.121  1.00  0.00    -0.276 N 
ATOM     16  C   UNL     1      -5.170  -1.494  -0.466  1.00  0.00     0.009 A 
ATOM     17  C   UNL     1      -5.280  -2.808   0.010  1.00  0.00     0.057 A 
ATOM     18  C   UNL     1      -6.325  -0.742  -0.769  1.00  0.00     0.031 A 
ATOM     19  C   UNL     1      -6.551  -3.316   0.349  1.00  0.00     0.029 A 
ATOM     20  C   UNL     1      -7.576  -1.280  -0.501  1.00  0.00     0.041 A 
ATOM     21  C   UNL     1      -7.688  -2.535   0.082  1.00  0.00     0.023 A 
ATOM     22  Cl  UNL     1      -8.983  -0.352  -0.846  1.00  0.00    -0.084 Cl
BRANCH  15  23
ATOM     23  C   UNL     1      -3.559  -4.636   0.504  1.00  0.00     0.262 C 
ATOM     24  O   UNL     1      -2.417  -4.726   0.962  1.00  0.00    -0.268 OA
BRANCH  23  25
ATOM     25  C   UNL     1      -4.262  -5.947   0.399  1.00  0.00     0.040 A 
ATOM     26  C   UNL     1      -3.713  -7.016   1.141  1.00  0.00     0.015 A 
ATOM     27  C   UNL     1      -5.292  -6.224  -0.503  1.00  0.00     0.015 A 
ATOM     28  C   UNL     1      -4.174  -8.325   0.989  1.00  0.00     0.021 A 
ATOM     29  C   UNL     1      -5.779  -7.536  -0.631  1.00  0.00     0.021 A 
ATOM     30  C   UNL     1      -5.210  -8.579   0.102  1.00  0.00     0.041 A 
ATOM     31  Cl  UNL     1      -5.763 -10.193  -0.117  1.00  0.00    -0.084 Cl
ENDBRANCH  23  25
ENDBRANCH  15  23
ENDBRANCH   7   9
ENDBRANCH   4   7
ENDBRANCH   2   3
ENDBRANCH   1   2
BRANCH   1  32
ATOM     32  C   UNL     1       5.082  -1.608   2.058  1.00  0.00     0.023 C 
BRANCH  32  33
ATOM     33  C   UNL     1       6.062  -2.660   1.564  1.00  0.00     0.116 C 
BRANCH  33  34
ATOM     34  N   UNL     1       7.007  -2.127   0.597  1.00  0.00    -0.352 N 
ATOM     35  C   UNL     1       8.358  -2.336   0.493  1.00  0.00     0.251 C 
ATOM     36  H   UNL     1       6.620  -1.530  -0.084  1.00  0.00     0.163 HD
ATOM     37  O   UNL     1       9.019  -1.672  -0.296  1.00  0.00    -0.269 OA
BRANCH  35  38
ATOM     38  C   UNL     1       9.018  -3.338   1.356  1.00  0.00     0.039 A 
ATOM     39  C   UNL     1      10.252  -3.014   1.921  1.00  0.00     0.014 A 
ATOM     40  C   UNL     1       8.435  -4.584   1.605  1.00  0.00     0.014 A 
ATOM     41  C   UNL     1      10.876  -3.921   2.775  1.00  0.00     0.010 A 
ATOM     42  C   UNL     1       9.016  -5.452   2.525  1.00  0.00     0.010 A 
ATOM     43  C   UNL     1      10.248  -5.133   3.112  1.00  0.00    -0.014 A 
BRANCH  43  44
ATOM     44  C   UNL     1      10.879  -6.054   4.089  1.00  0.00     0.031 A 
ATOM     45  C   UNL     1      11.333  -7.425   3.672  1.00  0.00     0.074 A 
ATOM     46  C   UNL     1      11.038  -5.648   5.364  1.00  0.00     0.049 A 
ATOM     47  N   UNL     1      11.964  -8.332   4.376  1.00  0.00    -0.248 NA
ATOM     48  C   UNL     1      11.025  -7.845   2.295  1.00  0.00     0.031 C 
ATOM     49  C   UNL     1      10.582  -4.365   5.906  1.00  0.00     0.029 A 
ATOM     50  N   UNL     1      11.638  -6.265   6.431  1.00  0.00    -0.354 N 
ATOM     51  C   UNL     1      12.132  -9.420   3.529  1.00  0.00     0.074 A 
ATOM     52  C   UNL     1      11.479  -9.089   2.282  1.00  0.00     0.031 C 
ATOM     53  C   UNL     1      10.961  -4.272   7.190  1.00  0.00     0.029 A 
ATOM     54  C   UNL     1      11.652  -5.499   7.571  1.00  0.00     0.049 A 
ATOM     55  H   UNL     1      12.023  -7.170   6.384  1.00  0.00     0.167 HD
ATOM     56  C   UNL     1      12.796 -10.578   3.757  1.00  0.00     0.031 A 
ATOM     57  C   UNL     1      12.170  -5.753   8.787  1.00  0.00     0.031 A 
ATOM     58  C   UNL     1      13.437 -10.912   5.001  1.00  0.00     0.049 A 
ATOM     59  C   UNL     1      12.895  -7.049   9.015  1.00  0.00     0.074 A 
ATOM     60  C   UNL     1      14.163 -12.046   5.322  1.00  0.00     0.029 A 
ATOM     61  N   UNL     1      13.425 -10.113   6.134  1.00  0.00    -0.354 N 
ATOM     62  N   UNL     1      13.114  -8.034   8.177  1.00  0.00    -0.248 NA
ATOM     63  C   UNL     1      13.464  -7.258  10.353  1.00  0.00     0.031 C 
ATOM     64  C   UNL     1      14.545 -11.957   6.665  1.00  0.00     0.029 A 
ATOM     65  C   UNL     1      14.113 -10.738   7.162  1.00  0.00     0.049 A 
ATOM     66  H   UNL     1      12.991  -9.231   6.199  1.00  0.00     0.167 HD
ATOM     67  C   UNL     1      13.861  -8.970   8.880  1.00  0.00     0.074 A 
ATOM     68  C   UNL     1      14.087  -8.416  10.200  1.00  0.00     0.031 C 
ATOM     69  C   UNL     1      14.314 -10.181   8.475  1.00  0.00     0.031 A 
BRANCH  56  70
ATOM     70  C   UNL     1      12.866 -11.569   2.627  1.00  0.00    -0.014 A 
ATOM     71  C   UNL     1      13.629 -11.303   1.477  1.00  0.00     0.009 A 
ATOM     72  C   UNL     1      12.201 -12.800   2.727  1.00  0.00     0.009 A 
ATOM     73  C   UNL     1      13.696 -12.234   0.439  1.00  0.00     0.001 A 
ATOM     74  C   UNL     1      12.295 -13.743   1.701  1.00  0.00     0.001 A 
ATOM     75  C   UNL     1      13.035 -13.456   0.554  1.00  0.00     0.000 A 
ENDBRANCH  56  70
BRANCH  57  76
ATOM     76  C   UNL     1      12.033  -4.755   9.880  1.00  0.00    -0.014 A 
ATOM     77  C   UNL     1      13.154  -4.074  10.381  1.00  0.00     0.009 A 
ATOM     78  C   UNL     1      10.774  -4.490  10.443  1.00  0.00     0.009 A 
ATOM     79  C   UNL     1      13.022  -3.180  11.445  1.00  0.00     0.001 A 
ATOM     80  C   UNL     1      10.640  -3.569  11.483  1.00  0.00     0.001 A 
ATOM     81  C   UNL     1      11.766  -2.925  11.993  1.00  0.00     0.000 A 
ENDBRANCH  57  76
BRANCH  69  82
ATOM     82  C   UNL     1      15.117 -10.973   9.470  1.00  0.00    -0.014 A 
ATOM     83  C   UNL     1      14.523 -11.520  10.619  1.00  0.00     0.009 A 
ATOM     84  C   UNL     1      16.489 -11.174   9.255  1.00  0.00     0.009 A 
ATOM     85  C   UNL     1      15.297 -12.204  11.558  1.00  0.00     0.001 A 
ATOM     86  C   UNL     1      17.254 -11.889  10.178  1.00  0.00     0.001 A 
ATOM     87  C   UNL     1      16.661 -12.390  11.335  1.00  0.00     0.000 A 
ENDBRANCH  69  82
ENDBRANCH  43  44
ENDBRANCH  35  38
ENDBRANCH  33  34
ENDBRANCH  32  33
ENDBRANCH   1  32
TORSDOF 14
