REMARK SMILES CC1=C([C@@H](NC(=O)c2cc3c(s2)CCCCC3)C(=O)NCCCCNC(=O)c2ccc(-c3c4nc(c(-c5ccccc5)c5ccc([nH]5)c(-c5ccccc5)c5nc(c(-c6ccccc6)c6ccc3[nH]6)C=C5)C=C4)cc2)[C@H](C)N=N1
REMARK SMILES IDX 21 1 20 2 18 3 19 4 4 6 3 7 1 8 2 9 79 10 76 11 78 12 77 13
REMARK SMILES IDX 5 14 6 15 7 17 8 18 9 19 12 20 10 21 11 22 17 23 16 24 13 26
REMARK SMILES IDX 14 27 15 28 22 30 23 31 24 32 25 33 26 34 27 36 28 37 29 38
REMARK SMILES IDX 75 39 30 40 74 41 31 42 32 43 33 44 68 45 34 46 73 47 67 48
REMARK SMILES IDX 69 49 35 50 72 51 66 52 65 53 36 55 58 56 43 57 57 58 44 59
REMARK SMILES IDX 47 60 56 61 70 62 45 63 46 64 55 66 71 67 48 68 37 69 38 70
REMARK SMILES IDX 42 71 39 72 41 73 40 74 59 75 60 76 64 77 61 78 63 79 62 80
REMARK SMILES IDX 49 81 50 82 54 83 51 84 53 85 52 86
REMARK H PARENT 20 5 5 16 25 35 69 54 47 65
REMARK Flexibility Score: 90.00
ROOT
ATOM      1  C   UNL     1      -0.483  -1.416   5.398  1.00  0.00     0.116 C 
ENDROOT
BRANCH   1   2
ATOM      2  N   UNL     1       0.475  -0.388   5.035  1.00  0.00    -0.354 N 
ATOM      3  C   UNL     1       0.610   0.367   3.905  1.00  0.00     0.247 C 
ATOM      4  O   UNL     1       1.682   0.967   3.765  1.00  0.00    -0.272 OA
ATOM      5  H   UNL     1       1.150  -0.201   5.728  1.00  0.00     0.163 HD
BRANCH   3   6
ATOM      6  C   UNL     1      -0.449   0.388   2.774  1.00  0.00     0.202 C 
BRANCH   6   7
ATOM      7  C   UNL     1      -0.135  -0.684   1.758  1.00  0.00     0.011 C 
ATOM      8  C   UNL     1       0.624   0.555  -0.349  1.00  0.00     0.069 C 
ATOM      9  C   UNL     1       0.213  -0.616   0.465  1.00  0.00     0.064 C 
ATOM     10  N   UNL     1       0.216  -1.848  -0.147  1.00  0.00    -0.160 NA
ATOM     11  C   UNL     1      -0.013  -2.150   2.049  1.00  0.00     0.156 C 
ATOM     12  N   UNL     1      -0.060  -2.746   0.691  1.00  0.00    -0.181 NA
ATOM     13  C   UNL     1       1.375  -2.536   2.587  1.00  0.00     0.040 C 
ENDBRANCH   6   7
BRANCH   6  14
ATOM     14  N   UNL     1      -1.867   0.300   3.152  1.00  0.00    -0.336 N 
ATOM     15  C   UNL     1      -2.589   1.073   4.052  1.00  0.00     0.262 C 
ATOM     16  H   UNL     1      -2.380  -0.410   2.701  1.00  0.00     0.165 HD
ATOM     17  O   UNL     1      -3.815   0.968   4.024  1.00  0.00    -0.268 OA
BRANCH  15  18
ATOM     18  C   UNL     1      -1.893   1.779   5.110  1.00  0.00     0.092 A 
ATOM     19  C   UNL     1      -1.980   1.522   6.467  1.00  0.00     0.029 A 
ATOM     20  S   UNL     1      -0.838   3.093   4.835  1.00  0.00    -0.135 S 
ATOM     21  C   UNL     1      -0.832   2.023   7.171  1.00  0.00    -0.033 A 
ATOM     22  C   UNL     1      -0.068   2.827   6.348  1.00  0.00     0.009 A 
BRANCH  21  23
ATOM     23  C   UNL     1      -0.446   1.567   8.540  1.00  0.00     0.037 C 
BRANCH  23  24
ATOM     24  C   UNL     1       0.247   2.534   9.490  1.00  0.00     0.005 CG0
ATOM     25  G   UNL     1       0.481   3.952   9.007  1.00  0.00     0.000 G0
ENDBRANCH  23  24
ENDBRANCH  21  23
BRANCH  22  26
ATOM     26  C   UNL     1       1.321   3.315   6.603  1.00  0.00     0.047 C 
BRANCH  26  27
ATOM     27  C   UNL     1       1.536   4.077   7.912  1.00  0.00     0.006 C 
BRANCH  27  28
ATOM     28  C   UNL     1       0.481   3.952   9.007  1.00  0.00     0.001 CG0
ATOM     29  G   UNL     1       0.247   2.534   9.490  1.00  0.00     0.000 G0
ENDBRANCH  27  28
ENDBRANCH  26  27
ENDBRANCH  22  26
ENDBRANCH  15  18
ENDBRANCH   6  14
ENDBRANCH   3   6
ENDBRANCH   1   2
BRANCH   1  30
ATOM     30  C   UNL     1       0.220  -2.722   5.780  1.00  0.00     0.023 C 
BRANCH  30  31
ATOM     31  C   UNL     1       1.022  -2.672   7.085  1.00  0.00     0.023 C 
BRANCH  31  32
ATOM     32  C   UNL     1       0.129  -2.715   8.310  1.00  0.00     0.116 C 
BRANCH  32  33
ATOM     33  N   UNL     1      -0.603  -3.985   8.419  1.00  0.00    -0.352 N 
ATOM     34  C   UNL     1      -1.507  -4.369   9.393  1.00  0.00     0.251 C 
ATOM     35  H   UNL     1      -0.427  -4.645   7.711  1.00  0.00     0.163 HD
ATOM     36  O   UNL     1      -1.824  -5.544   9.559  1.00  0.00    -0.269 OA
BRANCH  34  37
ATOM     37  C   UNL     1      -2.116  -3.306  10.198  1.00  0.00     0.039 A 
ATOM     38  C   UNL     1      -2.152  -3.311  11.596  1.00  0.00     0.014 A 
ATOM     39  C   UNL     1      -2.514  -2.199   9.472  1.00  0.00     0.014 A 
ATOM     40  C   UNL     1      -2.508  -2.132  12.259  1.00  0.00     0.010 A 
ATOM     41  C   UNL     1      -2.600  -1.011  10.125  1.00  0.00     0.010 A 
ATOM     42  C   UNL     1      -2.698  -0.966  11.505  1.00  0.00    -0.014 A 
BRANCH  42  43
ATOM     43  C   UNL     1      -2.861   0.366  12.079  1.00  0.00     0.031 A 
ATOM     44  C   UNL     1      -1.790   0.754  13.034  1.00  0.00     0.074 A 
ATOM     45  C   UNL     1      -3.740   1.273  11.583  1.00  0.00     0.049 A 
ATOM     46  N   UNL     1      -1.921   0.973  14.296  1.00  0.00    -0.248 NA
ATOM     47  C   UNL     1      -0.391   0.789  12.574  1.00  0.00     0.031 C 
ATOM     48  C   UNL     1      -4.626   1.150  10.411  1.00  0.00     0.029 A 
ATOM     49  N   UNL     1      -3.953   2.563  11.959  1.00  0.00    -0.354 N 
ATOM     50  C   UNL     1      -0.678   1.395  14.753  1.00  0.00     0.074 A 
ATOM     51  C   UNL     1       0.258   1.121  13.693  1.00  0.00     0.031 C 
ATOM     52  C   UNL     1      -5.085   2.368  10.046  1.00  0.00     0.029 A 
ATOM     53  C   UNL     1      -4.682   3.332  11.051  1.00  0.00     0.049 A 
ATOM     54  H   UNL     1      -3.617   2.928  12.809  1.00  0.00     0.167 HD
ATOM     55  C   UNL     1      -0.580   2.161  15.874  1.00  0.00     0.031 A 
ATOM     56  C   UNL     1      -4.934   4.665  11.117  1.00  0.00     0.031 A 
ATOM     57  C   UNL     1      -1.806   2.130  16.634  1.00  0.00     0.049 A 
ATOM     58  C   UNL     1      -4.729   5.072  12.526  1.00  0.00     0.074 A 
ATOM     59  C   UNL     1      -2.564   1.119  17.194  1.00  0.00     0.029 A 
ATOM     60  N   UNL     1      -2.654   3.206  16.499  1.00  0.00    -0.354 N 
ATOM     61  N   UNL     1      -5.492   4.669  13.501  1.00  0.00    -0.248 NA
ATOM     62  C   UNL     1      -3.400   5.517  12.911  1.00  0.00     0.031 C 
ATOM     63  C   UNL     1      -3.912   1.464  16.880  1.00  0.00     0.029 A 
ATOM     64  C   UNL     1      -3.909   2.712  16.254  1.00  0.00     0.049 A 
ATOM     65  H   UNL     1      -2.404   4.156  16.566  1.00  0.00     0.167 HD
ATOM     66  C   UNL     1      -4.609   4.362  14.526  1.00  0.00     0.074 A 
ATOM     67  C   UNL     1      -3.344   4.990  14.138  1.00  0.00     0.031 C 
ATOM     68  C   UNL     1      -4.894   3.382  15.434  1.00  0.00     0.031 A 
BRANCH  55  69
ATOM     69  C   UNL     1       0.432   3.264  16.049  1.00  0.00    -0.014 A 
ATOM     70  C   UNL     1       0.424   3.989  17.255  1.00  0.00     0.009 A 
ATOM     71  C   UNL     1       1.172   3.812  14.985  1.00  0.00     0.009 A 
ATOM     72  C   UNL     1       1.039   5.241  17.357  1.00  0.00     0.001 A 
ATOM     73  C   UNL     1       1.823   5.044  15.096  1.00  0.00     0.001 A 
ATOM     74  C   UNL     1       1.728   5.774  16.272  1.00  0.00     0.000 A 
ENDBRANCH  55  69
BRANCH  56  75
ATOM     75  C   UNL     1      -5.056   5.660  10.022  1.00  0.00    -0.014 A 
ATOM     76  C   UNL     1      -5.527   6.961  10.277  1.00  0.00     0.009 A 
ATOM     77  C   UNL     1      -4.431   5.431   8.783  1.00  0.00     0.009 A 
ATOM     78  C   UNL     1      -5.325   8.001   9.355  1.00  0.00     0.001 A 
ATOM     79  C   UNL     1      -4.232   6.466   7.862  1.00  0.00     0.001 A 
ATOM     80  C   UNL     1      -4.661   7.756   8.156  1.00  0.00     0.000 A 
ENDBRANCH  56  75
BRANCH  68  81
ATOM     81  C   UNL     1      -6.281   2.780  15.429  1.00  0.00    -0.014 A 
ATOM     82  C   UNL     1      -6.840   2.116  14.322  1.00  0.00     0.009 A 
ATOM     83  C   UNL     1      -6.981   2.741  16.644  1.00  0.00     0.009 A 
ATOM     84  C   UNL     1      -8.073   1.459  14.424  1.00  0.00     0.001 A 
ATOM     85  C   UNL     1      -8.199   2.068  16.753  1.00  0.00     0.001 A 
ATOM     86  C   UNL     1      -8.748   1.432  15.642  1.00  0.00     0.000 A 
ENDBRANCH  68  81
ENDBRANCH  42  43
ENDBRANCH  34  37
ENDBRANCH  32  33
ENDBRANCH  31  32
ENDBRANCH  30  31
ENDBRANCH   1  30
TORSDOF 14
