REMARK SMILES CC(=O)c1cc2c(cc1NC(=O)/C=C/C(=O)NCCCCNC(=O)c1ccc(-c3c4nc(c(-c5ccccc5)c5ccc([nH]5)c(-c5ccccc5)c5nc(c(-c6ccccc6)c6ccc3[nH]6)C=C5)C=C4)cc1)OCO2
REMARK SMILES IDX 19 1 18 2 17 3 15 4 16 5 14 7 13 8 11 9 10 10 12 12 9 13
REMARK SMILES IDX 4 14 5 15 6 16 8 17 7 18 75 19 73 20 74 21 2 22 1 23 3 24
REMARK SMILES IDX 20 25 21 26 22 27 23 28 24 30 25 31 26 32 72 33 27 34 71 35
REMARK SMILES IDX 28 36 29 37 30 38 65 39 31 40 70 41 64 42 66 43 32 44 69 45
REMARK SMILES IDX 63 46 62 47 33 49 55 50 40 51 54 52 41 53 44 54 53 55 67 56
REMARK SMILES IDX 42 57 43 58 52 60 68 61 45 62 34 63 35 64 39 65 36 66 38 67
REMARK SMILES IDX 37 68 56 69 57 70 61 71 58 72 60 73 59 74 46 75 47 76 51 77
REMARK SMILES IDX 48 78 50 79 49 80
REMARK H PARENT 17 6 10 11 22 29 66 48 44 59
REMARK Flexibility Score: inf
ROOT
ATOM      1  C   UNL     1      -4.008  -5.892   5.952  1.00  0.00     0.023 C 
ENDROOT
BRANCH   1   2
ATOM      2  C   UNL     1      -3.316  -4.808   6.773  1.00  0.00     0.116 C 
BRANCH   2   3
ATOM      3  N   UNL     1      -1.878  -4.987   6.776  1.00  0.00    -0.353 N 
ATOM      4  C   UNL     1      -0.909  -4.117   6.394  1.00  0.00     0.244 C 
ATOM      5  O   UNL     1       0.270  -4.360   6.635  1.00  0.00    -0.270 OA
ATOM      6  H   UNL     1      -1.560  -5.860   7.101  1.00  0.00     0.163 HD
BRANCH   4   7
ATOM      7  C   UNL     1      -1.267  -2.869   5.693  1.00  0.00     0.077 C 
ATOM      8  C   UNL     1      -2.033  -2.900   4.593  1.00  0.00     0.077 C 
BRANCH   8   9
ATOM      9  C   UNL     1      -2.177  -1.701   3.757  1.00  0.00     0.248 C 
ATOM     10  N   UNL     1      -1.125  -1.265   3.001  1.00  0.00    -0.322 N 
ATOM     11  H   UNL     1      -1.322  -0.454   2.479  1.00  0.00     0.170 HD
ATOM     12  O   UNL     1      -3.256  -1.113   3.753  1.00  0.00    -0.270 OA
BRANCH  10  13
ATOM     13  C   UNL     1       0.194  -1.754   2.822  1.00  0.00     0.056 A 
ATOM     14  C   UNL     1       1.171  -0.897   2.251  1.00  0.00     0.045 A 
ATOM     15  C   UNL     1       2.542  -1.193   2.319  1.00  0.00     0.064 A 
ATOM     16  C   UNL     1       2.900  -2.384   2.906  1.00  0.00     0.166 A 
ATOM     17  C   UNL     1       0.605  -3.027   3.225  1.00  0.00     0.077 A 
ATOM     18  C   UNL     1       1.954  -3.293   3.301  1.00  0.00     0.167 A 
ATOM     19  O   UNL     1       4.163  -2.826   3.139  1.00  0.00    -0.454 OA
ATOM     20  O   UNL     1       2.501  -4.435   3.793  1.00  0.00    -0.454 OA
ATOM     21  C   UNL     1       3.888  -4.052   3.856  1.00  0.00     0.468 C 
BRANCH  14  22
ATOM     22  C   UNL     1       0.741   0.302   1.496  1.00  0.00     0.162 C 
ATOM     23  C   UNL     1       1.189   0.387   0.060  1.00  0.00     0.093 C 
ATOM     24  O   UNL     1      -0.045   1.096   2.001  1.00  0.00    -0.294 OA
ENDBRANCH  14  22
ENDBRANCH  10  13
ENDBRANCH   8   9
ENDBRANCH   4   7
ENDBRANCH   2   3
ENDBRANCH   1   2
BRANCH   1  25
ATOM     25  C   UNL     1      -3.998  -7.280   6.599  1.00  0.00     0.023 C 
BRANCH  25  26
ATOM     26  C   UNL     1      -4.456  -7.313   8.053  1.00  0.00     0.116 C 
BRANCH  26  27
ATOM     27  N   UNL     1      -5.723  -6.632   8.268  1.00  0.00    -0.352 N 
ATOM     28  C   UNL     1      -6.700  -6.905   9.190  1.00  0.00     0.251 C 
ATOM     29  H   UNL     1      -5.904  -5.870   7.671  1.00  0.00     0.163 HD
ATOM     30  O   UNL     1      -7.761  -6.289   9.171  1.00  0.00    -0.269 OA
BRANCH  28  31
ATOM     31  C   UNL     1      -6.482  -7.976  10.178  1.00  0.00     0.039 A 
ATOM     32  C   UNL     1      -7.494  -8.918  10.370  1.00  0.00     0.014 A 
ATOM     33  C   UNL     1      -5.284  -8.063  10.893  1.00  0.00     0.014 A 
ATOM     34  C   UNL     1      -7.284  -9.978  11.249  1.00  0.00     0.010 A 
ATOM     35  C   UNL     1      -5.045  -9.165  11.706  1.00  0.00     0.010 A 
ATOM     36  C   UNL     1      -6.048 -10.124  11.902  1.00  0.00    -0.014 A 
BRANCH  36  37
ATOM     37  C   UNL     1      -5.809 -11.281  12.797  1.00  0.00     0.031 A 
ATOM     38  C   UNL     1      -5.589 -11.071  14.267  1.00  0.00     0.074 A 
ATOM     39  C   UNL     1      -5.773 -12.521  12.274  1.00  0.00     0.049 A 
ATOM     40  N   UNL     1      -5.427 -11.964  15.210  1.00  0.00    -0.248 NA
ATOM     41  C   UNL     1      -5.517  -9.679  14.739  1.00  0.00     0.031 C 
ATOM     42  C   UNL     1      -5.908 -12.845  10.852  1.00  0.00     0.029 A 
ATOM     43  N   UNL     1      -5.622 -13.741  12.881  1.00  0.00    -0.354 N 
ATOM     44  C   UNL     1      -5.233 -11.243  16.381  1.00  0.00     0.074 A 
ATOM     45  C   UNL     1      -5.226  -9.843  16.020  1.00  0.00     0.031 C 
ATOM     46  C   UNL     1      -5.878 -14.178  10.702  1.00  0.00     0.029 A 
ATOM     47  C   UNL     1      -5.693 -14.800  12.009  1.00  0.00     0.049 A 
ATOM     48  H   UNL     1      -5.477 -13.848  13.849  1.00  0.00     0.167 HD
ATOM     49  C   UNL     1      -5.103 -11.702  17.648  1.00  0.00     0.031 A 
ATOM     50  C   UNL     1      -5.628 -16.124  12.238  1.00  0.00     0.031 A 
ATOM     51  C   UNL     1      -5.104 -13.096  18.002  1.00  0.00     0.049 A 
ATOM     52  C   UNL     1      -5.490 -16.614  13.652  1.00  0.00     0.074 A 
ATOM     53  C   UNL     1      -5.022 -13.669  19.259  1.00  0.00     0.029 A 
ATOM     54  N   UNL     1      -5.186 -14.139  17.090  1.00  0.00    -0.354 N 
ATOM     55  N   UNL     1      -5.393 -15.920  14.760  1.00  0.00    -0.248 NA
ATOM     56  C   UNL     1      -5.476 -18.070  13.847  1.00  0.00     0.031 C 
ATOM     57  C   UNL     1      -5.002 -15.059  19.103  1.00  0.00     0.029 A 
ATOM     58  C   UNL     1      -5.135 -15.352  17.755  1.00  0.00     0.049 A 
ATOM     59  H   UNL     1      -5.267 -14.031  16.115  1.00  0.00     0.167 HD
ATOM     60  C   UNL     1      -5.332 -16.852  15.787  1.00  0.00     0.074 A 
ATOM     61  C   UNL     1      -5.422 -18.160  15.169  1.00  0.00     0.031 C 
ATOM     62  C   UNL     1      -5.217 -16.645  17.122  1.00  0.00     0.031 A 
BRANCH  49  63
ATOM     63  C   UNL     1      -4.945 -10.676  18.737  1.00  0.00    -0.014 A 
ATOM     64  C   UNL     1      -5.998  -9.810  19.079  1.00  0.00     0.009 A 
ATOM     65  C   UNL     1      -3.732 -10.574  19.435  1.00  0.00     0.009 A 
ATOM     66  C   UNL     1      -5.823  -8.832  20.061  1.00  0.00     0.001 A 
ATOM     67  C   UNL     1      -3.571  -9.617  20.441  1.00  0.00     0.001 A 
ATOM     68  C   UNL     1      -4.612  -8.740  20.743  1.00  0.00     0.000 A 
ENDBRANCH  49  63
BRANCH  50  69
ATOM     69  C   UNL     1      -5.732 -17.073  11.100  1.00  0.00    -0.014 A 
ATOM     70  C   UNL     1      -6.884 -17.854  10.920  1.00  0.00     0.009 A 
ATOM     71  C   UNL     1      -4.687 -17.182  10.168  1.00  0.00     0.009 A 
ATOM     72  C   UNL     1      -6.978 -18.740   9.844  1.00  0.00     0.001 A 
ATOM     73  C   UNL     1      -4.796 -18.047   9.077  1.00  0.00     0.001 A 
ATOM     74  C   UNL     1      -5.938 -18.831   8.920  1.00  0.00     0.000 A 
ENDBRANCH  50  69
BRANCH  62  75
ATOM     75  C   UNL     1      -5.210 -17.860  18.007  1.00  0.00    -0.014 A 
ATOM     76  C   UNL     1      -4.112 -18.732  18.044  1.00  0.00     0.009 A 
ATOM     77  C   UNL     1      -6.307 -18.110  18.846  1.00  0.00     0.009 A 
ATOM     78  C   UNL     1      -4.129 -19.852  18.879  1.00  0.00     0.001 A 
ATOM     79  C   UNL     1      -6.308 -19.212  19.702  1.00  0.00     0.001 A 
ATOM     80  C   UNL     1      -5.224 -20.087  19.710  1.00  0.00     0.000 A 
ENDBRANCH  62  75
ENDBRANCH  36  37
ENDBRANCH  28  31
ENDBRANCH  26  27
ENDBRANCH  25  26
ENDBRANCH   1  25
TORSDOF 14
