REMARK SMILES Cc1ccc(OCC(=O)NNC(=O)[C@H]2CCCC[C@@H]2C(=O)NCCCCNC(=O)c2ccc(-c3c4nc(c(-c5ccccc5)c5ccc([nH]5)c(-c5ccccc5)c5nc(c(-c6ccccc6)c6ccc3[nH]6)C=C5)C=C4)cc2)cc1
REMARK SMILES IDX 23 1 22 2 20 3 21 4 19 6 14 7 15 8 16 9 18 10 17 11 12 12
REMARK SMILES IDX 11 13 13 15 10 16 8 17 9 18 7 20 6 21 5 22 1 23 2 24 3 25
REMARK SMILES IDX 79 26 4 27 78 28 24 29 25 30 26 31 27 32 28 33 29 35 30 36
REMARK SMILES IDX 31 37 77 38 32 39 76 40 33 41 34 42 35 43 70 44 36 45 75 46
REMARK SMILES IDX 69 47 71 48 37 49 74 50 68 51 67 52 38 54 60 55 45 56 59 57
REMARK SMILES IDX 46 58 49 59 58 60 72 61 47 62 48 63 57 65 73 66 50 67 39 68
REMARK SMILES IDX 40 69 44 70 41 71 43 72 42 73 61 74 62 75 66 76 63 77 65 78
REMARK SMILES IDX 64 79 51 80 52 81 56 82 53 83 55 84 54 85
REMARK H PARENT 22 5 11 14 10 19 27 34 71 53 49 64
REMARK Flexibility Score: inf
ROOT
ATOM      1  C   UNL     1      -6.367   4.487   5.944  1.00  0.00     0.116 C 
ENDROOT
BRANCH   1   2
ATOM      2  N   UNL     1      -6.173   3.605   4.803  1.00  0.00    -0.356 N 
ATOM      3  C   UNL     1      -5.414   2.512   4.548  1.00  0.00     0.223 C 
ATOM      4  O   UNL     1      -5.672   1.949   3.473  1.00  0.00    -0.275 OA
ATOM      5  H   UNL     1      -6.725   3.866   4.031  1.00  0.00     0.163 HD
BRANCH   3   6
ATOM      6  C   UNL     1      -4.228   1.987   5.384  1.00  0.00     0.091 C 
ATOM      7  C   UNL     1      -4.216   0.429   5.321  1.00  0.00     0.092 C 
ATOM      8  C   UNL     1      -5.280  -0.159   6.273  1.00  0.00     0.014 C 
ATOM      9  C   UNL     1      -5.178   0.358   7.709  1.00  0.00     0.001 C 
ATOM     10  C   UNL     1      -4.028   2.429   6.830  1.00  0.00     0.014 C 
ATOM     11  C   UNL     1      -5.094   1.876   7.772  1.00  0.00     0.001 C 
BRANCH   7  12
ATOM     12  C   UNL     1      -2.829  -0.158   5.614  1.00  0.00     0.242 C 
ATOM     13  N   UNL     1      -1.805   0.029   4.727  1.00  0.00    -0.267 N 
ATOM     14  H   UNL     1      -0.917  -0.307   4.989  1.00  0.00     0.191 HD
ATOM     15  O   UNL     1      -2.586  -0.815   6.628  1.00  0.00    -0.273 OA
BRANCH  13  16
ATOM     16  N   UNL     1      -1.906   0.651   3.493  1.00  0.00    -0.265 N 
ATOM     17  C   UNL     1      -0.834   1.222   2.845  1.00  0.00     0.276 C 
ATOM     18  O   UNL     1      -0.981   1.700   1.718  1.00  0.00    -0.269 OA
ATOM     19  H   UNL     1      -2.789   0.686   3.058  1.00  0.00     0.191 HD
BRANCH  17  20
ATOM     20  C   UNL     1       0.538   1.199   3.531  1.00  0.00     0.331 C 
BRANCH  20  21
ATOM     21  O   UNL     1       0.597   1.807   4.812  1.00  0.00    -0.484 OA
BRANCH  21  22
ATOM     22  C   UNL     1       0.620   3.174   4.867  1.00  0.00     0.120 A 
ATOM     23  C   UNL     1       0.680   7.447   5.489  1.00  0.00     0.044 C 
ATOM     24  C   UNL     1       0.659   5.963   5.270  1.00  0.00    -0.051 A 
ATOM     25  C   UNL     1       0.784   5.089   6.354  1.00  0.00     0.007 A 
ATOM     26  C   UNL     1       0.530   5.430   3.985  1.00  0.00     0.007 A 
ATOM     27  C   UNL     1       0.761   3.706   6.151  1.00  0.00     0.047 A 
ATOM     28  C   UNL     1       0.512   4.045   3.784  1.00  0.00     0.047 A 
ENDBRANCH  21  22
ENDBRANCH  20  21
ENDBRANCH  17  20
ENDBRANCH  13  16
ENDBRANCH   7  12
ENDBRANCH   3   6
ENDBRANCH   1   2
BRANCH   1  29
ATOM     29  C   UNL     1      -6.143   5.967   5.624  1.00  0.00     0.023 C 
BRANCH  29  30
ATOM     30  C   UNL     1      -7.214   6.628   4.756  1.00  0.00     0.023 C 
BRANCH  30  31
ATOM     31  C   UNL     1      -8.605   6.684   5.378  1.00  0.00     0.116 C 
BRANCH  31  32
ATOM     32  N   UNL     1      -8.809   7.720   6.382  1.00  0.00    -0.352 N 
ATOM     33  C   UNL     1      -9.880   7.907   7.250  1.00  0.00     0.251 C 
ATOM     34  H   UNL     1      -8.085   8.383   6.457  1.00  0.00     0.163 HD
ATOM     35  O   UNL     1      -9.904   8.867   7.994  1.00  0.00    -0.269 OA
BRANCH  33  36
ATOM     36  C   UNL     1     -10.927   6.852   7.364  1.00  0.00     0.039 A 
ATOM     37  C   UNL     1     -11.346   6.480   8.647  1.00  0.00     0.014 A 
ATOM     38  C   UNL     1     -11.330   6.103   6.263  1.00  0.00     0.014 A 
ATOM     39  C   UNL     1     -11.913   5.222   8.843  1.00  0.00     0.010 A 
ATOM     40  C   UNL     1     -11.792   4.816   6.461  1.00  0.00     0.010 A 
ATOM     41  C   UNL     1     -12.008   4.350   7.758  1.00  0.00    -0.014 A 
BRANCH  41  42
ATOM     42  C   UNL     1     -12.216   2.916   7.910  1.00  0.00     0.031 A 
ATOM     43  C   UNL     1     -13.550   2.331   7.653  1.00  0.00     0.074 A 
ATOM     44  C   UNL     1     -11.187   2.110   8.267  1.00  0.00     0.049 A 
ATOM     45  N   UNL     1     -14.024   1.306   8.281  1.00  0.00    -0.248 NA
ATOM     46  C   UNL     1     -14.478   2.884   6.671  1.00  0.00     0.031 C 
ATOM     47  C   UNL     1     -11.204   0.648   8.320  1.00  0.00     0.029 A 
ATOM     48  N   UNL     1      -9.945   2.423   8.823  1.00  0.00    -0.354 N 
ATOM     49  C   UNL     1     -15.136   0.883   7.590  1.00  0.00     0.074 A 
ATOM     50  C   UNL     1     -15.437   1.952   6.664  1.00  0.00     0.031 C 
ATOM     51  C   UNL     1     -10.240   0.240   9.162  1.00  0.00     0.029 A 
ATOM     52  C   UNL     1      -9.684   1.432   9.778  1.00  0.00     0.049 A 
ATOM     53  H   UNL     1      -9.369   3.186   8.590  1.00  0.00     0.167 HD
ATOM     54  C   UNL     1     -15.592  -0.392   7.749  1.00  0.00     0.031 A 
ATOM     55  C   UNL     1      -9.602   1.648  11.126  1.00  0.00     0.031 A 
ATOM     56  C   UNL     1     -14.789  -1.145   8.710  1.00  0.00     0.049 A 
ATOM     57  C   UNL     1     -10.584   0.813  11.935  1.00  0.00     0.074 A 
ATOM     58  C   UNL     1     -13.787  -2.091   8.556  1.00  0.00     0.029 A 
ATOM     59  N   UNL     1     -14.755  -0.750  10.042  1.00  0.00    -0.354 N 
ATOM     60  N   UNL     1     -11.607   0.190  11.416  1.00  0.00    -0.248 NA
ATOM     61  C   UNL     1     -10.537   0.665  13.390  1.00  0.00     0.031 C 
ATOM     62  C   UNL     1     -13.110  -2.221   9.795  1.00  0.00     0.029 A 
ATOM     63  C   UNL     1     -13.716  -1.375  10.706  1.00  0.00     0.049 A 
ATOM     64  H   UNL     1     -15.383  -0.114  10.454  1.00  0.00     0.167 HD
ATOM     65  C   UNL     1     -12.338  -0.419  12.403  1.00  0.00     0.074 A 
ATOM     66  C   UNL     1     -11.617  -0.104  13.623  1.00  0.00     0.031 C 
ATOM     67  C   UNL     1     -13.482  -1.112  12.121  1.00  0.00     0.031 A 
BRANCH  54  68
ATOM     68  C   UNL     1     -16.562  -1.041   6.788  1.00  0.00    -0.014 A 
ATOM     69  C   UNL     1     -16.496  -2.428   6.558  1.00  0.00     0.009 A 
ATOM     70  C   UNL     1     -17.526  -0.341   6.043  1.00  0.00     0.009 A 
ATOM     71  C   UNL     1     -17.257  -3.055   5.562  1.00  0.00     0.001 A 
ATOM     72  C   UNL     1     -18.259  -0.951   5.015  1.00  0.00     0.001 A 
ATOM     73  C   UNL     1     -18.113  -2.309   4.764  1.00  0.00     0.000 A 
ENDBRANCH  54  68
BRANCH  55  74
ATOM     74  C   UNL     1      -9.149   3.011  11.508  1.00  0.00    -0.014 A 
ATOM     75  C   UNL     1      -7.822   3.381  11.212  1.00  0.00     0.009 A 
ATOM     76  C   UNL     1     -10.075   4.018  11.812  1.00  0.00     0.009 A 
ATOM     77  C   UNL     1      -7.466   4.727  11.093  1.00  0.00     0.001 A 
ATOM     78  C   UNL     1      -9.709   5.365  11.704  1.00  0.00     0.001 A 
ATOM     79  C   UNL     1      -8.420   5.718  11.306  1.00  0.00     0.000 A 
ENDBRANCH  55  74
BRANCH  67  80
ATOM     80  C   UNL     1     -14.474  -1.680  13.114  1.00  0.00    -0.014 A 
ATOM     81  C   UNL     1     -14.588  -1.281  14.451  1.00  0.00     0.009 A 
ATOM     82  C   UNL     1     -15.444  -2.602  12.651  1.00  0.00     0.009 A 
ATOM     83  C   UNL     1     -15.588  -1.804  15.287  1.00  0.00     0.001 A 
ATOM     84  C   UNL     1     -16.468  -3.090  13.466  1.00  0.00     0.001 A 
ATOM     85  C   UNL     1     -16.532  -2.699  14.793  1.00  0.00     0.000 A 
ENDBRANCH  67  80
ENDBRANCH  41  42
ENDBRANCH  33  36
ENDBRANCH  31  32
ENDBRANCH  30  31
ENDBRANCH  29  30
ENDBRANCH   1  29
TORSDOF 16
