REMARK SMILES O=C(NCCCCNC(=O)[C@@H](Cc1ccc(O)cc1)Nc1c2ccccc2nc2ccccc12)c1ccc(-c2c3nc(c(-c4ccccc4)c4ccc([nH]4)c(-c4ccccc4)c4nc(c(-c5ccccc5)c5ccc2[nH]5)C=C4)C=C3)cc1
REMARK SMILES IDX 6 1 5 2 4 3 3 4 1 5 2 6 35 8 36 9 82 10 37 11 81 12 38 13
REMARK SMILES IDX 39 14 40 15 75 16 41 17 80 18 74 19 76 20 42 21 79 22 73 23
REMARK SMILES IDX 72 24 43 26 65 27 50 28 64 29 51 30 54 31 63 32 77 33 52 34
REMARK SMILES IDX 53 35 62 37 78 38 55 39 44 40 45 41 49 42 46 43 48 44 47 45
REMARK SMILES IDX 66 46 67 47 71 48 68 49 70 50 69 51 56 52 57 53 61 54 58 55
REMARK SMILES IDX 60 56 59 57 7 58 8 59 9 60 10 62 11 63 12 64 13 65 14 66
REMARK SMILES IDX 19 67 15 68 18 69 16 70 17 71 20 73 21 75 22 76 34 77 23 78
REMARK SMILES IDX 27 79 29 80 33 81 24 82 26 83 28 84 30 85 32 86 25 87 31 88
REMARK H PARENT 3 7 76 25 54 36 8 61 17 72 20 74
REMARK Flexibility Score: inf
ROOT
ATOM      1  C   UNL     1       5.404   2.087  -2.562  1.00  0.00     0.023 C 
ENDROOT
BRANCH   1   2
ATOM      2  C   UNL     1       5.758   0.782  -1.878  1.00  0.00     0.023 C 
BRANCH   2   3
ATOM      3  C   UNL     1       5.022   0.543  -0.572  1.00  0.00     0.116 C 
BRANCH   3   4
ATOM      4  N   UNL     1       3.563   0.592  -0.662  1.00  0.00    -0.352 N 
ATOM      5  O   UNL     1       1.437  -0.033  -0.167  1.00  0.00    -0.269 OA
ATOM      6  C   UNL     1       2.641  -0.173   0.021  1.00  0.00     0.251 C 
ATOM      7  H   UNL     1       3.193   1.255  -1.290  1.00  0.00     0.163 HD
BRANCH   6   8
ATOM      8  C   UNL     1       3.148  -1.208   0.945  1.00  0.00     0.039 A 
ATOM      9  C   UNL     1       4.153  -0.875   1.848  1.00  0.00     0.014 A 
ATOM     10  C   UNL     1       2.741  -2.536   0.791  1.00  0.00     0.014 A 
ATOM     11  C   UNL     1       4.919  -1.887   2.400  1.00  0.00     0.010 A 
ATOM     12  C   UNL     1       3.429  -3.550   1.468  1.00  0.00     0.010 A 
ATOM     13  C   UNL     1       4.565  -3.240   2.230  1.00  0.00    -0.014 A 
BRANCH  13  14
ATOM     14  C   UNL     1       5.412  -4.269   2.889  1.00  0.00     0.031 A 
ATOM     15  C   UNL     1       6.156  -5.316   2.102  1.00  0.00     0.074 A 
ATOM     16  C   UNL     1       5.606  -4.165   4.220  1.00  0.00     0.049 A 
ATOM     17  N   UNL     1       7.012  -6.210   2.538  1.00  0.00    -0.248 NA
ATOM     18  C   UNL     1       5.910  -5.387   0.653  1.00  0.00     0.031 C 
ATOM     19  C   UNL     1       4.938  -3.193   5.092  1.00  0.00     0.029 A 
ATOM     20  N   UNL     1       6.473  -4.817   5.057  1.00  0.00    -0.354 N 
ATOM     21  C   UNL     1       7.369  -6.972   1.432  1.00  0.00     0.074 A 
ATOM     22  C   UNL     1       6.641  -6.438   0.301  1.00  0.00     0.031 C 
ATOM     23  C   UNL     1       5.509  -3.223   6.302  1.00  0.00     0.029 A 
ATOM     24  C   UNL     1       6.512  -4.280   6.322  1.00  0.00     0.049 A 
ATOM     25  H   UNL     1       7.013  -5.593   4.781  1.00  0.00     0.167 HD
ATOM     26  C   UNL     1       8.221  -8.024   1.368  1.00  0.00     0.031 A 
ATOM     27  C   UNL     1       7.267  -4.598   7.387  1.00  0.00     0.031 A 
ATOM     28  C   UNL     1       8.966  -8.537   2.488  1.00  0.00     0.049 A 
ATOM     29  C   UNL     1       8.233  -5.735   7.276  1.00  0.00     0.074 A 
ATOM     30  C   UNL     1       9.843  -9.610   2.525  1.00  0.00     0.029 A 
ATOM     31  N   UNL     1       8.937  -8.004   3.767  1.00  0.00    -0.354 N 
ATOM     32  N   UNL     1       8.521  -6.468   6.229  1.00  0.00    -0.248 NA
ATOM     33  C   UNL     1       8.958  -6.105   8.498  1.00  0.00     0.031 C 
ATOM     34  C   UNL     1      10.323  -9.741   3.833  1.00  0.00     0.029 A 
ATOM     35  C   UNL     1       9.775  -8.726   4.600  1.00  0.00     0.049 A 
ATOM     36  H   UNL     1       8.400  -7.226   4.042  1.00  0.00     0.167 HD
ATOM     37  C   UNL     1       9.441  -7.405   6.671  1.00  0.00     0.074 A 
ATOM     38  C   UNL     1       9.703  -7.112   8.066  1.00  0.00     0.031 C 
ATOM     39  C   UNL     1      10.002  -8.433   5.989  1.00  0.00     0.031 A 
BRANCH  26  40
ATOM     40  C   UNL     1       8.376  -8.720   0.045  1.00  0.00    -0.014 A 
ATOM     41  C   UNL     1       9.152  -8.168  -0.985  1.00  0.00     0.009 A 
ATOM     42  C   UNL     1       7.792  -9.983  -0.146  1.00  0.00     0.009 A 
ATOM     43  C   UNL     1       9.326  -8.861  -2.187  1.00  0.00     0.001 A 
ATOM     44  C   UNL     1       7.983 -10.681  -1.340  1.00  0.00     0.001 A 
ATOM     45  C   UNL     1       8.747 -10.118  -2.361  1.00  0.00     0.000 A 
ENDBRANCH  26  40
BRANCH  27  46
ATOM     46  C   UNL     1       7.106  -3.843   8.655  1.00  0.00    -0.014 A 
ATOM     47  C   UNL     1       8.115  -2.981   9.108  1.00  0.00     0.009 A 
ATOM     48  C   UNL     1       5.921  -3.957   9.400  1.00  0.00     0.009 A 
ATOM     49  C   UNL     1       7.942  -2.254  10.289  1.00  0.00     0.001 A 
ATOM     50  C   UNL     1       5.739  -3.206  10.561  1.00  0.00     0.001 A 
ATOM     51  C   UNL     1       6.752  -2.361  11.008  1.00  0.00     0.000 A 
ENDBRANCH  27  46
BRANCH  39  52
ATOM     52  C   UNL     1      10.934  -9.315   6.764  1.00  0.00    -0.014 A 
ATOM     53  C   UNL     1      10.433 -10.249   7.685  1.00  0.00     0.009 A 
ATOM     54  C   UNL     1      12.319  -9.207   6.580  1.00  0.00     0.009 A 
ATOM     55  C   UNL     1      11.308 -11.033   8.437  1.00  0.00     0.001 A 
ATOM     56  C   UNL     1      13.191 -10.007   7.320  1.00  0.00     0.001 A 
ATOM     57  C   UNL     1      12.685 -10.911   8.254  1.00  0.00     0.000 A 
ENDBRANCH  39  52
ENDBRANCH  13  14
ENDBRANCH   6   8
ENDBRANCH   3   4
ENDBRANCH   2   3
ENDBRANCH   1   2
BRANCH   1  58
ATOM     58  C   UNL     1       5.788   3.365  -1.828  1.00  0.00     0.116 C 
BRANCH  58  59
ATOM     59  N   UNL     1       7.051   3.869  -2.311  1.00  0.00    -0.354 N 
ATOM     60  C   UNL     1       7.354   4.688  -3.355  1.00  0.00     0.242 C 
ATOM     61  H   UNL     1       7.832   3.567  -1.794  1.00  0.00     0.163 HD
ATOM     62  O   UNL     1       8.551   4.725  -3.669  1.00  0.00    -0.273 OA
BRANCH  60  63
ATOM     63  C   UNL     1       6.321   5.531  -4.150  1.00  0.00     0.173 C 
BRANCH  63  64
ATOM     64  C   UNL     1       5.510   4.741  -5.215  1.00  0.00     0.070 C 
BRANCH  64  65
ATOM     65  C   UNL     1       4.256   3.948  -4.901  1.00  0.00    -0.045 A 
ATOM     66  C   UNL     1       3.199   4.446  -4.125  1.00  0.00     0.007 A 
ATOM     67  C   UNL     1       4.099   2.674  -5.482  1.00  0.00     0.007 A 
ATOM     68  C   UNL     1       2.093   3.642  -3.812  1.00  0.00     0.046 A 
ATOM     69  C   UNL     1       2.991   1.876  -5.186  1.00  0.00     0.046 A 
ATOM     70  C   UNL     1       2.014   2.353  -4.324  1.00  0.00     0.115 A 
BRANCH  70  71
ATOM     71  O   UNL     1       0.999   1.508  -3.991  1.00  0.00    -0.508 OA
ATOM     72  H   UNL     1       0.321   1.795  -3.411  1.00  0.00     0.293 HD
ENDBRANCH  70  71
ENDBRANCH  64  65
ENDBRANCH  63  64
BRANCH  63  73
ATOM     73  N   UNL     1       5.503   6.410  -3.296  1.00  0.00    -0.372 N 
ATOM     74  H   UNL     1       4.707   6.024  -2.864  1.00  0.00     0.161 HD
BRANCH  73  75
ATOM     75  C   UNL     1       5.789   7.768  -3.058  1.00  0.00     0.054 A 
ATOM     76  C   UNL     1       5.978   8.715  -4.115  1.00  0.00     0.024 A 
ATOM     77  C   UNL     1       5.895   8.222  -1.703  1.00  0.00     0.024 A 
ATOM     78  C   UNL     1       5.859   8.444  -5.503  1.00  0.00     0.012 A 
ATOM     79  C   UNL     1       6.259  10.048  -3.751  1.00  0.00     0.073 A 
ATOM     80  C   UNL     1       6.132   9.595  -1.493  1.00  0.00     0.073 A 
ATOM     81  C   UNL     1       5.784   7.394  -0.552  1.00  0.00     0.012 A 
ATOM     82  C   UNL     1       6.089   9.412  -6.481  1.00  0.00     0.001 A 
ATOM     83  C   UNL     1       6.470  11.005  -4.736  1.00  0.00     0.029 A 
ATOM     84  N   UNL     1       6.316  10.468  -2.486  1.00  0.00    -0.248 NA
ATOM     85  C   UNL     1       6.185  10.096  -0.199  1.00  0.00     0.029 A 
ATOM     86  C   UNL     1       5.853   7.916   0.741  1.00  0.00     0.001 A 
ATOM     87  C   UNL     1       6.405  10.701  -6.094  1.00  0.00     0.002 A 
ATOM     88  C   UNL     1       6.041   9.276   0.918  1.00  0.00     0.002 A 
ENDBRANCH  73  75
ENDBRANCH  63  73
ENDBRANCH  60  63
ENDBRANCH  58  59
ENDBRANCH   1  58
TORSDOF 16
