REMARK SMILES C[C@H](O)/C=C/[C@H]1OC(=O)C[C@H]1Nc1ccc(C(=O)NCCCCNC(=O)c2ccc(-c3c4nc(c(-c5ccccc5)c5ccc([nH]5)c(-c5ccccc5)c5nc(c(-c6ccccc6)c6ccc3[nH]6)C=C5)C=C4)cc2)cc1
REMARK SMILES IDX 20 1 19 2 17 3 18 4 16 6 13 7 14 8 76 9 15 10 75 11 12 12
REMARK SMILES IDX 11 14 6 15 7 16 8 17 10 18 9 19 5 20 4 21 2 22 1 23 3 24
REMARK SMILES IDX 21 26 22 27 23 28 24 29 25 30 26 32 27 33 28 34 74 35 29 36
REMARK SMILES IDX 73 37 30 38 31 39 32 40 67 41 33 42 72 43 66 44 68 45 34 46
REMARK SMILES IDX 71 47 65 48 64 49 35 51 57 52 42 53 56 54 43 55 46 56 55 57
REMARK SMILES IDX 69 58 44 59 45 60 54 62 70 63 47 64 36 65 37 66 41 67 38 68
REMARK SMILES IDX 40 69 39 70 58 71 59 72 63 73 60 74 62 75 61 76 48 77 49 78
REMARK SMILES IDX 53 79 50 80 52 81 51 82
REMARK H PARENT 19 5 12 13 3 25 24 31 68 50 46 61
REMARK Flexibility Score: inf
ROOT
ATOM      1  C   UNL     1       0.141  -3.064   5.388  1.00  0.00     0.116 C 
ENDROOT
BRANCH   1   2
ATOM      2  N   UNL     1       0.126  -2.531   6.739  1.00  0.00    -0.352 N 
ATOM      3  C   UNL     1      -0.330  -1.338   7.253  1.00  0.00     0.251 C 
ATOM      4  O   UNL     1      -0.249  -1.169   8.469  1.00  0.00    -0.269 OA
ATOM      5  H   UNL     1       0.514  -3.135   7.413  1.00  0.00     0.163 HD
BRANCH   3   6
ATOM      6  C   UNL     1      -0.946  -0.273   6.411  1.00  0.00     0.039 A 
ATOM      7  C   UNL     1      -2.256   1.729   4.850  1.00  0.00     0.034 A 
ATOM      8  C   UNL     1      -2.442   1.648   6.236  1.00  0.00     0.026 A 
ATOM      9  C   UNL     1      -1.391   0.802   4.289  1.00  0.00     0.026 A 
ATOM     10  C   UNL     1      -1.809   0.653   7.007  1.00  0.00     0.016 A 
ATOM     11  C   UNL     1      -0.698  -0.131   5.056  1.00  0.00     0.016 A 
BRANCH   7  12
ATOM     12  N   UNL     1      -2.914   2.693   4.111  1.00  0.00    -0.378 N 
ATOM     13  H   UNL     1      -2.793   3.623   4.410  1.00  0.00     0.161 HD
BRANCH  12  14
ATOM     14  C   UNL     1      -3.778   2.502   2.923  1.00  0.00     0.135 C 
ATOM     15  C   UNL     1      -3.227   1.806   1.670  1.00  0.00     0.222 C 
ATOM     16  O   UNL     1      -3.506   0.414   1.875  1.00  0.00    -0.456 OA
ATOM     17  C   UNL     1      -4.537   0.301   2.763  1.00  0.00     0.308 C 
ATOM     18  C   UNL     1      -4.981   1.645   3.247  1.00  0.00     0.151 C 
ATOM     19  O   UNL     1      -5.075  -0.759   3.058  1.00  0.00    -0.252 OA
BRANCH  15  20
ATOM     20  C   UNL     1      -1.776   2.030   1.344  1.00  0.00     0.018 C 
ATOM     21  C   UNL     1      -1.038   1.274   0.509  1.00  0.00     0.003 C 
BRANCH  21  22
ATOM     22  C   UNL     1       0.462   1.298   0.519  1.00  0.00     0.134 C 
ATOM     23  C   UNL     1       1.073   2.426  -0.293  1.00  0.00     0.043 C 
BRANCH  22  24
ATOM     24  O   UNL     1       0.906   0.043   0.020  1.00  0.00    -0.389 OA
ATOM     25  H   UNL     1       0.593  -0.072  -0.891  1.00  0.00     0.211 HD
ENDBRANCH  22  24
ENDBRANCH  21  22
ENDBRANCH  15  20
ENDBRANCH  12  14
ENDBRANCH   7  12
ENDBRANCH   3   6
ENDBRANCH   1   2
BRANCH   1  26
ATOM     26  C   UNL     1       1.493  -2.799   4.712  1.00  0.00     0.023 C 
BRANCH  26  27
ATOM     27  C   UNL     1       2.584  -3.793   5.101  1.00  0.00     0.023 C 
BRANCH  27  28
ATOM     28  C   UNL     1       2.308  -5.221   4.658  1.00  0.00     0.116 C 
BRANCH  28  29
ATOM     29  N   UNL     1       2.212  -5.370   3.213  1.00  0.00    -0.352 N 
ATOM     30  C   UNL     1       2.578  -6.456   2.455  1.00  0.00     0.251 C 
ATOM     31  H   UNL     1       1.841  -4.601   2.721  1.00  0.00     0.163 HD
ATOM     32  O   UNL     1       2.562  -6.405   1.231  1.00  0.00    -0.269 OA
BRANCH  30  33
ATOM     33  C   UNL     1       3.033  -7.679   3.145  1.00  0.00     0.039 A 
ATOM     34  C   UNL     1       4.230  -8.275   2.748  1.00  0.00     0.014 A 
ATOM     35  C   UNL     1       2.302  -8.197   4.218  1.00  0.00     0.014 A 
ATOM     36  C   UNL     1       4.723  -9.365   3.465  1.00  0.00     0.010 A 
ATOM     37  C   UNL     1       2.841  -9.220   4.986  1.00  0.00     0.010 A 
ATOM     38  C   UNL     1       4.047  -9.828   4.607  1.00  0.00    -0.014 A 
BRANCH  38  39
ATOM     39  C   UNL     1       4.564 -10.970   5.398  1.00  0.00     0.031 A 
ATOM     40  C   UNL     1       3.756 -12.235   5.499  1.00  0.00     0.074 A 
ATOM     41  C   UNL     1       5.727 -10.854   6.067  1.00  0.00     0.049 A 
ATOM     42  N   UNL     1       4.015 -13.331   6.167  1.00  0.00    -0.248 NA
ATOM     43  C   UNL     1       2.472 -12.261   4.779  1.00  0.00     0.031 C 
ATOM     44  C   UNL     1       6.586  -9.668   6.081  1.00  0.00     0.029 A 
ATOM     45  N   UNL     1       6.388 -11.752   6.867  1.00  0.00    -0.354 N 
ATOM     46  C   UNL     1       2.919 -14.161   5.965  1.00  0.00     0.074 A 
ATOM     47  C   UNL     1       1.968 -13.422   5.166  1.00  0.00     0.031 C 
ATOM     48  C   UNL     1       7.679  -9.927   6.816  1.00  0.00     0.029 A 
ATOM     49  C   UNL     1       7.579 -11.277   7.361  1.00  0.00     0.049 A 
ATOM     50  H   UNL     1       6.041 -12.652   7.068  1.00  0.00     0.167 HD
ATOM     51  C   UNL     1       2.728 -15.433   6.388  1.00  0.00     0.031 A 
ATOM     52  C   UNL     1       8.487 -11.866   8.161  1.00  0.00     0.031 A 
ATOM     53  C   UNL     1       3.681 -16.169   7.175  1.00  0.00     0.049 A 
ATOM     54  C   UNL     1       8.246 -13.274   8.632  1.00  0.00     0.074 A 
ATOM     55  C   UNL     1       3.612 -17.483   7.602  1.00  0.00     0.029 A 
ATOM     56  N   UNL     1       4.873 -15.651   7.657  1.00  0.00    -0.354 N 
ATOM     57  N   UNL     1       7.240 -14.074   8.371  1.00  0.00    -0.248 NA
ATOM     58  C   UNL     1       9.276 -13.864   9.498  1.00  0.00     0.031 C 
ATOM     59  C   UNL     1       4.734 -17.741   8.397  1.00  0.00     0.029 A 
ATOM     60  C   UNL     1       5.536 -16.610   8.402  1.00  0.00     0.049 A 
ATOM     61  H   UNL     1       5.199 -14.737   7.493  1.00  0.00     0.167 HD
ATOM     62  C   UNL     1       7.536 -15.274   9.005  1.00  0.00     0.074 A 
ATOM     63  C   UNL     1       8.819 -15.098   9.655  1.00  0.00     0.031 C 
ATOM     64  C   UNL     1       6.814 -16.422   9.040  1.00  0.00     0.031 A 
BRANCH  51  65
ATOM     65  C   UNL     1       1.428 -16.095   6.021  1.00  0.00    -0.014 A 
ATOM     66  C   UNL     1       1.117 -16.416   4.689  1.00  0.00     0.009 A 
ATOM     67  C   UNL     1       0.502 -16.413   7.026  1.00  0.00     0.009 A 
ATOM     68  C   UNL     1      -0.113 -16.994   4.367  1.00  0.00     0.001 A 
ATOM     69  C   UNL     1      -0.712 -17.024   6.706  1.00  0.00     0.001 A 
ATOM     70  C   UNL     1      -1.024 -17.301   5.376  1.00  0.00     0.000 A 
ENDBRANCH  51  65
BRANCH  52  71
ATOM     71  C   UNL     1       9.729 -11.142   8.541  1.00  0.00    -0.014 A 
ATOM     72  C   UNL     1      10.973 -11.553   8.036  1.00  0.00     0.009 A 
ATOM     73  C   UNL     1       9.682 -10.043   9.412  1.00  0.00     0.009 A 
ATOM     74  C   UNL     1      12.145 -10.898   8.420  1.00  0.00     0.001 A 
ATOM     75  C   UNL     1      10.853  -9.370   9.770  1.00  0.00     0.001 A 
ATOM     76  C   UNL     1      12.084  -9.805   9.282  1.00  0.00     0.000 A 
ENDBRANCH  52  71
BRANCH  64  77
ATOM     77  C   UNL     1       7.421 -17.597   9.757  1.00  0.00    -0.014 A 
ATOM     78  C   UNL     1       7.553 -17.622  11.153  1.00  0.00     0.009 A 
ATOM     79  C   UNL     1       7.831 -18.717   9.015  1.00  0.00     0.009 A 
ATOM     80  C   UNL     1       8.122 -18.729  11.788  1.00  0.00     0.001 A 
ATOM     81  C   UNL     1       8.365 -19.836   9.655  1.00  0.00     0.001 A 
ATOM     82  C   UNL     1       8.521 -19.836  11.039  1.00  0.00     0.000 A 
ENDBRANCH  64  77
ENDBRANCH  38  39
ENDBRANCH  30  33
ENDBRANCH  28  29
ENDBRANCH  27  28
ENDBRANCH  26  27
ENDBRANCH   1  26
TORSDOF 16
