REMARK SMILES Cc1ccc(-c2cnnc(-n3nc(C)c4c3NC(=O)C[C@@H]4c3ccc(C(=O)NCCCCNC(=O)c4ccc(-c5c6nc(c(-c7ccccc7)c7ccc([nH]7)c(-c7ccccc7)c7nc(c(-c8ccccc8)c8ccc5[nH]8)C=C7)C=C6)cc4)cc3)n2)cc1
REMARK SMILES IDX 30 1 29 2 28 3 26 4 27 5 25 7 22 8 23 9 85 10 24 11 84 12
REMARK SMILES IDX 21 13 11 14 12 15 16 16 13 17 15 18 17 19 14 20 18 21 20 23
REMARK SMILES IDX 19 24 10 25 6 26 7 27 86 28 8 29 9 30 5 31 1 32 2 33 3 34
REMARK SMILES IDX 88 35 4 36 87 37 31 38 32 39 33 40 34 41 35 43 36 44 37 45
REMARK SMILES IDX 83 46 38 47 82 48 39 49 40 50 41 51 76 52 42 53 81 54 75 55
REMARK SMILES IDX 77 56 43 57 80 58 74 59 73 60 44 62 66 63 51 64 65 65 52 66
REMARK SMILES IDX 55 67 64 68 78 69 53 70 54 71 63 73 79 74 56 75 45 76 46 77
REMARK SMILES IDX 50 78 47 79 49 80 48 81 67 82 68 83 72 84 69 85 71 86 70 87
REMARK SMILES IDX 57 88 58 89 62 90 59 91 61 92 60 93
REMARK H PARENT 28 6 17 22 33 42 77 61 55 72
REMARK Flexibility Score: inf
ROOT
ATOM      1  C   UNL     1     -11.017   6.937  -5.705  1.00  0.00     0.023 C 
ENDROOT
BRANCH   1   2
ATOM      2  C   UNL     1     -11.604   5.641  -6.292  1.00  0.00     0.116 C 
BRANCH   2   3
ATOM      3  N   UNL     1     -11.476   5.551  -7.743  1.00  0.00    -0.352 N 
ATOM      4  C   UNL     1     -10.651   4.792  -8.543  1.00  0.00     0.251 C 
ATOM      5  O   UNL     1     -10.869   4.737  -9.750  1.00  0.00    -0.269 OA
ATOM      6  H   UNL     1     -12.091   6.138  -8.239  1.00  0.00     0.163 HD
BRANCH   4   7
ATOM      7  C   UNL     1      -9.540   3.995  -7.973  1.00  0.00     0.039 A 
ATOM      8  C   UNL     1      -7.705   2.311  -6.675  1.00  0.00    -0.040 A 
ATOM      9  C   UNL     1      -8.345   1.897  -7.857  1.00  0.00     0.005 A 
ATOM     10  C   UNL     1      -7.844   3.648  -6.290  1.00  0.00     0.005 A 
ATOM     11  C   UNL     1      -9.253   2.738  -8.508  1.00  0.00     0.014 A 
ATOM     12  C   UNL     1      -8.761   4.473  -6.927  1.00  0.00     0.014 A 
BRANCH   8  13
ATOM     13  C   UNL     1      -6.940   1.284  -5.867  1.00  0.00     0.064 C 
ATOM     14  N   UNL     1      -5.816   2.104  -2.524  1.00  0.00    -0.180 N 
ATOM     15  N   UNL     1      -7.104   2.500  -2.322  1.00  0.00    -0.168 NA
ATOM     16  C   UNL     1      -5.575   2.074  -3.888  1.00  0.00     0.143 A 
ATOM     17  C   UNL     1      -7.732   2.159  -3.451  1.00  0.00     0.066 A 
ATOM     18  C   UNL     1      -6.799   1.752  -4.450  1.00  0.00     0.026 A 
ATOM     19  N   UNL     1      -4.481   2.333  -4.692  1.00  0.00    -0.310 N 
ATOM     20  C   UNL     1      -9.195   2.402  -3.522  1.00  0.00     0.069 C 
ATOM     21  C   UNL     1      -4.585   2.040  -6.097  1.00  0.00     0.226 C 
ATOM     22  H   UNL     1      -3.652   2.708  -4.314  1.00  0.00     0.171 HD
ATOM     23  C   UNL     1      -5.572   0.957  -6.465  1.00  0.00     0.113 C 
ATOM     24  O   UNL     1      -3.827   2.600  -6.854  1.00  0.00    -0.275 OA
BRANCH  14  25
ATOM     25  C   UNL     1      -5.119   1.388  -1.503  1.00  0.00     0.272 A 
ATOM     26  C   UNL     1      -3.300   0.333  -0.617  1.00  0.00     0.095 A 
ATOM     27  C   UNL     1      -4.122  -0.280   0.316  1.00  0.00     0.164 A 
ATOM     28  N   UNL     1      -3.793   1.145  -1.597  1.00  0.00    -0.208 NA
ATOM     29  N   UNL     1      -5.437  -0.036   0.342  1.00  0.00    -0.153 NA
ATOM     30  N   UNL     1      -5.928   0.844  -0.553  1.00  0.00    -0.109 NA
BRANCH  26  31
ATOM     31  C   UNL     1      -1.842   0.220  -0.498  1.00  0.00     0.002 A 
ATOM     32  C   UNL     1       2.444  -0.034   0.073  1.00  0.00     0.044 C 
ATOM     33  C   UNL     1       0.957   0.061  -0.098  1.00  0.00    -0.051 A 
ATOM     34  C   UNL     1       0.184  -1.102  -0.174  1.00  0.00     0.004 A 
ATOM     35  C   UNL     1       0.325   1.303  -0.205  1.00  0.00     0.004 A 
ATOM     36  C   UNL     1      -1.199  -1.024  -0.369  1.00  0.00     0.011 A 
ATOM     37  C   UNL     1      -1.055   1.379  -0.406  1.00  0.00     0.011 A 
ENDBRANCH  26  31
ENDBRANCH  14  25
ENDBRANCH   8  13
ENDBRANCH   4   7
ENDBRANCH   2   3
ENDBRANCH   1   2
BRANCH   1  38
ATOM     38  C   UNL     1     -11.654   8.230  -6.210  1.00  0.00     0.023 C 
BRANCH  38  39
ATOM     39  C   UNL     1     -13.066   8.457  -5.709  1.00  0.00     0.116 C 
BRANCH  39  40
ATOM     40  N   UNL     1     -13.167   9.152  -4.434  1.00  0.00    -0.352 N 
ATOM     41  C   UNL     1     -14.292   9.592  -3.755  1.00  0.00     0.251 C 
ATOM     42  H   UNL     1     -12.309   9.338  -3.989  1.00  0.00     0.163 HD
ATOM     43  O   UNL     1     -14.150  10.290  -2.754  1.00  0.00    -0.269 OA
BRANCH  41  44
ATOM     44  C   UNL     1     -15.643   9.065  -4.098  1.00  0.00     0.039 A 
ATOM     45  C   UNL     1     -16.486   8.766  -3.018  1.00  0.00     0.014 A 
ATOM     46  C   UNL     1     -15.892   8.503  -5.341  1.00  0.00     0.014 A 
ATOM     47  C   UNL     1     -17.299   7.645  -3.090  1.00  0.00     0.010 A 
ATOM     48  C   UNL     1     -16.550   7.306  -5.375  1.00  0.00     0.010 A 
ATOM     49  C   UNL     1     -17.186   6.851  -4.223  1.00  0.00    -0.014 A 
BRANCH  49  50
ATOM     50  C   UNL     1     -17.746   5.529  -4.362  1.00  0.00     0.031 A 
ATOM     51  C   UNL     1     -19.084   5.452  -4.951  1.00  0.00     0.074 A 
ATOM     52  C   UNL     1     -16.935   4.479  -4.113  1.00  0.00     0.049 A 
ATOM     53  N   UNL     1     -19.911   4.492  -4.763  1.00  0.00    -0.248 NA
ATOM     54  C   UNL     1     -19.633   6.537  -5.767  1.00  0.00     0.031 C 
ATOM     55  C   UNL     1     -17.112   3.070  -4.431  1.00  0.00     0.029 A 
ATOM     56  N   UNL     1     -15.804   4.500  -3.300  1.00  0.00    -0.354 N 
ATOM     57  C   UNL     1     -20.920   4.657  -5.688  1.00  0.00     0.074 A 
ATOM     58  C   UNL     1     -20.785   6.004  -6.175  1.00  0.00     0.031 C 
ATOM     59  C   UNL     1     -16.322   2.340  -3.618  1.00  0.00     0.029 A 
ATOM     60  C   UNL     1     -15.717   3.256  -2.658  1.00  0.00     0.049 A 
ATOM     61  H   UNL     1     -15.178   5.252  -3.196  1.00  0.00     0.167 HD
ATOM     62  C   UNL     1     -21.619   3.557  -6.079  1.00  0.00     0.031 A 
ATOM     63  C   UNL     1     -15.918   3.206  -1.305  1.00  0.00     0.031 A 
ATOM     64  C   UNL     1     -21.186   2.393  -5.304  1.00  0.00     0.049 A 
ATOM     65  C   UNL     1     -17.238   2.540  -0.971  1.00  0.00     0.074 A 
ATOM     66  C   UNL     1     -20.257   1.403  -5.581  1.00  0.00     0.029 A 
ATOM     67  N   UNL     1     -21.369   2.390  -3.924  1.00  0.00    -0.354 N 
ATOM     68  N   UNL     1     -18.264   2.499  -1.781  1.00  0.00    -0.248 NA
ATOM     69  C   UNL     1     -17.477   1.820   0.276  1.00  0.00     0.031 C 
ATOM     70  C   UNL     1     -19.782   0.899  -4.338  1.00  0.00     0.029 A 
ATOM     71  C   UNL     1     -20.450   1.553  -3.315  1.00  0.00     0.049 A 
ATOM     72  H   UNL     1     -22.056   2.911  -3.447  1.00  0.00     0.167 HD
ATOM     73  C   UNL     1     -19.247   1.725  -1.228  1.00  0.00     0.074 A 
ATOM     74  C   UNL     1     -18.714   1.337   0.067  1.00  0.00     0.031 C 
ATOM     75  C   UNL     1     -20.417   1.423  -1.864  1.00  0.00     0.031 A 
BRANCH  62  76
ATOM     76  C   UNL     1     -22.413   3.466  -7.361  1.00  0.00    -0.014 A 
ATOM     77  C   UNL     1     -22.678   2.195  -7.903  1.00  0.00     0.009 A 
ATOM     78  C   UNL     1     -22.873   4.560  -8.116  1.00  0.00     0.009 A 
ATOM     79  C   UNL     1     -23.303   2.028  -9.146  1.00  0.00     0.001 A 
ATOM     80  C   UNL     1     -23.481   4.403  -9.371  1.00  0.00     0.001 A 
ATOM     81  C   UNL     1     -23.691   3.135  -9.889  1.00  0.00     0.000 A 
ENDBRANCH  62  76
BRANCH  63  82
ATOM     82  C   UNL     1     -15.335   4.399  -0.607  1.00  0.00    -0.014 A 
ATOM     83  C   UNL     1     -13.933   4.567  -0.682  1.00  0.00     0.009 A 
ATOM     84  C   UNL     1     -16.121   5.524  -0.318  1.00  0.00     0.009 A 
ATOM     85  C   UNL     1     -13.360   5.843  -0.675  1.00  0.00     0.001 A 
ATOM     86  C   UNL     1     -15.533   6.797  -0.274  1.00  0.00     0.001 A 
ATOM     87  C   UNL     1     -14.168   6.963  -0.515  1.00  0.00     0.000 A 
ENDBRANCH  63  82
BRANCH  75  88
ATOM     88  C   UNL     1     -21.633   0.868  -1.171  1.00  0.00    -0.014 A 
ATOM     89  C   UNL     1     -21.880   1.027   0.199  1.00  0.00     0.009 A 
ATOM     90  C   UNL     1     -22.662   0.283  -1.940  1.00  0.00     0.009 A 
ATOM     91  C   UNL     1     -23.055   0.546   0.785  1.00  0.00     0.001 A 
ATOM     92  C   UNL     1     -23.864  -0.136  -1.371  1.00  0.00     0.001 A 
ATOM     93  C   UNL     1     -24.049  -0.027  -0.001  1.00  0.00     0.000 A 
ENDBRANCH  75  88
ENDBRANCH  49  50
ENDBRANCH  41  44
ENDBRANCH  39  40
ENDBRANCH  38  39
ENDBRANCH   1  38
TORSDOF 14
