REMARK SMILES COc1ccc(-c2sc(N)nc2C(=O)NCCCCNC(=O)c2ccc(-c3c4nc(c(-c5ccccc5)c5ccc([nH]5)c(-c5ccccc5)c5nc(c(-c6ccccc6)c6ccc3[nH]6)C=C5)C=C4)cc2)cc1OC
REMARK SMILES IDX 17 1 16 2 15 3 13 4 14 5 12 7 7 8 8 9 9 10 11 11 6 12 3 13
REMARK SMILES IDX 4 14 72 15 5 16 71 17 2 18 1 19 73 20 74 21 10 22 18 25
REMARK SMILES IDX 19 26 20 27 21 28 22 30 23 31 24 32 70 33 25 34 69 35 26 36
REMARK SMILES IDX 27 37 28 38 63 39 29 40 68 41 62 42 64 43 30 44 67 45 61 46
REMARK SMILES IDX 60 47 31 49 53 50 38 51 52 52 39 53 42 54 51 55 65 56 40 57
REMARK SMILES IDX 41 58 50 60 66 61 43 62 32 63 33 64 37 65 34 66 36 67 35 68
REMARK SMILES IDX 54 69 55 70 59 71 56 72 58 73 57 74 44 75 45 76 49 77 46 78
REMARK SMILES IDX 48 79 47 80
REMARK H PARENT 15 6 10 23 10 24 20 29 64 48 42 59
REMARK Flexibility Score: inf
ROOT
ATOM      1  C   UNL     1       6.523   8.854  -1.788  1.00  0.00     0.023 C 
ENDROOT
BRANCH   1   2
ATOM      2  C   UNL     1       5.081   8.836  -2.289  1.00  0.00     0.116 C 
BRANCH   2   3
ATOM      3  N   UNL     1       4.625   7.489  -2.578  1.00  0.00    -0.351 N 
ATOM      4  C   UNL     1       3.660   6.695  -2.002  1.00  0.00     0.271 C 
ATOM      5  O   UNL     1       3.506   5.586  -2.523  1.00  0.00    -0.267 OA
ATOM      6  H   UNL     1       5.096   7.061  -3.330  1.00  0.00     0.163 HD
BRANCH   4   7
ATOM      7  C   UNL     1       2.861   7.149  -0.849  1.00  0.00     0.149 A 
ATOM      8  C   UNL     1       1.951   6.353  -0.151  1.00  0.00     0.069 A 
ATOM      9  S   UNL     1       1.185   7.284   1.080  1.00  0.00    -0.096 S 
ATOM     10  C   UNL     1       2.125   8.640   0.642  1.00  0.00     0.181 A 
ATOM     11  N   UNL     1       2.938   8.453  -0.359  1.00  0.00    -0.215 NA
BRANCH   8  12
ATOM     12  C   UNL     1       1.622   4.930  -0.277  1.00  0.00    -0.002 A 
ATOM     13  C   UNL     1       1.106   2.186  -0.636  1.00  0.00     0.160 A 
ATOM     14  C   UNL     1       0.081   3.130  -0.795  1.00  0.00     0.051 A 
ATOM     15  C   UNL     1       2.395   2.604  -0.289  1.00  0.00     0.161 A 
ATOM     16  C   UNL     1       0.335   4.495  -0.611  1.00  0.00     0.014 A 
ATOM     17  C   UNL     1       2.630   3.973  -0.100  1.00  0.00     0.060 A 
BRANCH  13  18
ATOM     18  O   UNL     1       0.833   0.887  -0.971  1.00  0.00    -0.493 OA
ATOM     19  C   UNL     1       0.129   0.201   0.063  1.00  0.00     0.278 C 
ENDBRANCH  13  18
BRANCH  15  20
ATOM     20  O   UNL     1       3.531   1.859  -0.131  1.00  0.00    -0.493 OA
ATOM     21  C   UNL     1       3.421   0.448  -0.072  1.00  0.00     0.278 C 
ENDBRANCH  15  20
ENDBRANCH   8  12
BRANCH  10  22
ATOM     22  N   UNL     1       2.037   9.810   1.282  1.00  0.00    -0.375 N 
ATOM     23  H   UNL     1       1.411   9.913   2.034  1.00  0.00     0.159 HD
ATOM     24  H   UNL     1       2.598  10.568   1.000  1.00  0.00     0.159 HD
ENDBRANCH  10  22
ENDBRANCH   4   7
ENDBRANCH   2   3
ENDBRANCH   1   2
BRANCH   1  25
ATOM     25  C   UNL     1       7.567   8.446  -2.829  1.00  0.00     0.023 C 
BRANCH  25  26
ATOM     26  C   UNL     1       7.523   9.226  -4.140  1.00  0.00     0.116 C 
BRANCH  26  27
ATOM     27  N   UNL     1       7.686  10.662  -3.960  1.00  0.00    -0.352 N 
ATOM     28  C   UNL     1       8.519  11.531  -4.624  1.00  0.00     0.251 C 
ATOM     29  H   UNL     1       7.120  11.068  -3.265  1.00  0.00     0.163 HD
ATOM     30  O   UNL     1       8.621  12.698  -4.260  1.00  0.00    -0.269 OA
BRANCH  28  31
ATOM     31  C   UNL     1       9.328  11.038  -5.758  1.00  0.00     0.039 A 
ATOM     32  C   UNL     1      10.700  11.302  -5.772  1.00  0.00     0.014 A 
ATOM     33  C   UNL     1       8.744  10.275  -6.773  1.00  0.00     0.014 A 
ATOM     34  C   UNL     1      11.503  10.716  -6.753  1.00  0.00     0.010 A 
ATOM     35  C   UNL     1       9.555   9.636  -7.706  1.00  0.00     0.010 A 
ATOM     36  C   UNL     1      10.945   9.833  -7.693  1.00  0.00    -0.014 A 
BRANCH  36  37
ATOM     37  C   UNL     1      11.801   9.067  -8.634  1.00  0.00     0.031 A 
ATOM     38  C   UNL     1      11.672   9.269 -10.118  1.00  0.00     0.074 A 
ATOM     39  C   UNL     1      12.646   8.133  -8.151  1.00  0.00     0.049 A 
ATOM     40  N   UNL     1      12.270   8.629 -11.091  1.00  0.00    -0.248 NA
ATOM     41  C   UNL     1      10.741  10.315 -10.569  1.00  0.00     0.031 C 
ATOM     42  C   UNL     1      12.846   7.819  -6.733  1.00  0.00     0.029 A 
ATOM     43  N   UNL     1      13.490   7.267  -8.801  1.00  0.00    -0.354 N 
ATOM     44  C   UNL     1      11.786   9.191 -12.265  1.00  0.00     0.074 A 
ATOM     45  C   UNL     1      10.808  10.188 -11.886  1.00  0.00     0.031 C 
ATOM     46  C   UNL     1      13.769   6.850  -6.622  1.00  0.00     0.029 A 
ATOM     47  C   UNL     1      14.187   6.436  -7.956  1.00  0.00     0.049 A 
ATOM     48  H   UNL     1      13.587   7.243  -9.780  1.00  0.00     0.167 HD
ATOM     49  C   UNL     1      12.140   8.917 -13.543  1.00  0.00     0.031 A 
ATOM     50  C   UNL     1      15.050   5.437  -8.224  1.00  0.00     0.031 A 
ATOM     51  C   UNL     1      13.108   7.923 -13.922  1.00  0.00     0.049 A 
ATOM     52  C   UNL     1      15.368   5.109  -9.658  1.00  0.00     0.074 A 
ATOM     53  C   UNL     1      13.555   7.598 -15.192  1.00  0.00     0.029 A 
ATOM     54  N   UNL     1      13.776   7.093 -13.037  1.00  0.00    -0.354 N 
ATOM     55  N   UNL     1      14.950   5.696 -10.753  1.00  0.00    -0.248 NA
ATOM     56  C   UNL     1      16.279   3.978  -9.892  1.00  0.00     0.031 C 
ATOM     57  C   UNL     1      14.451   6.531 -15.079  1.00  0.00     0.029 A 
ATOM     58  C   UNL     1      14.608   6.234 -13.736  1.00  0.00     0.049 A 
ATOM     59  H   UNL     1      13.674   7.110 -12.058  1.00  0.00     0.167 HD
ATOM     60  C   UNL     1      15.568   5.025 -11.801  1.00  0.00     0.074 A 
ATOM     61  C   UNL     1      16.409   4.005 -11.210  1.00  0.00     0.031 C 
ATOM     62  C   UNL     1      15.446   5.230 -13.134  1.00  0.00     0.031 A 
BRANCH  49  63
ATOM     63  C   UNL     1      11.479   9.710 -14.636  1.00  0.00    -0.014 A 
ATOM     64  C   UNL     1      11.790  11.065 -14.833  1.00  0.00     0.009 A 
ATOM     65  C   UNL     1      10.596   9.080 -15.526  1.00  0.00     0.009 A 
ATOM     66  C   UNL     1      11.212  11.778 -15.885  1.00  0.00     0.001 A 
ATOM     67  C   UNL     1      10.041   9.788 -16.594  1.00  0.00     0.001 A 
ATOM     68  C   UNL     1      10.345  11.137 -16.769  1.00  0.00     0.000 A 
ENDBRANCH  49  63
BRANCH  50  69
ATOM     69  C   UNL     1      15.667   4.649  -7.122  1.00  0.00    -0.014 A 
ATOM     70  C   UNL     1      17.052   4.702  -6.895  1.00  0.00     0.009 A 
ATOM     71  C   UNL     1      14.884   3.798  -6.326  1.00  0.00     0.009 A 
ATOM     72  C   UNL     1      17.643   3.887  -5.926  1.00  0.00     0.001 A 
ATOM     73  C   UNL     1      15.473   3.011  -5.334  1.00  0.00     0.001 A 
ATOM     74  C   UNL     1      16.854   3.044  -5.146  1.00  0.00     0.000 A 
ENDBRANCH  50  69
BRANCH  62  75
ATOM     75  C   UNL     1      16.263   4.358 -14.045  1.00  0.00    -0.014 A 
ATOM     76  C   UNL     1      15.948   3.003 -14.230  1.00  0.00     0.009 A 
ATOM     77  C   UNL     1      17.331   4.914 -14.767  1.00  0.00     0.009 A 
ATOM     78  C   UNL     1      16.707   2.215 -15.098  1.00  0.00     0.001 A 
ATOM     79  C   UNL     1      18.067   4.131 -15.658  1.00  0.00     0.001 A 
ATOM     80  C   UNL     1      17.759   2.781 -15.816  1.00  0.00     0.000 A 
ENDBRANCH  62  75
ENDBRANCH  36  37
ENDBRANCH  28  31
ENDBRANCH  26  27
ENDBRANCH  25  26
ENDBRANCH   1  25
TORSDOF 15
