REMARK SMILES O=C(CC1(C(=O)NCCCCNC(=O)c2ccc(-c3c4nc(c(-c5ccccc5)c5ccc([nH]5)c(-c5ccccc5)c5nc(c(-c6ccccc6)c6ccc3[nH]6)C=C5)C=C4)cc2)CCCCC1)Nc1ccc(N2CCOC2=O)cc1
REMARK SMILES IDX 8 1 7 2 5 3 6 4 4 6 63 7 67 8 64 9 66 10 65 11 3 12 2 13
REMARK SMILES IDX 1 14 68 15 69 17 70 18 80 19 71 20 79 21 72 22 73 23 74 24
REMARK SMILES IDX 77 25 75 26 76 27 78 28 9 29 10 30 11 31 12 32 13 33 14 35
REMARK SMILES IDX 15 36 16 37 62 38 17 39 61 40 18 41 19 42 20 43 55 44 21 45
REMARK SMILES IDX 60 46 54 47 56 48 22 49 59 50 53 51 52 52 23 54 45 55 30 56
REMARK SMILES IDX 44 57 31 58 34 59 43 60 57 61 32 62 33 63 42 65 58 66 35 67
REMARK SMILES IDX 24 68 25 69 29 70 26 71 28 72 27 73 46 74 47 75 51 76 48 77
REMARK SMILES IDX 50 78 49 79 36 80 37 81 41 82 38 83 40 84 39 85
REMARK H PARENT 7 5 68 16 12 34 56 53 34 64
REMARK Flexibility Score: inf
ROOT
ATOM      1  C   UNL     1       4.905  -2.628  -3.609  1.00  0.00     0.116 C 
ENDROOT
BRANCH   1   2
ATOM      2  N   UNL     1       3.688  -2.038  -3.123  1.00  0.00    -0.356 N 
ATOM      3  C   UNL     1       3.232  -1.743  -1.886  1.00  0.00     0.226 C 
ATOM      4  O   UNL     1       2.041  -1.411  -1.879  1.00  0.00    -0.274 OA
ATOM      5  H   UNL     1       3.056  -1.800  -3.840  1.00  0.00     0.163 HD
BRANCH   3   6
ATOM      6  C   UNL     1       4.051  -1.804  -0.560  1.00  0.00     0.058 C 
ATOM      7  C   UNL     1       5.393  -1.026  -0.538  1.00  0.00     0.017 C 
ATOM      8  C   UNL     1       4.251  -3.271  -0.094  1.00  0.00     0.017 C 
ATOM      9  C   UNL     1       6.685  -1.750  -0.916  1.00  0.00     0.001 C 
ATOM     10  C   UNL     1       5.467  -4.018  -0.613  1.00  0.00     0.001 C 
ATOM     11  C   UNL     1       6.766  -3.227  -0.545  1.00  0.00     0.000 C 
BRANCH   6  12
ATOM     12  C   UNL     1       3.122  -1.169   0.558  1.00  0.00     0.117 C 
BRANCH  12  13
ATOM     13  C   UNL     1       2.320   0.128   0.377  1.00  0.00     0.225 C 
ATOM     14  O   UNL     1       1.306   0.282   1.059  1.00  0.00    -0.275 OA
ATOM     15  N   UNL     1       2.833   1.063  -0.494  1.00  0.00    -0.326 N 
ATOM     16  H   UNL     1       3.689   0.843  -0.928  1.00  0.00     0.169 HD
BRANCH  15  17
ATOM     17  C   UNL     1       2.254   2.307  -0.827  1.00  0.00     0.041 A 
ATOM     18  C   UNL     1       2.687   2.915  -2.011  1.00  0.00     0.028 A 
ATOM     19  C   UNL     1       1.263   2.936  -0.073  1.00  0.00     0.028 A 
ATOM     20  C   UNL     1       2.060   4.071  -2.488  1.00  0.00     0.028 A 
ATOM     21  C   UNL     1       0.689   4.135  -0.511  1.00  0.00     0.028 A 
ATOM     22  C   UNL     1       1.052   4.684  -1.741  1.00  0.00     0.047 A 
BRANCH  22  23
ATOM     23  N   UNL     1       0.360   5.795  -2.249  1.00  0.00    -0.274 N 
ATOM     24  C   UNL     1      -0.056   5.899  -3.610  1.00  0.00     0.171 C 
ATOM     25  C   UNL     1      -0.062   6.894  -1.533  1.00  0.00     0.414 C 
ATOM     26  C   UNL     1      -1.114   6.971  -3.530  1.00  0.00     0.257 C 
ATOM     27  O   UNL     1      -0.804   7.711  -2.346  1.00  0.00    -0.447 OA
ATOM     28  O   UNL     1       0.193   7.177  -0.368  1.00  0.00    -0.224 OA
ENDBRANCH  22  23
ENDBRANCH  15  17
ENDBRANCH  12  13
ENDBRANCH   6  12
ENDBRANCH   3   6
ENDBRANCH   1   2
BRANCH   1  29
ATOM     29  C   UNL     1       4.686  -4.024  -4.184  1.00  0.00     0.023 C 
BRANCH  29  30
ATOM     30  C   UNL     1       4.316  -4.042  -5.658  1.00  0.00     0.023 C 
BRANCH  30  31
ATOM     31  C   UNL     1       5.299  -3.317  -6.565  1.00  0.00     0.116 C 
BRANCH  31  32
ATOM     32  N   UNL     1       6.677  -3.781  -6.440  1.00  0.00    -0.352 N 
ATOM     33  C   UNL     1       7.583  -4.007  -7.452  1.00  0.00     0.251 C 
ATOM     34  H   UNL     1       6.996  -3.952  -5.525  1.00  0.00     0.163 HD
ATOM     35  O   UNL     1       8.688  -4.484  -7.228  1.00  0.00    -0.269 OA
BRANCH  33  36
ATOM     36  C   UNL     1       7.159  -3.698  -8.829  1.00  0.00     0.039 A 
ATOM     37  C   UNL     1       7.155  -4.716  -9.782  1.00  0.00     0.014 A 
ATOM     38  C   UNL     1       6.611  -2.444  -9.111  1.00  0.00     0.014 A 
ATOM     39  C   UNL     1       6.513  -4.501 -11.001  1.00  0.00     0.010 A 
ATOM     40  C   UNL     1       5.883  -2.272 -10.278  1.00  0.00     0.010 A 
ATOM     41  C   UNL     1       5.825  -3.297 -11.236  1.00  0.00    -0.014 A 
BRANCH  41  42
ATOM     42  C   UNL     1       5.038  -3.085 -12.476  1.00  0.00     0.031 A 
ATOM     43  C   UNL     1       5.402  -1.960 -13.404  1.00  0.00     0.074 A 
ATOM     44  C   UNL     1       3.958  -3.851 -12.728  1.00  0.00     0.049 A 
ATOM     45  N   UNL     1       4.803  -1.567 -14.498  1.00  0.00    -0.248 NA
ATOM     46  C   UNL     1       6.575  -1.148 -13.038  1.00  0.00     0.031 C 
ATOM     47  C   UNL     1       3.469  -4.941 -11.880  1.00  0.00     0.029 A 
ATOM     48  N   UNL     1       3.070  -3.824 -13.775  1.00  0.00    -0.354 N 
ATOM     49  C   UNL     1       5.511  -0.455 -14.934  1.00  0.00     0.074 A 
ATOM     50  C   UNL     1       6.543  -0.196 -13.957  1.00  0.00     0.031 C 
ATOM     51  C   UNL     1       2.393  -5.500 -12.458  1.00  0.00     0.029 A 
ATOM     52  C   UNL     1       2.086  -4.781 -13.690  1.00  0.00     0.049 A 
ATOM     53  H   UNL     1       3.131  -3.180 -14.517  1.00  0.00     0.167 HD
ATOM     54  C   UNL     1       5.337   0.272 -16.062  1.00  0.00     0.031 A 
ATOM     55  C   UNL     1       1.049  -5.043 -14.508  1.00  0.00     0.031 A 
ATOM     56  C   UNL     1       4.320   0.004 -17.042  1.00  0.00     0.049 A 
ATOM     57  C   UNL     1       0.867  -4.210 -15.748  1.00  0.00     0.074 A 
ATOM     58  C   UNL     1       4.102   0.640 -18.251  1.00  0.00     0.029 A 
ATOM     59  N   UNL     1       3.350  -0.979 -16.922  1.00  0.00    -0.354 N 
ATOM     60  N   UNL     1       1.597  -3.214 -16.188  1.00  0.00    -0.248 NA
ATOM     61  C   UNL     1      -0.276  -4.545 -16.609  1.00  0.00     0.031 C 
ATOM     62  C   UNL     1       2.958   0.085 -18.833  1.00  0.00     0.029 A 
ATOM     63  C   UNL     1       2.509  -0.944 -18.020  1.00  0.00     0.049 A 
ATOM     64  H   UNL     1       3.272  -1.608 -16.169  1.00  0.00     0.167 HD
ATOM     65  C   UNL     1       1.020  -2.824 -17.390  1.00  0.00     0.074 A 
ATOM     66  C   UNL     1      -0.108  -3.703 -17.618  1.00  0.00     0.031 C 
ATOM     67  C   UNL     1       1.390  -1.827 -18.231  1.00  0.00     0.031 A 
BRANCH  54  68
ATOM     68  C   UNL     1       6.264   1.435 -16.288  1.00  0.00    -0.014 A 
ATOM     69  C   UNL     1       7.628   1.240 -16.559  1.00  0.00     0.009 A 
ATOM     70  C   UNL     1       5.758   2.743 -16.262  1.00  0.00     0.009 A 
ATOM     71  C   UNL     1       8.473   2.333 -16.759  1.00  0.00     0.001 A 
ATOM     72  C   UNL     1       6.598   3.833 -16.496  1.00  0.00     0.001 A 
ATOM     73  C   UNL     1       7.957   3.628 -16.733  1.00  0.00     0.000 A 
ENDBRANCH  54  68
BRANCH  55  74
ATOM     74  C   UNL     1       0.102  -6.147 -14.190  1.00  0.00    -0.014 A 
ATOM     75  C   UNL     1       0.050  -7.298 -14.991  1.00  0.00     0.009 A 
ATOM     76  C   UNL     1      -0.768  -6.047 -13.093  1.00  0.00     0.009 A 
ATOM     77  C   UNL     1      -0.875  -8.310 -14.720  1.00  0.00     0.001 A 
ATOM     78  C   UNL     1      -1.669  -7.075 -12.805  1.00  0.00     0.001 A 
ATOM     79  C   UNL     1      -1.730  -8.200 -13.625  1.00  0.00     0.000 A 
ENDBRANCH  55  74
BRANCH  67  80
ATOM     80  C   UNL     1       0.593  -1.655 -19.494  1.00  0.00    -0.014 A 
ATOM     81  C   UNL     1      -0.717  -1.153 -19.470  1.00  0.00     0.009 A 
ATOM     82  C   UNL     1       1.186  -1.951 -20.732  1.00  0.00     0.009 A 
ATOM     83  C   UNL     1      -1.428  -0.982 -20.659  1.00  0.00     0.001 A 
ATOM     84  C   UNL     1       0.485  -1.747 -21.920  1.00  0.00     0.001 A 
ATOM     85  C   UNL     1      -0.825  -1.272 -21.883  1.00  0.00     0.000 A 
ENDBRANCH  67  80
ENDBRANCH  41  42
ENDBRANCH  33  36
ENDBRANCH  31  32
ENDBRANCH  30  31
ENDBRANCH  29  30
ENDBRANCH   1  29
TORSDOF 15
