REMARK SMILES CC[C@@H](C)[C@@H](NC(=O)Cn1nc(-c2ccc3ccccc3c2)ccc1=O)C(=O)NCCCCNC(=O)c1ccc(-c2c3nc(c(-c4ccccc4)c4ccc([nH]4)c(-c4ccccc4)c4nc(c(-c5ccccc5)c5ccc2[nH]5)C=C4)C=C3)cc1
REMARK SMILES IDX 30 1 29 2 27 3 28 4 5 6 3 7 4 8 2 9 1 10 6 11 7 12 8 14 9 15
REMARK SMILES IDX 10 16 11 17 25 18 12 19 24 20 26 21 23 22 13 23 14 24 22 25
REMARK SMILES IDX 15 26 21 27 16 28 20 29 17 30 19 31 18 32 31 33 32 34 33 35
REMARK SMILES IDX 34 36 35 37 36 39 37 40 38 41 84 42 39 43 83 44 40 45 41 46
REMARK SMILES IDX 42 47 77 48 43 49 82 50 76 51 78 52 44 53 81 54 75 55 74 56
REMARK SMILES IDX 45 58 67 59 52 60 66 61 53 62 56 63 65 64 79 65 54 66 55 67
REMARK SMILES IDX 64 69 80 70 57 71 46 72 47 73 51 74 48 75 50 76 49 77 68 78
REMARK SMILES IDX 69 79 73 80 70 81 72 82 71 83 58 84 59 85 63 86 60 87 62 88
REMARK SMILES IDX 61 89
REMARK H PARENT 29 5 6 13 34 38 78 57 56 68
REMARK Flexibility Score: inf
ROOT
ATOM      1  C   UNL     1       3.881  -4.616  -1.657  1.00  0.00     0.116 C 
ENDROOT
BRANCH   1   2
ATOM      2  N   UNL     1       1.888  -4.359  -1.100  1.00  0.00    -0.354 N 
ATOM      3  C   UNL     1       0.630  -3.794  -1.348  1.00  0.00     0.242 C 
ATOM      4  O   UNL     1      -0.243  -4.388  -0.679  1.00  0.00    -0.273 OA
ATOM      5  H   UNL     1       1.780  -4.880  -0.272  1.00  0.00     0.163 HD
BRANCH   3   6
ATOM      6  C   UNL     1       0.169  -2.515  -2.143  1.00  0.00     0.174 C 
BRANCH   6   7
ATOM      7  C   UNL     1       0.101  -1.297  -1.131  1.00  0.00     0.018 C 
ATOM      8  C   UNL     1      -0.505  -1.688   0.233  1.00  0.00     0.010 C 
BRANCH   7   9
ATOM      9  C   UNL     1      -0.691  -0.083  -1.684  1.00  0.00     0.002 C 
ATOM     10  C   UNL     1      -0.440   1.198  -0.889  1.00  0.00     0.004 C 
ENDBRANCH   7   9
ENDBRANCH   6   7
BRANCH   6  11
ATOM     11  N   UNL     1       0.775  -2.080  -3.416  1.00  0.00    -0.342 N 
ATOM     12  C   UNL     1       1.207  -2.833  -4.465  1.00  0.00     0.242 C 
ATOM     13  H   UNL     1       0.882  -1.107  -3.522  1.00  0.00     0.164 HD
ATOM     14  O   UNL     1       1.099  -2.360  -5.600  1.00  0.00    -0.273 OA
BRANCH  12  15
ATOM     15  C   UNL     1       1.719  -4.240  -4.253  1.00  0.00     0.248 C 
BRANCH  15  16
ATOM     16  N   UNL     1       2.352  -4.391  -2.967  1.00  0.00    -0.220 N 
ATOM     17  N   UNL     1       2.873  -2.873  -2.014  1.00  0.00    -0.169 NA
ATOM     18  C   UNL     1       2.298  -5.991  -2.158  1.00  0.00     0.267 A 
ATOM     19  C   UNL     1       3.162  -2.984  -0.513  1.00  0.00     0.091 A 
ATOM     20  C   UNL     1       2.910  -5.993  -0.303  1.00  0.00     0.075 A 
ATOM     21  O   UNL     1       1.954  -7.022  -2.725  1.00  0.00    -0.268 OA
ATOM     22  C   UNL     1       3.206  -4.685   0.436  1.00  0.00     0.036 A 
BRANCH  19  23
ATOM     23  C   UNL     1       3.537  -1.794   0.287  1.00  0.00     0.003 A 
ATOM     24  C   UNL     1       3.142  -1.645   1.612  1.00  0.00     0.011 A 
ATOM     25  C   UNL     1       4.324  -0.817  -0.334  1.00  0.00     0.019 A 
ATOM     26  C   UNL     1       3.565  -0.520   2.327  1.00  0.00     0.009 A 
ATOM     27  C   UNL     1       4.804   0.280   0.391  1.00  0.00    -0.018 A 
ATOM     28  C   UNL     1       4.414   0.438   1.739  1.00  0.00    -0.018 A 
ATOM     29  C   UNL     1       5.680   1.208  -0.194  1.00  0.00     0.009 A 
ATOM     30  C   UNL     1       4.896   1.543   2.459  1.00  0.00     0.009 A 
ATOM     31  C   UNL     1       6.169   2.285   0.544  1.00  0.00     0.001 A 
ATOM     32  C   UNL     1       5.772   2.457   1.866  1.00  0.00     0.001 A 
ENDBRANCH  19  23
ENDBRANCH  15  16
ENDBRANCH  12  15
ENDBRANCH   6  11
ENDBRANCH   3   6
ENDBRANCH   1   2
BRANCH   1  33
ATOM     33  C   UNL     1       5.328  -4.133  -0.907  1.00  0.00     0.023 C 
BRANCH  33  34
ATOM     34  C   UNL     1       6.546  -4.896  -1.469  1.00  0.00     0.023 C 
BRANCH  34  35
ATOM     35  C   UNL     1       6.895  -4.504  -2.906  1.00  0.00     0.116 C 
BRANCH  35  36
ATOM     36  N   UNL     1       8.216  -3.909  -3.028  1.00  0.00    -0.352 N 
ATOM     37  C   UNL     1       9.470  -4.418  -2.798  1.00  0.00     0.251 C 
ATOM     38  H   UNL     1       8.211  -2.971  -3.330  1.00  0.00     0.163 HD
ATOM     39  O   UNL     1      10.441  -3.667  -2.846  1.00  0.00    -0.269 OA
BRANCH  37  40
ATOM     40  C   UNL     1       9.674  -5.842  -2.441  1.00  0.00     0.039 A 
ATOM     41  C   UNL     1       8.983  -6.869  -3.080  1.00  0.00     0.014 A 
ATOM     42  C   UNL     1      10.636  -6.159  -1.471  1.00  0.00     0.014 A 
ATOM     43  C   UNL     1       9.161  -8.188  -2.671  1.00  0.00     0.010 A 
ATOM     44  C   UNL     1      10.873  -7.493  -1.116  1.00  0.00     0.010 A 
ATOM     45  C   UNL     1      10.118  -8.520  -1.696  1.00  0.00    -0.014 A 
BRANCH  45  46
ATOM     46  C   UNL     1      10.316  -9.949  -1.337  1.00  0.00     0.031 A 
ATOM     47  C   UNL     1       9.983 -10.462   0.037  1.00  0.00     0.074 A 
ATOM     48  C   UNL     1      10.704 -10.817  -2.294  1.00  0.00     0.049 A 
ATOM     49  N   UNL     1      10.040 -11.690   0.489  1.00  0.00    -0.248 NA
ATOM     50  C   UNL     1       9.535  -9.477   1.034  1.00  0.00     0.031 C 
ATOM     51  C   UNL     1      11.044 -10.456  -3.672  1.00  0.00     0.029 A 
ATOM     52  N   UNL     1      10.796 -12.186  -2.276  1.00  0.00    -0.354 N 
ATOM     53  C   UNL     1       9.690 -11.619   1.830  1.00  0.00     0.074 A 
ATOM     54  C   UNL     1       9.401 -10.230   2.118  1.00  0.00     0.031 C 
ATOM     55  C   UNL     1      11.164 -11.577  -4.399  1.00  0.00     0.029 A 
ATOM     56  C   UNL     1      10.979 -12.730  -3.525  1.00  0.00     0.049 A 
ATOM     57  H   UNL     1      10.736 -12.723  -1.454  1.00  0.00     0.167 HD
ATOM     58  C   UNL     1       9.628 -12.617   2.743  1.00  0.00     0.031 A 
ATOM     59  C   UNL     1      10.971 -14.013  -3.930  1.00  0.00     0.031 A 
ATOM     60  C   UNL     1       9.879 -14.004   2.459  1.00  0.00     0.049 A 
ATOM     61  C   UNL     1      10.838 -15.106  -2.917  1.00  0.00     0.074 A 
ATOM     62  C   UNL     1       9.892 -15.077   3.334  1.00  0.00     0.029 A 
ATOM     63  N   UNL     1      10.134 -14.512   1.197  1.00  0.00    -0.354 N 
ATOM     64  N   UNL     1      10.610 -15.010  -1.631  1.00  0.00    -0.248 NA
ATOM     65  C   UNL     1      11.006 -16.483  -3.405  1.00  0.00     0.031 C 
ATOM     66  C   UNL     1      10.165 -16.238   2.599  1.00  0.00     0.029 A 
ATOM     67  C   UNL     1      10.301 -15.885   1.267  1.00  0.00     0.049 A 
ATOM     68  H   UNL     1      10.189 -13.977   0.372  1.00  0.00     0.167 HD
ATOM     69  C   UNL     1      10.657 -16.308  -1.146  1.00  0.00     0.074 A 
ATOM     70  C   UNL     1      10.880 -17.179  -2.283  1.00  0.00     0.031 C 
ATOM     71  C   UNL     1      10.556 -16.733   0.135  1.00  0.00     0.031 A 
BRANCH  58  72
ATOM     72  C   UNL     1       9.316 -12.234   4.158  1.00  0.00    -0.014 A 
ATOM     73  C   UNL     1      10.360 -12.112   5.088  1.00  0.00     0.009 A 
ATOM     74  C   UNL     1       7.994 -12.037   4.582  1.00  0.00     0.009 A 
ATOM     75  C   UNL     1      10.087 -11.797   6.420  1.00  0.00     0.001 A 
ATOM     76  C   UNL     1       7.725 -11.709   5.913  1.00  0.00     0.001 A 
ATOM     77  C   UNL     1       8.771 -11.592   6.830  1.00  0.00     0.000 A 
ENDBRANCH  58  72
BRANCH  59  78
ATOM     78  C   UNL     1      11.073 -14.322  -5.376  1.00  0.00    -0.014 A 
ATOM     79  C   UNL     1      12.301 -14.239  -6.048  1.00  0.00     0.009 A 
ATOM     80  C   UNL     1       9.918 -14.656  -6.097  1.00  0.00     0.009 A 
ATOM     81  C   UNL     1      12.366 -14.467  -7.423  1.00  0.00     0.001 A 
ATOM     82  C   UNL     1       9.989 -14.898  -7.470  1.00  0.00     0.001 A 
ATOM     83  C   UNL     1      11.212 -14.797  -8.133  1.00  0.00     0.000 A 
ENDBRANCH  59  78
BRANCH  71  84
ATOM     84  C   UNL     1      10.752 -18.197   0.380  1.00  0.00    -0.014 A 
ATOM     85  C   UNL     1       9.651 -19.045   0.556  1.00  0.00     0.009 A 
ATOM     86  C   UNL     1      12.050 -18.723   0.474  1.00  0.00     0.009 A 
ATOM     87  C   UNL     1       9.848 -20.403   0.815  1.00  0.00     0.001 A 
ATOM     88  C   UNL     1      12.242 -20.081   0.725  1.00  0.00     0.001 A 
ATOM     89  C   UNL     1      11.141 -20.920   0.896  1.00  0.00     0.000 A 
ENDBRANCH  71  84
ENDBRANCH  45  46
ENDBRANCH  37  40
ENDBRANCH  35  36
ENDBRANCH  34  35
ENDBRANCH  33  34
ENDBRANCH   1  33
TORSDOF 17
