REMARK SMILES Cc1ccc(S(=O)(=O)n2cc(C(=O)C(=O)NCC(=O)N[C@@H](Cc3c[nH]c4ccccc34)C(=O)NCCCCNC(=O)c3ccc(-c4c5nc(c(-c6ccccc6)c6ccc([nH]6)c(-c6ccccc6)c6nc(c(-c7ccccc7)c7ccc4[nH]7)C=C6)C=C5)cc3)c3ccccc32)cc1
REMARK SMILES IDX 32 1 33 2 34 3 21 5 20 6 18 7 19 8 17 10 16 11 14 12 15 13
REMARK SMILES IDX 12 15 13 16 11 17 9 18 10 19 95 20 90 21 94 22 91 23 93 24
REMARK SMILES IDX 92 25 6 26 7 27 8 28 5 29 1 30 2 31 3 32 97 33 4 34 96 35
REMARK SMILES IDX 22 36 23 37 24 38 31 39 25 40 26 41 30 42 27 44 29 45 28 46
REMARK SMILES IDX 35 47 36 48 37 49 38 50 39 51 40 52 41 54 42 55 43 56 89 57
REMARK SMILES IDX 44 58 88 59 45 60 46 61 47 62 82 63 48 64 87 65 81 66 83 67
REMARK SMILES IDX 49 68 86 69 80 70 79 71 50 73 72 74 57 75 71 76 58 77 61 78
REMARK SMILES IDX 70 79 84 80 59 81 60 82 69 84 85 85 62 86 51 87 52 88 56 89
REMARK SMILES IDX 53 90 55 91 54 92 73 93 74 94 78 95 75 96 77 97 76 98 63 99
REMARK SMILES IDX 64 100 68 101 65 102 67 103 66 104
REMARK H PARENT 34 4 20 9 16 14 25 43 39 53 83 72 61 83
REMARK Flexibility Score: inf
ROOT
ATOM      1  C   UNL     1      -9.729   0.327   3.260  1.00  0.00     0.242 C 
ATOM      2  O   UNL     1      -8.799  -0.477   3.117  1.00  0.00    -0.273 OA
ATOM      3  N   UNL     1     -10.729  -0.055   4.106  1.00  0.00    -0.354 N 
ATOM      4  H   UNL     1     -10.851  -1.029   4.187  1.00  0.00     0.163 HD
ENDROOT
BRANCH   1   5
ATOM      5  C   UNL     1      -9.649   1.704   2.559  1.00  0.00     0.175 C 
BRANCH   5   6
ATOM      6  N   UNL     1     -10.935   2.235   2.096  1.00  0.00    -0.342 N 
ATOM      7  C   UNL     1     -11.426   2.232   0.819  1.00  0.00     0.240 C 
ATOM      8  O   UNL     1     -12.637   2.381   0.656  1.00  0.00    -0.273 OA
ATOM      9  H   UNL     1     -11.511   2.641   2.784  1.00  0.00     0.164 HD
BRANCH   7  10
ATOM     10  C   UNL     1     -10.469   1.992  -0.364  1.00  0.00     0.216 C 
BRANCH  10  11
ATOM     11  N   UNL     1      -9.364   2.957  -0.318  1.00  0.00    -0.340 N 
ATOM     12  C   UNL     1      -8.027   2.762  -0.617  1.00  0.00     0.292 C 
ATOM     13  O   UNL     1      -7.201   3.643  -0.409  1.00  0.00    -0.265 OA
ATOM     14  H   UNL     1      -9.607   3.868  -0.036  1.00  0.00     0.164 HD
BRANCH  12  15
ATOM     15  C   UNL     1      -7.580   1.418  -1.202  1.00  0.00     0.252 C 
ATOM     16  O   UNL     1      -8.246   0.988  -2.144  1.00  0.00    -0.283 OA
BRANCH  15  17
ATOM     17  C   UNL     1      -6.530   0.614  -0.559  1.00  0.00     0.054 A 
ATOM     18  N   UNL     1      -4.663  -0.164   0.455  1.00  0.00    -0.240 N 
ATOM     19  C   UNL     1      -5.244   0.962  -0.125  1.00  0.00     0.117 A 
ATOM     20  C   UNL     1      -5.663  -1.144   0.572  1.00  0.00     0.065 A 
ATOM     21  C   UNL     1      -6.650  -0.793  -0.344  1.00  0.00     0.012 A 
ATOM     22  C   UNL     1      -5.633  -2.419   1.171  1.00  0.00     0.028 A 
ATOM     23  C   UNL     1      -7.520  -1.800  -0.814  1.00  0.00     0.011 A 
ATOM     24  C   UNL     1      -6.449  -3.412   0.634  1.00  0.00     0.002 A 
ATOM     25  C   UNL     1      -7.353  -3.117  -0.375  1.00  0.00     0.001 A 
BRANCH  18  26
ATOM     26  S   UNL     1      -3.135  -0.883   0.022  1.00  0.00     0.268 S 
ATOM     27  O   UNL     1      -3.377  -1.371  -1.326  1.00  0.00    -0.201 OA
ATOM     28  O   UNL     1      -2.902  -1.806   1.126  1.00  0.00    -0.201 OA
BRANCH  26  29
ATOM     29  C   UNL     1      -1.583  -0.070  -0.071  1.00  0.00     0.088 A 
ATOM     30  C   UNL     1       2.621   0.919  -0.045  1.00  0.00     0.044 C 
ATOM     31  C   UNL     1       1.150   0.623  -0.101  1.00  0.00    -0.051 A 
ATOM     32  C   UNL     1       0.777  -0.692  -0.339  1.00  0.00     0.005 A 
ATOM     33  C   UNL     1       0.143   1.589   0.129  1.00  0.00     0.005 A 
ATOM     34  C   UNL     1      -0.565  -1.022  -0.335  1.00  0.00     0.022 A 
ATOM     35  C   UNL     1      -1.235   1.250   0.151  1.00  0.00     0.022 A 
ENDBRANCH  26  29
ENDBRANCH  18  26
ENDBRANCH  15  17
ENDBRANCH  12  15
ENDBRANCH  10  11
ENDBRANCH   7  10
ENDBRANCH   5   6
BRANCH   5  36
ATOM     36  C   UNL     1      -8.757   2.744   3.261  1.00  0.00     0.072 C 
BRANCH  36  37
ATOM     37  C   UNL     1      -9.153   3.089   4.658  1.00  0.00    -0.020 A 
ATOM     38  C   UNL     1      -8.910   2.314   5.777  1.00  0.00     0.087 A 
ATOM     39  C   UNL     1      -9.807   4.277   5.115  1.00  0.00     0.003 A 
ATOM     40  N   UNL     1      -9.509   2.908   6.853  1.00  0.00    -0.361 N 
ATOM     41  C   UNL     1     -10.120   4.073   6.457  1.00  0.00     0.046 A 
ATOM     42  C   UNL     1     -10.188   5.500   4.523  1.00  0.00     0.010 A 
ATOM     43  H   UNL     1      -9.504   2.554   7.771  1.00  0.00     0.166 HD
ATOM     44  C   UNL     1     -10.892   4.967   7.200  1.00  0.00     0.026 A 
ATOM     45  C   UNL     1     -10.887   6.447   5.284  1.00  0.00     0.001 A 
ATOM     46  C   UNL     1     -11.261   6.168   6.595  1.00  0.00     0.002 A 
ENDBRANCH  36  37
ENDBRANCH   5  36
ENDBRANCH   1   5
BRANCH   3  47
ATOM     47  C   UNL     1     -11.644   0.741   4.907  1.00  0.00     0.116 C 
BRANCH  47  48
ATOM     48  C   UNL     1     -13.038   0.129   5.054  1.00  0.00     0.023 C 
BRANCH  48  49
ATOM     49  C   UNL     1     -13.112  -1.155   5.888  1.00  0.00     0.023 C 
BRANCH  49  50
ATOM     50  C   UNL     1     -12.674  -1.014   7.341  1.00  0.00     0.116 C 
BRANCH  50  51
ATOM     51  N   UNL     1     -13.625  -0.368   8.222  1.00  0.00    -0.352 N 
ATOM     52  C   UNL     1     -13.556  -0.082   9.587  1.00  0.00     0.251 C 
ATOM     53  H   UNL     1     -14.460  -0.082   7.785  1.00  0.00     0.163 HD
ATOM     54  O   UNL     1     -14.535   0.347  10.143  1.00  0.00    -0.269 OA
BRANCH  52  55
ATOM     55  C   UNL     1     -12.255  -0.150  10.326  1.00  0.00     0.039 A 
ATOM     56  C   UNL     1     -12.107   0.692  11.444  1.00  0.00     0.014 A 
ATOM     57  C   UNL     1     -11.144  -0.833   9.851  1.00  0.00     0.014 A 
ATOM     58  C   UNL     1     -10.833   1.048  11.885  1.00  0.00     0.010 A 
ATOM     59  C   UNL     1      -9.886  -0.394  10.192  1.00  0.00     0.010 A 
ATOM     60  C   UNL     1      -9.740   0.603  11.153  1.00  0.00    -0.014 A 
BRANCH  60  61
ATOM     61  C   UNL     1      -8.415   1.197  11.204  1.00  0.00     0.031 A 
ATOM     62  C   UNL     1      -7.311   0.479  11.866  1.00  0.00     0.074 A 
ATOM     63  C   UNL     1      -8.202   2.299  10.451  1.00  0.00     0.049 A 
ATOM     64  N   UNL     1      -6.195   1.020  12.210  1.00  0.00    -0.248 NA
ATOM     65  C   UNL     1      -7.412  -0.929  12.242  1.00  0.00     0.031 C 
ATOM     66  C   UNL     1      -6.922   2.851  10.019  1.00  0.00     0.029 A 
ATOM     67  N   UNL     1      -9.134   3.278  10.084  1.00  0.00    -0.354 N 
ATOM     68  C   UNL     1      -5.344   0.004  12.589  1.00  0.00     0.074 A 
ATOM     69  C   UNL     1      -6.169  -1.177  12.664  1.00  0.00     0.031 C 
ATOM     70  C   UNL     1      -7.094   4.153   9.732  1.00  0.00     0.029 A 
ATOM     71  C   UNL     1      -8.446   4.502  10.144  1.00  0.00     0.049 A 
ATOM     72  H   UNL     1     -10.077   3.138   9.836  1.00  0.00     0.167 HD
ATOM     73  C   UNL     1      -4.006   0.248  12.670  1.00  0.00     0.031 A 
ATOM     74  C   UNL     1      -8.753   5.492  11.035  1.00  0.00     0.031 A 
ATOM     75  C   UNL     1      -3.712   1.653  12.416  1.00  0.00     0.049 A 
ATOM     76  C   UNL     1      -7.591   5.838  11.940  1.00  0.00     0.074 A 
ATOM     77  C   UNL     1      -3.323   2.336  11.275  1.00  0.00     0.029 A 
ATOM     78  N   UNL     1      -4.142   2.608  13.326  1.00  0.00    -0.354 N 
ATOM     79  N   UNL     1      -6.602   5.026  12.193  1.00  0.00    -0.248 NA
ATOM     80  C   UNL     1      -7.480   7.103  12.661  1.00  0.00     0.031 C 
ATOM     81  C   UNL     1      -3.628   3.710  11.470  1.00  0.00     0.029 A 
ATOM     82  C   UNL     1      -4.154   3.859  12.742  1.00  0.00     0.049 A 
ATOM     83  H   UNL     1      -4.402   2.420  14.257  1.00  0.00     0.167 HD
ATOM     84  C   UNL     1      -5.734   5.630  13.062  1.00  0.00     0.074 A 
ATOM     85  C   UNL     1      -6.330   6.925  13.333  1.00  0.00     0.031 C 
ATOM     86  C   UNL     1      -4.598   5.016  13.501  1.00  0.00     0.031 A 
BRANCH  73  87
ATOM     87  C   UNL     1      -2.951  -0.830  12.704  1.00  0.00    -0.014 A 
ATOM     88  C   UNL     1      -1.668  -0.553  12.194  1.00  0.00     0.009 A 
ATOM     89  C   UNL     1      -3.157  -2.139  13.170  1.00  0.00     0.009 A 
ATOM     90  C   UNL     1      -0.683  -1.543  12.076  1.00  0.00     0.001 A 
ATOM     91  C   UNL     1      -2.190  -3.144  13.022  1.00  0.00     0.001 A 
ATOM     92  C   UNL     1      -0.954  -2.847  12.466  1.00  0.00     0.000 A 
ENDBRANCH  73  87
BRANCH  74  93
ATOM     93  C   UNL     1     -10.174   5.530  11.478  1.00  0.00    -0.014 A 
ATOM     94  C   UNL     1     -11.141   6.042  10.598  1.00  0.00     0.009 A 
ATOM     95  C   UNL     1     -10.603   4.739  12.555  1.00  0.00     0.009 A 
ATOM     96  C   UNL     1     -12.482   5.654  10.703  1.00  0.00     0.001 A 
ATOM     97  C   UNL     1     -11.948   4.362  12.664  1.00  0.00     0.001 A 
ATOM     98  C   UNL     1     -12.877   4.784  11.715  1.00  0.00     0.000 A 
ENDBRANCH  74  93
BRANCH  86  99
ATOM     99  C   UNL     1      -3.758   5.471  14.665  1.00  0.00    -0.014 A 
ATOM    100  C   UNL     1      -4.259   6.218  15.739  1.00  0.00     0.009 A 
ATOM    101  C   UNL     1      -2.438   4.984  14.785  1.00  0.00     0.009 A 
ATOM    102  C   UNL     1      -3.468   6.495  16.861  1.00  0.00     0.001 A 
ATOM    103  C   UNL     1      -1.664   5.216  15.923  1.00  0.00     0.001 A 
ATOM    104  C   UNL     1      -2.177   5.983  16.959  1.00  0.00     0.000 A 
ENDBRANCH  86  99
ENDBRANCH  60  61
ENDBRANCH  52  55
ENDBRANCH  50  51
ENDBRANCH  49  50
ENDBRANCH  48  49
ENDBRANCH  47  48
ENDBRANCH   3  47
TORSDOF 20
