REMARK SMILES O=C(C[NH2+]Cc1cccs1)NCCCCNC(=O)c1ccc(-c2c3nc(c(-c4ccccc4)c4ccc([nH]4)c(-c4ccccc4)c4nc(c(-c5ccccc5)c5ccc2[nH]5)C=C4)C=C3)cc1
REMARK SMILES IDX 13 1 12 2 11 3 1 4 2 5 3 7 4 8 5 11 6 12 7 13 10 14 8 15
REMARK SMILES IDX 9 16 14 17 15 18 16 19 17 20 18 22 19 23 20 24 66 25 21 26
REMARK SMILES IDX 65 27 22 28 23 29 24 30 59 31 25 32 64 33 58 34 60 35 26 36
REMARK SMILES IDX 63 37 57 38 56 39 27 41 49 42 34 43 48 44 35 45 38 46 47 47
REMARK SMILES IDX 61 48 36 49 37 50 46 52 62 53 39 54 28 55 29 56 33 57 30 58
REMARK SMILES IDX 32 59 31 60 50 61 51 62 55 63 52 64 54 65 53 66 40 67 41 68
REMARK SMILES IDX 45 69 42 70 44 71 43 72
REMARK H PARENT 11 6 4 9 4 10 16 21 60 40 38 51
REMARK Flexibility Score: inf
ROOT
ATOM      1  C   UNL     1       2.527   3.467  -0.313  1.00  0.00     0.023 C 
ENDROOT
BRANCH   1   2
ATOM      2  C   UNL     1       2.185   2.222  -1.133  1.00  0.00     0.116 C 
BRANCH   2   3
ATOM      3  N   UNL     1       2.879   1.057  -0.631  1.00  0.00    -0.351 N 
ATOM      4  O   UNL     1       1.015  -0.026   0.170  1.00  0.00    -0.269 OA
ATOM      5  C   UNL     1       2.234   0.051   0.054  1.00  0.00     0.275 C 
ATOM      6  H   UNL     1       3.848   0.980  -0.784  1.00  0.00     0.163 HD
BRANCH   5   7
ATOM      7  C   UNL     1       3.185  -0.966   0.686  1.00  0.00     0.362 C 
BRANCH   7   8
ATOM      8  N   UNL     1       3.654  -1.919  -0.331  1.00  0.00    -0.334 N 
ATOM      9  H   UNL     1       4.237  -1.425  -1.006  1.00  0.00     0.347 HD
ATOM     10  H   UNL     1       2.840  -2.329  -0.788  1.00  0.00     0.347 HD
BRANCH   8  11
ATOM     11  C   UNL     1       4.438  -3.002   0.276  1.00  0.00     0.308 C 
BRANCH  11  12
ATOM     12  C   UNL     1       3.649  -4.235   0.644  1.00  0.00     0.059 A 
ATOM     13  C   UNL     1       4.005  -5.553   0.408  1.00  0.00     0.021 A 
ATOM     14  S   UNL     1       2.165  -4.160   1.505  1.00  0.00    -0.143 S 
ATOM     15  C   UNL     1       3.058  -6.484   0.924  1.00  0.00     0.012 A 
ATOM     16  C   UNL     1       2.001  -5.855   1.538  1.00  0.00     0.065 A 
ENDBRANCH  11  12
ENDBRANCH   8  11
ENDBRANCH   7   8
ENDBRANCH   5   7
ENDBRANCH   2   3
ENDBRANCH   1   2
BRANCH   1  17
ATOM     17  C   UNL     1       4.012   3.843  -0.312  1.00  0.00     0.023 C 
BRANCH  17  18
ATOM     18  C   UNL     1       4.634   4.036  -1.691  1.00  0.00     0.116 C 
BRANCH  18  19
ATOM     19  N   UNL     1       4.019   5.118  -2.442  1.00  0.00    -0.352 N 
ATOM     20  C   UNL     1       4.612   6.164  -3.106  1.00  0.00     0.251 C 
ATOM     21  H   UNL     1       3.035   5.099  -2.481  1.00  0.00     0.163 HD
ATOM     22  O   UNL     1       3.924   7.072  -3.567  1.00  0.00    -0.269 OA
BRANCH  20  23
ATOM     23  C   UNL     1       6.084   6.219  -3.239  1.00  0.00     0.039 A 
ATOM     24  C   UNL     1       6.738   7.428  -2.990  1.00  0.00     0.014 A 
ATOM     25  C   UNL     1       6.820   5.087  -3.601  1.00  0.00     0.014 A 
ATOM     26  C   UNL     1       8.132   7.485  -3.035  1.00  0.00     0.010 A 
ATOM     27  C   UNL     1       8.212   5.126  -3.569  1.00  0.00     0.010 A 
ATOM     28  C   UNL     1       8.883   6.325  -3.285  1.00  0.00    -0.014 A 
BRANCH  28  29
ATOM     29  C   UNL     1      10.369   6.346  -3.243  1.00  0.00     0.031 A 
ATOM     30  C   UNL     1      11.170   6.034  -4.477  1.00  0.00     0.074 A 
ATOM     31  C   UNL     1      10.999   6.589  -2.076  1.00  0.00     0.049 A 
ATOM     32  N   UNL     1      12.470   5.950  -4.618  1.00  0.00    -0.248 NA
ATOM     33  C   UNL     1      10.414   5.758  -5.709  1.00  0.00     0.031 C 
ATOM     34  C   UNL     1      10.342   6.870  -0.798  1.00  0.00     0.029 A 
ATOM     35  N   UNL     1      12.338   6.632  -1.776  1.00  0.00    -0.354 N 
ATOM     36  C   UNL     1      12.684   5.602  -5.946  1.00  0.00     0.074 A 
ATOM     37  C   UNL     1      11.382   5.436  -6.554  1.00  0.00     0.031 C 
ATOM     38  C   UNL     1      11.278   7.082   0.141  1.00  0.00     0.029 A 
ATOM     39  C   UNL     1      12.598   6.909  -0.455  1.00  0.00     0.049 A 
ATOM     40  H   UNL     1      13.046   6.479  -2.443  1.00  0.00     0.167 HD
ATOM     41  C   UNL     1      13.857   5.454  -6.607  1.00  0.00     0.031 A 
ATOM     42  C   UNL     1      13.767   7.001   0.207  1.00  0.00     0.031 A 
ATOM     43  C   UNL     1      15.153   5.619  -6.004  1.00  0.00     0.049 A 
ATOM     44  C   UNL     1      15.055   6.800  -0.542  1.00  0.00     0.074 A 
ATOM     45  C   UNL     1      16.399   5.535  -6.602  1.00  0.00     0.029 A 
ATOM     46  N   UNL     1      15.372   5.898  -4.664  1.00  0.00    -0.354 N 
ATOM     47  N   UNL     1      15.240   6.536  -1.813  1.00  0.00    -0.248 NA
ATOM     48  C   UNL     1      16.297   6.922   0.234  1.00  0.00     0.031 C 
ATOM     49  C   UNL     1      17.372   5.703  -5.612  1.00  0.00     0.029 A 
ATOM     50  C   UNL     1      16.732   5.960  -4.411  1.00  0.00     0.049 A 
ATOM     51  H   UNL     1      14.665   6.031  -3.991  1.00  0.00     0.167 HD
ATOM     52  C   UNL     1      16.617   6.491  -1.994  1.00  0.00     0.074 A 
ATOM     53  C   UNL     1      17.218   6.773  -0.707  1.00  0.00     0.031 C 
ATOM     54  C   UNL     1      17.319   6.240  -3.126  1.00  0.00     0.031 A 
BRANCH  41  55
ATOM     55  C   UNL     1      13.790   5.085  -8.064  1.00  0.00    -0.014 A 
ATOM     56  C   UNL     1      13.312   5.993  -9.024  1.00  0.00     0.009 A 
ATOM     57  C   UNL     1      14.248   3.829  -8.489  1.00  0.00     0.009 A 
ATOM     58  C   UNL     1      13.259   5.635 -10.373  1.00  0.00     0.001 A 
ATOM     59  C   UNL     1      14.224   3.485  -9.843  1.00  0.00     0.001 A 
ATOM     60  C   UNL     1      13.720   4.384 -10.781  1.00  0.00     0.000 A 
ENDBRANCH  41  55
BRANCH  42  61
ATOM     61  C   UNL     1      13.778   7.302   1.664  1.00  0.00    -0.014 A 
ATOM     62  C   UNL     1      14.270   8.528   2.138  1.00  0.00     0.009 A 
ATOM     63  C   UNL     1      13.311   6.357   2.591  1.00  0.00     0.009 A 
ATOM     64  C   UNL     1      14.324   8.788   3.509  1.00  0.00     0.001 A 
ATOM     65  C   UNL     1      13.335   6.633   3.960  1.00  0.00     0.001 A 
ATOM     66  C   UNL     1      13.852   7.843   4.418  1.00  0.00     0.000 A 
ENDBRANCH  42  61
BRANCH  54  67
ATOM     67  C   UNL     1      18.819   6.298  -3.034  1.00  0.00    -0.014 A 
ATOM     68  C   UNL     1      19.551   5.314  -2.351  1.00  0.00     0.009 A 
ATOM     69  C   UNL     1      19.513   7.336  -3.677  1.00  0.00     0.009 A 
ATOM     70  C   UNL     1      20.944   5.389  -2.284  1.00  0.00     0.001 A 
ATOM     71  C   UNL     1      20.907   7.390  -3.636  1.00  0.00     0.001 A 
ATOM     72  C   UNL     1      21.620   6.423  -2.931  1.00  0.00     0.000 A 
ENDBRANCH  54  67
ENDBRANCH  28  29
ENDBRANCH  20  23
ENDBRANCH  18  19
ENDBRANCH  17  18
ENDBRANCH   1  17
TORSDOF 14
