REMARK SMILES CCOC(=O)CS[C@H]1CC(=O)N(c2ccc(C(=O)NCCCCNC(=O)c3ccc(-c4c5nc(c(-c6ccccc6)c6ccc([nH]6)c(-c6ccccc6)c6nc(c(-c7ccccc7)c7ccc4[nH]7)C=C6)C=C5)cc3)c(O)c2)C1=O
REMARK SMILES IDX 17 1 18 2 19 3 16 5 13 6 14 7 77 8 15 9 75 10 12 11 8 12
REMARK SMILES IDX 9 13 78 14 10 15 79 16 11 17 7 18 6 19 4 20 5 21 3 22 2 23
REMARK SMILES IDX 1 24 76 25 20 27 21 28 22 29 23 30 24 31 25 32 26 34 27 35
REMARK SMILES IDX 28 36 74 37 29 38 73 39 30 40 31 41 32 42 67 43 33 44 72 45
REMARK SMILES IDX 66 46 68 47 34 48 71 49 65 50 64 51 35 53 57 54 42 55 56 56
REMARK SMILES IDX 43 57 46 58 55 59 69 60 44 61 45 62 54 64 70 65 47 66 36 67
REMARK SMILES IDX 37 68 41 69 38 70 40 71 39 72 58 73 59 74 63 75 60 76 62 77
REMARK SMILES IDX 61 78 48 79 49 80 53 81 50 82 52 83 51 84
REMARK H PARENT 19 4 76 26 24 33 68 52 46 63
REMARK Flexibility Score: inf
ROOT
ATOM      1  C   UNL     1       8.557   0.390  -1.198  1.00  0.00     0.255 C 
ATOM      2  O   UNL     1       9.417   1.202  -0.868  1.00  0.00    -0.269 OA
ATOM      3  N   UNL     1       8.568  -0.123  -2.475  1.00  0.00    -0.352 N 
ATOM      4  H   UNL     1       9.306   0.189  -3.047  1.00  0.00     0.163 HD
ENDROOT
BRANCH   1   5
ATOM      5  C   UNL     1       7.504   0.012  -0.225  1.00  0.00     0.081 A 
ATOM      6  C   UNL     1       5.351  -0.529   1.535  1.00  0.00     0.055 A 
ATOM      7  C   UNL     1       5.827   0.778   1.363  1.00  0.00     0.028 A 
ATOM      8  C   UNL     1       6.011  -1.561   0.850  1.00  0.00     0.073 A 
ATOM      9  C   UNL     1       6.897   1.046   0.497  1.00  0.00     0.020 A 
ATOM     10  C   UNL     1       7.094  -1.298   0.013  1.00  0.00     0.130 A 
BRANCH   6  11
ATOM     11  N   UNL     1       4.229  -0.817   2.360  1.00  0.00    -0.249 N 
ATOM     12  C   UNL     1       2.656  -2.029   3.614  1.00  0.00     0.146 C 
ATOM     13  C   UNL     1       2.150  -0.615   3.430  1.00  0.00     0.125 C 
ATOM     14  C   UNL     1       4.023  -2.032   2.976  1.00  0.00     0.247 C 
ATOM     15  C   UNL     1       3.200   0.061   2.601  1.00  0.00     0.235 C 
ATOM     16  O   UNL     1       4.782  -2.994   3.018  1.00  0.00    -0.273 OA
ATOM     17  O   UNL     1       3.058   1.207   2.196  1.00  0.00    -0.274 OA
BRANCH  12  18
ATOM     18  S   UNL     1       2.752  -2.540   5.367  1.00  0.00    -0.136 SA
BRANCH  18  19
ATOM     19  C   UNL     1       0.989  -2.522   5.835  1.00  0.00     0.192 C 
BRANCH  19  20
ATOM     20  C   UNL     1       0.214  -3.718   5.327  1.00  0.00     0.315 C 
ATOM     21  O   UNL     1      -0.425  -4.473   6.048  1.00  0.00    -0.251 OA
BRANCH  20  22
ATOM     22  O   UNL     1       0.254  -3.792   3.969  1.00  0.00    -0.465 OA
BRANCH  22  23
ATOM     23  C   UNL     1      -0.430  -4.899   3.363  1.00  0.00     0.229 C 
ATOM     24  C   UNL     1       0.385  -6.174   3.490  1.00  0.00     0.049 C 
ENDBRANCH  22  23
ENDBRANCH  20  22
ENDBRANCH  19  20
ENDBRANCH  18  19
ENDBRANCH  12  18
ENDBRANCH   6  11
BRANCH  10  25
ATOM     25  O   UNL     1       7.708  -2.400  -0.515  1.00  0.00    -0.507 OA
ATOM     26  H   UNL     1       8.444  -2.297  -1.086  1.00  0.00     0.293 HD
ENDBRANCH  10  25
ENDBRANCH   1   5
BRANCH   3  27
ATOM     27  C   UNL     1       7.649  -1.060  -3.104  1.00  0.00     0.116 C 
BRANCH  27  28
ATOM     28  C   UNL     1       7.434  -0.829  -4.596  1.00  0.00     0.023 C 
BRANCH  28  29
ATOM     29  C   UNL     1       8.683  -0.885  -5.474  1.00  0.00     0.023 C 
BRANCH  29  30
ATOM     30  C   UNL     1       9.611  -2.073  -5.247  1.00  0.00     0.116 C 
BRANCH  30  31
ATOM     31  N   UNL     1       8.991  -3.362  -5.523  1.00  0.00    -0.352 N 
ATOM     32  C   UNL     1       9.294  -4.306  -6.478  1.00  0.00     0.251 C 
ATOM     33  H   UNL     1       8.238  -3.595  -4.934  1.00  0.00     0.163 HD
ATOM     34  O   UNL     1       8.578  -5.292  -6.619  1.00  0.00    -0.269 OA
BRANCH  32  35
ATOM     35  C   UNL     1      10.458  -4.112  -7.369  1.00  0.00     0.039 A 
ATOM     36  C   UNL     1      10.297  -4.300  -8.745  1.00  0.00     0.014 A 
ATOM     37  C   UNL     1      11.694  -3.716  -6.857  1.00  0.00     0.014 A 
ATOM     38  C   UNL     1      11.347  -3.988  -9.613  1.00  0.00     0.010 A 
ATOM     39  C   UNL     1      12.702  -3.313  -7.727  1.00  0.00     0.010 A 
ATOM     40  C   UNL     1      12.538  -3.438  -9.115  1.00  0.00    -0.014 A 
BRANCH  40  41
ATOM     41  C   UNL     1      13.624  -2.978 -10.020  1.00  0.00     0.031 A 
ATOM     42  C   UNL     1      14.990  -3.603  -9.939  1.00  0.00     0.074 A 
ATOM     43  C   UNL     1      13.409  -1.944 -10.857  1.00  0.00     0.049 A 
ATOM     44  N   UNL     1      16.087  -3.279 -10.575  1.00  0.00    -0.248 NA
ATOM     45  C   UNL     1      15.150  -4.722  -8.996  1.00  0.00     0.031 C 
ATOM     46  C   UNL     1      12.142  -1.225 -11.015  1.00  0.00     0.029 A 
ATOM     47  N   UNL     1      14.258  -1.312 -11.733  1.00  0.00    -0.354 N 
ATOM     48  C   UNL     1      17.067  -4.141 -10.097  1.00  0.00     0.074 A 
ATOM     49  C   UNL     1      16.450  -4.957  -9.074  1.00  0.00     0.031 C 
ATOM     50  C   UNL     1      12.287  -0.278 -11.956  1.00  0.00     0.029 A 
ATOM     51  C   UNL     1      13.667  -0.286 -12.432  1.00  0.00     0.049 A 
ATOM     52  H   UNL     1      15.201  -1.569 -11.849  1.00  0.00     0.167 HD
ATOM     53  C   UNL     1      18.358  -4.261 -10.488  1.00  0.00     0.031 A 
ATOM     54  C   UNL     1      14.178   0.558 -13.347  1.00  0.00     0.031 A 
ATOM     55  C   UNL     1      18.974  -3.452 -11.505  1.00  0.00     0.049 A 
ATOM     56  C   UNL     1      15.627   0.436 -13.732  1.00  0.00     0.074 A 
ATOM     57  C   UNL     1      20.264  -3.525 -12.002  1.00  0.00     0.029 A 
ATOM     58  N   UNL     1      18.343  -2.417 -12.178  1.00  0.00    -0.354 N 
ATOM     59  N   UNL     1      16.525  -0.422 -13.312  1.00  0.00    -0.248 NA
ATOM     60  C   UNL     1      16.130   1.398 -14.723  1.00  0.00     0.031 C 
ATOM     61  C   UNL     1      20.430  -2.497 -12.936  1.00  0.00     0.029 A 
ATOM     62  C   UNL     1      19.224  -1.827 -13.068  1.00  0.00     0.049 A 
ATOM     63  H   UNL     1      17.407  -2.143 -12.043  1.00  0.00     0.167 HD
ATOM     64  C   UNL     1      17.688  -0.127 -14.014  1.00  0.00     0.074 A 
ATOM     65  C   UNL     1      17.378   0.982 -14.892  1.00  0.00     0.031 C 
ATOM     66  C   UNL     1      18.901  -0.726 -13.939  1.00  0.00     0.031 A 
BRANCH  53  67
ATOM     67  C   UNL     1      19.190  -5.308  -9.796  1.00  0.00    -0.014 A 
ATOM     68  C   UNL     1      18.934  -6.677  -9.975  1.00  0.00     0.009 A 
ATOM     69  C   UNL     1      20.250  -4.921  -8.961  1.00  0.00     0.009 A 
ATOM     70  C   UNL     1      19.688  -7.635  -9.293  1.00  0.00     0.001 A 
ATOM     71  C   UNL     1      21.025  -5.882  -8.309  1.00  0.00     0.001 A 
ATOM     72  C   UNL     1      20.735  -7.236  -8.464  1.00  0.00     0.000 A 
ENDBRANCH  53  67
BRANCH  54  73
ATOM     73  C   UNL     1      13.310   1.582 -13.987  1.00  0.00    -0.014 A 
ATOM     74  C   UNL     1      12.962   1.467 -15.342  1.00  0.00     0.009 A 
ATOM     75  C   UNL     1      12.832   2.681 -13.257  1.00  0.00     0.009 A 
ATOM     76  C   UNL     1      12.175   2.443 -15.958  1.00  0.00     0.001 A 
ATOM     77  C   UNL     1      12.020   3.640 -13.867  1.00  0.00     0.001 A 
ATOM     78  C   UNL     1      11.700   3.525 -15.219  1.00  0.00     0.000 A 
ENDBRANCH  54  73
BRANCH  66  79
ATOM     79  C   UNL     1      19.976  -0.227 -14.865  1.00  0.00    -0.014 A 
ATOM     80  C   UNL     1      20.590   1.020 -14.673  1.00  0.00     0.009 A 
ATOM     81  C   UNL     1      20.413  -1.044 -15.920  1.00  0.00     0.009 A 
ATOM     82  C   UNL     1      21.599   1.450 -15.537  1.00  0.00     0.001 A 
ATOM     83  C   UNL     1      21.443  -0.626 -16.763  1.00  0.00     0.001 A 
ATOM     84  C   UNL     1      22.029   0.625 -16.576  1.00  0.00     0.000 A 
ENDBRANCH  66  79
ENDBRANCH  40  41
ENDBRANCH  32  35
ENDBRANCH  30  31
ENDBRANCH  29  30
ENDBRANCH  28  29
ENDBRANCH  27  28
ENDBRANCH   3  27
TORSDOF 18
