REMARK SMILES CC(C)[C@@H](C[NH3+])C(=O)N1[C@@H](C(=O)NCCCCNC(=O)c2ccc(-c3c4nc(c(-c5ccccc5)c5ccc([nH]5)c(-c5ccccc5)c5nc(c(-c6ccccc6)c6ccc3[nH]6)C=C5)C=C4)cc2)CC[C@H]2CCCC[C@H]21
REMARK SMILES IDX 14 1 13 2 11 3 12 4 10 6 9 7 76 8 69 9 71 10 75 11 70 12
REMARK SMILES IDX 72 13 74 14 73 15 7 16 8 17 4 18 2 19 1 20 3 21 5 22 6 23
REMARK SMILES IDX 15 27 16 28 17 29 18 30 19 31 20 33 21 34 22 35 68 36 23 37
REMARK SMILES IDX 67 38 24 39 25 40 26 41 61 42 27 43 66 44 60 45 62 46 28 47
REMARK SMILES IDX 65 48 59 49 58 50 29 52 51 53 36 54 50 55 37 56 40 57 49 58
REMARK SMILES IDX 63 59 38 60 39 61 48 63 64 64 41 65 30 66 31 67 35 68 32 69
REMARK SMILES IDX 34 70 33 71 52 72 53 73 57 74 54 75 56 76 55 77 42 78 43 79
REMARK SMILES IDX 47 80 44 81 46 82 45 83
REMARK H PARENT 13 5 6 24 6 25 6 26 18 32 62 51 40 62
REMARK Flexibility Score: inf
ROOT
ATOM      1  C   UNL     1       1.005  -4.090   3.024  1.00  0.00     0.116 C 
ENDROOT
BRANCH   1   2
ATOM      2  N   UNL     1       1.843  -3.640   1.930  1.00  0.00    -0.354 N 
ATOM      3  C   UNL     1       1.634  -3.750   0.590  1.00  0.00     0.242 C 
ATOM      4  O   UNL     1       2.590  -3.497  -0.152  1.00  0.00    -0.273 OA
ATOM      5  H   UNL     1       2.679  -3.193   2.193  1.00  0.00     0.163 HD
BRANCH   3   6
ATOM      6  C   UNL     1       0.329  -4.337   0.020  1.00  0.00     0.174 C 
ATOM      7  N   UNL     1      -0.947  -3.903   0.649  1.00  0.00    -0.327 N 
ATOM      8  C   UNL     1      -2.115  -4.733   0.273  1.00  0.00     0.089 C 
ATOM      9  C   UNL     1       0.565  -5.870   0.133  1.00  0.00     0.036 C 
ATOM     10  C   UNL     1      -1.904  -6.225   0.567  1.00  0.00     0.012 C 
ATOM     11  C   UNL     1      -3.505  -4.348   0.803  1.00  0.00     0.025 C 
ATOM     12  C   UNL     1      -0.651  -6.736  -0.140  1.00  0.00     0.008 C 
ATOM     13  C   UNL     1      -1.944  -6.558   2.068  1.00  0.00     0.006 C 
ATOM     14  C   UNL     1      -3.788  -4.746   2.250  1.00  0.00     0.002 C 
ATOM     15  C   UNL     1      -2.693  -5.550   2.941  1.00  0.00     0.000 C 
BRANCH   7  16
ATOM     16  C   UNL     1      -1.215  -2.598   1.055  1.00  0.00     0.232 C 
ATOM     17  O   UNL     1      -1.811  -2.430   2.131  1.00  0.00    -0.274 OA
BRANCH  16  18
ATOM     18  C   UNL     1      -0.882  -1.324   0.236  1.00  0.00     0.136 C 
BRANCH  18  19
ATOM     19  C   UNL     1       0.556  -0.762   0.360  1.00  0.00     0.001 C 
ATOM     20  C   UNL     1       0.800   0.524  -0.441  1.00  0.00     0.008 C 
ATOM     21  C   UNL     1       0.919  -0.461   1.823  1.00  0.00     0.008 C 
ENDBRANCH  18  19
BRANCH  18  22
ATOM     22  C   UNL     1      -1.500  -1.358  -1.172  1.00  0.00     0.272 C 
BRANCH  22  23
ATOM     23  N   UNL     1      -0.765  -2.119  -2.173  1.00  0.00    -0.357 N 
ATOM     24  H   UNL     1       0.148  -1.691  -2.324  1.00  0.00     0.344 HD
ATOM     25  H   UNL     1      -1.288  -2.122  -3.049  1.00  0.00     0.344 HD
ATOM     26  H   UNL     1      -0.642  -3.078  -1.848  1.00  0.00     0.344 HD
ENDBRANCH  22  23
ENDBRANCH  18  22
ENDBRANCH  16  18
ENDBRANCH   7  16
ENDBRANCH   3   6
ENDBRANCH   1   2
BRANCH   1  27
ATOM     27  C   UNL     1       1.844  -4.715   4.130  1.00  0.00     0.023 C 
BRANCH  27  28
ATOM     28  C   UNL     1       2.753  -3.717   4.847  1.00  0.00     0.023 C 
BRANCH  28  29
ATOM     29  C   UNL     1       2.019  -2.540   5.475  1.00  0.00     0.116 C 
BRANCH  29  30
ATOM     30  N   UNL     1       1.083  -2.966   6.504  1.00  0.00    -0.352 N 
ATOM     31  C   UNL     1       1.063  -2.639   7.838  1.00  0.00     0.251 C 
ATOM     32  H   UNL     1       0.366  -3.570   6.203  1.00  0.00     0.163 HD
ATOM     33  O   UNL     1       0.349  -3.249   8.622  1.00  0.00    -0.269 OA
BRANCH  31  34
ATOM     34  C   UNL     1       1.932  -1.547   8.320  1.00  0.00     0.039 A 
ATOM     35  C   UNL     1       2.695  -1.743   9.472  1.00  0.00     0.014 A 
ATOM     36  C   UNL     1       2.001  -0.339   7.621  1.00  0.00     0.014 A 
ATOM     37  C   UNL     1       3.571  -0.742   9.893  1.00  0.00     0.010 A 
ATOM     38  C   UNL     1       2.938   0.619   7.991  1.00  0.00     0.010 A 
ATOM     39  C   UNL     1       3.722   0.434   9.139  1.00  0.00    -0.014 A 
BRANCH  39  40
ATOM     40  C   UNL     1       4.676   1.494   9.549  1.00  0.00     0.031 A 
ATOM     41  C   UNL     1       4.168   2.862   9.916  1.00  0.00     0.074 A 
ATOM     42  C   UNL     1       6.000   1.245   9.541  1.00  0.00     0.049 A 
ATOM     43  N   UNL     1       4.843   3.931  10.252  1.00  0.00    -0.248 NA
ATOM     44  C   UNL     1       2.709   3.062   9.874  1.00  0.00     0.031 C 
ATOM     45  C   UNL     1       6.624  -0.028   9.172  1.00  0.00     0.029 A 
ATOM     46  N   UNL     1       7.062   2.057   9.851  1.00  0.00    -0.354 N 
ATOM     47  C   UNL     1       3.896   4.929  10.445  1.00  0.00     0.074 A 
ATOM     48  C   UNL     1       2.606   4.356  10.132  1.00  0.00     0.031 C 
ATOM     49  C   UNL     1       7.955   0.080   9.309  1.00  0.00     0.029 A 
ATOM     50  C   UNL     1       8.283   1.438   9.730  1.00  0.00     0.049 A 
ATOM     51  H   UNL     1       6.959   2.995  10.134  1.00  0.00     0.167 HD
ATOM     52  C   UNL     1       4.079   6.203  10.867  1.00  0.00     0.031 A 
ATOM     53  C   UNL     1       9.527   1.913   9.930  1.00  0.00     0.031 A 
ATOM     54  C   UNL     1       5.361   6.771  11.185  1.00  0.00     0.049 A 
ATOM     55  C   UNL     1       9.705   3.339  10.374  1.00  0.00     0.074 A 
ATOM     56  C   UNL     1       5.647   8.037  11.666  1.00  0.00     0.029 A 
ATOM     57  N   UNL     1       6.572   6.111  11.048  1.00  0.00    -0.354 N 
ATOM     58  N   UNL     1       8.794   4.251  10.615  1.00  0.00    -0.248 NA
ATOM     59  C   UNL     1      11.085   3.796  10.587  1.00  0.00     0.031 C 
ATOM     60  C   UNL     1       7.036   8.162  11.765  1.00  0.00     0.029 A 
ATOM     61  C   UNL     1       7.611   6.951  11.413  1.00  0.00     0.049 A 
ATOM     62  H   UNL     1       6.678   5.182  10.738  1.00  0.00     0.167 HD
ATOM     63  C   UNL     1       9.488   5.376  11.044  1.00  0.00     0.074 A 
ATOM     64  C   UNL     1      10.894   5.026  11.042  1.00  0.00     0.031 C 
ATOM     65  C   UNL     1       9.005   6.588  11.410  1.00  0.00     0.031 A 
BRANCH  52  66
ATOM     66  C   UNL     1       2.857   7.071  10.999  1.00  0.00    -0.014 A 
ATOM     67  C   UNL     1       1.889   6.824  11.987  1.00  0.00     0.009 A 
ATOM     68  C   UNL     1       2.684   8.168  10.142  1.00  0.00     0.009 A 
ATOM     69  C   UNL     1       0.755   7.633  12.086  1.00  0.00     0.001 A 
ATOM     70  C   UNL     1       1.567   8.997  10.266  1.00  0.00     0.001 A 
ATOM     71  C   UNL     1       0.598   8.722  11.230  1.00  0.00     0.000 A 
ENDBRANCH  52  66
BRANCH  53  72
ATOM     72  C   UNL     1      10.706   1.029   9.729  1.00  0.00    -0.014 A 
ATOM     73  C   UNL     1      11.485   0.619  10.821  1.00  0.00     0.009 A 
ATOM     74  C   UNL     1      11.068   0.603   8.441  1.00  0.00     0.009 A 
ATOM     75  C   UNL     1      12.620  -0.171  10.625  1.00  0.00     0.001 A 
ATOM     76  C   UNL     1      12.184  -0.215   8.252  1.00  0.00     0.001 A 
ATOM     77  C   UNL     1      12.966  -0.591   9.342  1.00  0.00     0.000 A 
ENDBRANCH  53  72
BRANCH  65  78
ATOM     78  C   UNL     1       9.997   7.611  11.892  1.00  0.00    -0.014 A 
ATOM     79  C   UNL     1      10.903   8.227  11.015  1.00  0.00     0.009 A 
ATOM     80  C   UNL     1       9.994   7.991  13.243  1.00  0.00     0.009 A 
ATOM     81  C   UNL     1      11.811   9.176  11.491  1.00  0.00     0.001 A 
ATOM     82  C   UNL     1      10.878   8.964  13.710  1.00  0.00     0.001 A 
ATOM     83  C   UNL     1      11.794   9.547  12.836  1.00  0.00     0.000 A 
ENDBRANCH  65  78
ENDBRANCH  39  40
ENDBRANCH  31  34
ENDBRANCH  29  30
ENDBRANCH  28  29
ENDBRANCH  27  28
ENDBRANCH   1  27
TORSDOF 16
