REMARK SMILES O=C(NCCCCNC(=O)C(Cl)(c1ccccc1)c1ccccc1)c1ccc(-c2c3nc(c(-c4ccccc4)c4ccc([nH]4)c(-c4ccccc4)c4nc(c(-c5ccccc5)c5ccc2[nH]5)C=C4)C=C3)cc1
REMARK SMILES IDX 5 1 4 2 3 3 1 4 2 5 25 7 26 8 72 9 27 10 71 11 28 12 29 13
REMARK SMILES IDX 30 14 65 15 31 16 70 17 64 18 66 19 32 20 69 21 63 22 62 23
REMARK SMILES IDX 33 25 55 26 40 27 54 28 41 29 44 30 53 31 67 32 42 33 43 34
REMARK SMILES IDX 52 36 68 37 45 38 34 39 35 40 39 41 36 42 38 43 37 44 56 45
REMARK SMILES IDX 57 46 61 47 58 48 60 49 59 50 46 51 47 52 51 53 48 54 50 55
REMARK SMILES IDX 49 56 6 57 7 58 8 59 9 60 10 62 11 63 12 64 13 65 14 66
REMARK SMILES IDX 18 67 15 68 17 69 16 70 19 71 20 72 24 73 21 74 23 75 22 76
REMARK H PARENT 3 6 66 24 44 35 8 61
REMARK Flexibility Score: inf
ROOT
ATOM      1  C   UNL     1       4.901   2.559   0.698  1.00  0.00     0.023 C 
ENDROOT
BRANCH   1   2
ATOM      2  C   UNL     1       4.588   1.069   0.656  1.00  0.00     0.116 C 
BRANCH   2   3
ATOM      3  N   UNL     1       3.163   0.791   0.749  1.00  0.00    -0.352 N 
ATOM      4  O   UNL     1       1.197  -0.102   0.075  1.00  0.00    -0.269 OA
ATOM      5  C   UNL     1       2.420  -0.073  -0.014  1.00  0.00     0.251 C 
ATOM      6  H   UNL     1       2.672   1.283   1.446  1.00  0.00     0.163 HD
BRANCH   5   7
ATOM      7  C   UNL     1       3.118  -0.963  -0.960  1.00  0.00     0.039 A 
ATOM      8  C   UNL     1       4.210  -1.722  -0.529  1.00  0.00     0.014 A 
ATOM      9  C   UNL     1       2.682  -1.028  -2.285  1.00  0.00     0.014 A 
ATOM     10  C   UNL     1       4.928  -2.476  -1.448  1.00  0.00     0.010 A 
ATOM     11  C   UNL     1       3.360  -1.845  -3.191  1.00  0.00     0.010 A 
ATOM     12  C   UNL     1       4.489  -2.569  -2.778  1.00  0.00    -0.014 A 
BRANCH  12  13
ATOM     13  C   UNL     1       5.140  -3.541  -3.687  1.00  0.00     0.031 A 
ATOM     14  C   UNL     1       5.917  -3.094  -4.889  1.00  0.00     0.074 A 
ATOM     15  C   UNL     1       4.993  -4.851  -3.411  1.00  0.00     0.049 A 
ATOM     16  N   UNL     1       6.510  -3.828  -5.796  1.00  0.00    -0.248 NA
ATOM     17  C   UNL     1       6.043  -1.645  -5.110  1.00  0.00     0.031 C 
ATOM     18  C   UNL     1       4.242  -5.394  -2.273  1.00  0.00     0.029 A 
ATOM     19  N   UNL     1       5.461  -5.963  -4.058  1.00  0.00    -0.354 N 
ATOM     20  C   UNL     1       7.059  -2.935  -6.708  1.00  0.00     0.074 A 
ATOM     21  C   UNL     1       6.723  -1.604  -6.250  1.00  0.00     0.031 C 
ATOM     22  C   UNL     1       4.321  -6.731  -2.291  1.00  0.00     0.029 A 
ATOM     23  C   UNL     1       5.065  -7.142  -3.473  1.00  0.00     0.049 A 
ATOM     24  H   UNL     1       6.026  -5.923  -4.864  1.00  0.00     0.167 HD
ATOM     25  C   UNL     1       7.773  -3.211  -7.824  1.00  0.00     0.031 A 
ATOM     26  C   UNL     1       5.245  -8.415  -3.865  1.00  0.00     0.031 A 
ATOM     27  C   UNL     1       8.106  -4.542  -8.264  1.00  0.00     0.049 A 
ATOM     28  C   UNL     1       6.001  -8.681  -5.131  1.00  0.00     0.074 A 
ATOM     29  C   UNL     1       8.890  -4.920  -9.341  1.00  0.00     0.029 A 
ATOM     30  N   UNL     1       7.662  -5.708  -7.662  1.00  0.00    -0.354 N 
ATOM     31  N   UNL     1       6.578  -7.827  -5.940  1.00  0.00    -0.248 NA
ATOM     32  C   UNL     1       6.124 -10.085  -5.544  1.00  0.00     0.031 C 
ATOM     33  C   UNL     1       8.867  -6.315  -9.428  1.00  0.00     0.029 A 
ATOM     34  C   UNL     1       8.114  -6.807  -8.375  1.00  0.00     0.049 A 
ATOM     35  H   UNL     1       7.109  -5.750  -6.849  1.00  0.00     0.167 HD
ATOM     36  C   UNL     1       7.136  -8.589  -6.955  1.00  0.00     0.074 A 
ATOM     37  C   UNL     1       6.855  -9.976  -6.644  1.00  0.00     0.031 C 
ATOM     38  C   UNL     1       7.812  -8.177  -8.054  1.00  0.00     0.031 A 
BRANCH  25  39
ATOM     39  C   UNL     1       8.226  -2.062  -8.680  1.00  0.00    -0.014 A 
ATOM     40  C   UNL     1       9.299  -1.244  -8.299  1.00  0.00     0.009 A 
ATOM     41  C   UNL     1       7.630  -1.862  -9.936  1.00  0.00     0.009 A 
ATOM     42  C   UNL     1       9.758  -0.239  -9.154  1.00  0.00     0.001 A 
ATOM     43  C   UNL     1       8.105  -0.871 -10.797  1.00  0.00     0.001 A 
ATOM     44  C   UNL     1       9.166  -0.058 -10.405  1.00  0.00     0.000 A 
ENDBRANCH  25  39
BRANCH  26  45
ATOM     45  C   UNL     1       4.643  -9.524  -3.082  1.00  0.00    -0.014 A 
ATOM     46  C   UNL     1       5.451 -10.429  -2.380  1.00  0.00     0.009 A 
ATOM     47  C   UNL     1       3.248  -9.680  -3.035  1.00  0.00     0.009 A 
ATOM     48  C   UNL     1       4.874 -11.484  -1.669  1.00  0.00     0.001 A 
ATOM     49  C   UNL     1       2.673 -10.716  -2.298  1.00  0.00     0.001 A 
ATOM     50  C   UNL     1       3.487 -11.623  -1.625  1.00  0.00     0.000 A 
ENDBRANCH  26  45
BRANCH  38  51
ATOM     51  C   UNL     1       8.293  -9.243  -8.993  1.00  0.00    -0.014 A 
ATOM     52  C   UNL     1       7.395  -9.919  -9.834  1.00  0.00     0.009 A 
ATOM     53  C   UNL     1       9.660  -9.552  -9.061  1.00  0.00     0.009 A 
ATOM     54  C   UNL     1       7.856 -10.905 -10.707  1.00  0.00     0.001 A 
ATOM     55  C   UNL     1      10.120 -10.519  -9.954  1.00  0.00     0.001 A 
ATOM     56  C   UNL     1       9.217 -11.200 -10.770  1.00  0.00     0.000 A 
ENDBRANCH  38  51
ENDBRANCH  12  13
ENDBRANCH   5   7
ENDBRANCH   2   3
ENDBRANCH   1   2
BRANCH   1  57
ATOM     57  C   UNL     1       4.444   3.270   1.972  1.00  0.00     0.023 C 
BRANCH  57  58
ATOM     58  C   UNL     1       5.015   2.676   3.256  1.00  0.00     0.116 C 
BRANCH  58  59
ATOM     59  N   UNL     1       6.443   2.929   3.368  1.00  0.00    -0.354 N 
ATOM     60  C   UNL     1       7.153   3.639   4.309  1.00  0.00     0.250 C 
ATOM     61  H   UNL     1       6.990   2.529   2.654  1.00  0.00     0.163 HD
ATOM     62  O   UNL     1       8.377   3.659   4.131  1.00  0.00    -0.272 OA
BRANCH  60  63
ATOM     63  C   UNL     1       6.454   4.322   5.547  1.00  0.00     0.173 C 
ATOM     64  Cl  UNL     1       5.260   5.506   4.786  1.00  0.00    -0.098 Cl
BRANCH  63  65
ATOM     65  C   UNL     1       5.660   3.317   6.425  1.00  0.00    -0.013 A 
ATOM     66  C   UNL     1       4.696   3.776   7.343  1.00  0.00     0.006 A 
ATOM     67  C   UNL     1       5.928   1.932   6.401  1.00  0.00     0.006 A 
ATOM     68  C   UNL     1       3.996   2.886   8.161  1.00  0.00     0.000 A 
ATOM     69  C   UNL     1       5.221   1.043   7.214  1.00  0.00     0.000 A 
ATOM     70  C   UNL     1       4.252   1.521   8.090  1.00  0.00     0.000 A 
ENDBRANCH  63  65
BRANCH  63  71
ATOM     71  C   UNL     1       7.478   5.092   6.427  1.00  0.00    -0.013 A 
ATOM     72  C   UNL     1       8.378   4.364   7.235  1.00  0.00     0.006 A 
ATOM     73  C   UNL     1       7.552   6.497   6.495  1.00  0.00     0.006 A 
ATOM     74  C   UNL     1       9.265   5.006   8.103  1.00  0.00     0.000 A 
ATOM     75  C   UNL     1       8.440   7.138   7.364  1.00  0.00     0.000 A 
ATOM     76  C   UNL     1       9.287   6.394   8.175  1.00  0.00     0.000 A 
ENDBRANCH  63  71
ENDBRANCH  60  63
ENDBRANCH  58  59
ENDBRANCH  57  58
ENDBRANCH   1  57
TORSDOF 13
