REMARK SMILES CC1=C([C@H](NC(=O)[C@@H]2[C@H](C)c3cc(F)ccc3N2C)C(=O)NCCCCNC(=O)c2ccc(-c3c4nc(c(-c5ccccc5)c5ccc([nH]5)c(-c5ccccc5)c5nc(c(-c6ccccc6)c6ccc3[nH]6)C=C5)C=C4)cc2)[C@@H](C)N=N1
REMARK SMILES IDX 24 1 23 2 22 3 20 4 21 5 4 7 3 8 1 9 2 10 81 11 78 12 80 13
REMARK SMILES IDX 79 14 5 15 6 16 7 18 8 19 9 20 18 21 11 22 10 23 17 24 19 25
REMARK SMILES IDX 12 26 16 27 13 28 15 29 14 30 25 31 26 32 27 33 28 34 29 36
REMARK SMILES IDX 30 37 31 38 77 39 32 40 76 41 33 42 34 43 35 44 70 45 36 46
REMARK SMILES IDX 75 47 69 48 71 49 37 50 74 51 68 52 67 53 38 55 60 56 45 57
REMARK SMILES IDX 59 58 46 59 49 60 58 61 72 62 47 63 48 64 57 66 73 67 50 68
REMARK SMILES IDX 39 69 40 70 44 71 41 72 43 73 42 74 61 75 62 76 66 77 63 78
REMARK SMILES IDX 65 79 64 80 51 81 52 82 56 83 53 84 55 85 54 86
REMARK H PARENT 22 6 5 17 27 35 71 54 49 65
REMARK Flexibility Score: inf
ROOT
ATOM      1  C   UNL     1      -2.822  -5.288  -1.564  1.00  0.00     0.023 C 
ENDROOT
BRANCH   1   2
ATOM      2  C   UNL     1      -2.510  -4.018  -2.309  1.00  0.00     0.116 C 
BRANCH   2   3
ATOM      3  N   UNL     1      -3.296  -2.919  -1.804  1.00  0.00    -0.354 N 
ATOM      4  C   UNL     1      -2.961  -1.620  -1.665  1.00  0.00     0.247 C 
ATOM      5  O   UNL     1      -3.881  -0.831  -1.421  1.00  0.00    -0.272 OA
ATOM      6  H   UNL     1      -4.209  -3.151  -1.519  1.00  0.00     0.163 HD
BRANCH   4   7
ATOM      7  C   UNL     1      -1.538  -1.108  -1.980  1.00  0.00     0.202 C 
BRANCH   7   8
ATOM      8  C   UNL     1      -1.338  -0.653  -3.366  1.00  0.00     0.011 C 
ATOM      9  C   UNL     1       1.083   1.788  -3.516  1.00  0.00     0.069 C 
ATOM     10  C   UNL     1      -0.393   0.212  -3.932  1.00  0.00     0.064 C 
ATOM     11  N   UNL     1      -0.481  -0.371  -5.354  1.00  0.00    -0.160 NA
ATOM     12  C   UNL     1      -1.915  -1.626  -4.397  1.00  0.00     0.156 C 
ATOM     13  N   UNL     1      -1.171  -1.359  -5.584  1.00  0.00    -0.181 NA
ATOM     14  C   UNL     1      -3.381  -1.551  -4.810  1.00  0.00     0.040 C 
ENDBRANCH   7   8
BRANCH   7  15
ATOM     15  N   UNL     1      -0.320  -1.814  -1.673  1.00  0.00    -0.339 N 
ATOM     16  C   UNL     1       0.923  -1.451  -2.147  1.00  0.00     0.244 C 
ATOM     17  H   UNL     1      -0.380  -2.605  -1.090  1.00  0.00     0.164 HD
ATOM     18  O   UNL     1       1.846  -2.256  -2.003  1.00  0.00    -0.273 OA
BRANCH  16  19
ATOM     19  C   UNL     1       1.168  -0.004  -2.700  1.00  0.00     0.178 C 
ATOM     20  C   UNL     1      -0.211   1.381  -2.124  1.00  0.00     0.050 C 
ATOM     21  N   UNL     1       1.435   0.360  -4.630  1.00  0.00    -0.362 N 
ATOM     22  C   UNL     1      -0.876   2.190  -3.793  1.00  0.00    -0.016 A 
ATOM     23  C   UNL     1      -0.928   1.513  -0.753  1.00  0.00     0.015 C 
ATOM     24  C   UNL     1       0.179   1.690  -5.222  1.00  0.00     0.041 A 
ATOM     25  C   UNL     1       2.211  -0.475  -5.522  1.00  0.00     0.144 C 
ATOM     26  C   UNL     1      -2.057   2.824  -3.950  1.00  0.00     0.045 A 
ATOM     27  C   UNL     1      -0.183   1.937  -6.508  1.00  0.00     0.029 A 
ATOM     28  C   UNL     1      -2.312   3.002  -5.324  1.00  0.00     0.123 A 
ATOM     29  C   UNL     1      -1.457   2.595  -6.498  1.00  0.00     0.041 A 
ATOM     30  F   UNL     1      -3.496   3.566  -5.631  1.00  0.00    -0.207 F 
ENDBRANCH  16  19
ENDBRANCH   7  15
ENDBRANCH   4   7
ENDBRANCH   2   3
ENDBRANCH   1   2
BRANCH   1  31
ATOM     31  C   UNL     1      -4.298  -5.673  -1.675  1.00  0.00     0.023 C 
BRANCH  31  32
ATOM     32  C   UNL     1      -4.876  -5.566  -3.094  1.00  0.00     0.116 C 
BRANCH  32  33
ATOM     33  N   UNL     1      -4.153  -6.331  -4.085  1.00  0.00    -0.352 N 
ATOM     34  C   UNL     1      -4.205  -7.641  -4.462  1.00  0.00     0.251 C 
ATOM     35  H   UNL     1      -3.493  -5.801  -4.587  1.00  0.00     0.163 HD
ATOM     36  O   UNL     1      -3.559  -7.960  -5.461  1.00  0.00    -0.269 OA
BRANCH  34  37
ATOM     37  C   UNL     1      -4.871  -8.696  -3.662  1.00  0.00     0.039 A 
ATOM     38  C   UNL     1      -5.738  -8.486  -2.591  1.00  0.00     0.014 A 
ATOM     39  C   UNL     1      -4.495 -10.009  -3.976  1.00  0.00     0.014 A 
ATOM     40  C   UNL     1      -5.955  -9.499  -1.673  1.00  0.00     0.010 A 
ATOM     41  C   UNL     1      -4.827 -11.051  -3.136  1.00  0.00     0.010 A 
ATOM     42  C   UNL     1      -5.415 -10.765  -1.914  1.00  0.00    -0.014 A 
BRANCH  42  43
ATOM     43  C   UNL     1      -5.718 -11.860  -1.005  1.00  0.00     0.031 A 
ATOM     44  C   UNL     1      -7.190 -12.067  -0.915  1.00  0.00     0.074 A 
ATOM     45  C   UNL     1      -4.765 -12.641  -0.441  1.00  0.00     0.049 A 
ATOM     46  N   UNL     1      -7.922 -11.919   0.136  1.00  0.00    -0.248 NA
ATOM     47  C   UNL     1      -7.974 -12.203  -2.163  1.00  0.00     0.031 C 
ATOM     48  C   UNL     1      -3.308 -12.593  -0.614  1.00  0.00     0.029 A 
ATOM     49  N   UNL     1      -4.914 -13.739   0.360  1.00  0.00    -0.354 N 
ATOM     50  C   UNL     1      -9.223 -12.198  -0.266  1.00  0.00     0.074 A 
ATOM     51  C   UNL     1      -9.225 -12.166  -1.702  1.00  0.00     0.031 C 
ATOM     52  C   UNL     1      -2.754 -13.752  -0.180  1.00  0.00     0.029 A 
ATOM     53  C   UNL     1      -3.784 -14.567   0.434  1.00  0.00     0.049 A 
ATOM     54  H   UNL     1      -5.748 -13.933   0.847  1.00  0.00     0.167 HD
ATOM     55  C   UNL     1     -10.114 -12.717   0.619  1.00  0.00     0.031 A 
ATOM     56  C   UNL     1      -3.741 -15.848   0.910  1.00  0.00     0.031 A 
ATOM     57  C   UNL     1      -9.688 -12.479   1.973  1.00  0.00     0.049 A 
ATOM     58  C   UNL     1      -4.927 -16.007   1.796  1.00  0.00     0.074 A 
ATOM     59  C   UNL     1      -9.448 -11.335   2.709  1.00  0.00     0.029 A 
ATOM     60  N   UNL     1      -8.990 -13.492   2.586  1.00  0.00    -0.354 N 
ATOM     61  N   UNL     1      -5.052 -15.349   2.915  1.00  0.00    -0.248 NA
ATOM     62  C   UNL     1      -6.167 -16.411   1.143  1.00  0.00     0.031 C 
ATOM     63  C   UNL     1      -8.243 -11.607   3.414  1.00  0.00     0.029 A 
ATOM     64  C   UNL     1      -7.896 -12.942   3.204  1.00  0.00     0.049 A 
ATOM     65  H   UNL     1      -9.232 -14.446   2.581  1.00  0.00     0.167 HD
ATOM     66  C   UNL     1      -6.341 -14.844   2.864  1.00  0.00     0.074 A 
ATOM     67  C   UNL     1      -6.980 -15.533   1.737  1.00  0.00     0.031 C 
ATOM     68  C   UNL     1      -6.688 -13.684   3.495  1.00  0.00     0.031 A 
BRANCH  55  69
ATOM     69  C   UNL     1     -11.084 -13.809   0.253  1.00  0.00    -0.014 A 
ATOM     70  C   UNL     1     -11.005 -14.551  -0.942  1.00  0.00     0.009 A 
ATOM     71  C   UNL     1     -11.944 -14.305   1.248  1.00  0.00     0.009 A 
ATOM     72  C   UNL     1     -11.739 -15.723  -1.139  1.00  0.00     0.001 A 
ATOM     73  C   UNL     1     -12.654 -15.498   1.069  1.00  0.00     0.001 A 
ATOM     74  C   UNL     1     -12.552 -16.205  -0.125  1.00  0.00     0.000 A 
ENDBRANCH  55  69
BRANCH  56  75
ATOM     75  C   UNL     1      -3.152 -17.038   0.214  1.00  0.00    -0.014 A 
ATOM     76  C   UNL     1      -2.914 -16.986  -1.171  1.00  0.00     0.009 A 
ATOM     77  C   UNL     1      -3.121 -18.313   0.818  1.00  0.00     0.009 A 
ATOM     78  C   UNL     1      -2.724 -18.147  -1.933  1.00  0.00     0.001 A 
ATOM     79  C   UNL     1      -2.919 -19.479   0.054  1.00  0.00     0.001 A 
ATOM     80  C   UNL     1      -2.746 -19.396  -1.325  1.00  0.00     0.000 A 
ENDBRANCH  56  75
BRANCH  68  81
ATOM     81  C   UNL     1      -5.712 -13.013   4.434  1.00  0.00    -0.014 A 
ATOM     82  C   UNL     1      -6.217 -12.646   5.692  1.00  0.00     0.009 A 
ATOM     83  C   UNL     1      -4.437 -12.540   4.072  1.00  0.00     0.009 A 
ATOM     84  C   UNL     1      -5.504 -11.811   6.549  1.00  0.00     0.001 A 
ATOM     85  C   UNL     1      -3.704 -11.725   4.950  1.00  0.00     0.001 A 
ATOM     86  C   UNL     1      -4.244 -11.352   6.181  1.00  0.00     0.000 A 
ENDBRANCH  68  81
ENDBRANCH  42  43
ENDBRANCH  34  37
ENDBRANCH  32  33
ENDBRANCH  31  32
ENDBRANCH   1  31
TORSDOF 14
