REMARK SMILES CC(C)([NH2+]C[C@@H]1CCCO1)C(=O)NCCCCNC(=O)c1ccc(-c2c3nc(c(-c4ccccc4)c4ccc([nH]4)c(-c4ccccc4)c4nc(c(-c5ccccc5)c5ccc2[nH]5)C=C4)C=C3)cc1
REMARK SMILES IDX 15 1 14 2 13 3 11 4 12 5 2 7 1 8 3 9 4 10 5 13 6 14 7 15
REMARK SMILES IDX 10 16 8 17 9 18 16 19 17 20 18 21 19 22 20 24 21 25 22 26
REMARK SMILES IDX 68 27 23 28 67 29 24 30 25 31 26 32 61 33 27 34 66 35 60 36
REMARK SMILES IDX 62 37 28 38 65 39 59 40 58 41 29 43 51 44 36 45 50 46 37 47
REMARK SMILES IDX 40 48 49 49 63 50 38 51 39 52 48 54 64 55 41 56 30 57 31 58
REMARK SMILES IDX 35 59 32 60 34 61 33 62 52 63 53 64 57 65 54 66 56 67 55 68
REMARK SMILES IDX 42 69 43 70 47 71 44 72 46 73 45 74
REMARK H PARENT 13 6 4 11 4 12 18 23 62 42 40 53
REMARK Flexibility Score: inf
ROOT
ATOM      1  C   UNL     1      -1.081  -4.513  -2.032  1.00  0.00     0.023 C 
ENDROOT
BRANCH   1   2
ATOM      2  C   UNL     1       0.330  -4.120  -1.571  1.00  0.00     0.116 C 
BRANCH   2   3
ATOM      3  N   UNL     1       0.696  -2.821  -2.084  1.00  0.00    -0.351 N 
ATOM      4  C   UNL     1       0.725  -1.562  -1.580  1.00  0.00     0.280 C 
ATOM      5  O   UNL     1       0.967  -0.719  -2.461  1.00  0.00    -0.268 OA
ATOM      6  H   UNL     1       0.997  -2.858  -3.021  1.00  0.00     0.163 HD
BRANCH   4   7
ATOM      7  C   UNL     1       0.665  -1.128  -0.067  1.00  0.00     0.169 C 
ATOM      8  C   UNL     1       0.686   0.437  -0.112  1.00  0.00     0.090 C 
ATOM      9  C   UNL     1       1.936  -1.543   0.675  1.00  0.00     0.090 C 
BRANCH   7  10
ATOM     10  N   UNL     1      -0.568  -1.360   0.717  1.00  0.00    -0.332 N 
ATOM     11  H   UNL     1      -1.248  -0.698   0.343  1.00  0.00     0.347 HD
ATOM     12  H   UNL     1      -0.183  -1.293   1.659  1.00  0.00     0.347 HD
BRANCH  10  13
ATOM     13  C   UNL     1      -1.286  -2.605   0.839  1.00  0.00     0.293 C 
BRANCH  13  14
ATOM     14  C   UNL     1      -1.001  -3.639   1.958  1.00  0.00     0.173 C 
ATOM     15  C   UNL     1       0.420  -4.108   2.232  1.00  0.00     0.040 C 
ATOM     16  O   UNL     1      -1.755  -4.839   1.640  1.00  0.00    -0.372 OA
ATOM     17  C   UNL     1       0.223  -5.527   2.714  1.00  0.00     0.031 C 
ATOM     18  C   UNL     1      -0.924  -5.987   1.849  1.00  0.00     0.161 C 
ENDBRANCH  13  14
ENDBRANCH  10  13
ENDBRANCH   7  10
ENDBRANCH   4   7
ENDBRANCH   2   3
ENDBRANCH   1   2
BRANCH   1  19
ATOM     19  C   UNL     1      -1.126  -5.451  -3.232  1.00  0.00     0.023 C 
BRANCH  19  20
ATOM     20  C   UNL     1      -0.568  -6.842  -2.966  1.00  0.00     0.116 C 
BRANCH  20  21
ATOM     21  N   UNL     1      -1.262  -7.583  -1.919  1.00  0.00    -0.352 N 
ATOM     22  C   UNL     1      -1.432  -8.947  -1.825  1.00  0.00     0.251 C 
ATOM     23  H   UNL     1      -1.654  -7.045  -1.194  1.00  0.00     0.163 HD
ATOM     24  O   UNL     1      -2.044  -9.452  -0.890  1.00  0.00    -0.269 OA
BRANCH  22  25
ATOM     25  C   UNL     1      -0.919  -9.786  -2.925  1.00  0.00     0.039 A 
ATOM     26  C   UNL     1      -1.830 -10.544  -3.664  1.00  0.00     0.014 A 
ATOM     27  C   UNL     1       0.415  -9.680  -3.322  1.00  0.00     0.014 A 
ATOM     28  C   UNL     1      -1.427 -11.102  -4.876  1.00  0.00     0.010 A 
ATOM     29  C   UNL     1       0.793 -10.174  -4.565  1.00  0.00     0.010 A 
ATOM     30  C   UNL     1      -0.133 -10.862  -5.366  1.00  0.00    -0.014 A 
BRANCH  30  31
ATOM     31  C   UNL     1       0.259 -11.263  -6.739  1.00  0.00     0.031 A 
ATOM     32  C   UNL     1       1.357 -12.264  -6.947  1.00  0.00     0.074 A 
ATOM     33  C   UNL     1      -0.310 -10.653  -7.798  1.00  0.00     0.049 A 
ATOM     34  N   UNL     1       1.908 -12.662  -8.065  1.00  0.00    -0.248 NA
ATOM     35  C   UNL     1       1.927 -12.877  -5.738  1.00  0.00     0.031 C 
ATOM     36  C   UNL     1      -1.359  -9.632  -7.731  1.00  0.00     0.029 A 
ATOM     37  N   UNL     1      -0.075 -10.797  -9.143  1.00  0.00    -0.354 N 
ATOM     38  C   UNL     1       2.902 -13.556  -7.693  1.00  0.00     0.074 A 
ATOM     39  C   UNL     1       2.908 -13.608  -6.247  1.00  0.00     0.031 C 
ATOM     40  C   UNL     1      -1.698  -9.267  -8.979  1.00  0.00     0.029 A 
ATOM     41  C   UNL     1      -0.863  -9.992  -9.930  1.00  0.00     0.049 A 
ATOM     42  H   UNL     1       0.594 -11.419  -9.509  1.00  0.00     0.167 HD
ATOM     43  C   UNL     1       3.726 -14.283  -8.484  1.00  0.00     0.031 A 
ATOM     44  C   UNL     1      -0.902  -9.847 -11.267  1.00  0.00     0.031 A 
ATOM     45  C   UNL     1       3.714 -14.242  -9.921  1.00  0.00     0.049 A 
ATOM     46  C   UNL     1       0.037 -10.648 -12.122  1.00  0.00     0.074 A 
ATOM     47  C   UNL     1       4.472 -14.984 -10.811  1.00  0.00     0.029 A 
ATOM     48  N   UNL     1       2.903 -13.412 -10.678  1.00  0.00    -0.354 N 
ATOM     49  N   UNL     1       0.934 -11.531 -11.758  1.00  0.00    -0.248 NA
ATOM     50  C   UNL     1      -0.043 -10.432 -13.574  1.00  0.00     0.031 C 
ATOM     51  C   UNL     1       4.145 -14.574 -12.108  1.00  0.00     0.029 A 
ATOM     52  C   UNL     1       3.156 -13.607 -12.025  1.00  0.00     0.049 A 
ATOM     53  H   UNL     1       2.244 -12.778 -10.313  1.00  0.00     0.167 HD
ATOM     54  C   UNL     1       1.511 -11.991 -12.934  1.00  0.00     0.074 A 
ATOM     55  C   UNL     1       0.855 -11.299 -14.024  1.00  0.00     0.031 C 
ATOM     56  C   UNL     1       2.495 -12.908 -13.095  1.00  0.00     0.031 A 
BRANCH  43  57
ATOM     57  C   UNL     1       4.713 -15.181  -7.797  1.00  0.00    -0.014 A 
ATOM     58  C   UNL     1       4.293 -16.351  -7.144  1.00  0.00     0.009 A 
ATOM     59  C   UNL     1       6.078 -14.859  -7.808  1.00  0.00     0.009 A 
ATOM     60  C   UNL     1       5.218 -17.159  -6.480  1.00  0.00     0.001 A 
ATOM     61  C   UNL     1       7.003 -15.683  -7.165  1.00  0.00     0.001 A 
ATOM     62  C   UNL     1       6.571 -16.826  -6.493  1.00  0.00     0.000 A 
ENDBRANCH  43  57
BRANCH  44  63
ATOM     63  C   UNL     1      -1.879  -8.916 -11.887  1.00  0.00    -0.014 A 
ATOM     64  C   UNL     1      -2.999  -9.419 -12.567  1.00  0.00     0.009 A 
ATOM     65  C   UNL     1      -1.699  -7.527 -11.808  1.00  0.00     0.009 A 
ATOM     66  C   UNL     1      -3.909  -8.549 -13.172  1.00  0.00     0.001 A 
ATOM     67  C   UNL     1      -2.623  -6.659 -12.395  1.00  0.00     0.001 A 
ATOM     68  C   UNL     1      -3.723  -7.171 -13.082  1.00  0.00     0.000 A 
ENDBRANCH  44  63
BRANCH  56  69
ATOM     69  C   UNL     1       2.904 -13.232 -14.502  1.00  0.00    -0.014 A 
ATOM     70  C   UNL     1       3.703 -12.351 -15.245  1.00  0.00     0.009 A 
ATOM     71  C   UNL     1       2.522 -14.456 -15.072  1.00  0.00     0.009 A 
ATOM     72  C   UNL     1       4.094 -12.682 -16.544  1.00  0.00     0.001 A 
ATOM     73  C   UNL     1       2.933 -14.793 -16.362  1.00  0.00     0.001 A 
ATOM     74  C   UNL     1       3.713 -13.903 -17.099  1.00  0.00     0.000 A 
ENDBRANCH  56  69
ENDBRANCH  30  31
ENDBRANCH  22  25
ENDBRANCH  20  21
ENDBRANCH  19  20
ENDBRANCH   1  19
TORSDOF 14
