REMARK SMILES CC(=O)N[C@H](CSCC(=O)Nc1ccc2c(c1)N1CC[NH+]=C1S2)C(=O)NCCCCNC(=O)c1ccc(-c2c3nc(c(-c4ccccc4)c4ccc([nH]4)c(-c4ccccc4)c4nc(c(-c5ccccc5)c5ccc2[nH]5)C=C4)C=C3)cc1
REMARK SMILES IDX 27 1 26 2 24 3 25 4 5 6 4 7 1 8 2 9 3 10 6 12 7 13 8 14 9 15
REMARK SMILES IDX 10 16 11 17 12 19 13 20 17 21 14 22 16 23 15 24 18 25 23 26
REMARK SMILES IDX 19 27 22 28 20 29 21 30 28 32 29 33 30 34 31 35 32 36 33 38
REMARK SMILES IDX 34 39 35 40 81 41 36 42 80 43 37 44 38 45 39 46 74 47 40 48
REMARK SMILES IDX 79 49 73 50 75 51 41 52 78 53 72 54 71 55 42 57 64 58 49 59
REMARK SMILES IDX 63 60 50 61 53 62 62 63 76 64 51 65 52 66 61 68 77 69 54 70
REMARK SMILES IDX 43 71 44 72 48 73 45 74 47 75 46 76 65 77 66 78 70 79 67 80
REMARK SMILES IDX 69 81 68 82 55 83 56 84 60 85 57 86 59 87 58 88
REMARK H PARENT 26 5 4 11 11 18 21 31 31 37 75 56 53 67
REMARK Flexibility Score: inf
ROOT
ATOM      1  C   UNL     1       1.132   0.168   5.779  1.00  0.00     0.116 C 
ENDROOT
BRANCH   1   2
ATOM      2  N   UNL     1       1.122  -1.249   5.455  1.00  0.00    -0.354 N 
ATOM      3  C   UNL     1       1.463  -1.930   4.321  1.00  0.00     0.243 C 
ATOM      4  O   UNL     1       1.386  -3.162   4.353  1.00  0.00    -0.273 OA
ATOM      5  H   UNL     1       0.812  -1.826   6.190  1.00  0.00     0.163 HD
BRANCH   3   6
ATOM      6  C   UNL     1       1.913  -1.207   3.037  1.00  0.00     0.181 C 
BRANCH   6   7
ATOM      7  N   UNL     1       3.160  -0.492   3.345  1.00  0.00    -0.344 N 
ATOM      8  C   UNL     1       3.997  -0.244   1.039  1.00  0.00     0.114 C 
ATOM      9  C   UNL     1       4.134  -0.033   2.518  1.00  0.00     0.217 C 
ATOM     10  O   UNL     1       5.096   0.556   3.007  1.00  0.00    -0.275 OA
ATOM     11  H   UNL     1       3.313  -0.320   4.302  1.00  0.00     0.164 HD
ENDBRANCH   6   7
BRANCH   6  12
ATOM     12  C   UNL     1       0.827  -0.300   2.435  1.00  0.00     0.105 C 
BRANCH  12  13
ATOM     13  S   UNL     1      -0.881  -0.942   2.612  1.00  0.00    -0.149 SA
BRANCH  13  14
ATOM     14  C   UNL     1      -1.292  -1.456   0.935  1.00  0.00     0.169 C 
BRANCH  14  15
ATOM     15  C   UNL     1      -1.075  -0.415  -0.152  1.00  0.00     0.234 C 
ATOM     16  O   UNL     1      -0.112  -0.508  -0.919  1.00  0.00    -0.274 OA
ATOM     17  N   UNL     1      -2.023   0.545  -0.397  1.00  0.00    -0.325 N 
ATOM     18  H   UNL     1      -1.976   0.982  -1.278  1.00  0.00     0.169 HD
BRANCH  17  19
ATOM     19  C   UNL     1      -3.050   0.982   0.447  1.00  0.00     0.045 A 
ATOM     20  C   UNL     1      -2.757   1.538   1.705  1.00  0.00     0.027 A 
ATOM     21  C   UNL     1      -4.368   0.907  -0.008  1.00  0.00     0.079 A 
ATOM     22  C   UNL     1      -3.774   1.920   2.579  1.00  0.00     0.022 A 
ATOM     23  C   UNL     1      -5.386   1.247   0.867  1.00  0.00     0.144 A 
ATOM     24  C   UNL     1      -5.076   1.742   2.157  1.00  0.00     0.067 A 
ATOM     25  N   UNL     1      -6.733   1.104   0.676  1.00  0.00    -0.216 N 
ATOM     26  S   UNL     1      -6.584   2.031   3.096  1.00  0.00     0.002 SA
ATOM     27  C   UNL     1      -7.558   0.722  -0.423  1.00  0.00     0.289 C 
ATOM     28  C   UNL     1      -7.510   1.404   1.753  1.00  0.00     0.316 C 
ATOM     29  C   UNL     1      -8.908   0.543   0.318  1.00  0.00     0.280 C 
ATOM     30  N   UNL     1      -8.790   1.190   1.679  1.00  0.00    -0.264 N 
ATOM     31  H   UNL     1      -9.494   1.395   2.335  1.00  0.00     0.305 HD
ENDBRANCH  17  19
ENDBRANCH  14  15
ENDBRANCH  13  14
ENDBRANCH  12  13
ENDBRANCH   6  12
ENDBRANCH   3   6
ENDBRANCH   1   2
BRANCH   1  32
ATOM     32  C   UNL     1      -0.251   0.824   5.807  1.00  0.00     0.023 C 
BRANCH  32  33
ATOM     33  C   UNL     1      -1.309   0.124   6.658  1.00  0.00     0.023 C 
BRANCH  33  34
ATOM     34  C   UNL     1      -0.904  -0.150   8.098  1.00  0.00     0.116 C 
BRANCH  34  35
ATOM     35  N   UNL     1      -0.527   1.041   8.843  1.00  0.00    -0.352 N 
ATOM     36  C   UNL     1      -0.703   1.309  10.186  1.00  0.00     0.251 C 
ATOM     37  H   UNL     1      -0.087   1.750   8.320  1.00  0.00     0.163 HD
ATOM     38  O   UNL     1      -0.394   2.394  10.647  1.00  0.00    -0.269 OA
BRANCH  36  39
ATOM     39  C   UNL     1      -1.332   0.279  11.046  1.00  0.00     0.039 A 
ATOM     40  C   UNL     1      -0.933  -1.055  10.967  1.00  0.00     0.014 A 
ATOM     41  C   UNL     1      -2.385   0.651  11.886  1.00  0.00     0.014 A 
ATOM     42  C   UNL     1      -1.712  -2.037  11.564  1.00  0.00     0.010 A 
ATOM     43  C   UNL     1      -3.108  -0.334  12.565  1.00  0.00     0.010 A 
ATOM     44  C   UNL     1      -2.818  -1.691  12.358  1.00  0.00    -0.014 A 
BRANCH  44  45
ATOM     45  C   UNL     1      -3.668  -2.769  12.926  1.00  0.00     0.031 A 
ATOM     46  C   UNL     1      -5.103  -2.928  12.493  1.00  0.00     0.074 A 
ATOM     47  C   UNL     1      -3.118  -3.664  13.770  1.00  0.00     0.049 A 
ATOM     48  N   UNL     1      -5.969  -3.847  12.841  1.00  0.00    -0.248 NA
ATOM     49  C   UNL     1      -5.639  -1.931  11.551  1.00  0.00     0.031 C 
ATOM     50  C   UNL     1      -1.731  -3.634  14.240  1.00  0.00     0.029 A 
ATOM     51  N   UNL     1      -3.640  -4.795  14.346  1.00  0.00    -0.354 N 
ATOM     52  C   UNL     1      -7.149  -3.530  12.178  1.00  0.00     0.074 A 
ATOM     53  C   UNL     1      -6.902  -2.318  11.430  1.00  0.00     0.031 C 
ATOM     54  C   UNL     1      -1.492  -4.734  14.968  1.00  0.00     0.029 A 
ATOM     55  C   UNL     1      -2.723  -5.510  15.078  1.00  0.00     0.049 A 
ATOM     56  H   UNL     1      -4.581  -5.067  14.245  1.00  0.00     0.167 HD
ATOM     57  C   UNL     1      -8.328  -4.196  12.183  1.00  0.00     0.031 A 
ATOM     58  C   UNL     1      -2.852  -6.660  15.766  1.00  0.00     0.031 A 
ATOM     59  C   UNL     1      -8.568  -5.412  12.914  1.00  0.00     0.049 A 
ATOM     60  C   UNL     1      -4.181  -7.357  15.787  1.00  0.00     0.074 A 
ATOM     61  C   UNL     1      -9.733  -6.158  12.978  1.00  0.00     0.029 A 
ATOM     62  N   UNL     1      -7.630  -6.064  13.697  1.00  0.00    -0.354 N 
ATOM     63  N   UNL     1      -5.288  -7.036  15.162  1.00  0.00    -0.248 NA
ATOM     64  C   UNL     1      -4.283  -8.572  16.607  1.00  0.00     0.031 C 
ATOM     65  C   UNL     1      -9.514  -7.234  13.841  1.00  0.00     0.029 A 
ATOM     66  C   UNL     1      -8.195  -7.195  14.261  1.00  0.00     0.049 A 
ATOM     67  H   UNL     1      -6.700  -5.768  13.832  1.00  0.00     0.167 HD
ATOM     68  C   UNL     1      -6.211  -8.017  15.498  1.00  0.00     0.074 A 
ATOM     69  C   UNL     1      -5.531  -8.954  16.367  1.00  0.00     0.031 C 
ATOM     70  C   UNL     1      -7.507  -8.125  15.119  1.00  0.00     0.031 A 
BRANCH  57  71
ATOM     71  C   UNL     1      -9.466  -3.630  11.380  1.00  0.00    -0.014 A 
ATOM     72  C   UNL     1     -10.590  -3.104  12.039  1.00  0.00     0.009 A 
ATOM     73  C   UNL     1      -9.475  -3.704   9.978  1.00  0.00     0.009 A 
ATOM     74  C   UNL     1     -11.705  -2.680  11.313  1.00  0.00     0.001 A 
ATOM     75  C   UNL     1     -10.581  -3.252   9.254  1.00  0.00     0.001 A 
ATOM     76  C   UNL     1     -11.698  -2.751   9.921  1.00  0.00     0.000 A 
ENDBRANCH  57  71
BRANCH  58  77
ATOM     77  C   UNL     1      -1.673  -7.223  16.476  1.00  0.00    -0.014 A 
ATOM     78  C   UNL     1      -1.120  -6.556  17.581  1.00  0.00     0.009 A 
ATOM     79  C   UNL     1      -1.063  -8.402  16.022  1.00  0.00     0.009 A 
ATOM     80  C   UNL     1       0.034  -7.040  18.199  1.00  0.00     0.001 A 
ATOM     81  C   UNL     1       0.073  -8.902  16.663  1.00  0.00     0.001 A 
ATOM     82  C   UNL     1       0.627  -8.216  17.743  1.00  0.00     0.000 A 
ENDBRANCH  58  77
BRANCH  70  83
ATOM     83  C   UNL     1      -8.288  -9.309  15.614  1.00  0.00    -0.014 A 
ATOM     84  C   UNL     1      -8.684 -10.306  14.709  1.00  0.00     0.009 A 
ATOM     85  C   UNL     1      -8.724  -9.384  16.945  1.00  0.00     0.009 A 
ATOM     86  C   UNL     1      -9.516 -11.348  15.121  1.00  0.00     0.001 A 
ATOM     87  C   UNL     1      -9.534 -10.443  17.361  1.00  0.00     0.001 A 
ATOM     88  C   UNL     1      -9.937 -11.417  16.448  1.00  0.00     0.000 A 
ENDBRANCH  70  83
ENDBRANCH  44  45
ENDBRANCH  36  39
ENDBRANCH  34  35
ENDBRANCH  33  34
ENDBRANCH  32  33
ENDBRANCH   1  32
TORSDOF 17
