REMARK SMILES COC(=O)[C@H]1Sc2nnc(CCC(=O)NCCCCNC(=O)c3ccc(-c4c5nc(c(-c6ccccc6)c6ccc([nH]6)c(-c6ccccc6)c6nc(c(-c7ccccc7)c7ccc4[nH]7)C=C6)C=C5)cc3)c(=O)n2N=C1C
REMARK SMILES IDX 16 1 15 2 13 3 14 4 12 6 11 7 10 8 5 9 6 10 75 11 7 12 74 13
REMARK SMILES IDX 76 14 8 15 73 16 9 17 71 18 72 19 3 20 4 21 2 22 1 23 17 24
REMARK SMILES IDX 18 25 19 26 20 27 21 28 22 30 23 31 24 32 70 33 25 34 69 35
REMARK SMILES IDX 26 36 27 37 28 38 63 39 29 40 68 41 62 42 64 43 30 44 67 45
REMARK SMILES IDX 61 46 60 47 31 49 53 50 38 51 52 52 39 53 42 54 51 55 65 56
REMARK SMILES IDX 40 57 41 58 50 60 66 61 43 62 32 63 33 64 37 65 34 66 36 67
REMARK SMILES IDX 35 68 54 69 55 70 59 71 56 72 58 73 57 74 44 75 45 76 49 77
REMARK SMILES IDX 46 78 48 79 47 80
REMARK H PARENT 15 5 20 29 64 48 42 59
REMARK Flexibility Score: inf
ROOT
ATOM      1  C   UNL     1      -0.833   8.028   2.979  1.00  0.00     0.116 C 
ENDROOT
BRANCH   1   2
ATOM      2  N   UNL     1      -0.244   9.335   3.181  1.00  0.00    -0.356 N 
ATOM      3  C   UNL     1       0.193  10.232   2.253  1.00  0.00     0.220 C 
ATOM      4  O   UNL     1       0.855  11.196   2.639  1.00  0.00    -0.275 OA
ATOM      5  H   UNL     1      -0.146   9.614   4.120  1.00  0.00     0.163 HD
BRANCH   3   6
ATOM      6  C   UNL     1      -0.137  10.046   0.784  1.00  0.00     0.106 C 
BRANCH   6   7
ATOM      7  C   UNL     1       1.050   9.522  -0.022  1.00  0.00     0.074 C 
BRANCH   7   8
ATOM      8  C   UNL     1       0.855   8.094  -0.487  1.00  0.00     0.131 A 
ATOM      9  C   UNL     1       0.136   3.087  -0.023  1.00  0.00     0.210 C 
ATOM     10  S   UNL     1       0.247   3.880  -1.645  1.00  0.00    -0.063 SA
ATOM     11  C   UNL     1       1.218   3.629   0.880  1.00  0.00     0.061 C 
ATOM     12  C   UNL     1       0.403   5.526  -1.095  1.00  0.00     0.214 A 
ATOM     13  N   UNL     1       1.744   4.816   0.825  1.00  0.00    -0.171 NA
ATOM     14  C   UNL     1       1.807   2.719   1.938  1.00  0.00     0.065 C 
ATOM     15  N   UNL     1      -0.228   6.457  -1.733  1.00  0.00    -0.123 NA
ATOM     16  N   UNL     1       1.268   5.759  -0.059  1.00  0.00    -0.169 N 
ATOM     17  N   UNL     1      -0.102   7.792  -1.310  1.00  0.00    -0.147 NA
ATOM     18  C   UNL     1       1.770   7.037   0.074  1.00  0.00     0.296 A 
ATOM     19  O   UNL     1       2.814   7.374   0.618  1.00  0.00    -0.265 OA
BRANCH   9  20
ATOM     20  C   UNL     1      -1.309   3.122   0.421  1.00  0.00     0.325 C 
ATOM     21  O   UNL     1      -2.117   2.260   0.081  1.00  0.00    -0.250 OA
BRANCH  20  22
ATOM     22  O   UNL     1      -1.652   4.249   1.115  1.00  0.00    -0.468 OA
ATOM     23  C   UNL     1      -3.038   4.260   1.508  1.00  0.00     0.282 C 
ENDBRANCH  20  22
ENDBRANCH   9  20
ENDBRANCH   7   8
ENDBRANCH   6   7
ENDBRANCH   3   6
ENDBRANCH   1   2
BRANCH   1  24
ATOM     24  C   UNL     1       0.263   6.975   2.928  1.00  0.00     0.023 C 
BRANCH  24  25
ATOM     25  C   UNL     1       0.628   6.336   4.260  1.00  0.00     0.023 C 
BRANCH  25  26
ATOM     26  C   UNL     1      -0.430   5.398   4.824  1.00  0.00     0.116 C 
BRANCH  26  27
ATOM     27  N   UNL     1      -0.819   4.346   3.891  1.00  0.00    -0.352 N 
ATOM     28  C   UNL     1      -0.886   2.981   4.018  1.00  0.00     0.251 C 
ATOM     29  H   UNL     1      -1.083   4.678   3.003  1.00  0.00     0.163 HD
ATOM     30  O   UNL     1      -1.112   2.277   3.045  1.00  0.00    -0.269 OA
BRANCH  28  31
ATOM     31  C   UNL     1      -0.571   2.337   5.290  1.00  0.00     0.039 A 
ATOM     32  C   UNL     1       0.183   1.158   5.246  1.00  0.00     0.014 A 
ATOM     33  C   UNL     1      -0.943   2.921   6.495  1.00  0.00     0.014 A 
ATOM     34  C   UNL     1       0.681   0.635   6.424  1.00  0.00     0.010 A 
ATOM     35  C   UNL     1      -0.346   2.476   7.652  1.00  0.00     0.010 A 
ATOM     36  C   UNL     1       0.471   1.337   7.614  1.00  0.00    -0.014 A 
BRANCH  36  37
ATOM     37  C   UNL     1       1.060   0.876   8.873  1.00  0.00     0.031 A 
ATOM     38  C   UNL     1       0.132   0.416   9.948  1.00  0.00     0.074 A 
ATOM     39  C   UNL     1       2.391   0.970   9.033  1.00  0.00     0.049 A 
ATOM     40  N   UNL     1       0.393   0.128  11.190  1.00  0.00    -0.248 NA
ATOM     41  C   UNL     1      -1.297   0.322   9.589  1.00  0.00     0.031 C 
ATOM     42  C   UNL     1       3.339   1.442   8.016  1.00  0.00     0.029 A 
ATOM     43  N   UNL     1       3.179   0.671  10.107  1.00  0.00    -0.354 N 
ATOM     44  C   UNL     1      -0.838  -0.144  11.767  1.00  0.00     0.074 A 
ATOM     45  C   UNL     1      -1.852   0.072  10.763  1.00  0.00     0.031 C 
ATOM     46  C   UNL     1       4.587   1.350   8.502  1.00  0.00     0.029 A 
ATOM     47  C   UNL     1       4.519   0.863   9.873  1.00  0.00     0.049 A 
ATOM     48  H   UNL     1       2.822   0.349  10.966  1.00  0.00     0.167 HD
ATOM     49  C   UNL     1      -1.086  -0.567  13.025  1.00  0.00     0.031 A 
ATOM     50  C   UNL     1       5.565   0.656  10.691  1.00  0.00     0.031 A 
ATOM     51  C   UNL     1      -0.039  -0.805  13.976  1.00  0.00     0.049 A 
ATOM     52  C   UNL     1       5.266   0.154  12.075  1.00  0.00     0.074 A 
ATOM     53  C   UNL     1      -0.133  -1.254  15.277  1.00  0.00     0.029 A 
ATOM     54  N   UNL     1       1.312  -0.627  13.699  1.00  0.00    -0.354 N 
ATOM     55  N   UNL     1       4.099  -0.110  12.617  1.00  0.00    -0.248 NA
ATOM     56  C   UNL     1       6.413  -0.078  12.960  1.00  0.00     0.031 C 
ATOM     57  C   UNL     1       1.164  -1.331  15.794  1.00  0.00     0.029 A 
ATOM     58  C   UNL     1       2.066  -0.963  14.803  1.00  0.00     0.049 A 
ATOM     59  H   UNL     1       1.676  -0.309  12.841  1.00  0.00     0.167 HD
ATOM     60  C   UNL     1       4.367  -0.552  13.903  1.00  0.00     0.074 A 
ATOM     61  C   UNL     1       5.811  -0.536  14.051  1.00  0.00     0.031 C 
ATOM     62  C   UNL     1       3.506  -0.930  14.879  1.00  0.00     0.031 A 
BRANCH  49  63
ATOM     63  C   UNL     1      -2.522  -0.788  13.400  1.00  0.00    -0.014 A 
ATOM     64  C   UNL     1      -3.263  -1.841  12.837  1.00  0.00     0.009 A 
ATOM     65  C   UNL     1      -3.160   0.089  14.290  1.00  0.00     0.009 A 
ATOM     66  C   UNL     1      -4.623  -1.982  13.118  1.00  0.00     0.001 A 
ATOM     67  C   UNL     1      -4.514  -0.072  14.592  1.00  0.00     0.001 A 
ATOM     68  C   UNL     1      -5.247  -1.099  13.997  1.00  0.00     0.000 A 
ENDBRANCH  49  63
BRANCH  50  69
ATOM     69  C   UNL     1       6.950   0.869  10.199  1.00  0.00    -0.014 A 
ATOM     70  C   UNL     1       7.777  -0.232   9.928  1.00  0.00     0.009 A 
ATOM     71  C   UNL     1       7.435   2.159   9.931  1.00  0.00     0.009 A 
ATOM     72  C   UNL     1       9.062  -0.045   9.410  1.00  0.00     0.001 A 
ATOM     73  C   UNL     1       8.712   2.342   9.392  1.00  0.00     0.001 A 
ATOM     74  C   UNL     1       9.526   1.240   9.136  1.00  0.00     0.000 A 
ENDBRANCH  50  69
BRANCH  62  75
ATOM     75  C   UNL     1       4.109  -1.364  16.178  1.00  0.00    -0.014 A 
ATOM     76  C   UNL     1       4.554  -0.414  17.108  1.00  0.00     0.009 A 
ATOM     77  C   UNL     1       4.119  -2.725  16.516  1.00  0.00     0.009 A 
ATOM     78  C   UNL     1       5.006  -0.824  18.360  1.00  0.00     0.001 A 
ATOM     79  C   UNL     1       4.552  -3.128  17.777  1.00  0.00     0.001 A 
ATOM     80  C   UNL     1       4.995  -2.178  18.697  1.00  0.00     0.000 A 
ENDBRANCH  62  75
ENDBRANCH  36  37
ENDBRANCH  28  31
ENDBRANCH  26  27
ENDBRANCH  25  26
ENDBRANCH  24  25
ENDBRANCH   1  24
TORSDOF 15
