REMARK SMILES COc1ccccc1NC(=O)N[C@@](C)(C(=O)NCCCCNC(=O)c1ccc(-c2c3nc(c(-c4ccccc4)c4ccc([nH]4)c(-c4ccccc4)c4nc(c(-c5ccccc5)c5ccc2[nH]5)C=C4)C=C3)cc1)C(F)(F)F
REMARK SMILES IDX 19 1 18 2 17 3 15 4 16 5 13 7 14 8 12 9 9 10 10 11 11 13
REMARK SMILES IDX 8 15 3 16 4 17 5 18 7 19 6 20 2 21 1 22 73 23 74 24 75 25
REMARK SMILES IDX 76 26 20 27 21 28 22 29 23 30 24 32 25 33 26 34 72 35 27 36
REMARK SMILES IDX 71 37 28 38 29 39 30 40 65 41 31 42 70 43 64 44 66 45 32 46
REMARK SMILES IDX 69 47 63 48 62 49 33 51 55 52 40 53 54 54 41 55 44 56 53 57
REMARK SMILES IDX 67 58 42 59 43 60 52 62 68 63 45 64 34 65 35 66 39 67 36 68
REMARK SMILES IDX 38 69 37 70 56 71 57 72 61 73 58 74 60 75 59 76 46 77 47 78
REMARK SMILES IDX 51 79 48 80 50 81 49 82
REMARK H PARENT 17 6 9 12 12 14 22 31 66 50 44 61
REMARK Flexibility Score: inf
ROOT
ATOM      1  C   UNL     1       8.549   3.251  -3.084  1.00  0.00     0.023 C 
ENDROOT
BRANCH   1   2
ATOM      2  C   UNL     1       7.283   4.108  -3.194  1.00  0.00     0.116 C 
BRANCH   2   3
ATOM      3  N   UNL     1       6.552   3.724  -4.382  1.00  0.00    -0.354 N 
ATOM      4  C   UNL     1       5.457   2.971  -4.643  1.00  0.00     0.255 C 
ATOM      5  O   UNL     1       5.431   2.594  -5.819  1.00  0.00    -0.272 OA
ATOM      6  H   UNL     1       6.947   4.102  -5.200  1.00  0.00     0.163 HD
BRANCH   4   7
ATOM      7  C   UNL     1       4.246   2.845  -3.675  1.00  0.00     0.213 C 
ATOM      8  C   UNL     1       3.715   4.286  -3.556  1.00  0.00     0.056 C 
BRANCH   7   9
ATOM      9  N   UNL     1       4.695   2.352  -2.330  1.00  0.00    -0.316 N 
ATOM     10  N   UNL     1       2.876   1.549  -0.994  1.00  0.00    -0.305 N 
ATOM     11  C   UNL     1       4.167   1.818  -1.222  1.00  0.00     0.320 C 
ATOM     12  H   UNL     1       2.765   0.793  -0.373  1.00  0.00     0.172 HD
ATOM     13  O   UNL     1       4.991   1.397  -0.401  1.00  0.00    -0.248 OA
ATOM     14  H   UNL     1       5.670   2.450  -2.235  1.00  0.00     0.166 HD
BRANCH  10  15
ATOM     15  C   UNL     1       1.643   2.064  -1.410  1.00  0.00     0.085 A 
ATOM     16  C   UNL     1       0.571   1.168  -1.560  1.00  0.00     0.142 A 
ATOM     17  C   UNL     1      -0.589   1.549  -2.235  1.00  0.00     0.048 A 
ATOM     18  C   UNL     1      -0.736   2.870  -2.652  1.00  0.00     0.004 A 
ATOM     19  C   UNL     1       1.424   3.406  -1.689  1.00  0.00     0.030 A 
ATOM     20  C   UNL     1       0.246   3.808  -2.331  1.00  0.00     0.002 A 
BRANCH  16  21
ATOM     21  O   UNL     1       0.686  -0.138  -1.157  1.00  0.00    -0.495 OA
ATOM     22  C   UNL     1       0.331  -0.254   0.225  1.00  0.00     0.278 C 
ENDBRANCH  16  21
ENDBRANCH  10  15
ENDBRANCH   7   9
BRANCH   7  23
ATOM     23  C   UNL     1       3.307   1.900  -4.474  1.00  0.00     0.420 C 
ATOM     24  F   UNL     1       3.877   0.687  -4.675  1.00  0.00    -0.168 F 
ATOM     25  F   UNL     1       2.134   1.663  -3.866  1.00  0.00    -0.168 F 
ATOM     26  F   UNL     1       2.967   2.417  -5.681  1.00  0.00    -0.168 F 
ENDBRANCH   7  23
ENDBRANCH   4   7
ENDBRANCH   2   3
ENDBRANCH   1   2
BRANCH   1  27
ATOM     27  C   UNL     1       9.372   3.124  -4.380  1.00  0.00     0.023 C 
BRANCH  27  28
ATOM     28  C   UNL     1       9.696   4.426  -5.110  1.00  0.00     0.116 C 
BRANCH  28  29
ATOM     29  N   UNL     1      10.445   5.365  -4.300  1.00  0.00    -0.352 N 
ATOM     30  C   UNL     1      11.497   6.163  -4.677  1.00  0.00     0.251 C 
ATOM     31  H   UNL     1      10.163   5.442  -3.360  1.00  0.00     0.163 HD
ATOM     32  O   UNL     1      12.079   6.856  -3.848  1.00  0.00    -0.269 OA
BRANCH  30  33
ATOM     33  C   UNL     1      11.955   6.148  -6.081  1.00  0.00     0.039 A 
ATOM     34  C   UNL     1      13.304   5.889  -6.337  1.00  0.00     0.014 A 
ATOM     35  C   UNL     1      11.061   6.358  -7.135  1.00  0.00     0.014 A 
ATOM     36  C   UNL     1      13.748   5.785  -7.656  1.00  0.00     0.010 A 
ATOM     37  C   UNL     1      11.496   6.199  -8.450  1.00  0.00     0.010 A 
ATOM     38  C   UNL     1      12.842   5.910  -8.722  1.00  0.00    -0.014 A 
BRANCH  38  39
ATOM     39  C   UNL     1      13.293   5.737 -10.126  1.00  0.00     0.031 A 
ATOM     40  C   UNL     1      13.277   6.904 -11.073  1.00  0.00     0.074 A 
ATOM     41  C   UNL     1      13.671   4.520 -10.561  1.00  0.00     0.049 A 
ATOM     42  N   UNL     1      13.595   6.940 -12.343  1.00  0.00    -0.248 NA
ATOM     43  C   UNL     1      12.828   8.194 -10.528  1.00  0.00     0.031 C 
ATOM     44  C   UNL     1      13.698   3.300  -9.752  1.00  0.00     0.029 A 
ATOM     45  N   UNL     1      14.102   4.108 -11.797  1.00  0.00    -0.354 N 
ATOM     46  C   UNL     1      13.369   8.248 -12.750  1.00  0.00     0.074 A 
ATOM     47  C   UNL     1      12.846   8.964 -11.606  1.00  0.00     0.031 C 
ATOM     48  C   UNL     1      14.146   2.283 -10.506  1.00  0.00     0.029 A 
ATOM     49  C   UNL     1      14.405   2.769 -11.857  1.00  0.00     0.049 A 
ATOM     50  H   UNL     1      14.187   4.714 -12.568  1.00  0.00     0.167 HD
ATOM     51  C   UNL     1      13.593   8.811 -13.962  1.00  0.00     0.031 A 
ATOM     52  C   UNL     1      14.840   2.017 -12.885  1.00  0.00     0.031 A 
ATOM     53  C   UNL     1      14.123   8.105 -15.097  1.00  0.00     0.049 A 
ATOM     54  C   UNL     1      15.072   2.663 -14.223  1.00  0.00     0.074 A 
ATOM     55  C   UNL     1      14.431   8.599 -16.353  1.00  0.00     0.029 A 
ATOM     56  N   UNL     1      14.423   6.753 -15.114  1.00  0.00    -0.354 N 
ATOM     57  N   UNL     1      14.911   3.916 -14.574  1.00  0.00    -0.248 NA
ATOM     58  C   UNL     1      15.555   1.791 -15.303  1.00  0.00     0.031 C 
ATOM     59  C   UNL     1      14.881   7.535 -17.142  1.00  0.00     0.029 A 
ATOM     60  C   UNL     1      14.896   6.390 -16.363  1.00  0.00     0.049 A 
ATOM     61  H   UNL     1      14.315   6.140 -14.350  1.00  0.00     0.167 HD
ATOM     62  C   UNL     1      15.298   3.987 -15.905  1.00  0.00     0.074 A 
ATOM     63  C   UNL     1      15.715   2.656 -16.295  1.00  0.00     0.031 C 
ATOM     64  C   UNL     1      15.308   5.061 -16.732  1.00  0.00     0.031 A 
BRANCH  51  65
ATOM     65  C   UNL     1      13.260  10.268 -14.116  1.00  0.00    -0.014 A 
ATOM     66  C   UNL     1      14.040  11.259 -13.499  1.00  0.00     0.009 A 
ATOM     67  C   UNL     1      12.168  10.657 -14.908  1.00  0.00     0.009 A 
ATOM     68  C   UNL     1      13.710  12.609 -13.640  1.00  0.00     0.001 A 
ATOM     69  C   UNL     1      11.857  12.008 -15.069  1.00  0.00     0.001 A 
ATOM     70  C   UNL     1      12.621  12.982 -14.428  1.00  0.00     0.000 A 
ENDBRANCH  51  65
BRANCH  52  71
ATOM     71  C   UNL     1      15.105   0.568 -12.691  1.00  0.00    -0.014 A 
ATOM     72  C   UNL     1      16.421   0.082 -12.677  1.00  0.00     0.009 A 
ATOM     73  C   UNL     1      14.044  -0.337 -12.528  1.00  0.00     0.009 A 
ATOM     74  C   UNL     1      16.669  -1.285 -12.532  1.00  0.00     0.001 A 
ATOM     75  C   UNL     1      14.297  -1.699 -12.357  1.00  0.00     0.001 A 
ATOM     76  C   UNL     1      15.608  -2.174 -12.368  1.00  0.00     0.000 A 
ENDBRANCH  52  71
BRANCH  64  77
ATOM     77  C   UNL     1      15.817   4.846 -18.128  1.00  0.00    -0.014 A 
ATOM     78  C   UNL     1      15.048   4.169 -19.087  1.00  0.00     0.009 A 
ATOM     79  C   UNL     1      17.068   5.364 -18.499  1.00  0.00     0.009 A 
ATOM     80  C   UNL     1      15.536   3.989 -20.383  1.00  0.00     0.001 A 
ATOM     81  C   UNL     1      17.541   5.205 -19.802  1.00  0.00     0.001 A 
ATOM     82  C   UNL     1      16.779   4.511 -20.740  1.00  0.00     0.000 A 
ENDBRANCH  64  77
ENDBRANCH  38  39
ENDBRANCH  30  33
ENDBRANCH  28  29
ENDBRANCH  27  28
ENDBRANCH   1  27
TORSDOF 15
