REMARK SMILES O=C(NCCCCNC(=O)[C@H]1C[NH2+]CCN1c1ncc(C(F)(F)F)cc1Cl)c1ccc(-c2c3nc(c(-c4ccccc4)c4ccc([nH]4)c(-c4ccccc4)c4nc(c(-c5ccccc5)c5ccc2[nH]5)C=C4)C=C3)cc1
REMARK SMILES IDX 5 1 4 2 3 3 1 4 2 5 28 7 29 8 75 9 30 10 74 11 31 12 32 13
REMARK SMILES IDX 33 14 68 15 34 16 73 17 67 18 69 19 35 20 72 21 66 22 65 23
REMARK SMILES IDX 36 25 58 26 43 27 57 28 44 29 47 30 56 31 70 32 45 33 46 34
REMARK SMILES IDX 55 36 71 37 48 38 37 39 38 40 42 41 39 42 41 43 40 44 59 45
REMARK SMILES IDX 60 46 64 47 61 48 63 49 62 50 49 51 50 52 54 53 51 54 53 55
REMARK SMILES IDX 52 56 6 57 7 58 8 59 9 60 10 62 11 63 12 64 16 65 13 66
REMARK SMILES IDX 15 67 14 68 17 71 18 72 26 73 19 74 25 75 27 76 20 77 21 78
REMARK SMILES IDX 22 79 23 80 24 81
REMARK H PARENT 3 6 69 24 47 35 8 61 13 69 13 70
REMARK Flexibility Score: inf
ROOT
ATOM      1  C   UNL     1      11.194   1.622   6.785  1.00  0.00     0.023 C 
ENDROOT
BRANCH   1   2
ATOM      2  C   UNL     1      12.079   0.382   6.840  1.00  0.00     0.116 C 
BRANCH   2   3
ATOM      3  N   UNL     1      12.734   0.092   5.575  1.00  0.00    -0.352 N 
ATOM      4  O   UNL     1      14.457  -0.227   4.155  1.00  0.00    -0.269 OA
ATOM      5  C   UNL     1      14.066  -0.124   5.314  1.00  0.00     0.251 C 
ATOM      6  H   UNL     1      12.138   0.045   4.793  1.00  0.00     0.163 HD
BRANCH   5   7
ATOM      7  C   UNL     1      15.034  -0.206   6.429  1.00  0.00     0.039 A 
ATOM      8  C   UNL     1      14.760  -0.976   7.561  1.00  0.00     0.014 A 
ATOM      9  C   UNL     1      16.241   0.493   6.331  1.00  0.00     0.014 A 
ATOM     10  C   UNL     1      15.628  -0.939   8.648  1.00  0.00     0.010 A 
ATOM     11  C   UNL     1      17.149   0.467   7.394  1.00  0.00     0.010 A 
ATOM     12  C   UNL     1      16.836  -0.227   8.573  1.00  0.00    -0.014 A 
BRANCH  12  13
ATOM     13  C   UNL     1      17.784  -0.276   9.714  1.00  0.00     0.031 A 
ATOM     14  C   UNL     1      18.099   0.952  10.521  1.00  0.00     0.074 A 
ATOM     15  C   UNL     1      18.341  -1.458  10.040  1.00  0.00     0.049 A 
ATOM     16  N   UNL     1      18.884   1.071  11.563  1.00  0.00    -0.248 NA
ATOM     17  C   UNL     1      17.458   2.210  10.106  1.00  0.00     0.031 C 
ATOM     18  C   UNL     1      18.112  -2.721   9.333  1.00  0.00     0.029 A 
ATOM     19  N   UNL     1      19.195  -1.797  11.057  1.00  0.00    -0.354 N 
ATOM     20  C   UNL     1      18.844   2.414  11.919  1.00  0.00     0.074 A 
ATOM     21  C   UNL     1      17.976   3.075  10.968  1.00  0.00     0.031 C 
ATOM     22  C   UNL     1      18.765  -3.705   9.969  1.00  0.00     0.029 A 
ATOM     23  C   UNL     1      19.508  -3.134  11.086  1.00  0.00     0.049 A 
ATOM     24  H   UNL     1      19.550  -1.145  11.704  1.00  0.00     0.167 HD
ATOM     25  C   UNL     1      19.469   3.036  12.948  1.00  0.00     0.031 A 
ATOM     26  C   UNL     1      20.313  -3.827  11.912  1.00  0.00     0.031 A 
ATOM     27  C   UNL     1      20.335   2.377  13.892  1.00  0.00     0.049 A 
ATOM     28  C   UNL     1      21.025  -3.104  13.015  1.00  0.00     0.074 A 
ATOM     29  C   UNL     1      20.996   2.921  14.981  1.00  0.00     0.029 A 
ATOM     30  N   UNL     1      20.665   1.032  13.857  1.00  0.00    -0.354 N 
ATOM     31  N   UNL     1      20.956  -1.839  13.351  1.00  0.00    -0.248 NA
ATOM     32  C   UNL     1      21.929  -3.905  13.851  1.00  0.00     0.031 C 
ATOM     33  C   UNL     1      21.763   1.913  15.576  1.00  0.00     0.029 A 
ATOM     34  C   UNL     1      21.538   0.731  14.890  1.00  0.00     0.049 A 
ATOM     35  H   UNL     1      20.328   0.385  13.195  1.00  0.00     0.167 HD
ATOM     36  C   UNL     1      21.794  -1.694  14.447  1.00  0.00     0.074 A 
ATOM     37  C   UNL     1      22.344  -3.004  14.732  1.00  0.00     0.031 C 
ATOM     38  C   UNL     1      22.083  -0.575  15.154  1.00  0.00     0.031 A 
BRANCH  25  39
ATOM     39  C   UNL     1      19.260   4.518  13.096  1.00  0.00    -0.014 A 
ATOM     40  C   UNL     1      18.042   5.039  13.560  1.00  0.00     0.009 A 
ATOM     41  C   UNL     1      20.314   5.402  12.818  1.00  0.00     0.009 A 
ATOM     42  C   UNL     1      17.877   6.418  13.716  1.00  0.00     0.001 A 
ATOM     43  C   UNL     1      20.154   6.777  12.997  1.00  0.00     0.001 A 
ATOM     44  C   UNL     1      18.933   7.285  13.439  1.00  0.00     0.000 A 
ENDBRANCH  25  39
BRANCH  26  45
ATOM     45  C   UNL     1      20.491  -5.288  11.713  1.00  0.00    -0.014 A 
ATOM     46  C   UNL     1      19.952  -6.203  12.630  1.00  0.00     0.009 A 
ATOM     47  C   UNL     1      21.188  -5.774  10.596  1.00  0.00     0.009 A 
ATOM     48  C   UNL     1      20.123  -7.575  12.439  1.00  0.00     0.001 A 
ATOM     49  C   UNL     1      21.331  -7.147  10.393  1.00  0.00     0.001 A 
ATOM     50  C   UNL     1      20.806  -8.046  11.319  1.00  0.00     0.000 A 
ENDBRANCH  26  45
BRANCH  38  51
ATOM     51  C   UNL     1      23.019  -0.730  16.318  1.00  0.00    -0.014 A 
ATOM     52  C   UNL     1      24.394  -0.933  16.123  1.00  0.00     0.009 A 
ATOM     53  C   UNL     1      22.520  -0.650  17.627  1.00  0.00     0.009 A 
ATOM     54  C   UNL     1      25.246  -1.087  17.218  1.00  0.00     0.001 A 
ATOM     55  C   UNL     1      23.378  -0.777  18.720  1.00  0.00     0.001 A 
ATOM     56  C   UNL     1      24.738  -1.006  18.515  1.00  0.00     0.000 A 
ENDBRANCH  38  51
ENDBRANCH  12  13
ENDBRANCH   5   7
ENDBRANCH   2   3
ENDBRANCH   1   2
BRANCH   1  57
ATOM     57  C   UNL     1      10.026   1.562   5.797  1.00  0.00     0.023 C 
BRANCH  57  58
ATOM     58  C   UNL     1       9.118   0.341   5.925  1.00  0.00     0.116 C 
BRANCH  58  59
ATOM     59  N   UNL     1       8.566   0.210   7.258  1.00  0.00    -0.354 N 
ATOM     60  C   UNL     1       7.273   0.109   7.678  1.00  0.00     0.248 C 
ATOM     61  H   UNL     1       9.236   0.190   7.980  1.00  0.00     0.163 HD
ATOM     62  O   UNL     1       7.099  -0.014   8.896  1.00  0.00    -0.272 OA
BRANCH  60  63
ATOM     63  C   UNL     1       6.096   0.140   6.672  1.00  0.00     0.228 C 
ATOM     64  C   UNL     1       5.074  -0.963   7.075  1.00  0.00     0.296 C 
ATOM     65  N   UNL     1       5.418   1.451   6.686  1.00  0.00    -0.333 N 
ATOM     66  N   UNL     1       4.305  -0.694   8.316  1.00  0.00    -0.343 N 
ATOM     67  C   UNL     1       4.662   1.791   7.893  1.00  0.00     0.180 C 
ATOM     68  C   UNL     1       3.676   0.641   8.218  1.00  0.00     0.282 C 
ATOM     69  H   UNL     1       4.934  -0.717   9.119  1.00  0.00     0.346 HD
ATOM     70  H   UNL     1       3.584  -1.406   8.433  1.00  0.00     0.346 HD
BRANCH  65  71
ATOM     71  C   UNL     1       5.587   2.413   5.722  1.00  0.00     0.148 A 
ATOM     72  N   UNL     1       5.971   3.641   6.152  1.00  0.00    -0.237 NA
ATOM     73  C   UNL     1       5.297   2.203   4.363  1.00  0.00     0.084 A 
ATOM     74  C   UNL     1       6.079   4.652   5.255  1.00  0.00     0.126 A 
ATOM     75  C   UNL     1       5.409   3.263   3.458  1.00  0.00     0.039 A 
ATOM     76  Cl  UNL     1       4.676   0.713   3.742  1.00  0.00    -0.080 Cl
ATOM     77  C   UNL     1       5.807   4.522   3.905  1.00  0.00     0.075 A 
BRANCH  77  78
ATOM     78  C   UNL     1       5.930   5.703   2.995  1.00  0.00     0.417 C 
ATOM     79  F   UNL     1       5.181   6.761   3.405  1.00  0.00    -0.166 F 
ATOM     80  F   UNL     1       7.209   6.159   2.908  1.00  0.00    -0.166 F 
ATOM     81  F   UNL     1       5.539   5.442   1.717  1.00  0.00    -0.166 F 
ENDBRANCH  77  78
ENDBRANCH  65  71
ENDBRANCH  60  63
ENDBRANCH  58  59
ENDBRANCH  57  58
ENDBRANCH   1  57
TORSDOF 13
