REMARK SMILES CC(C)C[C@H](NC(=O)CNC(=O)[C@@H](NC(=O)OCc1ccccc1)C(C)C)C(=O)NCCCCNC(=O)c1ccc(-c2c3nc(c(-c4ccccc4)c4ccc([nH]4)c(-c4ccccc4)c4nc(c(-c5ccccc5)c5ccc2[nH]5)C=C4)C=C3)cc1
REMARK SMILES IDX 28 1 29 2 30 3 5 5 4 6 2 7 1 8 3 9 6 10 7 11 8 13 9 14 10 15
REMARK SMILES IDX 11 16 12 18 13 19 14 20 15 21 16 23 17 24 18 25 19 26 20 27
REMARK SMILES IDX 24 28 21 29 23 30 22 31 25 32 26 33 27 34 31 35 32 36 33 37
REMARK SMILES IDX 34 38 35 39 36 40 37 42 38 43 39 44 85 45 40 46 84 47 41 48
REMARK SMILES IDX 42 49 43 50 78 51 44 52 83 53 77 54 79 55 45 56 82 57 76 58
REMARK SMILES IDX 75 59 46 61 68 62 53 63 67 64 54 65 57 66 66 67 80 68 55 69
REMARK SMILES IDX 56 70 65 72 81 73 58 74 47 75 48 76 52 77 49 78 51 79 50 80
REMARK SMILES IDX 69 81 70 82 74 83 71 84 73 85 72 86 59 87 60 88 64 89 61 90
REMARK SMILES IDX 63 91 62 92
REMARK H PARENT 30 4 6 12 10 17 14 22 35 41 79 60 57 71
REMARK Flexibility Score: inf
ROOT
ATOM      1  C   UNL     1      -2.176  -1.485   0.336  1.00  0.00     0.242 C 
ATOM      2  O   UNL     1      -2.058  -1.680  -0.874  1.00  0.00    -0.273 OA
ATOM      3  N   UNL     1      -3.325  -0.824   0.792  1.00  0.00    -0.354 N 
ATOM      4  H   UNL     1      -3.387   0.146   0.635  1.00  0.00     0.163 HD
ENDROOT
BRANCH   1   5
ATOM      5  C   UNL     1      -0.957  -1.593   1.333  1.00  0.00     0.171 C 
BRANCH   5   6
ATOM      6  C   UNL     1       0.224  -2.579   1.080  1.00  0.00     0.038 C 
BRANCH   6   7
ATOM      7  C   UNL     1       0.919  -3.311   2.297  1.00  0.00    -0.015 C 
ATOM      8  C   UNL     1       0.572  -4.809   2.428  1.00  0.00     0.007 C 
ATOM      9  C   UNL     1       2.442  -3.269   2.267  1.00  0.00     0.007 C 
ENDBRANCH   6   7
ENDBRANCH   5   6
BRANCH   5  10
ATOM     10  N   UNL     1      -1.455  -1.757   2.656  1.00  0.00    -0.343 N 
ATOM     11  C   UNL     1      -1.958  -2.908   3.160  1.00  0.00     0.240 C 
ATOM     12  H   UNL     1      -1.432  -0.973   3.251  1.00  0.00     0.164 HD
ATOM     13  O   UNL     1      -2.118  -2.947   4.386  1.00  0.00    -0.273 OA
BRANCH  11  14
ATOM     14  C   UNL     1      -2.335  -4.159   2.280  1.00  0.00     0.216 C 
BRANCH  14  15
ATOM     15  N   UNL     1      -2.584  -4.353   0.817  1.00  0.00    -0.345 N 
ATOM     16  C   UNL     1      -2.211  -4.844  -0.383  1.00  0.00     0.243 C 
ATOM     17  H   UNL     1      -3.442  -3.899   0.646  1.00  0.00     0.164 HD
ATOM     18  O   UNL     1      -3.242  -4.971  -1.084  1.00  0.00    -0.273 OA
BRANCH  16  19
ATOM     19  C   UNL     1      -0.844  -5.169  -1.149  1.00  0.00     0.177 C 
BRANCH  19  20
ATOM     20  N   UNL     1      -0.257  -3.975  -1.810  1.00  0.00    -0.309 N 
ATOM     21  C   UNL     1       0.987  -3.411  -1.855  1.00  0.00     0.408 C 
ATOM     22  H   UNL     1      -0.919  -3.472  -2.337  1.00  0.00     0.167 HD
ATOM     23  O   UNL     1       1.154  -2.319  -2.392  1.00  0.00    -0.225 OA
BRANCH  21  24
ATOM     24  O   UNL     1       1.961  -4.094  -1.209  1.00  0.00    -0.445 OA
BRANCH  24  25
ATOM     25  C   UNL     1       3.180  -3.371  -0.948  1.00  0.00     0.270 C 
BRANCH  25  26
ATOM     26  C   UNL     1       4.145  -3.141  -2.079  1.00  0.00    -0.011 A 
ATOM     27  C   UNL     1       5.038  -2.057  -1.994  1.00  0.00     0.007 A 
ATOM     28  C   UNL     1       4.252  -4.027  -3.152  1.00  0.00     0.007 A 
ATOM     29  C   UNL     1       5.987  -1.836  -2.989  1.00  0.00     0.000 A 
ATOM     30  C   UNL     1       5.201  -3.802  -4.150  1.00  0.00     0.000 A 
ATOM     31  C   UNL     1       6.061  -2.706  -4.073  1.00  0.00     0.000 A 
ENDBRANCH  25  26
ENDBRANCH  24  25
ENDBRANCH  21  24
ENDBRANCH  19  20
BRANCH  19  32
ATOM     32  C   UNL     1       0.109  -6.306  -0.717  1.00  0.00     0.015 C 
ATOM     33  C   UNL     1      -0.661  -7.503  -0.150  1.00  0.00     0.010 C 
ATOM     34  C   UNL     1       0.946  -6.840  -1.905  1.00  0.00     0.010 C 
ENDBRANCH  19  32
ENDBRANCH  16  19
ENDBRANCH  14  15
ENDBRANCH  11  14
ENDBRANCH   5  10
ENDBRANCH   1   5
BRANCH   3  35
ATOM     35  C   UNL     1      -4.450  -1.478   1.490  1.00  0.00     0.116 C 
BRANCH  35  36
ATOM     36  C   UNL     1      -4.652  -1.076   2.958  1.00  0.00     0.023 C 
BRANCH  36  37
ATOM     37  C   UNL     1      -5.763  -1.820   3.727  1.00  0.00     0.023 C 
BRANCH  37  38
ATOM     38  C   UNL     1      -5.828  -3.348   3.666  1.00  0.00     0.116 C 
BRANCH  38  39
ATOM     39  N   UNL     1      -5.015  -4.056   4.647  1.00  0.00    -0.352 N 
ATOM     40  C   UNL     1      -5.356  -5.131   5.466  1.00  0.00     0.251 C 
ATOM     41  H   UNL     1      -4.092  -3.727   4.747  1.00  0.00     0.163 HD
ATOM     42  O   UNL     1      -4.549  -5.660   6.180  1.00  0.00    -0.269 OA
BRANCH  40  43
ATOM     43  C   UNL     1      -6.781  -5.561   5.516  1.00  0.00     0.039 A 
ATOM     44  C   UNL     1      -7.426  -5.538   6.757  1.00  0.00     0.014 A 
ATOM     45  C   UNL     1      -7.495  -5.870   4.360  1.00  0.00     0.014 A 
ATOM     46  C   UNL     1      -8.815  -5.685   6.818  1.00  0.00     0.010 A 
ATOM     47  C   UNL     1      -8.887  -5.930   4.412  1.00  0.00     0.010 A 
ATOM     48  C   UNL     1      -9.565  -5.806   5.637  1.00  0.00    -0.014 A 
BRANCH  48  49
ATOM     49  C   UNL     1     -11.052  -5.752   5.660  1.00  0.00     0.031 A 
ATOM     50  C   UNL     1     -11.866  -6.915   5.164  1.00  0.00     0.074 A 
ATOM     51  C   UNL     1     -11.676  -4.620   6.051  1.00  0.00     0.049 A 
ATOM     52  N   UNL     1     -13.165  -7.021   5.041  1.00  0.00    -0.248 NA
ATOM     53  C   UNL     1     -11.121  -8.103   4.721  1.00  0.00     0.031 C 
ATOM     54  C   UNL     1     -11.013  -3.395   6.507  1.00  0.00     0.029 A 
ATOM     55  N   UNL     1     -13.014  -4.313   6.122  1.00  0.00    -0.354 N 
ATOM     56  C   UNL     1     -13.389  -8.273   4.484  1.00  0.00     0.074 A 
ATOM     57  C   UNL     1     -12.092  -8.870   4.249  1.00  0.00     0.031 C 
ATOM     58  C   UNL     1     -11.944  -2.487   6.843  1.00  0.00     0.029 A 
ATOM     59  C   UNL     1     -13.267  -3.045   6.588  1.00  0.00     0.049 A 
ATOM     60  H   UNL     1     -13.724  -4.943   5.863  1.00  0.00     0.167 HD
ATOM     61  C   UNL     1     -14.567  -8.884   4.211  1.00  0.00     0.031 A 
ATOM     62  C   UNL     1     -14.433  -2.400   6.788  1.00  0.00     0.031 A 
ATOM     63  C   UNL     1     -15.859  -8.307   4.465  1.00  0.00     0.049 A 
ATOM     64  C   UNL     1     -15.726  -3.101   6.480  1.00  0.00     0.074 A 
ATOM     65  C   UNL     1     -17.108  -8.879   4.287  1.00  0.00     0.029 A 
ATOM     66  N   UNL     1     -16.070  -7.027   4.952  1.00  0.00    -0.354 N 
ATOM     67  N   UNL     1     -15.920  -4.314   6.024  1.00  0.00    -0.248 NA
ATOM     68  C   UNL     1     -16.963  -2.344   6.725  1.00  0.00     0.031 C 
ATOM     69  C   UNL     1     -18.076  -7.927   4.625  1.00  0.00     0.029 A 
ATOM     70  C   UNL     1     -17.428  -6.782   5.061  1.00  0.00     0.049 A 
ATOM     71  H   UNL     1     -15.360  -6.388   5.187  1.00  0.00     0.167 HD
ATOM     72  C   UNL     1     -17.297  -4.476   5.955  1.00  0.00     0.074 A 
ATOM     73  C   UNL     1     -17.891  -3.244   6.428  1.00  0.00     0.031 C 
ATOM     74  C   UNL     1     -18.006  -5.553   5.537  1.00  0.00     0.031 A 
BRANCH  61  75
ATOM     75  C   UNL     1     -14.506 -10.255   3.599  1.00  0.00    -0.014 A 
ATOM     76  C   UNL     1     -14.078 -11.366   4.345  1.00  0.00     0.009 A 
ATOM     77  C   UNL     1     -14.907 -10.445   2.268  1.00  0.00     0.009 A 
ATOM     78  C   UNL     1     -14.014 -12.630   3.758  1.00  0.00     0.001 A 
ATOM     79  C   UNL     1     -14.870 -11.716   1.692  1.00  0.00     0.001 A 
ATOM     80  C   UNL     1     -14.414 -12.805   2.433  1.00  0.00     0.000 A 
ENDBRANCH  61  75
BRANCH  62  81
ATOM     81  C   UNL     1     -14.440  -1.015   7.331  1.00  0.00    -0.014 A 
ATOM     82  C   UNL     1     -14.881  -0.770   8.641  1.00  0.00     0.009 A 
ATOM     83  C   UNL     1     -14.026   0.069   6.542  1.00  0.00     0.009 A 
ATOM     84  C   UNL     1     -14.934   0.534   9.139  1.00  0.00     0.001 A 
ATOM     85  C   UNL     1     -14.053   1.369   7.052  1.00  0.00     0.001 A 
ATOM     86  C   UNL     1     -14.516   1.601   8.347  1.00  0.00     0.000 A 
ENDBRANCH  62  81
BRANCH  74  87
ATOM     87  C   UNL     1     -19.503  -5.461   5.609  1.00  0.00    -0.014 A 
ATOM     88  C   UNL     1     -20.230  -4.672   4.704  1.00  0.00     0.009 A 
ATOM     89  C   UNL     1     -20.199  -6.210   6.571  1.00  0.00     0.009 A 
ATOM     90  C   UNL     1     -21.623  -4.613   4.781  1.00  0.00     0.001 A 
ATOM     91  C   UNL     1     -21.592  -6.170   6.628  1.00  0.00     0.001 A 
ATOM     92  C   UNL     1     -22.302  -5.365   5.739  1.00  0.00     0.000 A 
ENDBRANCH  74  87
ENDBRANCH  48  49
ENDBRANCH  40  43
ENDBRANCH  38  39
ENDBRANCH  37  38
ENDBRANCH  36  37
ENDBRANCH  35  36
ENDBRANCH   3  35
TORSDOF 22
