REMARK SMILES CCN(CC)c1ccc([C@@H]2c3[nH]c4ccccc4c3C[C@@H](C(=O)NCCCCNC(=O)c3ccc(-c4c5nc(c(-c6ccccc6)c6ccc([nH]6)c(-c6ccccc6)c6nc(c(-c7ccccc7)c7ccc4[nH]7)C=C6)C=C5)cc3)N2C(C)=O)cc1
REMARK SMILES IDX 26 1 25 2 24 3 22 4 23 5 21 7 10 8 11 9 80 10 12 11 19 12
REMARK SMILES IDX 13 13 18 15 20 16 14 17 17 18 15 19 16 20 9 21 6 22 7 23
REMARK SMILES IDX 85 24 8 25 84 26 3 27 2 28 1 29 4 30 5 31 81 32 82 33 83 34
REMARK SMILES IDX 27 35 28 36 29 37 30 38 31 40 32 41 33 42 79 43 34 44 78 45
REMARK SMILES IDX 35 46 36 47 37 48 72 49 38 50 77 51 71 52 73 53 39 54 76 55
REMARK SMILES IDX 70 56 69 57 40 59 62 60 47 61 61 62 48 63 51 64 60 65 74 66
REMARK SMILES IDX 49 67 50 68 59 70 75 71 52 72 41 73 42 74 46 75 43 76 45 77
REMARK SMILES IDX 44 78 63 79 64 80 68 81 65 82 67 83 66 84 53 85 54 86 58 87
REMARK SMILES IDX 55 88 57 89 56 90
REMARK H PARENT 24 6 12 14 29 39 73 58 51 69
REMARK Flexibility Score: inf
ROOT
ATOM      1  C   UNL     1       5.971  -3.988   5.472  1.00  0.00     0.023 C 
ENDROOT
BRANCH   1   2
ATOM      2  C   UNL     1       7.498  -4.191   4.818  1.00  0.00     0.116 C 
BRANCH   2   3
ATOM      3  N   UNL     1       7.612  -3.891   3.267  1.00  0.00    -0.354 N 
ATOM      4  C   UNL     1       8.026  -2.707   2.302  1.00  0.00     0.243 C 
ATOM      5  O   UNL     1       7.738  -3.000   1.124  1.00  0.00    -0.273 OA
ATOM      6  H   UNL     1       7.345  -4.682   2.744  1.00  0.00     0.163 HD
BRANCH   4   7
ATOM      7  C   UNL     1       8.594  -0.872   2.795  1.00  0.00     0.179 C 
ATOM      8  C   UNL     1       6.454   0.245   2.954  1.00  0.00     0.163 C 
ATOM      9  C   UNL     1       7.070  -1.165   3.778  1.00  0.00     0.047 A 
ATOM     10  N   UNL     1       7.326   0.251   3.922  1.00  0.00    -0.318 N 
ATOM     11  N   UNL     1       6.833  -2.058   4.692  1.00  0.00    -0.356 N 
ATOM     12  C   UNL     1       8.563  -1.355   4.672  1.00  0.00    -0.014 A 
ATOM     13  C   UNL     1       7.211  -1.692   6.049  1.00  0.00     0.046 A 
ATOM     14  H   UNL     1       6.424  -2.928   4.479  1.00  0.00     0.166 HD
ATOM     15  C   UNL     1       8.619  -1.577   6.123  1.00  0.00     0.003 A 
ATOM     16  C   UNL     1       9.681  -1.186   3.746  1.00  0.00     0.073 C 
ATOM     17  C   UNL     1       6.195  -1.503   7.171  1.00  0.00     0.026 A 
ATOM     18  C   UNL     1       8.640  -1.784   7.548  1.00  0.00     0.010 A 
ATOM     19  C   UNL     1       6.489  -0.960   8.357  1.00  0.00     0.002 A 
ATOM     20  C   UNL     1       7.697  -1.437   8.634  1.00  0.00     0.001 A 
BRANCH   8  21
ATOM     21  C   UNL     1       4.986   0.532   2.869  1.00  0.00    -0.019 A 
ATOM     22  C   UNL     1       2.308   0.003   2.410  1.00  0.00     0.037 A 
ATOM     23  C   UNL     1       2.884  -0.364   3.544  1.00  0.00     0.026 A 
ATOM     24  C   UNL     1       3.193   0.560   1.455  1.00  0.00     0.026 A 
ATOM     25  C   UNL     1       3.904   0.483   3.753  1.00  0.00     0.008 A 
ATOM     26  C   UNL     1       4.546   0.737   1.631  1.00  0.00     0.008 A 
BRANCH  22  27
ATOM     27  N   UNL     1       0.953  -0.081   2.285  1.00  0.00    -0.372 N 
BRANCH  27  28
ATOM     28  C   UNL     1       0.465  -0.728   1.091  1.00  0.00     0.113 C 
ATOM     29  C   UNL     1       0.876   0.003  -0.173  1.00  0.00     0.027 C 
ENDBRANCH  27  28
BRANCH  27  30
ATOM     30  C   UNL     1       0.043   0.426   3.331  1.00  0.00     0.113 C 
ATOM     31  C   UNL     1       0.159  -0.250   4.695  1.00  0.00     0.027 C 
ENDBRANCH  27  30
ENDBRANCH  22  27
ENDBRANCH   8  21
BRANCH  10  32
ATOM     32  C   UNL     1       5.846  -0.182   4.949  1.00  0.00     0.220 C 
ATOM     33  C   UNL     1       5.405   0.674   5.994  1.00  0.00     0.114 C 
ATOM     34  O   UNL     1       5.025  -1.204   4.814  1.00  0.00    -0.275 OA
ENDBRANCH  10  32
ENDBRANCH   4   7
ENDBRANCH   2   3
ENDBRANCH   1   2
BRANCH   1  35
ATOM     35  C   UNL     1       5.323  -5.261   5.459  1.00  0.00     0.023 C 
BRANCH  35  36
ATOM     36  C   UNL     1       6.317  -6.072   6.186  1.00  0.00     0.116 C 
BRANCH  36  37
ATOM     37  N   UNL     1       6.456  -5.728   7.590  1.00  0.00    -0.352 N 
ATOM     38  C   UNL     1       6.068  -6.557   8.602  1.00  0.00     0.251 C 
ATOM     39  H   UNL     1       6.848  -4.855   7.822  1.00  0.00     0.163 HD
ATOM     40  O   UNL     1       6.125  -6.228   9.778  1.00  0.00    -0.269 OA
BRANCH  38  41
ATOM     41  C   UNL     1       5.623  -7.910   8.198  1.00  0.00     0.039 A 
ATOM     42  C   UNL     1       4.487  -8.493   8.736  1.00  0.00     0.014 A 
ATOM     43  C   UNL     1       6.395  -8.617   7.263  1.00  0.00     0.014 A 
ATOM     44  C   UNL     1       4.184  -9.809   8.381  1.00  0.00     0.010 A 
ATOM     45  C   UNL     1       5.962  -9.820   6.751  1.00  0.00     0.010 A 
ATOM     46  C   UNL     1       4.852 -10.438   7.321  1.00  0.00    -0.014 A 
BRANCH  46  47
ATOM     47  C   UNL     1       4.430 -11.755   6.805  1.00  0.00     0.031 A 
ATOM     48  C   UNL     1       5.388 -12.892   6.866  1.00  0.00     0.074 A 
ATOM     49  C   UNL     1       3.225 -11.923   6.223  1.00  0.00     0.049 A 
ATOM     50  N   UNL     1       5.210 -14.100   6.412  1.00  0.00    -0.248 NA
ATOM     51  C   UNL     1       6.694 -12.661   7.508  1.00  0.00     0.031 C 
ATOM     52  C   UNL     1       2.208 -10.881   6.115  1.00  0.00     0.029 A 
ATOM     53  N   UNL     1       2.646 -13.013   5.609  1.00  0.00    -0.354 N 
ATOM     54  C   UNL     1       6.369 -14.778   6.720  1.00  0.00     0.074 A 
ATOM     55  C   UNL     1       7.269 -13.844   7.361  1.00  0.00     0.031 C 
ATOM     56  C   UNL     1       1.132 -11.378   5.490  1.00  0.00     0.029 A 
ATOM     57  C   UNL     1       1.382 -12.766   5.124  1.00  0.00     0.049 A 
ATOM     58  H   UNL     1       3.095 -13.885   5.526  1.00  0.00     0.167 HD
ATOM     59  C   UNL     1       6.633 -16.077   6.484  1.00  0.00     0.031 A 
ATOM     60  C   UNL     1       0.505 -13.540   4.455  1.00  0.00     0.031 A 
ATOM     61  C   UNL     1       5.748 -16.966   5.809  1.00  0.00     0.049 A 
ATOM     62  C   UNL     1       0.868 -14.950   4.108  1.00  0.00     0.074 A 
ATOM     63  C   UNL     1       5.982 -18.298   5.540  1.00  0.00     0.029 A 
ATOM     64  N   UNL     1       4.508 -16.644   5.291  1.00  0.00    -0.354 N 
ATOM     65  N   UNL     1       1.969 -15.576   4.427  1.00  0.00    -0.248 NA
ATOM     66  C   UNL     1      -0.083 -15.759   3.322  1.00  0.00     0.031 C 
ATOM     67  C   UNL     1       4.911 -18.782   4.822  1.00  0.00     0.029 A 
ATOM     68  C   UNL     1       3.990 -17.764   4.672  1.00  0.00     0.049 A 
ATOM     69  H   UNL     1       4.068 -15.765   5.354  1.00  0.00     0.167 HD
ATOM     70  C   UNL     1       1.837 -16.849   3.912  1.00  0.00     0.074 A 
ATOM     71  C   UNL     1       0.548 -16.926   3.260  1.00  0.00     0.031 C 
ATOM     72  C   UNL     1       2.729 -17.856   4.005  1.00  0.00     0.031 A 
BRANCH  59  73
ATOM     73  C   UNL     1       7.957 -16.609   6.912  1.00  0.00    -0.014 A 
ATOM     74  C   UNL     1       8.328 -16.615   8.258  1.00  0.00     0.009 A 
ATOM     75  C   UNL     1       8.841 -17.117   5.948  1.00  0.00     0.009 A 
ATOM     76  C   UNL     1       9.634 -16.938   8.601  1.00  0.00     0.001 A 
ATOM     77  C   UNL     1      10.102 -17.565   6.317  1.00  0.00     0.001 A 
ATOM     78  C   UNL     1      10.499 -17.468   7.646  1.00  0.00     0.000 A 
ENDBRANCH  59  73
BRANCH  60  79
ATOM     79  C   UNL     1      -0.800 -12.990   4.023  1.00  0.00    -0.014 A 
ATOM     80  C   UNL     1      -2.000 -13.575   4.442  1.00  0.00     0.009 A 
ATOM     81  C   UNL     1      -0.841 -11.918   3.120  1.00  0.00     0.009 A 
ATOM     82  C   UNL     1      -3.202 -13.180   3.861  1.00  0.00     0.001 A 
ATOM     83  C   UNL     1      -2.057 -11.444   2.639  1.00  0.00     0.001 A 
ATOM     84  C   UNL     1      -3.239 -12.074   3.015  1.00  0.00     0.000 A 
ENDBRANCH  60  79
BRANCH  72  85
ATOM     85  C   UNL     1       2.349 -19.198   3.478  1.00  0.00    -0.014 A 
ATOM     86  C   UNL     1       2.144 -19.454   2.122  1.00  0.00     0.009 A 
ATOM     87  C   UNL     1       2.255 -20.253   4.402  1.00  0.00     0.009 A 
ATOM     88  C   UNL     1       1.700 -20.715   1.730  1.00  0.00     0.001 A 
ATOM     89  C   UNL     1       1.941 -21.537   3.987  1.00  0.00     0.001 A 
ATOM     90  C   UNL     1       1.661 -21.767   2.647  1.00  0.00     0.000 A 
ENDBRANCH  72  85
ENDBRANCH  46  47
ENDBRANCH  38  41
ENDBRANCH  36  37
ENDBRANCH  35  36
ENDBRANCH   1  35
TORSDOF 16
