REMARK SMILES CS(=O)(=O)c1ccc(/C=C(/C(=O)NCCCCNC(=O)c2ccc(-c3c4nc(c(-c5ccccc5)c5ccc([nH]5)c(-c5ccccc5)c5nc(c(-c6ccccc6)c6ccc3[nH]6)C=C5)C=C4)cc2)c2ccc(-c3ccc(S(C)(=O)=O)cc3)cc2)cc1
REMARK SMILES IDX 15 1 14 2 13 3 11 4 12 5 10 7 9 8 8 9 5 10 6 11 86 12 7 13
REMARK SMILES IDX 85 14 2 15 1 16 3 17 4 18 69 19 70 20 84 21 71 22 83 23
REMARK SMILES IDX 72 24 73 25 74 26 82 27 75 28 81 29 76 30 77 31 78 32 79 33
REMARK SMILES IDX 80 34 16 35 17 36 18 37 19 38 20 40 21 41 22 42 68 43 23 44
REMARK SMILES IDX 67 45 24 46 25 47 26 48 61 49 27 50 66 51 60 52 62 53 28 54
REMARK SMILES IDX 65 55 59 56 58 57 29 59 51 60 36 61 50 62 37 63 40 64 49 65
REMARK SMILES IDX 63 66 38 67 39 68 48 70 64 71 41 72 30 73 31 74 35 75 32 76
REMARK SMILES IDX 34 77 33 78 52 79 53 80 57 81 54 82 56 83 55 84 42 85 43 86
REMARK SMILES IDX 47 87 44 88 46 89 45 90
REMARK H PARENT 13 6 18 39 62 58 40 69
REMARK Flexibility Score: inf
ROOT
ATOM      1  C   UNL     1       4.527  -1.850  -8.317  1.00  0.00     0.023 C 
ENDROOT
BRANCH   1   2
ATOM      2  C   UNL     1       3.062  -2.278  -8.425  1.00  0.00     0.116 C 
BRANCH   2   3
ATOM      3  N   UNL     1       2.984  -3.717  -8.554  1.00  0.00    -0.352 N 
ATOM      4  C   UNL     1       2.732  -4.723  -7.677  1.00  0.00     0.251 C 
ATOM      5  O   UNL     1       2.841  -5.865  -8.130  1.00  0.00    -0.269 OA
ATOM      6  H   UNL     1       3.147  -4.034  -9.472  1.00  0.00     0.163 HD
BRANCH   4   7
ATOM      7  C   UNL     1       2.249  -4.495  -6.260  1.00  0.00     0.047 C 
ATOM      8  C   UNL     1       2.667  -3.448  -5.509  1.00  0.00     0.022 C 
BRANCH   8   9
ATOM      9  C   UNL     1       2.192  -2.992  -4.182  1.00  0.00    -0.025 A 
ATOM     10  C   UNL     1       1.060  -2.000  -1.807  1.00  0.00     0.067 A 
ATOM     11  C   UNL     1       1.374  -3.356  -1.920  1.00  0.00     0.021 A 
ATOM     12  C   UNL     1       1.359  -1.120  -2.846  1.00  0.00     0.021 A 
ATOM     13  C   UNL     1       1.963  -3.840  -3.093  1.00  0.00     0.009 A 
ATOM     14  C   UNL     1       1.924  -1.620  -4.025  1.00  0.00     0.009 A 
BRANCH  10  15
ATOM     15  S   UNL     1       0.255  -1.431  -0.328  1.00  0.00     0.175 S 
ATOM     16  C   UNL     1       0.950   0.158   0.033  1.00  0.00     0.163 C 
ATOM     17  O   UNL     1       0.661  -2.320   0.745  1.00  0.00    -0.224 OA
ATOM     18  O   UNL     1      -1.143  -1.248  -0.664  1.00  0.00    -0.224 OA
ENDBRANCH  10  15
ENDBRANCH   8   9
BRANCH   7  19
ATOM     19  C   UNL     1       1.429  -5.579  -5.662  1.00  0.00    -0.013 A 
ATOM     20  C   UNL     1       2.028  -6.832  -5.471  1.00  0.00     0.009 A 
ATOM     21  C   UNL     1       0.124  -5.383  -5.202  1.00  0.00     0.009 A 
ATOM     22  C   UNL     1       1.356  -7.855  -4.805  1.00  0.00     0.009 A 
ATOM     23  C   UNL     1      -0.535  -6.404  -4.502  1.00  0.00     0.009 A 
ATOM     24  C   UNL     1       0.071  -7.655  -4.281  1.00  0.00    -0.018 A 
BRANCH  24  25
ATOM     25  C   UNL     1      -0.605  -8.729  -3.528  1.00  0.00    -0.018 A 
ATOM     26  C   UNL     1       0.102  -9.519  -2.599  1.00  0.00     0.010 A 
ATOM     27  C   UNL     1      -1.968  -9.008  -3.724  1.00  0.00     0.010 A 
ATOM     28  C   UNL     1      -0.520 -10.564  -1.911  1.00  0.00     0.021 A 
ATOM     29  C   UNL     1      -2.601 -10.049  -3.040  1.00  0.00     0.021 A 
ATOM     30  C   UNL     1      -1.867 -10.832  -2.151  1.00  0.00     0.067 A 
BRANCH  30  31
ATOM     31  S   UNL     1      -2.645 -12.183  -1.302  1.00  0.00     0.175 S 
ATOM     32  C   UNL     1      -1.860 -13.616  -1.993  1.00  0.00     0.163 C 
ATOM     33  O   UNL     1      -2.272 -12.084   0.093  1.00  0.00    -0.224 OA
ATOM     34  O   UNL     1      -4.041 -12.214  -1.704  1.00  0.00    -0.224 OA
ENDBRANCH  30  31
ENDBRANCH  24  25
ENDBRANCH   7  19
ENDBRANCH   4   7
ENDBRANCH   2   3
ENDBRANCH   1   2
BRANCH   1  35
ATOM     35  C   UNL     1       5.311  -1.984  -9.629  1.00  0.00     0.023 C 
BRANCH  35  36
ATOM     36  C   UNL     1       4.750  -1.177 -10.794  1.00  0.00     0.116 C 
BRANCH  36  37
ATOM     37  N   UNL     1       4.632   0.243 -10.493  1.00  0.00    -0.352 N 
ATOM     38  C   UNL     1       4.910   1.315 -11.305  1.00  0.00     0.251 C 
ATOM     39  H   UNL     1       4.311   0.464  -9.589  1.00  0.00     0.163 HD
ATOM     40  O   UNL     1       4.888   2.458 -10.864  1.00  0.00    -0.269 OA
BRANCH  38  41
ATOM     41  C   UNL     1       5.276   1.063 -12.711  1.00  0.00     0.039 A 
ATOM     42  C   UNL     1       6.457   1.614 -13.212  1.00  0.00     0.014 A 
ATOM     43  C   UNL     1       4.487   0.223 -13.502  1.00  0.00     0.014 A 
ATOM     44  C   UNL     1       6.891   1.255 -14.488  1.00  0.00     0.010 A 
ATOM     45  C   UNL     1       4.959  -0.189 -14.742  1.00  0.00     0.010 A 
ATOM     46  C   UNL     1       6.170   0.314 -15.242  1.00  0.00    -0.014 A 
BRANCH  46  47
ATOM     47  C   UNL     1       6.678  -0.184 -16.544  1.00  0.00     0.031 A 
ATOM     48  C   UNL     1       5.897   0.069 -17.803  1.00  0.00     0.074 A 
ATOM     49  C   UNL     1       7.799  -0.932 -16.580  1.00  0.00     0.049 A 
ATOM     50  N   UNL     1       6.129  -0.362 -19.017  1.00  0.00    -0.248 NA
ATOM     51  C   UNL     1       4.686   0.895 -17.678  1.00  0.00     0.031 C 
ATOM     52  C   UNL     1       8.629  -1.273 -15.422  1.00  0.00     0.029 A 
ATOM     53  N   UNL     1       8.428  -1.549 -17.631  1.00  0.00    -0.354 N 
ATOM     54  C   UNL     1       5.089   0.130 -19.794  1.00  0.00     0.074 A 
ATOM     55  C   UNL     1       4.198   0.846 -18.908  1.00  0.00     0.031 C 
ATOM     56  C   UNL     1       9.671  -2.015 -15.832  1.00  0.00     0.029 A 
ATOM     57  C   UNL     1       9.555  -2.247 -17.267  1.00  0.00     0.049 A 
ATOM     58  H   UNL     1       8.103  -1.498 -18.559  1.00  0.00     0.167 HD
ATOM     59  C   UNL     1       4.903   0.013 -21.130  1.00  0.00     0.031 A 
ATOM     60  C   UNL     1      10.392  -3.002 -18.004  1.00  0.00     0.031 A 
ATOM     61  C   UNL     1       5.790  -0.700 -22.010  1.00  0.00     0.049 A 
ATOM     62  C   UNL     1      10.129  -3.163 -19.476  1.00  0.00     0.074 A 
ATOM     63  C   UNL     1       5.713  -0.836 -23.384  1.00  0.00     0.029 A 
ATOM     64  N   UNL     1       6.911  -1.404 -21.599  1.00  0.00    -0.354 N 
ATOM     65  N   UNL     1       9.180  -2.633 -20.209  1.00  0.00    -0.248 NA
ATOM     66  C   UNL     1      11.056  -4.025 -20.224  1.00  0.00     0.031 C 
ATOM     67  C   UNL     1       6.753  -1.674 -23.799  1.00  0.00     0.029 A 
ATOM     68  C   UNL     1       7.515  -2.005 -22.690  1.00  0.00     0.049 A 
ATOM     69  H   UNL     1       7.231  -1.466 -20.670  1.00  0.00     0.167 HD
ATOM     70  C   UNL     1       9.411  -3.074 -21.505  1.00  0.00     0.074 A 
ATOM     71  C   UNL     1      10.600  -3.900 -21.462  1.00  0.00     0.031 C 
ATOM     72  C   UNL     1       8.700  -2.821 -22.631  1.00  0.00     0.031 A 
BRANCH  59  73
ATOM     73  C   UNL     1       3.686   0.668 -21.722  1.00  0.00    -0.014 A 
ATOM     74  C   UNL     1       3.574   2.066 -21.792  1.00  0.00     0.009 A 
ATOM     75  C   UNL     1       2.657  -0.123 -22.258  1.00  0.00     0.009 A 
ATOM     76  C   UNL     1       2.442   2.658 -22.354  1.00  0.00     0.001 A 
ATOM     77  C   UNL     1       1.540   0.472 -22.848  1.00  0.00     0.001 A 
ATOM     78  C   UNL     1       1.429   1.861 -22.887  1.00  0.00     0.000 A 
ENDBRANCH  59  73
BRANCH  60  79
ATOM     79  C   UNL     1      11.555  -3.675 -17.366  1.00  0.00    -0.014 A 
ATOM     80  C   UNL     1      12.865  -3.277 -17.676  1.00  0.00     0.009 A 
ATOM     81  C   UNL     1      11.366  -4.732 -16.463  1.00  0.00     0.009 A 
ATOM     82  C   UNL     1      13.959  -3.945 -17.121  1.00  0.00     0.001 A 
ATOM     83  C   UNL     1      12.461  -5.377 -15.884  1.00  0.00     0.001 A 
ATOM     84  C   UNL     1      13.757  -4.991 -16.223  1.00  0.00     0.000 A 
ENDBRANCH  60  79
BRANCH  72  85
ATOM     85  C   UNL     1       9.203  -3.416 -23.916  1.00  0.00    -0.014 A 
ATOM     86  C   UNL     1       9.091  -4.790 -24.175  1.00  0.00     0.009 A 
ATOM     87  C   UNL     1       9.739  -2.578 -24.907  1.00  0.00     0.009 A 
ATOM     88  C   UNL     1       9.529  -5.316 -25.392  1.00  0.00     0.001 A 
ATOM     89  C   UNL     1      10.146  -3.101 -26.134  1.00  0.00     0.001 A 
ATOM     90  C   UNL     1      10.048  -4.471 -26.373  1.00  0.00     0.000 A 
ENDBRANCH  72  85
ENDBRANCH  46  47
ENDBRANCH  38  41
ENDBRANCH  36  37
ENDBRANCH  35  36
ENDBRANCH   1  35
TORSDOF 16
