REMARK SMILES O=C(NCCCCNC(=O)[C@H]1CCCCN1C(=O)c1cn2ccccc2n1)c1ccc(-c2c3nc(c(-c4ccccc4)c4ccc([nH]4)c(-c4ccccc4)c4nc(c(-c5ccccc5)c5ccc2[nH]5)C=C4)C=C3)cc1
REMARK SMILES IDX 5 1 4 2 3 3 1 4 2 5 28 7 29 8 75 9 30 10 74 11 31 12 32 13
REMARK SMILES IDX 33 14 68 15 34 16 73 17 67 18 69 19 35 20 72 21 66 22 65 23
REMARK SMILES IDX 36 25 58 26 43 27 57 28 44 29 47 30 56 31 70 32 45 33 46 34
REMARK SMILES IDX 55 36 71 37 48 38 37 39 38 40 42 41 39 42 41 43 40 44 59 45
REMARK SMILES IDX 60 46 64 47 61 48 63 49 62 50 49 51 50 52 54 53 51 54 53 55
REMARK SMILES IDX 52 56 6 57 7 58 8 59 9 60 10 62 11 63 12 64 16 65 13 66
REMARK SMILES IDX 15 67 14 68 17 69 18 70 19 71 20 72 27 73 21 74 26 75 22 76
REMARK SMILES IDX 25 77 23 78 24 79
REMARK H PARENT 3 6 69 24 47 35 8 61
REMARK Flexibility Score: inf
ROOT
ATOM      1  C   UNL     1       4.646   9.931  -2.485  1.00  0.00     0.023 C 
ENDROOT
BRANCH   1   2
ATOM      2  C   UNL     1       3.743  10.778  -1.598  1.00  0.00     0.116 C 
BRANCH   2   3
ATOM      3  N   UNL     1       4.339  12.047  -1.198  1.00  0.00    -0.352 N 
ATOM      4  O   UNL     1       4.661  14.282  -1.160  1.00  0.00    -0.269 OA
ATOM      5  C   UNL     1       3.971  13.339  -1.509  1.00  0.00     0.251 C 
ATOM      6  H   UNL     1       5.128  11.970  -0.615  1.00  0.00     0.163 HD
BRANCH   5   7
ATOM      7  C   UNL     1       2.747  13.569  -2.306  1.00  0.00     0.039 A 
ATOM      8  C   UNL     1       1.561  12.915  -1.977  1.00  0.00     0.014 A 
ATOM      9  C   UNL     1       2.803  14.415  -3.417  1.00  0.00     0.014 A 
ATOM     10  C   UNL     1       0.496  12.944  -2.866  1.00  0.00     0.010 A 
ATOM     11  C   UNL     1       1.689  14.530  -4.255  1.00  0.00     0.010 A 
ATOM     12  C   UNL     1       0.543  13.758  -4.011  1.00  0.00    -0.014 A 
BRANCH  12  13
ATOM     13  C   UNL     1      -0.644  13.814  -4.900  1.00  0.00     0.031 A 
ATOM     14  C   UNL     1      -0.582  13.335  -6.325  1.00  0.00     0.074 A 
ATOM     15  C   UNL     1      -1.807  14.257  -4.384  1.00  0.00     0.049 A 
ATOM     16  N   UNL     1      -1.541  13.292  -7.216  1.00  0.00    -0.248 NA
ATOM     17  C   UNL     1       0.716  12.848  -6.819  1.00  0.00     0.031 C 
ATOM     18  C   UNL     1      -1.989  14.747  -3.014  1.00  0.00     0.029 A 
ATOM     19  N   UNL     1      -3.059  14.339  -4.934  1.00  0.00    -0.354 N 
ATOM     20  C   UNL     1      -0.959  12.804  -8.380  1.00  0.00     0.074 A 
ATOM     21  C   UNL     1       0.439  12.574  -8.088  1.00  0.00     0.031 C 
ATOM     22  C   UNL     1      -3.286  15.016  -2.812  1.00  0.00     0.029 A 
ATOM     23  C   UNL     1      -4.012  14.791  -4.055  1.00  0.00     0.049 A 
ATOM     24  H   UNL     1      -3.256  14.097  -5.867  1.00  0.00     0.167 HD
ATOM     25  C   UNL     1      -1.540  12.571  -9.582  1.00  0.00     0.031 A 
ATOM     26  C   UNL     1      -5.325  15.022  -4.229  1.00  0.00     0.031 A 
ATOM     27  C   UNL     1      -2.936  12.784  -9.864  1.00  0.00     0.049 A 
ATOM     28  C   UNL     1      -5.934  14.769  -5.574  1.00  0.00     0.074 A 
ATOM     29  C   UNL     1      -3.623  12.546 -11.043  1.00  0.00     0.029 A 
ATOM     30  N   UNL     1      -3.858  13.285  -8.959  1.00  0.00    -0.354 N 
ATOM     31  N   UNL     1      -5.370  14.293  -6.657  1.00  0.00    -0.248 NA
ATOM     32  C   UNL     1      -7.358  15.094  -5.723  1.00  0.00     0.031 C 
ATOM     33  C   UNL     1      -4.952  12.945 -10.864  1.00  0.00     0.029 A 
ATOM     34  C   UNL     1      -5.102  13.386  -9.560  1.00  0.00     0.049 A 
ATOM     35  H   UNL     1      -3.659  13.532  -8.027  1.00  0.00     0.167 HD
ATOM     36  C   UNL     1      -6.371  14.255  -7.616  1.00  0.00     0.074 A 
ATOM     37  C   UNL     1      -7.583  14.729  -6.978  1.00  0.00     0.031 C 
ATOM     38  C   UNL     1      -6.292  13.869  -8.912  1.00  0.00     0.031 A 
BRANCH  25  39
ATOM     39  C   UNL     1      -0.666  12.081 -10.703  1.00  0.00    -0.014 A 
ATOM     40  C   UNL     1      -0.218  10.753 -10.753  1.00  0.00     0.009 A 
ATOM     41  C   UNL     1      -0.352  12.945 -11.764  1.00  0.00     0.009 A 
ATOM     42  C   UNL     1       0.543  10.305 -11.836  1.00  0.00     0.001 A 
ATOM     43  C   UNL     1       0.391  12.490 -12.855  1.00  0.00     0.001 A 
ATOM     44  C   UNL     1       0.842  11.171 -12.888  1.00  0.00     0.000 A 
ENDBRANCH  25  39
BRANCH  26  45
ATOM     45  C   UNL     1      -6.137  15.550  -3.104  1.00  0.00    -0.014 A 
ATOM     46  C   UNL     1      -7.103  14.749  -2.479  1.00  0.00     0.009 A 
ATOM     47  C   UNL     1      -5.932  16.859  -2.639  1.00  0.00     0.009 A 
ATOM     48  C   UNL     1      -7.861  15.256  -1.421  1.00  0.00     0.001 A 
ATOM     49  C   UNL     1      -6.669  17.352  -1.562  1.00  0.00     0.001 A 
ATOM     50  C   UNL     1      -7.639  16.553  -0.959  1.00  0.00     0.000 A 
ENDBRANCH  26  45
BRANCH  38  51
ATOM     51  C   UNL     1      -7.560  13.932  -9.711  1.00  0.00    -0.014 A 
ATOM     52  C   UNL     1      -8.079  15.161 -10.146  1.00  0.00     0.009 A 
ATOM     53  C   UNL     1      -8.233  12.747 -10.045  1.00  0.00     0.009 A 
ATOM     54  C   UNL     1      -9.270  15.204 -10.871  1.00  0.00     0.001 A 
ATOM     55  C   UNL     1      -9.411  12.792 -10.791  1.00  0.00     0.001 A 
ATOM     56  C   UNL     1      -9.933  14.020 -11.195  1.00  0.00     0.000 A 
ENDBRANCH  38  51
ENDBRANCH  12  13
ENDBRANCH   5   7
ENDBRANCH   2   3
ENDBRANCH   1   2
BRANCH   1  57
ATOM     57  C   UNL     1       5.995   9.560  -1.883  1.00  0.00     0.023 C 
BRANCH  57  58
ATOM     58  C   UNL     1       5.960   8.977  -0.476  1.00  0.00     0.116 C 
BRANCH  58  59
ATOM     59  N   UNL     1       5.336   7.681  -0.383  1.00  0.00    -0.354 N 
ATOM     60  C   UNL     1       5.435   6.696   0.549  1.00  0.00     0.242 C 
ATOM     61  H   UNL     1       4.729   7.470  -1.129  1.00  0.00     0.163 HD
ATOM     62  O   UNL     1       4.586   5.799   0.439  1.00  0.00    -0.273 OA
BRANCH  60  63
ATOM     63  C   UNL     1       6.468   6.640   1.715  1.00  0.00     0.174 C 
ATOM     64  C   UNL     1       7.633   7.624   1.888  1.00  0.00     0.035 C 
ATOM     65  N   UNL     1       5.765   6.563   3.006  1.00  0.00    -0.325 N 
ATOM     66  C   UNL     1       7.268   8.953   2.577  1.00  0.00     0.004 C 
ATOM     67  C   UNL     1       5.189   7.825   3.452  1.00  0.00     0.121 C 
ATOM     68  C   UNL     1       6.324   8.791   3.770  1.00  0.00     0.022 C 
BRANCH  65  69
ATOM     69  C   UNL     1       6.043   5.473   3.842  1.00  0.00     0.274 C 
ATOM     70  O   UNL     1       6.698   4.503   3.466  1.00  0.00    -0.267 OA
BRANCH  69  71
ATOM     71  C   UNL     1       5.596   5.570   5.232  1.00  0.00     0.147 A 
ATOM     72  C   UNL     1       4.295   5.511   5.697  1.00  0.00     0.127 A 
ATOM     73  N   UNL     1       6.475   5.754   6.287  1.00  0.00    -0.223 NA
ATOM     74  N   UNL     1       4.377   5.681   7.054  1.00  0.00    -0.306 N 
ATOM     75  C   UNL     1       5.726   5.804   7.367  1.00  0.00     0.137 A 
ATOM     76  C   UNL     1       3.359   5.746   8.002  1.00  0.00     0.093 A 
ATOM     77  C   UNL     1       6.063   5.969   8.741  1.00  0.00     0.048 A 
ATOM     78  C   UNL     1       3.679   5.922   9.296  1.00  0.00     0.018 A 
ATOM     79  C   UNL     1       5.084   6.027   9.665  1.00  0.00     0.005 A 
ENDBRANCH  69  71
ENDBRANCH  65  69
ENDBRANCH  60  63
ENDBRANCH  58  59
ENDBRANCH  57  58
ENDBRANCH   1  57
TORSDOF 13
