REMARK SMILES Cc1ccccc1[C@@H]1[NH2+][C@@H](C(=O)NCCCCNC(=O)c2ccc(-c3c4nc(c(-c5ccccc5)c5ccc([nH]5)c(-c5ccccc5)c5nc(c(-c6ccccc6)c6ccc3[nH]6)C=C5)C=C4)cc2)CC2=c3ccccc3=N[C@@H]21
REMARK SMILES IDX 16 1 15 2 14 3 13 4 11 5 12 6 10 8 8 9 9 10 78 11 70 14
REMARK SMILES IDX 77 15 69 16 71 17 76 18 72 19 75 20 73 21 74 22 7 23 1 24
REMARK SMILES IDX 2 25 3 26 4 27 6 28 5 29 17 30 18 31 19 32 20 34 21 35 22 36
REMARK SMILES IDX 68 37 23 38 67 39 24 40 25 41 26 42 61 43 27 44 66 45 60 46
REMARK SMILES IDX 62 47 28 48 65 49 59 50 58 51 29 53 51 54 36 55 50 56 37 57
REMARK SMILES IDX 40 58 49 59 63 60 38 61 39 62 48 64 64 65 41 66 30 67 31 68
REMARK SMILES IDX 35 69 32 70 34 71 33 72 52 73 53 74 57 75 54 76 56 77 55 78
REMARK SMILES IDX 42 79 43 80 47 81 44 82 46 83 45 84
REMARK H PARENT 13 7 9 12 9 13 18 33 62 52 40 63
REMARK Flexibility Score: inf
ROOT
ATOM      1  C   UNL     1       3.444   2.804  -1.815  1.00  0.00     0.023 C 
ENDROOT
BRANCH   1   2
ATOM      2  C   UNL     1       3.775   4.249  -1.347  1.00  0.00     0.023 C 
BRANCH   2   3
ATOM      3  C   UNL     1       2.971   5.513  -1.792  1.00  0.00     0.116 C 
BRANCH   3   4
ATOM      4  N   UNL     1       1.693   6.050  -1.267  1.00  0.00    -0.351 N 
ATOM      5  C   UNL     1       1.118   6.092  -0.000  1.00  0.00     0.278 C 
ATOM      6  O   UNL     1       0.269   6.930   0.291  1.00  0.00    -0.268 OA
ATOM      7  H   UNL     1       1.131   6.464  -1.961  1.00  0.00     0.163 HD
BRANCH   5   8
ATOM      8  C   UNL     1       1.566   4.993   0.935  1.00  0.00     0.277 C 
ATOM      9  C   UNL     1       0.331   2.842   0.711  1.00  0.00     0.243 C 
ATOM     10  N   UNL     1       1.316   3.776   0.157  1.00  0.00    -0.327 N 
ATOM     11  C   UNL     1       1.178   2.244   1.935  1.00  0.00     0.196 C 
ATOM     12  H   UNL     1       0.990   4.059  -0.767  1.00  0.00     0.347 HD
ATOM     13  H   UNL     1       2.201   3.268   0.154  1.00  0.00     0.347 HD
ATOM     14  C   UNL     1       1.719   3.460   2.756  1.00  0.00    -0.024 C 
ATOM     15  N   UNL     1       2.461   1.582   1.479  1.00  0.00    -0.270 NA
ATOM     16  C   UNL     1       1.111   4.827   2.401  1.00  0.00     0.109 C 
ATOM     17  C   UNL     1       3.046   3.377   2.955  1.00  0.00     0.002 A 
ATOM     18  C   UNL     1       3.415   2.253   2.063  1.00  0.00     0.066 A 
ATOM     19  C   UNL     1       4.006   4.412   3.261  1.00  0.00     0.010 A 
ATOM     20  C   UNL     1       4.870   2.120   1.764  1.00  0.00     0.028 A 
ATOM     21  C   UNL     1       5.274   4.291   2.836  1.00  0.00     0.001 A 
ATOM     22  C   UNL     1       5.713   3.105   2.127  1.00  0.00     0.002 A 
BRANCH   9  23
ATOM     23  C   UNL     1      -0.349   2.157  -0.502  1.00  0.00     0.015 A 
ATOM     24  C   UNL     1      -1.770   0.526   0.859  1.00  0.00     0.045 C 
ATOM     25  C   UNL     1      -1.333   1.157  -0.429  1.00  0.00    -0.042 A 
ATOM     26  C   UNL     1      -2.079   0.816  -1.592  1.00  0.00     0.004 A 
ATOM     27  C   UNL     1      -1.874   1.436  -2.825  1.00  0.00     0.000 A 
ATOM     28  C   UNL     1      -0.205   2.780  -1.785  1.00  0.00     0.010 A 
ATOM     29  C   UNL     1      -0.923   2.426  -2.925  1.00  0.00     0.001 A 
ENDBRANCH   9  23
ENDBRANCH   5   8
ENDBRANCH   3   4
ENDBRANCH   2   3
ENDBRANCH   1   2
BRANCH   1  30
ATOM     30  C   UNL     1       3.679   2.543  -3.287  1.00  0.00     0.116 C 
BRANCH  30  31
ATOM     31  N   UNL     1       4.723   1.560  -3.590  1.00  0.00    -0.352 N 
ATOM     32  C   UNL     1       5.498   1.481  -4.742  1.00  0.00     0.251 C 
ATOM     33  H   UNL     1       4.894   0.878  -2.901  1.00  0.00     0.163 HD
ATOM     34  O   UNL     1       6.340   0.619  -4.904  1.00  0.00    -0.269 OA
BRANCH  32  35
ATOM     35  C   UNL     1       5.344   2.585  -5.719  1.00  0.00     0.039 A 
ATOM     36  C   UNL     1       6.408   3.486  -5.795  1.00  0.00     0.014 A 
ATOM     37  C   UNL     1       4.056   2.940  -6.122  1.00  0.00     0.014 A 
ATOM     38  C   UNL     1       6.125   4.831  -5.989  1.00  0.00     0.010 A 
ATOM     39  C   UNL     1       3.766   4.290  -6.225  1.00  0.00     0.010 A 
ATOM     40  C   UNL     1       4.789   5.235  -6.069  1.00  0.00    -0.014 A 
BRANCH  40  41
ATOM     41  C   UNL     1       4.410   6.635  -5.916  1.00  0.00     0.031 A 
ATOM     42  C   UNL     1       4.124   7.412  -7.128  1.00  0.00     0.074 A 
ATOM     43  C   UNL     1       4.477   7.294  -4.738  1.00  0.00     0.049 A 
ATOM     44  N   UNL     1       4.598   8.592  -7.351  1.00  0.00    -0.248 NA
ATOM     45  C   UNL     1       3.340   6.863  -8.223  1.00  0.00     0.031 C 
ATOM     46  C   UNL     1       4.073   8.675  -4.477  1.00  0.00     0.029 A 
ATOM     47  N   UNL     1       5.148   6.915  -3.581  1.00  0.00    -0.354 N 
ATOM     48  C   UNL     1       3.970   9.059  -8.479  1.00  0.00     0.074 A 
ATOM     49  C   UNL     1       3.278   7.917  -9.038  1.00  0.00     0.031 C 
ATOM     50  C   UNL     1       4.746   9.124  -3.405  1.00  0.00     0.029 A 
ATOM     51  C   UNL     1       5.660   8.076  -2.983  1.00  0.00     0.049 A 
ATOM     52  H   UNL     1       5.247   5.996  -3.242  1.00  0.00     0.167 HD
ATOM     53  C   UNL     1       3.949  10.391  -8.756  1.00  0.00     0.031 A 
ATOM     54  C   UNL     1       6.960   8.230  -2.608  1.00  0.00     0.031 A 
ATOM     55  C   UNL     1       4.628  11.187  -7.738  1.00  0.00     0.049 A 
ATOM     56  C   UNL     1       7.625   9.402  -3.287  1.00  0.00     0.074 A 
ATOM     57  C   UNL     1       4.151  11.906  -6.653  1.00  0.00     0.029 A 
ATOM     58  N   UNL     1       6.003  11.079  -7.564  1.00  0.00    -0.354 N 
ATOM     59  N   UNL     1       7.093  10.061  -4.277  1.00  0.00    -0.248 NA
ATOM     60  C   UNL     1       8.985   9.844  -2.985  1.00  0.00     0.031 C 
ATOM     61  C   UNL     1       5.243  12.191  -5.798  1.00  0.00     0.029 A 
ATOM     62  C   UNL     1       6.386  11.660  -6.368  1.00  0.00     0.049 A 
ATOM     63  H   UNL     1       6.618  10.650  -8.203  1.00  0.00     0.167 HD
ATOM     64  C   UNL     1       8.023  10.921  -4.798  1.00  0.00     0.074 A 
ATOM     65  C   UNL     1       9.177  10.781  -3.929  1.00  0.00     0.031 C 
ATOM     66  C   UNL     1       7.777  11.635  -5.934  1.00  0.00     0.031 A 
BRANCH  53  67
ATOM     67  C   UNL     1       2.982  10.952  -9.767  1.00  0.00    -0.014 A 
ATOM     68  C   UNL     1       2.359  12.188  -9.529  1.00  0.00     0.009 A 
ATOM     69  C   UNL     1       2.593  10.272 -10.934  1.00  0.00     0.009 A 
ATOM     70  C   UNL     1       1.313  12.653 -10.335  1.00  0.00     0.001 A 
ATOM     71  C   UNL     1       1.511  10.701 -11.713  1.00  0.00     0.001 A 
ATOM     72  C   UNL     1       0.861  11.888 -11.403  1.00  0.00     0.000 A 
ENDBRANCH  53  67
BRANCH  54  73
ATOM     73  C   UNL     1       7.653   6.950  -2.306  1.00  0.00    -0.014 A 
ATOM     74  C   UNL     1       7.231   6.224  -1.176  1.00  0.00     0.009 A 
ATOM     75  C   UNL     1       8.373   6.285  -3.309  1.00  0.00     0.009 A 
ATOM     76  C   UNL     1       7.399   4.839  -1.125  1.00  0.00     0.001 A 
ATOM     77  C   UNL     1       8.541   4.899  -3.245  1.00  0.00     0.001 A 
ATOM     78  C   UNL     1       8.012   4.171  -2.180  1.00  0.00     0.000 A 
ENDBRANCH  54  73
BRANCH  66  79
ATOM     79  C   UNL     1       8.802  12.430  -6.698  1.00  0.00    -0.014 A 
ATOM     80  C   UNL     1      10.178  12.164  -6.681  1.00  0.00     0.009 A 
ATOM     81  C   UNL     1       8.361  13.438  -7.582  1.00  0.00     0.009 A 
ATOM     82  C   UNL     1      11.076  12.911  -7.457  1.00  0.00     0.001 A 
ATOM     83  C   UNL     1       9.247  14.153  -8.392  1.00  0.00     0.001 A 
ATOM     84  C   UNL     1      10.609  13.900  -8.316  1.00  0.00     0.000 A 
ENDBRANCH  66  79
ENDBRANCH  40  41
ENDBRANCH  32  35
ENDBRANCH  30  31
ENDBRANCH   1  30
TORSDOF 12
