REMARK SMILES CC[C@H](C)[C@@H](NC(=O)[C@@H]1CCCN1C(=O)C1CC1)C(=O)NCCCCNC(=O)c1ccc(-c2c3nc(c(-c4ccccc4)c4ccc([nH]4)c(-c4ccccc4)c4nc(c(-c5ccccc5)c5ccc2[nH]5)C=C4)C=C3)cc1
REMARK SMILES IDX 22 1 21 2 19 3 20 4 5 6 3 7 4 8 2 9 1 10 6 11 7 12 8 14 9 15
REMARK SMILES IDX 10 16 13 17 11 18 12 19 14 20 15 21 16 22 17 23 18 24 23 25
REMARK SMILES IDX 24 26 25 27 26 28 27 29 28 31 29 32 30 33 76 34 31 35 75 36
REMARK SMILES IDX 32 37 33 38 34 39 69 40 35 41 74 42 68 43 70 44 36 45 73 46
REMARK SMILES IDX 67 47 66 48 37 50 59 51 44 52 58 53 45 54 48 55 57 56 71 57
REMARK SMILES IDX 46 58 47 59 56 61 72 62 49 63 38 64 39 65 43 66 40 67 42 68
REMARK SMILES IDX 41 69 60 70 61 71 65 72 62 73 64 74 63 75 50 76 51 77 55 78
REMARK SMILES IDX 52 79 54 80 53 81
REMARK H PARENT 21 5 6 13 26 30 70 49 48 60
REMARK Flexibility Score: inf
ROOT
ATOM      1  C   UNL     1       3.953   3.270   1.966  1.00  0.00     0.116 C 
ENDROOT
BRANCH   1   2
ATOM      2  N   UNL     1       2.921   4.281   1.861  1.00  0.00    -0.354 N 
ATOM      3  C   UNL     1       1.568   4.150   1.913  1.00  0.00     0.242 C 
ATOM      4  O   UNL     1       0.889   5.153   1.684  1.00  0.00    -0.273 OA
ATOM      5  H   UNL     1       3.248   5.201   1.733  1.00  0.00     0.163 HD
BRANCH   3   6
ATOM      6  C   UNL     1       0.913   2.772   2.125  1.00  0.00     0.174 C 
BRANCH   6   7
ATOM      7  C   UNL     1       1.032   1.919   0.818  1.00  0.00     0.018 C 
ATOM      8  C   UNL     1       0.243   0.605   0.928  1.00  0.00     0.010 C 
BRANCH   7   9
ATOM      9  C   UNL     1       0.585   2.699  -0.441  1.00  0.00     0.002 C 
ATOM     10  C   UNL     1       1.062   2.059  -1.739  1.00  0.00     0.004 C 
ENDBRANCH   7   9
ENDBRANCH   6   7
BRANCH   6  11
ATOM     11  N   UNL     1       1.497   2.054   3.277  1.00  0.00    -0.342 N 
ATOM     12  C   UNL     1       1.634   2.426   4.585  1.00  0.00     0.243 C 
ATOM     13  H   UNL     1       1.847   1.158   3.067  1.00  0.00     0.164 HD
ATOM     14  O   UNL     1       1.967   1.543   5.382  1.00  0.00    -0.273 OA
BRANCH  12  15
ATOM     15  C   UNL     1       1.618   3.901   4.996  1.00  0.00     0.174 C 
ATOM     16  C   UNL     1       2.216   4.227   6.364  1.00  0.00     0.037 C 
ATOM     17  N   UNL     1       0.593   4.929   4.865  1.00  0.00    -0.330 N 
ATOM     18  C   UNL     1       2.359   5.749   6.252  1.00  0.00     0.024 C 
ATOM     19  C   UNL     1       1.165   6.175   5.387  1.00  0.00     0.120 C 
BRANCH  17  20
ATOM     20  C   UNL     1      -0.792   4.877   4.828  1.00  0.00     0.226 C 
ATOM     21  O   UNL     1      -1.461   5.891   5.030  1.00  0.00    -0.275 OA
BRANCH  20  22
ATOM     22  C   UNL     1      -1.588   3.674   4.477  1.00  0.00     0.079 C 
ATOM     23  C   UNL     1      -1.441   2.196   4.687  1.00  0.00     0.014 C 
ATOM     24  C   UNL     1      -2.244   2.979   5.665  1.00  0.00     0.014 C 
ENDBRANCH  20  22
ENDBRANCH  17  20
ENDBRANCH  12  15
ENDBRANCH   6  11
ENDBRANCH   3   6
ENDBRANCH   1   2
BRANCH   1  25
ATOM     25  C   UNL     1       4.947   3.406   0.822  1.00  0.00     0.023 C 
BRANCH  25  26
ATOM     26  C   UNL     1       5.741   4.712   0.856  1.00  0.00     0.023 C 
BRANCH  26  27
ATOM     27  C   UNL     1       6.390   5.009   2.201  1.00  0.00     0.116 C 
BRANCH  27  28
ATOM     28  N   UNL     1       7.248   3.920   2.648  1.00  0.00    -0.352 N 
ATOM     29  C   UNL     1       8.561   3.986   3.037  1.00  0.00     0.251 C 
ATOM     30  H   UNL     1       6.834   3.027   2.674  1.00  0.00     0.163 HD
ATOM     31  O   UNL     1       9.227   2.973   3.216  1.00  0.00    -0.269 OA
BRANCH  29  32
ATOM     32  C   UNL     1       9.153   5.319   3.215  1.00  0.00     0.039 A 
ATOM     33  C   UNL     1      10.277   5.670   2.469  1.00  0.00     0.014 A 
ATOM     34  C   UNL     1       8.515   6.242   4.050  1.00  0.00     0.014 A 
ATOM     35  C   UNL     1      10.741   6.982   2.523  1.00  0.00     0.010 A 
ATOM     36  C   UNL     1       8.934   7.564   4.043  1.00  0.00     0.010 A 
ATOM     37  C   UNL     1      10.056   7.941   3.288  1.00  0.00    -0.014 A 
BRANCH  37  38
ATOM     38  C   UNL     1      10.511   9.348   3.334  1.00  0.00     0.031 A 
ATOM     39  C   UNL     1      11.020   9.918   4.627  1.00  0.00     0.074 A 
ATOM     40  C   UNL     1      10.408  10.122   2.238  1.00  0.00     0.049 A 
ATOM     41  N   UNL     1      11.418  11.135   4.892  1.00  0.00    -0.248 NA
ATOM     42  C   UNL     1      11.055   9.007   5.784  1.00  0.00     0.031 C 
ATOM     43  C   UNL     1       9.885   9.692   0.939  1.00  0.00     0.029 A 
ATOM     44  N   UNL     1      10.736  11.439   2.046  1.00  0.00    -0.354 N 
ATOM     45  C   UNL     1      11.730  11.139   6.245  1.00  0.00     0.074 A 
ATOM     46  C   UNL     1      11.423   9.823   6.758  1.00  0.00     0.031 C 
ATOM     47  C   UNL     1       9.958  10.719   0.076  1.00  0.00     0.029 A 
ATOM     48  C   UNL     1      10.499  11.884   0.768  1.00  0.00     0.049 A 
ATOM     49  H   UNL     1      11.107  12.012   2.756  1.00  0.00     0.167 HD
ATOM     50  C   UNL     1      12.249  12.143   6.990  1.00  0.00     0.031 A 
ATOM     51  C   UNL     1      10.700  13.096   0.219  1.00  0.00     0.031 A 
ATOM     52  C   UNL     1      12.570  13.444   6.472  1.00  0.00     0.049 A 
ATOM     53  C   UNL     1      11.281  14.194   1.065  1.00  0.00     0.074 A 
ATOM     54  C   UNL     1      13.158  14.512   7.125  1.00  0.00     0.029 A 
ATOM     55  N   UNL     1      12.327  13.852   5.169  1.00  0.00    -0.354 N 
ATOM     56  N   UNL     1      11.640  14.163   2.326  1.00  0.00    -0.248 NA
ATOM     57  C   UNL     1      11.495  15.491   0.408  1.00  0.00     0.031 C 
ATOM     58  C   UNL     1      13.233  15.582   6.227  1.00  0.00     0.029 A 
ATOM     59  C   UNL     1      12.735  15.164   5.003  1.00  0.00     0.049 A 
ATOM     60  H   UNL     1      11.925  13.292   4.467  1.00  0.00     0.167 HD
ATOM     61  C   UNL     1      12.145  15.425   2.607  1.00  0.00     0.074 A 
ATOM     62  C   UNL     1      12.059  16.193   1.381  1.00  0.00     0.031 C 
ATOM     63  C   UNL     1      12.637  15.907   3.774  1.00  0.00     0.031 A 
BRANCH  50  64
ATOM     64  C   UNL     1      12.492  11.861   8.445  1.00  0.00    -0.014 A 
ATOM     65  C   UNL     1      13.508  10.982   8.856  1.00  0.00     0.009 A 
ATOM     66  C   UNL     1      11.701  12.487   9.420  1.00  0.00     0.009 A 
ATOM     67  C   UNL     1      13.697  10.703  10.210  1.00  0.00     0.001 A 
ATOM     68  C   UNL     1      11.912  12.229  10.775  1.00  0.00     0.001 A 
ATOM     69  C   UNL     1      12.902  11.329  11.169  1.00  0.00     0.000 A 
ENDBRANCH  50  64
BRANCH  51  70
ATOM     70  C   UNL     1      10.377  13.326  -1.212  1.00  0.00    -0.014 A 
ATOM     71  C   UNL     1      11.406  13.473  -2.155  1.00  0.00     0.009 A 
ATOM     72  C   UNL     1       9.044  13.397  -1.644  1.00  0.00     0.009 A 
ATOM     73  C   UNL     1      11.106  13.709  -3.499  1.00  0.00     0.001 A 
ATOM     74  C   UNL     1       8.747  13.608  -2.993  1.00  0.00     0.001 A 
ATOM     75  C   UNL     1       9.778  13.772  -3.917  1.00  0.00     0.000 A 
ENDBRANCH  51  70
BRANCH  63  76
ATOM     76  C   UNL     1      13.145  17.320   3.771  1.00  0.00    -0.014 A 
ATOM     77  C   UNL     1      12.262  18.410   3.733  1.00  0.00     0.009 A 
ATOM     78  C   UNL     1      14.525  17.561   3.852  1.00  0.00     0.009 A 
ATOM     79  C   UNL     1      12.755  19.715   3.747  1.00  0.00     0.001 A 
ATOM     80  C   UNL     1      15.013  18.867   3.892  1.00  0.00     0.001 A 
ATOM     81  C   UNL     1      14.128  19.943   3.831  1.00  0.00     0.000 A 
ENDBRANCH  63  76
ENDBRANCH  37  38
ENDBRANCH  29  32
ENDBRANCH  27  28
ENDBRANCH  26  27
ENDBRANCH  25  26
ENDBRANCH   1  25
TORSDOF 17
