REMARK SMILES O=C(NCCCCNC(=O)c1c[nH]c(=O)c(-c2cccc([N+](=O)[O-])c2)c1)c1ccc(-c2c3nc(c(-c4ccccc4)c4ccc([nH]4)c(-c4ccccc4)c4nc(c(-c5ccccc5)c5ccc2[nH]5)C=C4)C=C3)cc1
REMARK SMILES IDX 5 1 4 2 3 3 1 4 2 5 27 7 28 8 74 9 29 10 73 11 30 12 31 13
REMARK SMILES IDX 32 14 67 15 33 16 72 17 66 18 68 19 34 20 71 21 65 22 64 23
REMARK SMILES IDX 35 25 57 26 42 27 56 28 43 29 46 30 55 31 69 32 44 33 45 34
REMARK SMILES IDX 54 36 70 37 47 38 36 39 37 40 41 41 38 42 40 43 39 44 58 45
REMARK SMILES IDX 59 46 63 47 60 48 62 49 61 50 48 51 49 52 53 53 50 54 52 55
REMARK SMILES IDX 51 56 6 57 7 58 8 59 9 60 10 62 11 63 12 64 26 65 13 66
REMARK SMILES IDX 16 67 14 68 15 70 17 71 18 72 25 73 19 74 21 75 20 76 22 77
REMARK SMILES IDX 23 78 24 79
REMARK H PARENT 3 6 68 24 46 35 8 61 13 69
REMARK Flexibility Score: inf
ROOT
ATOM      1  C   UNL     1       4.975   2.760  -0.204  1.00  0.00     0.023 C 
ENDROOT
BRANCH   1   2
ATOM      2  C   UNL     1       4.617   1.393   0.362  1.00  0.00     0.116 C 
BRANCH   2   3
ATOM      3  N   UNL     1       3.183   1.157   0.411  1.00  0.00    -0.352 N 
ATOM      4  O   UNL     1       1.234   0.142  -0.104  1.00  0.00    -0.269 OA
ATOM      5  C   UNL     1       2.461   0.114  -0.118  1.00  0.00     0.251 C 
ATOM      6  H   UNL     1       2.658   1.838   0.889  1.00  0.00     0.163 HD
BRANCH   5   7
ATOM      7  C   UNL     1       3.166  -1.036  -0.723  1.00  0.00     0.039 A 
ATOM      8  C   UNL     1       4.251  -1.627  -0.071  1.00  0.00     0.014 A 
ATOM      9  C   UNL     1       2.725  -1.538  -1.951  1.00  0.00     0.014 A 
ATOM     10  C   UNL     1       4.969  -2.637  -0.702  1.00  0.00     0.010 A 
ATOM     11  C   UNL     1       3.398  -2.609  -2.546  1.00  0.00     0.010 A 
ATOM     12  C   UNL     1       4.535  -3.157  -1.932  1.00  0.00    -0.014 A 
BRANCH  12  13
ATOM     13  C   UNL     1       5.215  -4.350  -2.491  1.00  0.00     0.031 A 
ATOM     14  C   UNL     1       5.987  -4.287  -3.778  1.00  0.00     0.074 A 
ATOM     15  C   UNL     1       5.133  -5.505  -1.803  1.00  0.00     0.049 A 
ATOM     16  N   UNL     1       6.646  -5.244  -4.383  1.00  0.00    -0.248 NA
ATOM     17  C   UNL     1       6.023  -2.996  -4.482  1.00  0.00     0.031 C 
ATOM     18  C   UNL     1       4.396  -5.688  -0.548  1.00  0.00     0.029 A 
ATOM     19  N   UNL     1       5.679  -6.738  -2.047  1.00  0.00    -0.354 N 
ATOM     20  C   UNL     1       7.159  -4.679  -5.544  1.00  0.00     0.074 A 
ATOM     21  C   UNL     1       6.724  -3.299  -5.568  1.00  0.00     0.031 C 
ATOM     22  C   UNL     1       4.569  -6.944  -0.115  1.00  0.00     0.029 A 
ATOM     23  C   UNL     1       5.370  -7.673  -1.089  1.00  0.00     0.049 A 
ATOM     24  H   UNL     1       6.239  -6.935  -2.833  1.00  0.00     0.167 HD
ATOM     25  C   UNL     1       7.922  -5.264  -6.499  1.00  0.00     0.031 A 
ATOM     26  C   UNL     1       5.673  -8.981  -1.013  1.00  0.00     0.031 A 
ATOM     27  C   UNL     1       8.357  -6.636  -6.465  1.00  0.00     0.049 A 
ATOM     28  C   UNL     1       6.490  -9.602  -2.106  1.00  0.00     0.074 A 
ATOM     29  C   UNL     1       9.182  -7.299  -7.359  1.00  0.00     0.029 A 
ATOM     30  N   UNL     1       7.993  -7.559  -5.497  1.00  0.00    -0.354 N 
ATOM     31  N   UNL     1       7.019  -9.036  -3.162  1.00  0.00    -0.248 NA
ATOM     32  C   UNL     1       6.747 -11.044  -1.998  1.00  0.00     0.031 C 
ATOM     33  C   UNL     1       9.270  -8.638  -6.963  1.00  0.00     0.029 A 
ATOM     34  C   UNL     1       8.543  -8.795  -5.794  1.00  0.00     0.049 A 
ATOM     35  H   UNL     1       7.428  -7.365  -4.715  1.00  0.00     0.167 HD
ATOM     36  C   UNL     1       7.677 -10.050  -3.842  1.00  0.00     0.074 A 
ATOM     37  C   UNL     1       7.508 -11.258  -3.061  1.00  0.00     0.031 C 
ATOM     38  C   UNL     1       8.354  -9.989  -5.013  1.00  0.00     0.031 A 
BRANCH  25  39
ATOM     39  C   UNL     1       8.326  -4.436  -7.686  1.00  0.00    -0.014 A 
ATOM     40  C   UNL     1       9.336  -3.467  -7.590  1.00  0.00     0.009 A 
ATOM     41  C   UNL     1       7.757  -4.703  -8.942  1.00  0.00     0.009 A 
ATOM     42  C   UNL     1       9.757  -2.772  -8.727  1.00  0.00     0.001 A 
ATOM     43  C   UNL     1       8.194  -4.022 -10.079  1.00  0.00     0.001 A 
ATOM     44  C   UNL     1       9.191  -3.055  -9.971  1.00  0.00     0.000 A 
ENDBRANCH  25  39
BRANCH  26  45
ATOM     45  C   UNL     1       5.160  -9.797   0.117  1.00  0.00    -0.014 A 
ATOM     46  C   UNL     1       6.035 -10.320   1.080  1.00  0.00     0.009 A 
ATOM     47  C   UNL     1       3.786 -10.064   0.230  1.00  0.00     0.009 A 
ATOM     48  C   UNL     1       5.546 -11.118   2.118  1.00  0.00     0.001 A 
ATOM     49  C   UNL     1       3.297 -10.833   1.286  1.00  0.00     0.001 A 
ATOM     50  C   UNL     1       4.178 -11.369   2.222  1.00  0.00     0.000 A 
ENDBRANCH  26  45
BRANCH  38  51
ATOM     51  C   UNL     1       8.964 -11.267  -5.510  1.00  0.00    -0.014 A 
ATOM     52  C   UNL     1       8.164 -12.290  -6.042  1.00  0.00     0.009 A 
ATOM     53  C   UNL     1      10.355 -11.442  -5.462  1.00  0.00     0.009 A 
ATOM     54  C   UNL     1       8.744 -13.479  -6.485  1.00  0.00     0.001 A 
ATOM     55  C   UNL     1      10.934 -12.621  -5.931  1.00  0.00     0.001 A 
ATOM     56  C   UNL     1      10.128 -13.642  -6.433  1.00  0.00     0.000 A 
ENDBRANCH  38  51
ENDBRANCH  12  13
ENDBRANCH   5   7
ENDBRANCH   2   3
ENDBRANCH   1   2
BRANCH   1  57
ATOM     57  C   UNL     1       4.493   3.951   0.619  1.00  0.00     0.023 C 
BRANCH  57  58
ATOM     58  C   UNL     1       4.896   3.934   2.090  1.00  0.00     0.116 C 
BRANCH  58  59
ATOM     59  N   UNL     1       6.339   3.890   2.282  1.00  0.00    -0.352 N 
ATOM     60  C   UNL     1       7.156   4.733   2.981  1.00  0.00     0.252 C 
ATOM     61  H   UNL     1       6.795   3.138   1.840  1.00  0.00     0.163 HD
ATOM     62  O   UNL     1       8.374   4.580   2.938  1.00  0.00    -0.269 OA
BRANCH  60  63
ATOM     63  C   UNL     1       6.543   5.841   3.756  1.00  0.00     0.056 A 
ATOM     64  C   UNL     1       6.993   7.085   3.538  1.00  0.00     0.099 A 
ATOM     65  C   UNL     1       5.473   5.625   4.708  1.00  0.00     0.029 A 
ATOM     66  N   UNL     1       6.396   8.153   4.163  1.00  0.00    -0.328 N 
ATOM     67  C   UNL     1       4.828   6.651   5.294  1.00  0.00     0.048 A 
ATOM     68  C   UNL     1       5.317   8.048   5.014  1.00  0.00     0.255 A 
ATOM     69  H   UNL     1       6.763   9.050   3.993  1.00  0.00     0.169 HD
ATOM     70  O   UNL     1       4.792   9.040   5.508  1.00  0.00    -0.269 OA
BRANCH  67  71
ATOM     71  C   UNL     1       3.619   6.384   6.095  1.00  0.00    -0.006 A 
ATOM     72  C   UNL     1       3.632   5.451   7.144  1.00  0.00     0.009 A 
ATOM     73  C   UNL     1       2.412   7.016   5.762  1.00  0.00     0.094 A 
ATOM     74  C   UNL     1       2.461   5.143   7.843  1.00  0.00     0.008 A 
ATOM     75  C   UNL     1       1.240   6.702   6.464  1.00  0.00     0.270 A 
ATOM     76  C   UNL     1       1.260   5.763   7.503  1.00  0.00     0.085 A 
BRANCH  75  77
ATOM     77  N   UNL     1      -0.026   7.342   6.087  1.00  0.00     0.062 N 
ATOM     78  O   UNL     1      -1.022   7.100   6.782  1.00  0.00    -0.258 OA
ATOM     79  O   UNL     1      -0.028   8.071   5.085  1.00  0.00    -0.258 OA
ENDBRANCH  75  77
ENDBRANCH  67  71
ENDBRANCH  60  63
ENDBRANCH  58  59
ENDBRANCH  57  58
ENDBRANCH   1  57
TORSDOF 13
