REMARK SMILES CC1=C(C(=O)NCCCCNC(=O)c2ccc(-c3c4nc(c(-c5ccccc5)c5ccc([nH]5)c(-c5ccccc5)c5nc(c(-c6ccccc6)c6ccc3[nH]6)C=C5)C=C4)cc2)N2C(=O)[C@H](NC(=O)c3cc(C(F)(F)F)nn3C)[C@@H]2SC1
REMARK SMILES IDX 8 1 7 2 6 3 4 4 5 5 3 7 1 8 2 9 81 10 62 11 80 12 63 13
REMARK SMILES IDX 79 14 64 15 65 16 66 17 67 18 68 20 69 21 70 22 77 23 71 24
REMARK SMILES IDX 76 25 78 26 72 27 73 28 74 29 75 30 9 31 10 32 11 33 12 34
REMARK SMILES IDX 13 36 14 37 15 38 61 39 16 40 60 41 17 42 18 43 19 44 54 45
REMARK SMILES IDX 20 46 59 47 53 48 55 49 21 50 58 51 52 52 51 53 22 55 44 56
REMARK SMILES IDX 29 57 43 58 30 59 33 60 42 61 56 62 31 63 32 64 41 66 57 67
REMARK SMILES IDX 34 68 23 69 24 70 28 71 25 72 27 73 26 74 45 75 46 76 50 77
REMARK SMILES IDX 47 78 49 79 48 80 35 81 36 82 40 83 37 84 39 85 38 86
REMARK H PARENT 6 6 66 19 11 35 55 54 33 65
REMARK Flexibility Score: inf
ROOT
ATOM      1  C   UNL     1       0.773  -1.185   2.084  1.00  0.00     0.023 C 
ENDROOT
BRANCH   1   2
ATOM      2  C   UNL     1       1.750  -1.602   0.977  1.00  0.00     0.116 C 
BRANCH   2   3
ATOM      3  N   UNL     1       1.076  -2.514   0.085  1.00  0.00    -0.351 N 
ATOM      4  C   UNL     1       0.314  -2.317  -1.017  1.00  0.00     0.268 C 
ATOM      5  O   UNL     1      -0.426  -3.251  -1.349  1.00  0.00    -0.268 OA
ATOM      6  H   UNL     1       1.191  -3.463   0.324  1.00  0.00     0.163 HD
BRANCH   4   7
ATOM      7  C   UNL     1       0.349  -1.088  -1.908  1.00  0.00     0.110 C 
ATOM      8  C   UNL     1      -0.066   0.791  -0.239  1.00  0.00     0.043 C 
ATOM      9  C   UNL     1       0.183   0.227  -1.606  1.00  0.00    -0.034 C 
ATOM     10  C   UNL     1       0.160   1.358  -2.633  1.00  0.00     0.104 C 
ATOM     11  N   UNL     1       0.371  -1.420  -3.230  1.00  0.00    -0.290 N 
ATOM     12  S   UNL     1       0.466   0.917  -4.357  1.00  0.00    -0.129 SA
ATOM     13  C   UNL     1       0.768  -2.449  -4.005  1.00  0.00     0.253 C 
ATOM     14  C   UNL     1      -0.358  -0.689  -4.231  1.00  0.00     0.181 C 
ATOM     15  O   UNL     1       1.455  -3.420  -3.801  1.00  0.00    -0.272 OA
ATOM     16  C   UNL     1       0.070  -1.796  -5.240  1.00  0.00     0.206 C 
BRANCH  16  17
ATOM     17  N   UNL     1       0.948  -1.363  -6.352  1.00  0.00    -0.336 N 
ATOM     18  C   UNL     1       0.640  -1.226  -7.681  1.00  0.00     0.270 C 
ATOM     19  H   UNL     1       1.875  -1.144  -6.104  1.00  0.00     0.164 HD
ATOM     20  O   UNL     1       1.525  -0.875  -8.456  1.00  0.00    -0.268 OA
BRANCH  18  21
ATOM     21  C   UNL     1      -0.695  -1.555  -8.112  1.00  0.00     0.126 A 
ATOM     22  C   UNL     1      -1.929  -1.147  -7.637  1.00  0.00     0.069 A 
ATOM     23  N   UNL     1      -0.982  -2.363  -9.182  1.00  0.00    -0.262 N 
ATOM     24  C   UNL     1      -2.901  -1.835  -8.412  1.00  0.00     0.167 A 
ATOM     25  N   UNL     1      -2.301  -2.583  -9.356  1.00  0.00    -0.168 NA
ATOM     26  C   UNL     1      -0.057  -3.055 -10.053  1.00  0.00     0.174 C 
BRANCH  24  27
ATOM     27  C   UNL     1      -4.396  -1.791  -8.233  1.00  0.00     0.435 C 
ATOM     28  F   UNL     1      -5.045  -1.294  -9.318  1.00  0.00    -0.164 F 
ATOM     29  F   UNL     1      -4.925  -3.017  -7.974  1.00  0.00    -0.164 F 
ATOM     30  F   UNL     1      -4.747  -0.998  -7.180  1.00  0.00    -0.164 F 
ENDBRANCH  24  27
ENDBRANCH  18  21
ENDBRANCH  16  17
ENDBRANCH   4   7
ENDBRANCH   2   3
ENDBRANCH   1   2
BRANCH   1  31
ATOM     31  C   UNL     1       0.827  -2.011   3.365  1.00  0.00     0.023 C 
BRANCH  31  32
ATOM     32  C   UNL     1       2.086  -1.803   4.189  1.00  0.00     0.116 C 
BRANCH  32  33
ATOM     33  N   UNL     1       2.313  -0.416   4.570  1.00  0.00    -0.352 N 
ATOM     34  C   UNL     1       2.966   0.075   5.673  1.00  0.00     0.251 C 
ATOM     35  H   UNL     1       1.949   0.260   3.954  1.00  0.00     0.163 HD
ATOM     36  O   UNL     1       3.007   1.283   5.880  1.00  0.00    -0.269 OA
BRANCH  34  37
ATOM     37  C   UNL     1       3.565  -0.868   6.639  1.00  0.00     0.039 A 
ATOM     38  C   UNL     1       3.322  -0.670   7.999  1.00  0.00     0.014 A 
ATOM     39  C   UNL     1       4.309  -1.969   6.207  1.00  0.00     0.014 A 
ATOM     40  C   UNL     1       3.766  -1.618   8.920  1.00  0.00     0.010 A 
ATOM     41  C   UNL     1       4.668  -2.958   7.114  1.00  0.00     0.010 A 
ATOM     42  C   UNL     1       4.406  -2.790   8.479  1.00  0.00    -0.014 A 
BRANCH  42  43
ATOM     43  C   UNL     1       4.793  -3.845   9.445  1.00  0.00     0.031 A 
ATOM     44  C   UNL     1       6.240  -4.188   9.658  1.00  0.00     0.074 A 
ATOM     45  C   UNL     1       3.831  -4.517  10.106  1.00  0.00     0.049 A 
ATOM     46  N   UNL     1       6.767  -5.039  10.502  1.00  0.00    -0.248 NA
ATOM     47  C   UNL     1       7.223  -3.512   8.796  1.00  0.00     0.031 C 
ATOM     48  C   UNL     1       2.388  -4.329   9.928  1.00  0.00     0.029 A 
ATOM     49  N   UNL     1       3.923  -5.487  11.071  1.00  0.00    -0.354 N 
ATOM     50  C   UNL     1       8.135  -5.005  10.265  1.00  0.00     0.074 A 
ATOM     51  C   UNL     1       8.352  -4.099   9.159  1.00  0.00     0.031 C 
ATOM     52  C   UNL     1       1.733  -5.119  10.794  1.00  0.00     0.029 A 
ATOM     53  C   UNL     1       2.705  -5.884  11.567  1.00  0.00     0.049 A 
ATOM     54  H   UNL     1       4.780  -5.863  11.378  1.00  0.00     0.167 HD
ATOM     55  C   UNL     1       9.127  -5.647  10.927  1.00  0.00     0.031 A 
ATOM     56  C   UNL     1       2.408  -6.751  12.552  1.00  0.00     0.031 A 
ATOM     57  C   UNL     1       8.911  -6.538  12.034  1.00  0.00     0.049 A 
ATOM     58  C   UNL     1       3.526  -7.423  13.296  1.00  0.00     0.074 A 
ATOM     59  C   UNL     1       9.850  -7.194  12.811  1.00  0.00     0.029 A 
ATOM     60  N   UNL     1       7.664  -6.900  12.521  1.00  0.00    -0.354 N 
ATOM     61  N   UNL     1       4.821  -7.310  13.121  1.00  0.00    -0.248 NA
ATOM     62  C   UNL     1       3.140  -8.323  14.391  1.00  0.00     0.031 C 
ATOM     63  C   UNL     1       9.168  -7.985  13.743  1.00  0.00     0.029 A 
ATOM     64  C   UNL     1       7.808  -7.781  13.579  1.00  0.00     0.049 A 
ATOM     65  H   UNL     1       6.804  -6.577  12.166  1.00  0.00     0.167 HD
ATOM     66  C   UNL     1       5.404  -8.104  14.099  1.00  0.00     0.074 A 
ATOM     67  C   UNL     1       4.322  -8.672  14.877  1.00  0.00     0.031 C 
ATOM     68  C   UNL     1       6.718  -8.343  14.333  1.00  0.00     0.031 A 
BRANCH  55  69
ATOM     69  C   UNL     1      10.535  -5.397  10.465  1.00  0.00    -0.014 A 
ATOM     70  C   UNL     1      11.155  -4.153  10.665  1.00  0.00     0.009 A 
ATOM     71  C   UNL     1      11.260  -6.423   9.838  1.00  0.00     0.009 A 
ATOM     72  C   UNL     1      12.457  -3.928  10.213  1.00  0.00     0.001 A 
ATOM     73  C   UNL     1      12.572  -6.205   9.414  1.00  0.00     0.001 A 
ATOM     74  C   UNL     1      13.166  -4.956   9.592  1.00  0.00     0.000 A 
ENDBRANCH  55  69
BRANCH  56  75
ATOM     75  C   UNL     1       0.991  -6.992  12.930  1.00  0.00    -0.014 A 
ATOM     76  C   UNL     1       0.484  -6.494  14.140  1.00  0.00     0.009 A 
ATOM     77  C   UNL     1       0.140  -7.721  12.086  1.00  0.00     0.009 A 
ATOM     78  C   UNL     1      -0.837  -6.748  14.512  1.00  0.00     0.001 A 
ATOM     79  C   UNL     1      -1.189  -7.950  12.448  1.00  0.00     0.001 A 
ATOM     80  C   UNL     1      -1.674  -7.472  13.665  1.00  0.00     0.000 A 
ENDBRANCH  56  75
BRANCH  68  81
ATOM     81  C   UNL     1       7.047  -9.238  15.494  1.00  0.00    -0.014 A 
ATOM     82  C   UNL     1       6.791 -10.617  15.447  1.00  0.00     0.009 A 
ATOM     83  C   UNL     1       7.630  -8.692  16.648  1.00  0.00     0.009 A 
ATOM     84  C   UNL     1       7.068 -11.424  16.552  1.00  0.00     0.001 A 
ATOM     85  C   UNL     1       7.934  -9.506  17.739  1.00  0.00     0.001 A 
ATOM     86  C   UNL     1       7.641 -10.868  17.696  1.00  0.00     0.000 A 
ENDBRANCH  68  81
ENDBRANCH  42  43
ENDBRANCH  34  37
ENDBRANCH  32  33
ENDBRANCH  31  32
ENDBRANCH   1  31
TORSDOF 14
