REMARK SMILES CC(C)N(c1cc2c(cc1Cl)C=C(C(=O)NCCCCNC(=O)c1ccc(-c3c4nc(c(-c5ccccc5)c5ccc([nH]5)c(-c5ccccc5)c5nc(c(-c6ccccc6)c6ccc3[nH]6)C=C5)C=C4)cc1)[C@@H](C(F)(F)F)O2)C(C)C
REMARK SMILES IDX 18 1 17 2 16 3 14 4 15 5 13 7 5 8 6 9 10 10 7 11 9 12 11 13
REMARK SMILES IDX 8 14 77 15 12 16 72 17 4 18 2 19 1 20 3 21 78 22 79 23 80 24
REMARK SMILES IDX 73 25 74 26 75 27 76 28 19 29 20 30 21 31 22 32 23 34 24 35
REMARK SMILES IDX 25 36 71 37 26 38 70 39 27 40 28 41 29 42 64 43 30 44 69 45
REMARK SMILES IDX 63 46 65 47 31 48 68 49 62 50 61 51 32 53 54 54 39 55 53 56
REMARK SMILES IDX 40 57 43 58 52 59 66 60 41 61 42 62 51 64 67 65 44 66 33 67
REMARK SMILES IDX 34 68 38 69 35 70 37 71 36 72 55 73 56 74 60 75 57 76 59 77
REMARK SMILES IDX 58 78 45 79 46 80 50 81 47 82 49 83 48 84
REMARK H PARENT 16 6 21 33 65 52 43 63
REMARK Flexibility Score: inf
ROOT
ATOM      1  C   UNL     1      -7.368   5.215  -4.696  1.00  0.00     0.023 C 
ENDROOT
BRANCH   1   2
ATOM      2  C   UNL     1      -7.599   3.755  -5.073  1.00  0.00     0.116 C 
BRANCH   2   3
ATOM      3  N   UNL     1      -6.740   3.336  -6.165  1.00  0.00    -0.352 N 
ATOM      4  C   UNL     1      -5.582   2.647  -6.301  1.00  0.00     0.251 C 
ATOM      5  O   UNL     1      -5.177   2.528  -7.462  1.00  0.00    -0.270 OA
ATOM      6  H   UNL     1      -7.092   3.629  -7.037  1.00  0.00     0.163 HD
BRANCH   4   7
ATOM      7  C   UNL     1      -4.799   2.047  -5.181  1.00  0.00     0.067 C 
ATOM      8  C   UNL     1      -1.364  -0.422  -2.387  1.00  0.00     0.060 A 
ATOM      9  C   UNL     1      -2.393   0.501  -2.123  1.00  0.00     0.074 A 
ATOM     10  C   UNL     1      -1.096  -0.700  -3.750  1.00  0.00     0.065 A 
ATOM     11  C   UNL     1      -3.142   1.075  -3.149  1.00  0.00     0.130 A 
ATOM     12  C   UNL     1      -1.815  -0.071  -4.782  1.00  0.00     0.034 A 
ATOM     13  Cl  UNL     1       0.052  -1.895  -4.258  1.00  0.00    -0.082 Cl
ATOM     14  C   UNL     1      -2.850   0.810  -4.482  1.00  0.00     0.019 A 
ATOM     15  O   UNL     1      -4.158   1.914  -2.781  1.00  0.00    -0.475 OA
ATOM     16  C   UNL     1      -3.636   1.461  -5.525  1.00  0.00     0.025 C 
ATOM     17  C   UNL     1      -5.245   2.017  -3.745  1.00  0.00     0.314 C 
BRANCH   8  18
ATOM     18  N   UNL     1      -0.696  -1.027  -1.303  1.00  0.00    -0.365 N 
BRANCH  18  19
ATOM     19  C   UNL     1       0.772  -0.856  -1.235  1.00  0.00     0.076 C 
ATOM     20  C   UNL     1       1.205   0.146  -0.166  1.00  0.00     0.030 C 
ATOM     21  C   UNL     1       1.526  -2.174  -1.079  1.00  0.00     0.030 C 
ENDBRANCH  18  19
BRANCH  18  22
ATOM     22  C   UNL     1      -1.555  -1.647  -0.268  1.00  0.00     0.076 C 
ATOM     23  C   UNL     1      -1.336  -3.152  -0.142  1.00  0.00     0.030 C 
ATOM     24  C   UNL     1      -1.474  -0.957   1.090  1.00  0.00     0.030 C 
ENDBRANCH  18  22
ENDBRANCH   8  18
BRANCH  17  25
ATOM     25  C   UNL     1      -6.293   0.917  -3.477  1.00  0.00     0.429 C 
ATOM     26  F   UNL     1      -6.898   1.121  -2.280  1.00  0.00    -0.167 F 
ATOM     27  F   UNL     1      -7.279   0.905  -4.406  1.00  0.00    -0.167 F 
ATOM     28  F   UNL     1      -5.761  -0.325  -3.456  1.00  0.00    -0.167 F 
ENDBRANCH  17  25
ENDBRANCH   4   7
ENDBRANCH   2   3
ENDBRANCH   1   2
BRANCH   1  29
ATOM     29  C   UNL     1      -8.113   6.215  -5.582  1.00  0.00     0.023 C 
BRANCH  29  30
ATOM     30  C   UNL     1      -9.622   6.006  -5.678  1.00  0.00     0.116 C 
BRANCH  30  31
ATOM     31  N   UNL     1     -10.297   5.913  -4.390  1.00  0.00    -0.352 N 
ATOM     32  C   UNL     1     -11.596   6.261  -4.098  1.00  0.00     0.251 C 
ATOM     33  H   UNL     1      -9.762   5.560  -3.642  1.00  0.00     0.163 HD
ATOM     34  O   UNL     1     -12.037   6.184  -2.958  1.00  0.00    -0.269 OA
BRANCH  32  35
ATOM     35  C   UNL     1     -12.429   6.790  -5.193  1.00  0.00     0.039 A 
ATOM     36  C   UNL     1     -12.595   6.043  -6.361  1.00  0.00     0.014 A 
ATOM     37  C   UNL     1     -12.914   8.095  -5.096  1.00  0.00     0.014 A 
ATOM     38  C   UNL     1     -13.102   6.663  -7.495  1.00  0.00     0.010 A 
ATOM     39  C   UNL     1     -13.485   8.694  -6.219  1.00  0.00     0.010 A 
ATOM     40  C   UNL     1     -13.529   8.000  -7.439  1.00  0.00    -0.014 A 
BRANCH  40  41
ATOM     41  C   UNL     1     -13.989   8.675  -8.676  1.00  0.00     0.031 A 
ATOM     42  C   UNL     1     -13.183   9.793  -9.279  1.00  0.00     0.074 A 
ATOM     43  C   UNL     1     -15.109   8.244  -9.283  1.00  0.00     0.049 A 
ATOM     44  N   UNL     1     -13.448  10.520 -10.335  1.00  0.00    -0.248 NA
ATOM     45  C   UNL     1     -11.914  10.140  -8.617  1.00  0.00     0.031 C 
ATOM     46  C   UNL     1     -15.945   7.136  -8.818  1.00  0.00     0.029 A 
ATOM     47  N   UNL     1     -15.723   8.670 -10.432  1.00  0.00    -0.354 N 
ATOM     48  C   UNL     1     -12.397  11.421 -10.450  1.00  0.00     0.074 A 
ATOM     49  C   UNL     1     -11.493  11.162  -9.351  1.00  0.00     0.031 C 
ATOM     50  C   UNL     1     -16.937   6.939  -9.699  1.00  0.00     0.029 A 
ATOM     51  C   UNL     1     -16.846   7.948 -10.749  1.00  0.00     0.049 A 
ATOM     52  H   UNL     1     -15.390   9.419 -10.976  1.00  0.00     0.167 HD
ATOM     53  C   UNL     1     -12.203  12.373 -11.392  1.00  0.00     0.031 A 
ATOM     54  C   UNL     1     -17.723   8.095 -11.759  1.00  0.00     0.031 A 
ATOM     55  C   UNL     1     -13.094  12.615 -12.494  1.00  0.00     0.049 A 
ATOM     56  C   UNL     1     -17.530   9.211 -12.741  1.00  0.00     0.074 A 
ATOM     57  C   UNL     1     -12.968  13.544 -13.513  1.00  0.00     0.029 A 
ATOM     58  N   UNL     1     -14.272  11.923 -12.723  1.00  0.00    -0.354 N 
ATOM     59  N   UNL     1     -16.544  10.071 -12.822  1.00  0.00    -0.248 NA
ATOM     60  C   UNL     1     -18.576   9.392 -13.756  1.00  0.00     0.031 C 
ATOM     61  C   UNL     1     -14.095  13.445 -14.333  1.00  0.00     0.029 A 
ATOM     62  C   UNL     1     -14.899  12.425 -13.850  1.00  0.00     0.049 A 
ATOM     63  H   UNL     1     -14.613  11.185 -12.168  1.00  0.00     0.167 HD
ATOM     64  C   UNL     1     -16.851  10.897 -13.894  1.00  0.00     0.074 A 
ATOM     65  C   UNL     1     -18.105  10.424 -14.444  1.00  0.00     0.031 C 
ATOM     66  C   UNL     1     -16.154  11.954 -14.373  1.00  0.00     0.031 A 
BRANCH  53  67
ATOM     67  C   UNL     1     -10.989  13.249 -11.271  1.00  0.00    -0.014 A 
ATOM     68  C   UNL     1     -11.137  14.589 -10.877  1.00  0.00     0.009 A 
ATOM     69  C   UNL     1      -9.717  12.781 -11.632  1.00  0.00     0.009 A 
ATOM     70  C   UNL     1     -10.035  15.446 -10.855  1.00  0.00     0.001 A 
ATOM     71  C   UNL     1      -8.614  13.636 -11.589  1.00  0.00     0.001 A 
ATOM     72  C   UNL     1      -8.774  14.968 -11.208  1.00  0.00     0.000 A 
ENDBRANCH  53  67
BRANCH  54  73
ATOM     73  C   UNL     1     -18.875   7.165 -11.857  1.00  0.00    -0.014 A 
ATOM     74  C   UNL     1     -19.919   7.226 -10.920  1.00  0.00     0.009 A 
ATOM     75  C   UNL     1     -18.901   6.169 -12.842  1.00  0.00     0.009 A 
ATOM     76  C   UNL     1     -20.952   6.288 -10.949  1.00  0.00     0.001 A 
ATOM     77  C   UNL     1     -19.949   5.247 -12.884  1.00  0.00     0.001 A 
ATOM     78  C   UNL     1     -20.967   5.301 -11.932  1.00  0.00     0.000 A 
ENDBRANCH  54  73
BRANCH  66  79
ATOM     79  C   UNL     1     -16.728  12.687 -15.549  1.00  0.00    -0.014 A 
ATOM     80  C   UNL     1     -16.158  12.525 -16.821  1.00  0.00     0.009 A 
ATOM     81  C   UNL     1     -17.767  13.612 -15.375  1.00  0.00     0.009 A 
ATOM     82  C   UNL     1     -16.611  13.288 -17.898  1.00  0.00     0.001 A 
ATOM     83  C   UNL     1     -18.231  14.360 -16.459  1.00  0.00     0.001 A 
ATOM     84  C   UNL     1     -17.647  14.203 -17.716  1.00  0.00     0.000 A 
ENDBRANCH  66  79
ENDBRANCH  40  41
ENDBRANCH  32  35
ENDBRANCH  30  31
ENDBRANCH  29  30
ENDBRANCH   1  29
TORSDOF 15
