REMARK SMILES O=C(NCCCCNC(=O)c1[nH]ncc1C[NH+]1CCC([N@H+]2CCC[C@@H](C(=O)N3CCCC3)C2)CC1)c1ccc(-c2c3nc(c(-c4ccccc4)c4ccc([nH]4)c(-c4ccccc4)c4nc(c(-c5ccccc5)c5ccc2[nH]5)C=C4)C=C3)cc1
REMARK SMILES IDX 6 1 5 2 4 3 3 4 1 5 2 6 36 8 37 9 83 10 38 11 82 12 39 13
REMARK SMILES IDX 40 14 41 15 76 16 42 17 81 18 75 19 77 20 43 21 80 22 74 23
REMARK SMILES IDX 73 24 44 26 66 27 51 28 65 29 52 30 55 31 64 32 78 33 53 34
REMARK SMILES IDX 54 35 63 37 79 38 56 39 45 40 46 41 50 42 47 43 49 44 48 45
REMARK SMILES IDX 67 46 68 47 72 48 69 49 71 50 70 51 57 52 58 53 62 54 59 55
REMARK SMILES IDX 61 56 60 57 7 58 8 59 9 60 10 62 11 63 12 64 15 65 13 66
REMARK SMILES IDX 14 68 16 69 17 70 18 71 35 72 19 74 34 75 20 76 21 77 22 78
REMARK SMILES IDX 33 79 23 81 25 82 24 83 26 84 27 85 28 86 29 87 32 88 30 89
REMARK SMILES IDX 31 90
REMARK H PARENT 3 7 77 25 55 36 8 61 12 67 17 73 21 80
REMARK Flexibility Score: inf
ROOT
ATOM      1  C   UNL     1       4.451   3.545  -1.513  1.00  0.00     0.023 C 
ENDROOT
BRANCH   1   2
ATOM      2  C   UNL     1       4.929   2.097  -1.557  1.00  0.00     0.023 C 
BRANCH   2   3
ATOM      3  C   UNL     1       4.580   1.260  -0.334  1.00  0.00     0.116 C 
BRANCH   3   4
ATOM      4  N   UNL     1       3.146   1.129  -0.122  1.00  0.00    -0.352 N 
ATOM      5  O   UNL     1       1.146   0.081  -0.046  1.00  0.00    -0.269 OA
ATOM      6  C   UNL     1       2.368  -0.005  -0.105  1.00  0.00     0.251 C 
ATOM      7  H   UNL     1       2.664   1.973   0.032  1.00  0.00     0.163 HD
BRANCH   6   8
ATOM      8  C   UNL     1       3.013  -1.331  -0.192  1.00  0.00     0.039 A 
ATOM      9  C   UNL     1       4.122  -1.631   0.601  1.00  0.00     0.014 A 
ATOM     10  C   UNL     1       2.516  -2.275  -1.094  1.00  0.00     0.014 A 
ATOM     11  C   UNL     1       4.832  -2.802   0.374  1.00  0.00     0.010 A 
ATOM     12  C   UNL     1       3.177  -3.496  -1.252  1.00  0.00     0.010 A 
ATOM     13  C   UNL     1       4.361  -3.754  -0.544  1.00  0.00    -0.014 A 
BRANCH  13  14
ATOM     14  C   UNL     1       5.092  -5.037  -0.694  1.00  0.00     0.031 A 
ATOM     15  C   UNL     1       5.758  -5.414  -1.988  1.00  0.00     0.074 A 
ATOM     16  C   UNL     1       5.177  -5.854   0.374  1.00  0.00     0.049 A 
ATOM     17  N   UNL     1       6.452  -6.488  -2.270  1.00  0.00    -0.248 NA
ATOM     18  C   UNL     1       5.628  -4.473  -3.112  1.00  0.00     0.031 C 
ATOM     19  C   UNL     1       4.569  -5.596   1.683  1.00  0.00     0.029 A 
ATOM     20  N   UNL     1       5.824  -7.050   0.539  1.00  0.00    -0.354 N 
ATOM     21  C   UNL     1       6.822  -6.365  -3.604  1.00  0.00     0.074 A 
ATOM     22  C   UNL     1       6.260  -5.120  -4.082  1.00  0.00     0.031 C 
ATOM     23  C   UNL     1       4.915  -6.576   2.529  1.00  0.00     0.029 A 
ATOM     24  C   UNL     1       5.708  -7.563   1.808  1.00  0.00     0.049 A 
ATOM     25  H   UNL     1       6.322  -7.499  -0.181  1.00  0.00     0.167 HD
ATOM     26  C   UNL     1       7.562  -7.213  -4.358  1.00  0.00     0.031 A 
ATOM     27  C   UNL     1       6.172  -8.710   2.334  1.00  0.00     0.031 A 
ATOM     28  C   UNL     1       8.124  -8.448  -3.876  1.00  0.00     0.049 A 
ATOM     29  C   UNL     1       6.964  -9.641   1.466  1.00  0.00     0.074 A 
ATOM     30  C   UNL     1       8.916  -9.358  -4.558  1.00  0.00     0.029 A 
ATOM     31  N   UNL     1       7.952  -8.950  -2.596  1.00  0.00    -0.354 N 
ATOM     32  N   UNL     1       7.328  -9.492   0.216  1.00  0.00    -0.248 NA
ATOM     33  C   UNL     1       7.407 -10.898   2.082  1.00  0.00     0.031 C 
ATOM     34  C   UNL     1       9.183 -10.433  -3.703  1.00  0.00     0.029 A 
ATOM     35  C   UNL     1       8.601 -10.168  -2.474  1.00  0.00     0.049 A 
ATOM     36  H   UNL     1       7.444  -8.506  -1.879  1.00  0.00     0.167 HD
ATOM     37  C   UNL     1       8.056 -10.630  -0.101  1.00  0.00     0.074 A 
ATOM     38  C   UNL     1       8.101 -11.447   1.095  1.00  0.00     0.031 C 
ATOM     39  C   UNL     1       8.632 -10.969  -1.279  1.00  0.00     0.031 A 
BRANCH  26  40
ATOM     40  C   UNL     1       7.793  -6.851  -5.799  1.00  0.00    -0.014 A 
ATOM     41  C   UNL     1       8.685  -5.830  -6.161  1.00  0.00     0.009 A 
ATOM     42  C   UNL     1       7.160  -7.590  -6.811  1.00  0.00     0.009 A 
ATOM     43  C   UNL     1       8.920  -5.542  -7.509  1.00  0.00     0.001 A 
ATOM     44  C   UNL     1       7.414  -7.316  -8.156  1.00  0.00     0.001 A 
ATOM     45  C   UNL     1       8.290  -6.289  -8.504  1.00  0.00     0.000 A 
ENDBRANCH  26  40
BRANCH  27  46
ATOM     46  C   UNL     1       5.875  -9.047   3.749  1.00  0.00    -0.014 A 
ATOM     47  C   UNL     1       6.893  -9.050   4.713  1.00  0.00     0.009 A 
ATOM     48  C   UNL     1       4.564  -9.360   4.143  1.00  0.00     0.009 A 
ATOM     49  C   UNL     1       6.607  -9.380   6.040  1.00  0.00     0.001 A 
ATOM     50  C   UNL     1       4.276  -9.659   5.475  1.00  0.00     0.001 A 
ATOM     51  C   UNL     1       5.299  -9.678   6.420  1.00  0.00     0.000 A 
ENDBRANCH  27  46
BRANCH  39  52
ATOM     52  C   UNL     1       9.382 -12.269  -1.317  1.00  0.00    -0.014 A 
ATOM     53  C   UNL     1       8.706 -13.498  -1.320  1.00  0.00     0.009 A 
ATOM     54  C   UNL     1      10.784 -12.260  -1.371  1.00  0.00     0.009 A 
ATOM     55  C   UNL     1       9.422 -14.696  -1.341  1.00  0.00     0.001 A 
ATOM     56  C   UNL     1      11.497 -13.459  -1.419  1.00  0.00     0.001 A 
ATOM     57  C   UNL     1      10.816 -14.675  -1.394  1.00  0.00     0.000 A 
ENDBRANCH  39  52
ENDBRANCH  13  14
ENDBRANCH   6   8
ENDBRANCH   3   4
ENDBRANCH   2   3
ENDBRANCH   1   2
BRANCH   1  58
ATOM     58  C   UNL     1       4.792   4.300  -0.234  1.00  0.00     0.116 C 
BRANCH  58  59
ATOM     59  N   UNL     1       6.221   4.378   0.021  1.00  0.00    -0.351 N 
ATOM     60  C   UNL     1       6.988   5.486   0.272  1.00  0.00     0.269 C 
ATOM     61  H   UNL     1       6.702   3.520   0.013  1.00  0.00     0.163 HD
ATOM     62  O   UNL     1       8.214   5.364   0.267  1.00  0.00    -0.268 OA
BRANCH  60  63
ATOM     63  C   UNL     1       6.343   6.752   0.452  1.00  0.00     0.131 A 
ATOM     64  N   UNL     1       6.770   7.871  -0.210  1.00  0.00    -0.272 N 
ATOM     65  C   UNL     1       5.289   7.174   1.256  1.00  0.00     0.057 A 
ATOM     66  N   UNL     1       5.959   8.928  -0.060  1.00  0.00    -0.183 NA
ATOM     67  H   UNL     1       7.596   7.897  -0.746  1.00  0.00     0.190 HD
ATOM     68  C   UNL     1       5.062   8.505   0.831  1.00  0.00     0.145 A 
BRANCH  65  69
ATOM     69  C   UNL     1       4.520   6.387   2.268  1.00  0.00     0.303 C 
BRANCH  69  70
ATOM     70  N   UNL     1       4.649   6.857   3.646  1.00  0.00    -0.331 N 
ATOM     71  C   UNL     1       6.022   6.862   4.147  1.00  0.00     0.268 C 
ATOM     72  C   UNL     1       3.944   8.104   3.934  1.00  0.00     0.268 C 
ATOM     73  H   UNL     1       4.156   6.144   4.183  1.00  0.00     0.348 HD
ATOM     74  C   UNL     1       6.034   7.066   5.664  1.00  0.00     0.126 C 
ATOM     75  C   UNL     1       3.863   8.327   5.444  1.00  0.00     0.126 C 
ATOM     76  C   UNL     1       5.270   8.345   6.066  1.00  0.00     0.195 C 
BRANCH  76  77
ATOM     77  N   UNL     1       5.227   8.651   7.521  1.00  0.00    -0.331 N 
ATOM     78  C   UNL     1       4.563   7.624   8.336  1.00  0.00     0.262 C 
ATOM     79  C   UNL     1       6.581   8.928   8.030  1.00  0.00     0.275 C 
ATOM     80  H   UNL     1       4.648   9.486   7.611  1.00  0.00     0.348 HD
ATOM     81  C   UNL     1       4.499   8.042   9.808  1.00  0.00     0.062 C 
ATOM     82  C   UNL     1       6.621   9.331   9.516  1.00  0.00     0.134 C 
ATOM     83  C   UNL     1       5.894   8.296  10.372  1.00  0.00     0.025 C 
BRANCH  82  84
ATOM     84  C   UNL     1       8.109   9.423   9.838  1.00  0.00     0.231 C 
ATOM     85  O   UNL     1       8.761   8.420  10.133  1.00  0.00    -0.274 OA
ATOM     86  N   UNL     1       8.727  10.621   9.552  1.00  0.00    -0.342 N 
ATOM     87  C   UNL     1       8.172  11.960   9.629  1.00  0.00     0.119 C 
ATOM     88  C   UNL     1      10.121  10.654   9.152  1.00  0.00     0.119 C 
ATOM     89  C   UNL     1       9.049  12.766   8.690  1.00  0.00     0.023 C 
ATOM     90  C   UNL     1      10.421  12.116   8.844  1.00  0.00     0.023 C 
ENDBRANCH  82  84
ENDBRANCH  76  77
ENDBRANCH  69  70
ENDBRANCH  65  69
ENDBRANCH  60  63
ENDBRANCH  58  59
ENDBRANCH   1  58
TORSDOF 15
