REMARK SMILES C[C@]12C[C@@H](O)[C@H]3[C@@H](CCC4=CC(=O)C=C[C@]43C)[C@H]1CC[C@@]2(O)C(=O)COC(=O)CCC(=O)NCCCCNC(=O)c1ccc(-c2c3nc(c(-c4ccccc4)c4ccc([nH]4)c(-c4ccccc4)c4nc(c(-c5ccccc5)c5ccc2[nH]5)C=C4)C=C3)cc1
REMARK SMILES IDX 31 1 32 2 33 3 30 5 29 6 27 7 28 8 26 9 25 10 23 11 24 12
REMARK SMILES IDX 21 13 17 14 16 15 15 16 10 17 6 18 14 19 11 20 9 21 7 22
REMARK SMILES IDX 4 23 12 24 8 25 18 26 3 27 13 28 2 29 19 30 1 31 20 32 5 33
REMARK SMILES IDX 22 35 34 37 35 38 36 39 37 40 38 41 39 42 40 44 41 45 42 46
REMARK SMILES IDX 88 47 43 48 87 49 44 50 45 51 46 52 81 53 47 54 86 55 80 56
REMARK SMILES IDX 82 57 48 58 85 59 79 60 78 61 49 63 71 64 56 65 70 66 57 67
REMARK SMILES IDX 60 68 69 69 83 70 58 71 59 72 68 74 84 75 61 76 50 77 51 78
REMARK SMILES IDX 55 79 52 80 54 81 53 82 72 83 73 84 77 85 74 86 76 87 75 88
REMARK SMILES IDX 62 89 63 90 67 91 64 92 66 93 65 94
REMARK H PARENT 33 4 5 34 22 36 38 43 82 62 60 73
REMARK Flexibility Score: inf
ROOT
ATOM      1  C   UNL     1       1.723  -6.238  -3.880  1.00  0.00     0.220 C 
ATOM      2  O   UNL     1       1.677  -5.839  -5.045  1.00  0.00    -0.275 OA
ATOM      3  N   UNL     1       2.894  -6.087  -3.206  1.00  0.00    -0.356 N 
ATOM      4  H   UNL     1       3.639  -5.781  -3.772  1.00  0.00     0.163 HD
ENDROOT
BRANCH   1   5
ATOM      5  C   UNL     1       0.501  -6.854  -3.241  1.00  0.00     0.111 C 
BRANCH   5   6
ATOM      6  C   UNL     1       0.625  -8.358  -3.058  1.00  0.00     0.132 C 
BRANCH   6   7
ATOM      7  C   UNL     1       0.267  -8.773  -1.657  1.00  0.00     0.306 C 
ATOM      8  O   UNL     1      -0.631  -9.548  -1.370  1.00  0.00    -0.252 OA
BRANCH   7   9
ATOM      9  O   UNL     1       1.118  -8.196  -0.769  1.00  0.00    -0.458 OA
BRANCH   9  10
ATOM     10  C   UNL     1       1.147  -8.756   0.526  1.00  0.00     0.311 C 
BRANCH  10  11
ATOM     11  C   UNL     1       1.042  -7.819   1.713  1.00  0.00     0.202 C 
ATOM     12  O   UNL     1       1.580  -8.175   2.775  1.00  0.00    -0.293 OA
BRANCH  11  13
ATOM     13  C   UNL     1       0.151  -6.570   1.749  1.00  0.00     0.132 C 
ATOM     14  C   UNL     1       0.842   0.013  -0.271  1.00  0.00     0.021 C 
ATOM     15  C   UNL     1       0.799  -0.606   1.162  1.00  0.00     0.013 C 
ATOM     16  C   UNL     1       2.107  -0.149   1.819  1.00  0.00    -0.012 C 
ATOM     17  C   UNL     1      -0.359   0.088   1.928  1.00  0.00    -0.056 C 
ATOM     18  C   UNL     1       0.610  -2.191   0.989  1.00  0.00     0.035 C 
ATOM     19  C   UNL     1       2.256   1.081   2.345  1.00  0.00     0.048 C 
ATOM     20  C   UNL     1      -0.227   1.343   2.408  1.00  0.00     0.052 C 
ATOM     21  C   UNL     1      -1.593  -0.645   2.375  1.00  0.00     0.032 C 
ATOM     22  C   UNL     1      -0.279  -2.782   2.094  1.00  0.00    -0.000 C 
ATOM     23  C   UNL     1       1.889  -3.050   0.795  1.00  0.00     0.119 C 
ATOM     24  C   UNL     1       1.095   2.001   2.413  1.00  0.00     0.178 C 
ATOM     25  C   UNL     1      -1.654  -2.112   2.023  1.00  0.00     0.009 C 
ATOM     26  C   UNL     1      -0.470  -4.305   2.031  1.00  0.00     0.002 C 
ATOM     27  C   UNL     1       1.620  -4.581   0.723  1.00  0.00     0.042 C 
ATOM     28  O   UNL     1       1.220   3.205   2.578  1.00  0.00    -0.290 OA
ATOM     29  C   UNL     1       0.818  -5.148   1.925  1.00  0.00     0.009 C 
ATOM     30  C   UNL     1      -1.322  -4.852   0.858  1.00  0.00     0.008 C 
ATOM     31  C   UNL     1       1.699  -5.079   3.183  1.00  0.00     0.015 C 
ATOM     32  C   UNL     1      -0.954  -6.346   0.722  1.00  0.00     0.044 C 
BRANCH  23  33
ATOM     33  O   UNL     1       2.580  -2.677  -0.397  1.00  0.00    -0.393 OA
ATOM     34  H   UNL     1       2.021  -2.866  -1.167  1.00  0.00     0.210 HD
ENDBRANCH  23  33
BRANCH  13  35
ATOM     35  O   UNL     1      -0.587  -6.860   2.988  1.00  0.00    -0.381 OA
ATOM     36  H   UNL     1      -1.216  -6.143   3.165  1.00  0.00     0.212 HD
ENDBRANCH  13  35
ENDBRANCH  11  13
ENDBRANCH  10  11
ENDBRANCH   9  10
ENDBRANCH   7   9
ENDBRANCH   6   7
ENDBRANCH   5   6
ENDBRANCH   1   5
BRANCH   3  37
ATOM     37  C   UNL     1       3.262  -6.288  -1.815  1.00  0.00     0.116 C 
BRANCH  37  38
ATOM     38  C   UNL     1       4.168  -7.507  -1.603  1.00  0.00     0.023 C 
BRANCH  38  39
ATOM     39  C   UNL     1       5.409  -7.249  -0.739  1.00  0.00     0.023 C 
BRANCH  39  40
ATOM     40  C   UNL     1       5.207  -6.693   0.668  1.00  0.00     0.116 C 
BRANCH  40  41
ATOM     41  N   UNL     1       4.690  -7.626   1.658  1.00  0.00    -0.352 N 
ATOM     42  C   UNL     1       4.961  -7.656   3.020  1.00  0.00     0.251 C 
ATOM     43  H   UNL     1       4.075  -8.318   1.322  1.00  0.00     0.163 HD
ATOM     44  O   UNL     1       4.506  -8.523   3.739  1.00  0.00    -0.269 OA
BRANCH  42  45
ATOM     45  C   UNL     1       5.928  -6.676   3.570  1.00  0.00     0.039 A 
ATOM     46  C   UNL     1       7.058  -7.180   4.222  1.00  0.00     0.014 A 
ATOM     47  C   UNL     1       5.812  -5.313   3.299  1.00  0.00     0.014 A 
ATOM     48  C   UNL     1       8.145  -6.339   4.461  1.00  0.00     0.010 A 
ATOM     49  C   UNL     1       6.921  -4.493   3.474  1.00  0.00     0.010 A 
ATOM     50  C   UNL     1       8.112  -5.011   4.011  1.00  0.00    -0.014 A 
BRANCH  50  51
ATOM     51  C   UNL     1       9.330  -4.164   4.008  1.00  0.00     0.031 A 
ATOM     52  C   UNL     1       9.370  -2.905   4.820  1.00  0.00     0.074 A 
ATOM     53  C   UNL     1      10.348  -4.469   3.176  1.00  0.00     0.049 A 
ATOM     54  N   UNL     1      10.273  -1.959   4.832  1.00  0.00    -0.248 NA
ATOM     55  C   UNL     1       8.226  -2.661   5.712  1.00  0.00     0.031 C 
ATOM     56  C   UNL     1      10.411  -5.645   2.303  1.00  0.00     0.029 A 
ATOM     57  N   UNL     1      11.519  -3.802   2.912  1.00  0.00    -0.354 N 
ATOM     58  C   UNL     1       9.794  -0.996   5.710  1.00  0.00     0.074 A 
ATOM     59  C   UNL     1       8.504  -1.453   6.179  1.00  0.00     0.031 C 
ATOM     60  C   UNL     1      11.563  -5.623   1.615  1.00  0.00     0.029 A 
ATOM     61  C   UNL     1      12.300  -4.412   1.960  1.00  0.00     0.049 A 
ATOM     62  H   UNL     1      11.775  -2.965   3.363  1.00  0.00     0.167 HD
ATOM     63  C   UNL     1      10.383   0.159   6.099  1.00  0.00     0.031 A 
ATOM     64  C   UNL     1      13.470  -4.032   1.412  1.00  0.00     0.031 A 
ATOM     65  C   UNL     1      11.671   0.603   5.640  1.00  0.00     0.049 A 
ATOM     66  C   UNL     1      14.102  -2.743   1.859  1.00  0.00     0.074 A 
ATOM     67  C   UNL     1      12.379   1.730   6.017  1.00  0.00     0.029 A 
ATOM     68  N   UNL     1      12.445  -0.063   4.702  1.00  0.00    -0.354 N 
ATOM     69  N   UNL     1      13.664  -1.872   2.736  1.00  0.00    -0.248 NA
ATOM     70  C   UNL     1      15.390  -2.387   1.247  1.00  0.00     0.031 C 
ATOM     71  C   UNL     1      13.563   1.769   5.275  1.00  0.00     0.029 A 
ATOM     72  C   UNL     1      13.616   0.639   4.475  1.00  0.00     0.049 A 
ATOM     73  H   UNL     1      12.198  -0.908   4.262  1.00  0.00     0.167 HD
ATOM     74  C   UNL     1      14.638  -0.885   2.807  1.00  0.00     0.074 A 
ATOM     75  C   UNL     1      15.691  -1.266   1.888  1.00  0.00     0.031 C 
ATOM     76  C   UNL     1      14.659   0.235   3.568  1.00  0.00     0.031 A 
BRANCH  63  77
ATOM     77  C   UNL     1       9.626   1.026   7.065  1.00  0.00    -0.014 A 
ATOM     78  C   UNL     1       9.441   0.635   8.401  1.00  0.00     0.009 A 
ATOM     79  C   UNL     1       9.110   2.259   6.640  1.00  0.00     0.009 A 
ATOM     80  C   UNL     1       8.717   1.444   9.280  1.00  0.00     0.001 A 
ATOM     81  C   UNL     1       8.412   3.079   7.529  1.00  0.00     0.001 A 
ATOM     82  C   UNL     1       8.207   2.666   8.844  1.00  0.00     0.000 A 
ENDBRANCH  63  77
BRANCH  64  83
ATOM     83  C   UNL     1      14.131  -4.886   0.391  1.00  0.00    -0.014 A 
ATOM     84  C   UNL     1      15.301  -5.594   0.707  1.00  0.00     0.009 A 
ATOM     85  C   UNL     1      13.601  -4.998  -0.904  1.00  0.00     0.009 A 
ATOM     86  C   UNL     1      15.940  -6.376  -0.259  1.00  0.00     0.001 A 
ATOM     87  C   UNL     1      14.227  -5.802  -1.860  1.00  0.00     0.001 A 
ATOM     88  C   UNL     1      15.400  -6.483  -1.540  1.00  0.00     0.000 A 
ENDBRANCH  64  83
BRANCH  76  89
ATOM     89  C   UNL     1      15.879   1.106   3.485  1.00  0.00    -0.014 A 
ATOM     90  C   UNL     1      16.108   1.939   2.380  1.00  0.00     0.009 A 
ATOM     91  C   UNL     1      16.774   1.143   4.567  1.00  0.00     0.009 A 
ATOM     92  C   UNL     1      17.222   2.780   2.353  1.00  0.00     0.001 A 
ATOM     93  C   UNL     1      17.872   2.003   4.547  1.00  0.00     0.001 A 
ATOM     94  C   UNL     1      18.098   2.817   3.438  1.00  0.00     0.000 A 
ENDBRANCH  76  89
ENDBRANCH  50  51
ENDBRANCH  42  45
ENDBRANCH  40  41
ENDBRANCH  39  40
ENDBRANCH  38  39
ENDBRANCH  37  38
ENDBRANCH   3  37
TORSDOF 19
