REMARK SMILES CC1(C)C(NC(=O)[C@@H]2CCC[C@@H](C(=O)NCCCCNC(=O)c3ccc(-c4c5nc(c(-c6ccccc6)c6ccc([nH]6)c(-c6ccccc6)c6nc(c(-c7ccccc7)c7ccc4[nH]7)C=C6)C=C5)cc3)C2)C1(C)C
REMARK SMILES IDX 17 1 16 2 15 3 13 4 14 5 12 7 8 8 9 9 71 10 10 11 11 12 6 13
REMARK SMILES IDX 5 14 7 16 4 17 1 18 2 19 3 20 72 21 73 22 74 23 18 24 19 25
REMARK SMILES IDX 20 26 21 27 22 29 23 30 24 31 70 32 25 33 69 34 26 35 27 36
REMARK SMILES IDX 28 37 63 38 29 39 68 40 62 41 64 42 30 43 67 44 61 45 60 46
REMARK SMILES IDX 31 48 53 49 38 50 52 51 39 52 42 53 51 54 65 55 40 56 41 57
REMARK SMILES IDX 50 59 66 60 43 61 32 62 33 63 37 64 34 65 36 66 35 67 54 68
REMARK SMILES IDX 55 69 59 70 56 71 58 72 57 73 44 74 45 75 49 76 46 77 48 78
REMARK SMILES IDX 47 79
REMARK H PARENT 15 6 5 15 20 28 64 47 42 58
REMARK Flexibility Score: inf
ROOT
ATOM      1  C   UNL     1       5.935   8.316   1.403  1.00  0.00     0.023 C 
ENDROOT
BRANCH   1   2
ATOM      2  C   UNL     1       4.849   8.232   0.336  1.00  0.00     0.116 C 
BRANCH   2   3
ATOM      3  N   UNL     1       5.114   7.182  -0.628  1.00  0.00    -0.356 N 
ATOM      4  C   UNL     1       4.330   6.135  -1.011  1.00  0.00     0.223 C 
ATOM      5  O   UNL     1       4.756   5.388  -1.892  1.00  0.00    -0.275 OA
ATOM      6  H   UNL     1       5.992   7.233  -1.072  1.00  0.00     0.163 HD
BRANCH   4   7
ATOM      7  C   UNL     1       3.002   5.900  -0.302  1.00  0.00     0.079 C 
ATOM      8  C   UNL     1       2.060   3.834  -1.572  1.00  0.00     0.079 C 
ATOM      9  C   UNL     1       2.239   3.054  -0.262  1.00  0.00     0.013 C 
ATOM     10  C   UNL     1       1.942   5.337  -1.254  1.00  0.00     0.027 C 
ATOM     11  C   UNL     1       3.398   3.569   0.583  1.00  0.00     0.002 C 
ATOM     12  C   UNL     1       3.212   5.033   0.940  1.00  0.00     0.013 C 
BRANCH   8  13
ATOM     13  C   UNL     1       0.844   3.421  -2.433  1.00  0.00     0.223 C 
ATOM     14  N   UNL     1       0.706   2.126  -2.861  1.00  0.00    -0.352 N 
ATOM     15  H   UNL     1       0.013   1.960  -3.539  1.00  0.00     0.163 HD
ATOM     16  O   UNL     1       0.007   4.240  -2.822  1.00  0.00    -0.275 OA
BRANCH  14  17
ATOM     17  C   UNL     1       1.454   0.997  -2.432  1.00  0.00     0.094 C 
ATOM     18  C   UNL     1       1.405  -0.413  -0.260  1.00  0.00     0.014 C 
ATOM     19  C   UNL     1       0.744  -0.047  -1.571  1.00  0.00    -0.007 C 
ATOM     20  C   UNL     1      -0.767  -0.028  -1.431  1.00  0.00     0.014 C 
ATOM     21  C   UNL     1       1.363  -0.423  -2.929  1.00  0.00    -0.007 C 
ATOM     22  C   UNL     1       2.673  -1.190  -2.955  1.00  0.00     0.014 C 
ATOM     23  C   UNL     1       0.519  -0.717  -4.145  1.00  0.00     0.014 C 
ENDBRANCH  14  17
ENDBRANCH   8  13
ENDBRANCH   4   7
ENDBRANCH   2   3
ENDBRANCH   1   2
BRANCH   1  24
ATOM     24  C   UNL     1       7.337   8.626   0.875  1.00  0.00     0.023 C 
BRANCH  24  25
ATOM     25  C   UNL     1       7.438   9.838  -0.044  1.00  0.00     0.116 C 
BRANCH  25  26
ATOM     26  N   UNL     1       6.943  11.059   0.569  1.00  0.00    -0.352 N 
ATOM     27  C   UNL     1       7.490  12.319   0.579  1.00  0.00     0.251 C 
ATOM     28  H   UNL     1       6.087  10.970   1.048  1.00  0.00     0.163 HD
ATOM     29  O   UNL     1       6.981  13.198   1.265  1.00  0.00    -0.269 OA
BRANCH  27  30
ATOM     30  C   UNL     1       8.712  12.608  -0.204  1.00  0.00     0.039 A 
ATOM     31  C   UNL     1       9.718  13.370   0.395  1.00  0.00     0.014 A 
ATOM     32  C   UNL     1       8.872  12.143  -1.512  1.00  0.00     0.014 A 
ATOM     33  C   UNL     1      10.907  13.612  -0.295  1.00  0.00     0.010 A 
ATOM     34  C   UNL     1      10.089  12.319  -2.169  1.00  0.00     0.010 A 
ATOM     35  C   UNL     1      11.119  13.056  -1.568  1.00  0.00    -0.014 A 
BRANCH  35  36
ATOM     36  C   UNL     1      12.424  13.230  -2.257  1.00  0.00     0.031 A 
ATOM     37  C   UNL     1      12.519  13.994  -3.549  1.00  0.00     0.074 A 
ATOM     38  C   UNL     1      13.529  12.674  -1.722  1.00  0.00     0.049 A 
ATOM     39  N   UNL     1      13.582  14.277  -4.262  1.00  0.00    -0.248 NA
ATOM     40  C   UNL     1      11.261  14.489  -4.129  1.00  0.00     0.031 C 
ATOM     41  C   UNL     1      13.565  11.863  -0.502  1.00  0.00     0.029 A 
ATOM     42  N   UNL     1      14.839  12.716  -2.130  1.00  0.00    -0.354 N 
ATOM     43  C   UNL     1      13.120  14.976  -5.370  1.00  0.00     0.074 A 
ATOM     44  C   UNL     1      11.678  15.025  -5.266  1.00  0.00     0.031 C 
ATOM     45  C   UNL     1      14.837  11.525  -0.236  1.00  0.00     0.029 A 
ATOM     46  C   UNL     1      15.700  12.062  -1.282  1.00  0.00     0.049 A 
ATOM     47  H   UNL     1      15.133  13.171  -2.951  1.00  0.00     0.167 HD
ATOM     48  C   UNL     1      13.831  15.548  -6.371  1.00  0.00     0.031 A 
ATOM     49  C   UNL     1      17.037  11.917  -1.334  1.00  0.00     0.031 A 
ATOM     50  C   UNL     1      15.266  15.500  -6.478  1.00  0.00     0.049 A 
ATOM     51  C   UNL     1      17.800  12.557  -2.460  1.00  0.00     0.074 A 
ATOM     52  C   UNL     1      16.080  16.087  -7.432  1.00  0.00     0.029 A 
ATOM     53  N   UNL     1      16.101  14.824  -5.603  1.00  0.00    -0.354 N 
ATOM     54  N   UNL     1      17.353  13.281  -3.457  1.00  0.00    -0.248 NA
ATOM     55  C   UNL     1      19.258  12.373  -2.454  1.00  0.00     0.031 C 
ATOM     56  C   UNL     1      17.404  15.722  -7.162  1.00  0.00     0.029 A 
ATOM     57  C   UNL     1      17.419  14.960  -6.006  1.00  0.00     0.049 A 
ATOM     58  H   UNL     1      15.801  14.320  -4.811  1.00  0.00     0.167 HD
ATOM     59  C   UNL     1      18.476  13.663  -4.180  1.00  0.00     0.074 A 
ATOM     60  C   UNL     1      19.625  13.113  -3.489  1.00  0.00     0.031 C 
ATOM     61  C   UNL     1      18.551  14.400  -5.315  1.00  0.00     0.031 A 
BRANCH  48  62
ATOM     62  C   UNL     1      13.062  16.281  -7.437  1.00  0.00    -0.014 A 
ATOM     63  C   UNL     1      12.415  17.496  -7.160  1.00  0.00     0.009 A 
ATOM     64  C   UNL     1      13.023  15.776  -8.747  1.00  0.00     0.009 A 
ATOM     65  C   UNL     1      11.718  18.174  -8.163  1.00  0.00     0.001 A 
ATOM     66  C   UNL     1      12.350  16.471  -9.754  1.00  0.00     0.001 A 
ATOM     67  C   UNL     1      11.692  17.664  -9.460  1.00  0.00     0.000 A 
ENDBRANCH  48  62
BRANCH  49  68
ATOM     68  C   UNL     1      17.752  11.155  -0.276  1.00  0.00    -0.014 A 
ATOM     69  C   UNL     1      18.607  11.812   0.623  1.00  0.00     0.009 A 
ATOM     70  C   UNL     1      17.607   9.762  -0.178  1.00  0.00     0.009 A 
ATOM     71  C   UNL     1      19.330  11.086   1.572  1.00  0.00     0.001 A 
ATOM     72  C   UNL     1      18.305   9.043   0.794  1.00  0.00     0.001 A 
ATOM     73  C   UNL     1      19.176   9.704   1.659  1.00  0.00     0.000 A 
ENDBRANCH  49  68
BRANCH  61  74
ATOM     74  C   UNL     1      19.928  14.678  -5.854  1.00  0.00    -0.014 A 
ATOM     75  C   UNL     1      20.716  13.658  -6.412  1.00  0.00     0.009 A 
ATOM     76  C   UNL     1      20.444  15.982  -5.800  1.00  0.00     0.009 A 
ATOM     77  C   UNL     1      22.013  13.928  -6.852  1.00  0.00     0.001 A 
ATOM     78  C   UNL     1      21.728  16.256  -6.274  1.00  0.00     0.001 A 
ATOM     79  C   UNL     1      22.517  15.227  -6.785  1.00  0.00     0.000 A 
ENDBRANCH  61  74
ENDBRANCH  35  36
ENDBRANCH  27  30
ENDBRANCH  25  26
ENDBRANCH  24  25
ENDBRANCH   1  24
TORSDOF 13
