REMARK SMILES CC[C@@](C)([NH2+]CC(=O)Nc1ccc(Br)cc1F)C(=O)NCCCCNC(=O)c1ccc(-c2c3nc(c(-c4ccccc4)c4ccc([nH]4)c(-c4ccccc4)c4nc(c(-c5ccccc5)c5ccc2[nH]5)C=C4)C=C3)cc1
REMARK SMILES IDX 21 1 20 2 18 3 19 4 3 6 4 7 2 8 1 9 5 10 6 13 7 14 8 15 9 16
REMARK SMILES IDX 10 18 11 19 16 20 12 21 15 22 17 23 13 24 14 25 22 26 23 27
REMARK SMILES IDX 24 28 25 29 26 30 27 32 28 33 29 34 75 35 30 36 74 37 31 38
REMARK SMILES IDX 32 39 33 40 68 41 34 42 73 43 67 44 69 45 35 46 72 47 66 48
REMARK SMILES IDX 65 49 36 51 58 52 43 53 57 54 44 55 47 56 56 57 70 58 45 59
REMARK SMILES IDX 46 60 55 62 71 63 48 64 37 65 38 66 42 67 39 68 41 69 40 70
REMARK SMILES IDX 59 71 60 72 64 73 61 74 63 75 62 76 49 77 50 78 54 79 51 80
REMARK SMILES IDX 53 81 52 82
REMARK H PARENT 20 5 5 11 5 12 9 17 25 31 69 50 47 61
REMARK Flexibility Score: inf
ROOT
ATOM      1  C   UNL     1       3.232   3.681   2.701  1.00  0.00     0.116 C 
ENDROOT
BRANCH   1   2
ATOM      2  N   UNL     1       2.795   2.281   2.775  1.00  0.00    -0.351 N 
ATOM      3  C   UNL     1       1.899   1.548   2.015  1.00  0.00     0.281 C 
ATOM      4  O   UNL     1       2.444   0.582   1.461  1.00  0.00    -0.268 OA
ATOM      5  H   UNL     1       3.219   1.768   3.501  1.00  0.00     0.163 HD
BRANCH   3   6
ATOM      6  C   UNL     1       0.268   1.666   2.107  1.00  0.00     0.172 C 
ATOM      7  C   UNL     1      -0.835   1.961   1.046  1.00  0.00     0.090 C 
BRANCH   6   8
ATOM      8  C   UNL     1      -0.134   0.200   2.573  1.00  0.00     0.075 C 
ATOM      9  C   UNL     1      -0.029  -0.893   1.468  1.00  0.00     0.011 C 
ENDBRANCH   6   8
BRANCH   6  10
ATOM     10  N   UNL     1       0.014   2.697   3.120  1.00  0.00    -0.326 N 
ATOM     11  H   UNL     1       0.681   2.553   3.878  1.00  0.00     0.347 HD
ATOM     12  H   UNL     1      -0.966   2.576   3.377  1.00  0.00     0.347 HD
BRANCH  10  13
ATOM     13  C   UNL     1       0.124   4.113   2.692  1.00  0.00     0.363 C 
BRANCH  13  14
ATOM     14  C   UNL     1       0.066   4.661   1.228  1.00  0.00     0.279 C 
ATOM     15  O   UNL     1      -0.831   5.502   1.010  1.00  0.00    -0.268 OA
ATOM     16  N   UNL     1       0.935   4.549   0.168  1.00  0.00    -0.319 N 
ATOM     17  H   UNL     1       0.769   5.277  -0.473  1.00  0.00     0.170 HD
BRANCH  16  18
ATOM     18  C   UNL     1       1.994   3.730  -0.307  1.00  0.00     0.077 A 
ATOM     19  C   UNL     1       3.209   4.373  -0.583  1.00  0.00     0.030 A 
ATOM     20  C   UNL     1       1.900   2.398  -0.749  1.00  0.00     0.147 A 
ATOM     21  C   UNL     1       4.327   3.657  -1.047  1.00  0.00     0.018 A 
ATOM     22  C   UNL     1       3.010   1.665  -1.178  1.00  0.00     0.057 A 
ATOM     23  F   UNL     1       0.735   1.754  -0.846  1.00  0.00    -0.205 F 
ATOM     24  C   UNL     1       4.235   2.291  -1.290  1.00  0.00     0.021 A 
ATOM     25  Br  UNL     1       5.754   1.297  -1.805  1.00  0.00    -0.051 Br
ENDBRANCH  16  18
ENDBRANCH  13  14
ENDBRANCH  10  13
ENDBRANCH   6  10
ENDBRANCH   3   6
ENDBRANCH   1   2
BRANCH   1  26
ATOM     26  C   UNL     1       3.445   4.361   4.061  1.00  0.00     0.023 C 
BRANCH  26  27
ATOM     27  C   UNL     1       4.791   5.077   4.210  1.00  0.00     0.023 C 
BRANCH  27  28
ATOM     28  C   UNL     1       5.130   6.133   3.158  1.00  0.00     0.116 C 
BRANCH  28  29
ATOM     29  N   UNL     1       4.360   7.365   3.255  1.00  0.00    -0.352 N 
ATOM     30  C   UNL     1       4.819   8.667   3.231  1.00  0.00     0.251 C 
ATOM     31  H   UNL     1       3.386   7.256   3.350  1.00  0.00     0.163 HD
ATOM     32  O   UNL     1       4.044   9.610   3.368  1.00  0.00    -0.269 OA
BRANCH  30  33
ATOM     33  C   UNL     1       6.270   8.922   3.091  1.00  0.00     0.039 A 
ATOM     34  C   UNL     1       6.918   9.708   4.048  1.00  0.00     0.014 A 
ATOM     35  C   UNL     1       7.002   8.315   2.067  1.00  0.00     0.014 A 
ATOM     36  C   UNL     1       8.313   9.795   4.041  1.00  0.00     0.010 A 
ATOM     37  C   UNL     1       8.393   8.334   2.113  1.00  0.00     0.010 A 
ATOM     38  C   UNL     1       9.066   9.063   3.108  1.00  0.00    -0.014 A 
BRANCH  38  39
ATOM     39  C   UNL     1      10.552   9.028   3.164  1.00  0.00     0.031 A 
ATOM     40  C   UNL     1      11.364   9.547   2.009  1.00  0.00     0.074 A 
ATOM     41  C   UNL     1      11.173   8.459   4.218  1.00  0.00     0.049 A 
ATOM     42  N   UNL     1      12.663   9.539   1.842  1.00  0.00    -0.248 NA
ATOM     43  C   UNL     1      10.618  10.124   0.879  1.00  0.00     0.031 C 
ATOM     44  C   UNL     1      10.507   7.871   5.383  1.00  0.00     0.029 A 
ATOM     45  N   UNL     1      12.510   8.276   4.476  1.00  0.00    -0.354 N 
ATOM     46  C   UNL     1      12.885  10.083   0.583  1.00  0.00     0.074 A 
ATOM     47  C   UNL     1      11.587  10.362   0.009  1.00  0.00     0.031 C 
ATOM     48  C   UNL     1      11.437   7.427   6.245  1.00  0.00     0.029 A 
ATOM     49  C   UNL     1      12.761   7.659   5.679  1.00  0.00     0.049 A 
ATOM     50  H   UNL     1      13.221   8.561   3.858  1.00  0.00     0.167 HD
ATOM     51  C   UNL     1      14.061  10.349  -0.033  1.00  0.00     0.031 A 
ATOM     52  C   UNL     1      13.927   7.317   6.261  1.00  0.00     0.031 A 
ATOM     53  C   UNL     1      15.353  10.096   0.545  1.00  0.00     0.049 A 
ATOM     54  C   UNL     1      15.220   7.623   5.556  1.00  0.00     0.074 A 
ATOM     55  C   UNL     1      16.602  10.396   0.029  1.00  0.00     0.029 A 
ATOM     56  N   UNL     1      15.562   9.483   1.770  1.00  0.00    -0.354 N 
ATOM     57  N   UNL     1      15.411   8.208   4.399  1.00  0.00    -0.248 NA
ATOM     58  C   UNL     1      16.458   7.231   6.245  1.00  0.00     0.031 C 
ATOM     59  C   UNL     1      17.568   9.920   0.920  1.00  0.00     0.029 A 
ATOM     60  C   UNL     1      16.920   9.374   2.016  1.00  0.00     0.049 A 
ATOM     61  H   UNL     1      14.851   9.172   2.376  1.00  0.00     0.167 HD
ATOM     62  C   UNL     1      16.789   8.282   4.236  1.00  0.00     0.074 A 
ATOM     63  C   UNL     1      17.384   7.696   5.419  1.00  0.00     0.031 C 
ATOM     64  C   UNL     1      17.498   8.792   3.200  1.00  0.00     0.031 A 
BRANCH  51  65
ATOM     65  C   UNL     1      13.999  10.945  -1.412  1.00  0.00    -0.014 A 
ATOM     66  C   UNL     1      13.555  12.262  -1.617  1.00  0.00     0.009 A 
ATOM     67  C   UNL     1      14.419  10.191  -2.518  1.00  0.00     0.009 A 
ATOM     68  C   UNL     1      13.494  12.796  -2.905  1.00  0.00     0.001 A 
ATOM     69  C   UNL     1      14.386  10.738  -3.802  1.00  0.00     0.001 A 
ATOM     70  C   UNL     1      13.913  12.036  -3.996  1.00  0.00     0.000 A 
ENDBRANCH  51  65
BRANCH  52  71
ATOM     71  C   UNL     1      13.936   6.665   7.598  1.00  0.00    -0.014 A 
ATOM     72  C   UNL     1      14.400   7.363   8.724  1.00  0.00     0.009 A 
ATOM     73  C   UNL     1      13.502   5.340   7.755  1.00  0.00     0.009 A 
ATOM     74  C   UNL     1      14.457   6.739   9.973  1.00  0.00     0.001 A 
ATOM     75  C   UNL     1      13.532   4.728   9.011  1.00  0.00     0.001 A 
ATOM     76  C   UNL     1      14.020   5.423  10.116  1.00  0.00     0.000 A 
ENDBRANCH  52  71
BRANCH  64  77
ATOM     77  C   UNL     1      18.996   8.776   3.314  1.00  0.00    -0.014 A 
ATOM     78  C   UNL     1      19.724   7.582   3.200  1.00  0.00     0.009 A 
ATOM     79  C   UNL     1      19.690   9.982   3.496  1.00  0.00     0.009 A 
ATOM     80  C   UNL     1      21.117   7.594   3.296  1.00  0.00     0.001 A 
ATOM     81  C   UNL     1      21.083   9.995   3.562  1.00  0.00     0.001 A 
ATOM     82  C   UNL     1      21.795   8.800   3.471  1.00  0.00     0.000 A 
ENDBRANCH  64  77
ENDBRANCH  38  39
ENDBRANCH  30  33
ENDBRANCH  28  29
ENDBRANCH  27  28
ENDBRANCH  26  27
ENDBRANCH   1  26
TORSDOF 16
