REMARK SMILES C[C@H]1[C@H](C(=O)NCCCCNC(=O)c2ccc(-c3c4nc(c(-c5ccccc5)c5ccc([nH]5)c(-c5ccccc5)c5nc(c(-c6ccccc6)c6ccc3[nH]6)C=C5)C=C4)cc2)CCN1C(=O)[C@H]1CC[C@@H](C[NH3+])CC1
REMARK SMILES IDX 7 1 6 2 4 3 5 4 3 6 1 7 2 8 64 9 62 10 63 11 65 12 66 13
REMARK SMILES IDX 67 14 74 15 68 16 73 17 69 18 70 19 71 20 72 21 8 25 9 26
REMARK SMILES IDX 10 27 11 28 12 29 13 31 14 32 15 33 61 34 16 35 60 36 17 37
REMARK SMILES IDX 18 38 19 39 54 40 20 41 59 42 53 43 55 44 21 45 58 46 52 47
REMARK SMILES IDX 51 48 22 50 44 51 29 52 43 53 30 54 33 55 42 56 56 57 31 58
REMARK SMILES IDX 32 59 41 61 57 62 34 63 23 64 24 65 28 66 25 67 27 68 26 69
REMARK SMILES IDX 45 70 46 71 50 72 47 73 49 74 48 75 35 76 36 77 40 78 37 79
REMARK SMILES IDX 39 80 38 81
REMARK H PARENT 6 5 72 22 72 23 72 24 11 30 55 49 33 60
REMARK Flexibility Score: inf
ROOT
ATOM      1  C   UNL     1      -0.853   0.545   2.958  1.00  0.00     0.116 C 
ENDROOT
BRANCH   1   2
ATOM      2  N   UNL     1      -0.481   1.829   2.404  1.00  0.00    -0.356 N 
ATOM      3  C   UNL     1      -0.163   2.195   1.138  1.00  0.00     0.225 C 
ATOM      4  O   UNL     1       0.198   3.364   0.972  1.00  0.00    -0.275 OA
ATOM      5  H   UNL     1      -0.454   2.563   3.059  1.00  0.00     0.163 HD
BRANCH   3   6
ATOM      6  C   UNL     1      -0.218   1.247  -0.050  1.00  0.00     0.102 C 
ATOM      7  C   UNL     1       1.732   0.349  -1.302  1.00  0.00     0.032 C 
ATOM      8  C   UNL     1       0.873   0.152  -0.043  1.00  0.00     0.094 C 
ATOM      9  N   UNL     1       0.135  -1.122  -0.079  1.00  0.00    -0.339 N 
ATOM     10  C   UNL     1      -1.553   0.537  -0.271  1.00  0.00     0.037 C 
ATOM     11  C   UNL     1      -1.186  -0.891  -0.644  1.00  0.00     0.120 C 
BRANCH   9  12
ATOM     12  C   UNL     1       0.479  -2.413   0.282  1.00  0.00     0.225 C 
ATOM     13  O   UNL     1      -0.306  -3.341   0.039  1.00  0.00    -0.275 OA
BRANCH  12  14
ATOM     14  C   UNL     1       1.766  -2.774   1.052  1.00  0.00     0.078 C 
ATOM     15  C   UNL     1       3.063  -2.566   0.277  1.00  0.00     0.014 C 
ATOM     16  C   UNL     1       1.782  -2.171   2.453  1.00  0.00     0.014 C 
ATOM     17  C   UNL     1       4.316  -2.835   1.114  1.00  0.00     0.010 C 
ATOM     18  C   UNL     1       3.071  -2.429   3.229  1.00  0.00     0.010 C 
ATOM     19  C   UNL     1       4.322  -2.035   2.430  1.00  0.00     0.044 C 
BRANCH  19  20
ATOM     20  C   UNL     1       4.453  -0.519   2.157  1.00  0.00     0.262 C 
BRANCH  20  21
ATOM     21  N   UNL     1       4.505   0.282   3.375  1.00  0.00    -0.357 N 
ATOM     22  H   UNL     1       3.638   0.163   3.898  1.00  0.00     0.344 HD
ATOM     23  H   UNL     1       4.622   1.265   3.130  1.00  0.00     0.344 HD
ATOM     24  H   UNL     1       5.292  -0.022   3.948  1.00  0.00     0.344 HD
ENDBRANCH  20  21
ENDBRANCH  19  20
ENDBRANCH  12  14
ENDBRANCH   9  12
ENDBRANCH   3   6
ENDBRANCH   1   2
BRANCH   1  25
ATOM     25  C   UNL     1       0.074   0.149   4.102  1.00  0.00     0.023 C 
BRANCH  25  26
ATOM     26  C   UNL     1      -0.066   0.948   5.387  1.00  0.00     0.023 C 
BRANCH  26  27
ATOM     27  C   UNL     1      -1.465   0.977   5.974  1.00  0.00     0.116 C 
BRANCH  27  28
ATOM     28  N   UNL     1      -2.014  -0.346   6.234  1.00  0.00    -0.352 N 
ATOM     29  C   UNL     1      -2.579  -0.842   7.387  1.00  0.00     0.251 C 
ATOM     30  H   UNL     1      -1.977  -0.976   5.477  1.00  0.00     0.163 HD
ATOM     31  O   UNL     1      -2.900  -2.019   7.467  1.00  0.00    -0.269 OA
BRANCH  29  32
ATOM     32  C   UNL     1      -2.749   0.057   8.547  1.00  0.00     0.039 A 
ATOM     33  C   UNL     1      -2.316  -0.370   9.803  1.00  0.00     0.014 A 
ATOM     34  C   UNL     1      -3.271   1.341   8.377  1.00  0.00     0.014 A 
ATOM     35  C   UNL     1      -2.322   0.527  10.873  1.00  0.00     0.010 A 
ATOM     36  C   UNL     1      -3.181   2.260   9.413  1.00  0.00     0.010 A 
ATOM     37  C   UNL     1      -2.708   1.863  10.673  1.00  0.00    -0.014 A 
BRANCH  37  38
ATOM     38  C   UNL     1      -2.630   2.865  11.764  1.00  0.00     0.031 A 
ATOM     39  C   UNL     1      -3.880   3.550  12.241  1.00  0.00     0.074 A 
ATOM     40  C   UNL     1      -1.430   3.218  12.266  1.00  0.00     0.049 A 
ATOM     41  N   UNL     1      -4.010   4.510  13.121  1.00  0.00    -0.248 NA
ATOM     42  C   UNL     1      -5.147   3.124  11.624  1.00  0.00     0.031 C 
ATOM     43  C   UNL     1      -0.137   2.668  11.851  1.00  0.00     0.029 A 
ATOM     44  N   UNL     1      -1.105   4.134  13.235  1.00  0.00    -0.354 N 
ATOM     45  C   UNL     1      -5.364   4.819  13.140  1.00  0.00     0.074 A 
ATOM     46  C   UNL     1      -6.006   3.984  12.149  1.00  0.00     0.031 C 
ATOM     47  C   UNL     1       0.837   3.234  12.584  1.00  0.00     0.029 A 
ATOM     48  C   UNL     1       0.243   4.212  13.489  1.00  0.00     0.049 A 
ATOM     49  H   UNL     1      -1.774   4.683  13.703  1.00  0.00     0.167 HD
ATOM     50  C   UNL     1      -6.022   5.700  13.930  1.00  0.00     0.031 A 
ATOM     51  C   UNL     1       0.924   4.986  14.354  1.00  0.00     0.031 A 
ATOM     52  C   UNL     1      -5.390   6.510  14.935  1.00  0.00     0.049 A 
ATOM     53  C   UNL     1       0.171   5.949  15.228  1.00  0.00     0.074 A 
ATOM     54  C   UNL     1      -5.978   7.383  15.833  1.00  0.00     0.029 A 
ATOM     55  N   UNL     1      -4.026   6.541  15.177  1.00  0.00    -0.354 N 
ATOM     56  N   UNL     1      -1.119   6.178  15.283  1.00  0.00    -0.248 NA
ATOM     57  C   UNL     1       0.968   6.751  16.167  1.00  0.00     0.031 C 
ATOM     58  C   UNL     1      -4.963   7.975  16.592  1.00  0.00     0.029 A 
ATOM     59  C   UNL     1      -3.750   7.433  16.198  1.00  0.00     0.049 A 
ATOM     60  H   UNL     1      -3.354   6.008  14.694  1.00  0.00     0.167 HD
ATOM     61  C   UNL     1      -1.290   7.131  16.279  1.00  0.00     0.074 A 
ATOM     62  C   UNL     1       0.025   7.425  16.811  1.00  0.00     0.031 C 
ATOM     63  C   UNL     1      -2.435   7.711  16.714  1.00  0.00     0.031 A 
BRANCH  50  64
ATOM     64  C   UNL     1      -7.506   5.828  13.731  1.00  0.00    -0.014 A 
ATOM     65  C   UNL     1      -8.381   4.796  14.108  1.00  0.00     0.009 A 
ATOM     66  C   UNL     1      -8.038   7.003  13.179  1.00  0.00     0.009 A 
ATOM     67  C   UNL     1      -9.755   4.923  13.899  1.00  0.00     0.001 A 
ATOM     68  C   UNL     1      -9.416   7.138  12.998  1.00  0.00     0.001 A 
ATOM     69  C   UNL     1     -10.272   6.095  13.348  1.00  0.00     0.000 A 
ENDBRANCH  50  64
BRANCH  51  70
ATOM     70  C   UNL     1       2.402   4.867  14.457  1.00  0.00    -0.014 A 
ATOM     71  C   UNL     1       2.988   4.271  15.584  1.00  0.00     0.009 A 
ATOM     72  C   UNL     1       3.233   5.352  13.436  1.00  0.00     0.009 A 
ATOM     73  C   UNL     1       4.377   4.186  15.699  1.00  0.00     0.001 A 
ATOM     74  C   UNL     1       4.622   5.242  13.541  1.00  0.00     0.001 A 
ATOM     75  C   UNL     1       5.192   4.668  14.676  1.00  0.00     0.000 A 
ENDBRANCH  51  70
BRANCH  63  76
ATOM     76  C   UNL     1      -2.318   8.696  17.841  1.00  0.00    -0.014 A 
ATOM     77  C   UNL     1      -1.789   9.979  17.634  1.00  0.00     0.009 A 
ATOM     78  C   UNL     1      -2.785   8.347  19.118  1.00  0.00     0.009 A 
ATOM     79  C   UNL     1      -1.702  10.884  18.693  1.00  0.00     0.001 A 
ATOM     80  C   UNL     1      -2.720   9.263  20.169  1.00  0.00     0.001 A 
ATOM     81  C   UNL     1      -2.171  10.527  19.957  1.00  0.00     0.000 A 
ENDBRANCH  63  76
ENDBRANCH  37  38
ENDBRANCH  29  32
ENDBRANCH  27  28
ENDBRANCH  26  27
ENDBRANCH  25  26
ENDBRANCH   1  25
TORSDOF 15
