REMARK SMILES COc1ccc(/C=C2/C(=O)N(c3ccccc3)C(=O)[NH+]=C2NCCCCNC(=O)c2ccc(-c3c4nc(c(-c5ccccc5)c5ccc([nH]5)c(-c5ccccc5)c5nc(c(-c6ccccc6)c6ccc3[nH]6)C=C5)C=C4)cc2)cc1C(=O)[O-]
REMARK SMILES IDX 25 1 24 2 23 3 22 4 7 5 8 6 9 7 21 8 10 9 11 10 20 11 18 12
REMARK SMILES IDX 19 15 6 16 3 17 4 18 79 19 5 20 78 21 2 22 1 23 80 24 81 25
REMARK SMILES IDX 82 26 12 27 13 28 17 29 14 30 16 31 15 32 26 33 27 34 28 35
REMARK SMILES IDX 29 37 30 38 31 39 77 40 32 41 76 42 33 43 34 44 35 45 70 46
REMARK SMILES IDX 36 47 75 48 69 49 71 50 37 51 74 52 68 53 67 54 38 56 60 57
REMARK SMILES IDX 45 58 59 59 46 60 49 61 58 62 72 63 47 64 48 65 57 67 73 68
REMARK SMILES IDX 50 69 39 70 40 71 44 72 41 73 43 74 42 75 61 76 62 77 66 78
REMARK SMILES IDX 63 79 65 80 64 81 51 82 52 83 56 84 53 85 55 86 54 87
REMARK H PARENT 20 13 22 14 27 36 71 55 49 66
REMARK Flexibility Score: inf
ROOT
ATOM      1  C   UNL     1      -0.979  -2.047  -1.119  1.00  0.00     0.024 C 
ENDROOT
BRANCH   1   2
ATOM      2  C   UNL     1       0.471  -3.070  -1.414  1.00  0.00     0.039 C 
BRANCH   2   3
ATOM      3  C   UNL     1       1.394  -4.809  -0.432  1.00  0.00     0.194 C 
BRANCH   3   4
ATOM      4  N   UNL     1       0.717  -6.250  -0.015  1.00  0.00    -0.305 N 
ATOM      5  C   UNL     1       0.547  -6.252  -3.039  1.00  0.00     0.030 C 
ATOM      6  C   UNL     1       0.663  -7.348  -2.283  1.00  0.00     0.129 C 
ATOM      7  C   UNL     1       0.949  -8.669  -2.856  1.00  0.00     0.328 C 
ATOM      8  C   UNL     1       0.384  -7.318  -0.832  1.00  0.00     0.236 C 
ATOM      9  O   UNL     1       1.708  -8.789  -3.814  1.00  0.00    -0.249 OA
ATOM     10  N   UNL     1       0.251  -9.670  -2.210  1.00  0.00    -0.155 N 
ATOM     11  N   UNL     1      -0.263  -8.332  -0.327  1.00  0.00    -0.209 N 
ATOM     12  C   UNL     1      -0.646  -9.348  -1.193  1.00  0.00     0.448 C 
ATOM     13  H   UNL     1      -0.472  -8.375   0.634  1.00  0.00     0.270 HD
ATOM     14  H   UNL     1       0.523  -6.369   0.943  1.00  0.00     0.256 HD
ATOM     15  O   UNL     1      -1.741  -9.895  -1.078  1.00  0.00    -0.212 OA
BRANCH   5  16
ATOM     16  C   UNL     1       0.489  -4.993  -2.312  1.00  0.00    -0.024 A 
ATOM     17  C   UNL     1       1.561  -2.820   0.346  1.00  0.00     0.127 A 
ATOM     18  C   UNL     1      -0.045  -3.673   0.480  1.00  0.00     0.048 A 
ATOM     19  C   UNL     1       2.630  -3.130  -1.041  1.00  0.00     0.040 A 
ATOM     20  C   UNL     1      -0.641  -4.692  -0.915  1.00  0.00     0.012 A 
ATOM     21  C   UNL     1       2.074  -4.151  -2.382  1.00  0.00     0.022 A 
BRANCH  17  22
ATOM     22  O   UNL     1       1.835  -1.780   1.202  1.00  0.00    -0.496 OA
ATOM     23  C   UNL     1       2.184  -0.562   0.489  1.00  0.00     0.278 C 
ENDBRANCH  17  22
BRANCH  19  24
ATOM     24  C   UNL     1       3.981  -2.570  -1.120  1.00  0.00     0.075 C 
ATOM     25  O   UNL     1       4.599  -2.362  -2.143  1.00  0.00    -0.545 OA
ATOM     26  O   UNL     1       4.479  -2.345   0.102  1.00  0.00    -0.545 OA
ENDBRANCH  19  24
ENDBRANCH   5  16
BRANCH  10  27
ATOM     27  C   UNL     1       0.209 -10.934  -2.840  1.00  0.00     0.111 A 
ATOM     28  C   UNL     1      -0.690 -11.186  -3.882  1.00  0.00     0.044 A 
ATOM     29  C   UNL     1       1.194 -11.873  -2.520  1.00  0.00     0.044 A 
ATOM     30  C   UNL     1      -0.593 -12.374  -4.607  1.00  0.00     0.004 A 
ATOM     31  C   UNL     1       1.282 -13.062  -3.242  1.00  0.00     0.004 A 
ATOM     32  C   UNL     1       0.395 -13.309  -4.289  1.00  0.00     0.000 A 
ENDBRANCH  10  27
ENDBRANCH   3   4
ENDBRANCH   2   3
ENDBRANCH   1   2
BRANCH   1  33
ATOM     33  C   UNL     1      -1.604  -1.461   0.193  1.00  0.00     0.116 C 
BRANCH  33  34
ATOM     34  N   UNL     1      -0.666  -0.910   1.154  1.00  0.00    -0.352 N 
ATOM     35  C   UNL     1      -0.765  -0.022   2.176  1.00  0.00     0.251 C 
ATOM     36  H   UNL     1       0.248  -1.258   1.038  1.00  0.00     0.163 HD
ATOM     37  O   UNL     1       0.203   0.360   2.822  1.00  0.00    -0.269 OA
BRANCH  35  38
ATOM     38  C   UNL     1      -2.075   0.404   2.586  1.00  0.00     0.039 A 
ATOM     39  C   UNL     1      -2.384   1.761   2.553  1.00  0.00     0.014 A 
ATOM     40  C   UNL     1      -2.921  -0.577   3.102  1.00  0.00     0.014 A 
ATOM     41  C   UNL     1      -3.617   2.150   3.030  1.00  0.00     0.010 A 
ATOM     42  C   UNL     1      -4.162  -0.194   3.538  1.00  0.00     0.010 A 
ATOM     43  C   UNL     1      -4.498   1.167   3.506  1.00  0.00    -0.014 A 
BRANCH  43  44
ATOM     44  C   UNL     1      -5.824   1.540   3.984  1.00  0.00     0.031 A 
ATOM     45  C   UNL     1      -6.106   1.456   5.444  1.00  0.00     0.074 A 
ATOM     46  C   UNL     1      -6.744   1.828   3.052  1.00  0.00     0.049 A 
ATOM     47  N   UNL     1      -7.231   1.649   6.069  1.00  0.00    -0.248 NA
ATOM     48  C   UNL     1      -4.983   1.060   6.314  1.00  0.00     0.031 C 
ATOM     49  C   UNL     1      -6.502   1.852   1.604  1.00  0.00     0.029 A 
ATOM     50  N   UNL     1      -8.062   2.142   3.179  1.00  0.00    -0.354 N 
ATOM     51  C   UNL     1      -6.961   1.376   7.402  1.00  0.00     0.074 A 
ATOM     52  C   UNL     1      -5.582   0.954   7.490  1.00  0.00     0.031 C 
ATOM     53  C   UNL     1      -7.636   2.196   0.978  1.00  0.00     0.029 A 
ATOM     54  C   UNL     1      -8.678   2.380   1.978  1.00  0.00     0.049 A 
ATOM     55  H   UNL     1      -8.526   2.193   4.045  1.00  0.00     0.167 HD
ATOM     56  C   UNL     1      -7.804   1.490   8.453  1.00  0.00     0.031 A 
ATOM     57  C   UNL     1      -9.954   2.716   1.735  1.00  0.00     0.031 A 
ATOM     58  C   UNL     1      -9.168   1.915   8.300  1.00  0.00     0.049 A 
ATOM     59  C   UNL     1     -10.856   2.878   2.922  1.00  0.00     0.074 A 
ATOM     60  C   UNL     1     -10.127   2.128   9.270  1.00  0.00     0.029 A 
ATOM     61  N   UNL     1      -9.762   2.194   7.073  1.00  0.00    -0.354 N 
ATOM     62  N   UNL     1     -10.583   2.688   4.193  1.00  0.00    -0.248 NA
ATOM     63  C   UNL     1     -12.226   3.317   2.650  1.00  0.00     0.031 C 
ATOM     64  C   UNL     1     -11.312   2.501   8.624  1.00  0.00     0.029 A 
ATOM     65  C   UNL     1     -11.079   2.569   7.257  1.00  0.00     0.049 A 
ATOM     66  H   UNL     1      -9.309   2.134   6.200  1.00  0.00     0.167 HD
ATOM     67  C   UNL     1     -11.743   3.003   4.881  1.00  0.00     0.074 A 
ATOM     68  C   UNL     1     -12.712   3.416   3.880  1.00  0.00     0.031 C 
ATOM     69  C   UNL     1     -11.996   2.957   6.213  1.00  0.00     0.031 A 
BRANCH  56  70
ATOM     70  C   UNL     1      -7.264   1.136   9.810  1.00  0.00    -0.014 A 
ATOM     71  C   UNL     1      -6.255   1.904  10.418  1.00  0.00     0.009 A 
ATOM     72  C   UNL     1      -7.746   0.004  10.482  1.00  0.00     0.009 A 
ATOM     73  C   UNL     1      -5.707   1.517  11.643  1.00  0.00     0.001 A 
ATOM     74  C   UNL     1      -7.219  -0.363  11.723  1.00  0.00     0.001 A 
ATOM     75  C   UNL     1      -6.192   0.385  12.296  1.00  0.00     0.000 A 
ENDBRANCH  56  70
BRANCH  57  76
ATOM     76  C   UNL     1     -10.396   2.973   0.344  1.00  0.00    -0.014 A 
ATOM     77  C   UNL     1     -10.646   4.285  -0.087  1.00  0.00     0.009 A 
ATOM     78  C   UNL     1     -10.501   1.924  -0.584  1.00  0.00     0.009 A 
ATOM     79  C   UNL     1     -11.013   4.538  -1.410  1.00  0.00     0.001 A 
ATOM     80  C   UNL     1     -10.842   2.184  -1.913  1.00  0.00     0.001 A 
ATOM     81  C   UNL     1     -11.105   3.489  -2.323  1.00  0.00     0.000 A 
ENDBRANCH  57  76
BRANCH  69  82
ATOM     82  C   UNL     1     -13.369   3.381   6.638  1.00  0.00    -0.014 A 
ATOM     83  C   UNL     1     -14.481   2.556   6.411  1.00  0.00     0.009 A 
ATOM     84  C   UNL     1     -13.539   4.602   7.306  1.00  0.00     0.009 A 
ATOM     85  C   UNL     1     -15.750   2.967   6.816  1.00  0.00     0.001 A 
ATOM     86  C   UNL     1     -14.804   4.995   7.737  1.00  0.00     0.001 A 
ATOM     87  C   UNL     1     -15.909   4.183   7.484  1.00  0.00     0.000 A 
ENDBRANCH  69  82
ENDBRANCH  43  44
ENDBRANCH  35  38
ENDBRANCH  33  34
ENDBRANCH   1  33
TORSDOF 14
