REMARK SMILES O=C(NCCCCNC(=O)c1ccc2nc(-c3c[nH]nc3-c3ccc(F)cc3F)[nH]c2c1)c1ccc(-c2c3nc(c(-c4ccccc4)c4ccc([nH]4)c(-c4ccccc4)c4nc(c(-c5ccccc5)c5ccc2[nH]5)C=C4)C=C3)cc1
REMARK SMILES IDX 5 1 4 2 3 3 1 4 2 5 33 7 34 8 80 9 35 10 79 11 36 12 37 13
REMARK SMILES IDX 38 14 73 15 39 16 78 17 72 18 74 19 40 20 77 21 71 22 70 23
REMARK SMILES IDX 41 25 63 26 48 27 62 28 49 29 52 30 61 31 75 32 50 33 51 34
REMARK SMILES IDX 60 36 76 37 53 38 42 39 43 40 47 41 44 42 46 43 45 44 64 45
REMARK SMILES IDX 65 46 69 47 66 48 68 49 67 50 54 51 55 52 59 53 56 54 58 55
REMARK SMILES IDX 57 56 6 57 7 58 8 59 9 60 10 62 11 63 12 64 32 65 13 66
REMARK SMILES IDX 31 67 14 68 30 69 15 70 16 71 17 73 18 74 21 75 19 76 20 77
REMARK SMILES IDX 22 79 23 80 28 81 24 82 27 83 29 84 25 85 26 86
REMARK H PARENT 3 6 74 24 52 35 8 61 30 72 19 78
REMARK Flexibility Score: inf
ROOT
ATOM      1  C   UNL     1       4.962  -1.853  -1.869  1.00  0.00     0.023 C 
ENDROOT
BRANCH   1   2
ATOM      2  C   UNL     1       4.651  -0.520  -1.201  1.00  0.00     0.116 C 
BRANCH   2   3
ATOM      3  N   UNL     1       3.225  -0.256  -1.095  1.00  0.00    -0.352 N 
ATOM      4  O   UNL     1       1.257   0.124  -0.056  1.00  0.00    -0.269 OA
ATOM      5  C   UNL     1       2.481   0.063   0.015  1.00  0.00     0.251 C 
ATOM      6  H   UNL     1       2.721  -0.314  -1.939  1.00  0.00     0.163 HD
BRANCH   5   7
ATOM      7  C   UNL     1       3.159   0.302   1.307  1.00  0.00     0.039 A 
ATOM      8  C   UNL     1       4.298   1.107   1.374  1.00  0.00     0.014 A 
ATOM      9  C   UNL     1       2.653  -0.299   2.463  1.00  0.00     0.014 A 
ATOM     10  C   UNL     1       5.016   1.186   2.561  1.00  0.00     0.010 A 
ATOM     11  C   UNL     1       3.328  -0.146   3.676  1.00  0.00     0.010 A 
ATOM     12  C   UNL     1       4.535   0.569   3.728  1.00  0.00    -0.014 A 
BRANCH  12  13
ATOM     13  C   UNL     1       5.283   0.740   4.998  1.00  0.00     0.031 A 
ATOM     14  C   UNL     1       5.930  -0.428   5.689  1.00  0.00     0.074 A 
ATOM     15  C   UNL     1       5.404   1.980   5.511  1.00  0.00     0.049 A 
ATOM     16  N   UNL     1       6.648  -0.437   6.785  1.00  0.00    -0.248 NA
ATOM     17  C   UNL     1       5.745  -1.755   5.082  1.00  0.00     0.031 C 
ATOM     18  C   UNL     1       4.813   3.191   4.936  1.00  0.00     0.029 A 
ATOM     19  N   UNL     1       6.079   2.431   6.615  1.00  0.00    -0.354 N 
ATOM     20  C   UNL     1       6.983  -1.767   7.010  1.00  0.00     0.074 A 
ATOM     21  C   UNL     1       6.373  -2.539   5.949  1.00  0.00     0.031 C 
ATOM     22  C   UNL     1       5.196   4.253   5.660  1.00  0.00     0.029 A 
ATOM     23  C   UNL     1       6.004   3.792   6.782  1.00  0.00     0.049 A 
ATOM     24  H   UNL     1       6.571   1.838   7.228  1.00  0.00     0.167 HD
ATOM     25  C   UNL     1       7.732  -2.294   8.008  1.00  0.00     0.031 A 
ATOM     26  C   UNL     1       6.516   4.586   7.739  1.00  0.00     0.031 A 
ATOM     27  C   UNL     1       8.343  -1.523   9.061  1.00  0.00     0.049 A 
ATOM     28  C   UNL     1       7.326   3.973   8.841  1.00  0.00     0.074 A 
ATOM     29  C   UNL     1       9.148  -1.966  10.097  1.00  0.00     0.029 A 
ATOM     30  N   UNL     1       8.213  -0.152   9.214  1.00  0.00    -0.354 N 
ATOM     31  N   UNL     1       7.658   2.718   9.019  1.00  0.00    -0.248 NA
ATOM     32  C   UNL     1       7.831   4.886   9.874  1.00  0.00     0.031 C 
ATOM     33  C   UNL     1       9.466  -0.868  10.904  1.00  0.00     0.029 A 
ATOM     34  C   UNL     1       8.902   0.265  10.341  1.00  0.00     0.049 A 
ATOM     35  H   UNL     1       7.706   0.439   8.611  1.00  0.00     0.167 HD
ATOM     36  C   UNL     1       8.420   2.691  10.178  1.00  0.00     0.074 A 
ATOM     37  C   UNL     1       8.521   4.059  10.646  1.00  0.00     0.031 C 
ATOM     38  C   UNL     1       8.983   1.627  10.800  1.00  0.00     0.031 A 
BRANCH  25  39
ATOM     39  C   UNL     1       7.916  -3.786   8.028  1.00  0.00    -0.014 A 
ATOM     40  C   UNL     1       8.759  -4.431   7.111  1.00  0.00     0.009 A 
ATOM     41  C   UNL     1       7.278  -4.551   9.018  1.00  0.00     0.009 A 
ATOM     42  C   UNL     1       8.939  -5.815   7.167  1.00  0.00     0.001 A 
ATOM     43  C   UNL     1       7.478  -5.931   9.086  1.00  0.00     0.001 A 
ATOM     44  C   UNL     1       8.302  -6.563   8.157  1.00  0.00     0.000 A 
ENDBRANCH  25  39
BRANCH  26  45
ATOM     45  C   UNL     1       6.261   6.048   7.694  1.00  0.00    -0.014 A 
ATOM     46  C   UNL     1       7.293   6.945   7.383  1.00  0.00     0.009 A 
ATOM     47  C   UNL     1       4.973   6.550   7.941  1.00  0.00     0.009 A 
ATOM     48  C   UNL     1       7.043   8.318   7.335  1.00  0.00     0.001 A 
ATOM     49  C   UNL     1       4.720   7.920   7.864  1.00  0.00     0.001 A 
ATOM     50  C   UNL     1       5.757   8.803   7.569  1.00  0.00     0.000 A 
ENDBRANCH  26  45
BRANCH  38  51
ATOM     51  C   UNL     1       9.773   1.910  12.045  1.00  0.00    -0.014 A 
ATOM     52  C   UNL     1       9.134   2.244  13.249  1.00  0.00     0.009 A 
ATOM     53  C   UNL     1      11.173   1.822  12.016  1.00  0.00     0.009 A 
ATOM     54  C   UNL     1       9.886   2.518  14.393  1.00  0.00     0.001 A 
ATOM     55  C   UNL     1      11.921   2.071  13.167  1.00  0.00     0.001 A 
ATOM     56  C   UNL     1      11.277   2.428  14.352  1.00  0.00     0.000 A 
ENDBRANCH  38  51
ENDBRANCH  12  13
ENDBRANCH   5   7
ENDBRANCH   2   3
ENDBRANCH   1   2
BRANCH   1  57
ATOM     57  C   UNL     1       4.475  -1.986  -3.311  1.00  0.00     0.023 C 
BRANCH  57  58
ATOM     58  C   UNL     1       4.885  -0.844  -4.238  1.00  0.00     0.116 C 
BRANCH  58  59
ATOM     59  N   UNL     1       6.328  -0.693  -4.309  1.00  0.00    -0.352 N 
ATOM     60  C   UNL     1       7.146  -0.826  -5.400  1.00  0.00     0.251 C 
ATOM     61  H   UNL     1       6.777  -0.466  -3.462  1.00  0.00     0.163 HD
ATOM     62  O   UNL     1       8.365  -0.831  -5.279  1.00  0.00    -0.269 OA
BRANCH  60  63
ATOM     63  C   UNL     1       6.538  -0.976  -6.732  1.00  0.00     0.042 A 
ATOM     64  C   UNL     1       5.757   0.063  -7.257  1.00  0.00     0.016 A 
ATOM     65  C   UNL     1       6.775  -2.166  -7.435  1.00  0.00     0.042 A 
ATOM     66  C   UNL     1       5.184  -0.060  -8.526  1.00  0.00     0.031 A 
ATOM     67  C   UNL     1       6.167  -2.263  -8.686  1.00  0.00     0.067 A 
ATOM     68  C   UNL     1       5.420  -1.236  -9.253  1.00  0.00     0.089 A 
ATOM     69  N   UNL     1       6.127  -3.264  -9.624  1.00  0.00    -0.338 N 
ATOM     70  N   UNL     1       5.040  -1.558 -10.525  1.00  0.00    -0.228 NA
ATOM     71  C   UNL     1       5.484  -2.779 -10.733  1.00  0.00     0.142 A 
ATOM     72  H   UNL     1       6.495  -4.171  -9.519  1.00  0.00     0.168 HD
BRANCH  71  73
ATOM     73  C   UNL     1       5.348  -3.495 -12.020  1.00  0.00     0.063 A 
ATOM     74  C   UNL     1       5.281  -4.856 -12.195  1.00  0.00     0.117 A 
ATOM     75  C   UNL     1       5.286  -2.929 -13.325  1.00  0.00     0.106 A 
ATOM     76  N   UNL     1       5.093  -5.035 -13.534  1.00  0.00    -0.284 N 
ATOM     77  N   UNL     1       5.141  -3.899 -14.245  1.00  0.00    -0.175 NA
ATOM     78  H   UNL     1       4.937  -5.917 -13.942  1.00  0.00     0.189 HD
BRANCH  75  79
ATOM     79  C   UNL     1       5.513  -1.541 -13.712  1.00  0.00     0.039 A 
ATOM     80  C   UNL     1       6.666  -0.874 -13.255  1.00  0.00     0.016 A 
ATOM     81  C   UNL     1       4.625  -0.853 -14.544  1.00  0.00     0.135 A 
ATOM     82  C   UNL     1       6.910   0.451 -13.616  1.00  0.00     0.040 A 
ATOM     83  C   UNL     1       4.869   0.469 -14.913  1.00  0.00     0.079 A 
ATOM     84  F   UNL     1       3.506  -1.439 -14.995  1.00  0.00    -0.206 F 
ATOM     85  C   UNL     1       6.008   1.109 -14.443  1.00  0.00     0.126 A 
ATOM     86  F   UNL     1       6.246   2.380 -14.792  1.00  0.00    -0.207 F 
ENDBRANCH  75  79
ENDBRANCH  71  73
ENDBRANCH  60  63
ENDBRANCH  58  59
ENDBRANCH  57  58
ENDBRANCH   1  57
TORSDOF 13
