REMARK SMILES O=C(NCCCCNC(=O)[C@H]1[NH2+]CC[C@H]1c1cccc(Oc2ccccc2)c1)c1ccc(-c2c3nc(c(-c4ccccc4)c4ccc([nH]4)c(-c4ccccc4)c4nc(c(-c5ccccc5)c5ccc2[nH]5)C=C4)C=C3)cc1
REMARK SMILES IDX 6 1 5 2 4 3 3 4 1 5 2 6 29 8 30 9 76 10 31 11 75 12 32 13
REMARK SMILES IDX 33 14 34 15 69 16 35 17 74 18 68 19 70 20 36 21 73 22 67 23
REMARK SMILES IDX 66 24 37 26 59 27 44 28 58 29 45 30 48 31 57 32 71 33 46 34
REMARK SMILES IDX 47 35 56 37 72 38 49 39 38 40 39 41 43 42 40 43 42 44 41 45
REMARK SMILES IDX 60 46 61 47 65 48 62 49 64 50 63 51 50 52 51 53 55 54 52 55
REMARK SMILES IDX 54 56 53 57 7 58 8 59 9 60 10 62 11 63 12 64 15 65 13 66
REMARK SMILES IDX 14 69 16 70 17 71 28 72 18 73 20 74 19 75 21 76 22 77 23 78
REMARK SMILES IDX 27 79 24 80 26 81 25 82
REMARK H PARENT 3 7 70 25 48 36 8 61 12 67 12 68
REMARK Flexibility Score: inf
ROOT
ATOM      1  C   UNL     1       4.146   2.052  -3.262  1.00  0.00     0.023 C 
ENDROOT
BRANCH   1   2
ATOM      2  C   UNL     1       4.728   0.856  -2.514  1.00  0.00     0.023 C 
BRANCH   2   3
ATOM      3  C   UNL     1       4.451   0.834  -1.018  1.00  0.00     0.116 C 
BRANCH   3   4
ATOM      4  N   UNL     1       3.029   0.805  -0.703  1.00  0.00    -0.352 N 
ATOM      5  O   UNL     1       1.093  -0.054   0.090  1.00  0.00    -0.269 OA
ATOM      6  C   UNL     1       2.318  -0.112   0.035  1.00  0.00     0.251 C 
ATOM      7  H   UNL     1       2.501   1.550  -1.070  1.00  0.00     0.163 HD
BRANCH   6   8
ATOM      8  C   UNL     1       3.040  -1.188   0.743  1.00  0.00     0.039 A 
ATOM      9  C   UNL     1       4.183  -0.892   1.485  1.00  0.00     0.014 A 
ATOM     10  C   UNL     1       2.588  -2.507   0.639  1.00  0.00     0.014 A 
ATOM     11  C   UNL     1       4.968  -1.925   1.975  1.00  0.00     0.010 A 
ATOM     12  C   UNL     1       3.327  -3.541   1.223  1.00  0.00     0.010 A 
ATOM     13  C   UNL     1       4.542  -3.261   1.865  1.00  0.00    -0.014 A 
BRANCH  13  14
ATOM     14  C   UNL     1       5.367  -4.319   2.498  1.00  0.00     0.031 A 
ATOM     15  C   UNL     1       6.055  -5.378   1.683  1.00  0.00     0.074 A 
ATOM     16  C   UNL     1       5.551  -4.263   3.832  1.00  0.00     0.049 A 
ATOM     17  N   UNL     1       6.878  -6.314   2.087  1.00  0.00    -0.248 NA
ATOM     18  C   UNL     1       5.787  -5.400   0.237  1.00  0.00     0.031 C 
ATOM     19  C   UNL     1       4.925  -3.284   4.727  1.00  0.00     0.029 A 
ATOM     20  N   UNL     1       6.349  -5.006   4.661  1.00  0.00    -0.354 N 
ATOM     21  C   UNL     1       7.213  -7.044   0.953  1.00  0.00     0.074 A 
ATOM     22  C   UNL     1       6.489  -6.457  -0.154  1.00  0.00     0.031 C 
ATOM     23  C   UNL     1       5.420  -3.438   5.962  1.00  0.00     0.029 A 
ATOM     24  C   UNL     1       6.343  -4.566   5.962  1.00  0.00     0.049 A 
ATOM     25  H   UNL     1       6.874  -5.780   4.355  1.00  0.00     0.167 HD
ATOM     26  C   UNL     1       8.050  -8.104   0.846  1.00  0.00     0.031 A 
ATOM     27  C   UNL     1       7.000  -5.021   7.043  1.00  0.00     0.031 A 
ATOM     28  C   UNL     1       8.771  -8.685   1.949  1.00  0.00     0.049 A 
ATOM     29  C   UNL     1       7.917  -6.196   6.892  1.00  0.00     0.074 A 
ATOM     30  C   UNL     1       9.647  -9.759   1.939  1.00  0.00     0.029 A 
ATOM     31  N   UNL     1       8.703  -8.239   3.260  1.00  0.00    -0.354 N 
ATOM     32  N   UNL     1       8.226  -6.865   5.808  1.00  0.00    -0.248 NA
ATOM     33  C   UNL     1       8.570  -6.681   8.114  1.00  0.00     0.031 C 
ATOM     34  C   UNL     1      10.078  -9.986   3.251  1.00  0.00     0.029 A 
ATOM     35  C   UNL     1       9.509  -9.024   4.069  1.00  0.00     0.049 A 
ATOM     36  H   UNL     1       8.162  -7.478   3.570  1.00  0.00     0.167 HD
ATOM     37  C   UNL     1       9.108  -7.854   6.217  1.00  0.00     0.074 A 
ATOM     38  C   UNL     1       9.315  -7.669   7.640  1.00  0.00     0.031 C 
ATOM     39  C   UNL     1       9.686  -8.835   5.484  1.00  0.00     0.031 A 
BRANCH  26  40
ATOM     40  C   UNL     1       8.224  -8.724  -0.512  1.00  0.00    -0.014 A 
ATOM     41  C   UNL     1       8.994  -8.098  -1.504  1.00  0.00     0.009 A 
ATOM     42  C   UNL     1       7.668  -9.986  -0.780  1.00  0.00     0.009 A 
ATOM     43  C   UNL     1       9.188  -8.714  -2.744  1.00  0.00     0.001 A 
ATOM     44  C   UNL     1       7.881 -10.608  -2.012  1.00  0.00     0.001 A 
ATOM     45  C   UNL     1       8.637  -9.970  -2.994  1.00  0.00     0.000 A 
ENDBRANCH  26  40
BRANCH  27  46
ATOM     46  C   UNL     1       6.792  -4.372   8.362  1.00  0.00    -0.014 A 
ATOM     47  C   UNL     1       7.815  -3.630   8.968  1.00  0.00     0.009 A 
ATOM     48  C   UNL     1       5.554  -4.486   9.017  1.00  0.00     0.009 A 
ATOM     49  C   UNL     1       7.610  -3.032  10.214  1.00  0.00     0.001 A 
ATOM     50  C   UNL     1       5.342  -3.861  10.246  1.00  0.00     0.001 A 
ATOM     51  C   UNL     1       6.373  -3.143  10.848  1.00  0.00     0.000 A 
ENDBRANCH  27  46
BRANCH  39  52
ATOM     52  C   UNL     1      10.595  -9.774   6.222  1.00  0.00    -0.014 A 
ATOM     53  C   UNL     1      10.076 -10.744   7.094  1.00  0.00     0.009 A 
ATOM     54  C   UNL     1      11.984  -9.685   6.046  1.00  0.00     0.009 A 
ATOM     55  C   UNL     1      10.935 -11.580   7.809  1.00  0.00     0.001 A 
ATOM     56  C   UNL     1      12.839 -10.539   6.743  1.00  0.00     0.001 A 
ATOM     57  C   UNL     1      12.315 -11.477   7.632  1.00  0.00     0.000 A 
ENDBRANCH  39  52
ENDBRANCH  13  14
ENDBRANCH   6   8
ENDBRANCH   3   4
ENDBRANCH   2   3
ENDBRANCH   1   2
BRANCH   1  58
ATOM     58  C   UNL     1       4.516   3.423  -2.700  1.00  0.00     0.116 C 
BRANCH  58  59
ATOM     59  N   UNL     1       5.946   3.643  -2.718  1.00  0.00    -0.351 N 
ATOM     60  C   UNL     1       6.669   4.714  -3.134  1.00  0.00     0.278 C 
ATOM     61  H   UNL     1       6.482   2.893  -2.373  1.00  0.00     0.163 HD
ATOM     62  O   UNL     1       7.881   4.520  -3.291  1.00  0.00    -0.268 OA
BRANCH  60  63
ATOM     63  C   UNL     1       6.054   6.067  -3.499  1.00  0.00     0.280 C 
ATOM     64  N   UNL     1       4.673   6.350  -3.024  1.00  0.00    -0.335 N 
ATOM     65  C   UNL     1       6.831   7.301  -2.986  1.00  0.00     0.093 C 
ATOM     66  C   UNL     1       4.474   7.774  -3.345  1.00  0.00     0.262 C 
ATOM     67  H   UNL     1       4.595   6.190  -2.020  1.00  0.00     0.346 HD
ATOM     68  H   UNL     1       3.976   5.747  -3.460  1.00  0.00     0.346 HD
ATOM     69  C   UNL     1       5.867   8.400  -3.456  1.00  0.00     0.076 C 
BRANCH  65  70
ATOM     70  C   UNL     1       7.123   7.307  -1.478  1.00  0.00    -0.034 A 
ATOM     71  C   UNL     1       6.382   8.040  -0.538  1.00  0.00     0.004 A 
ATOM     72  C   UNL     1       8.198   6.536  -0.994  1.00  0.00     0.051 A 
ATOM     73  C   UNL     1       6.697   7.998   0.823  1.00  0.00     0.004 A 
ATOM     74  C   UNL     1       8.509   6.467   0.369  1.00  0.00     0.127 A 
ATOM     75  C   UNL     1       7.755   7.212   1.274  1.00  0.00     0.047 A 
BRANCH  74  76
ATOM     76  O   UNL     1       9.531   5.727   0.929  1.00  0.00    -0.457 OA
BRANCH  76  77
ATOM     77  C   UNL     1      10.137   4.761   0.164  1.00  0.00     0.127 A 
ATOM     78  C   UNL     1       9.855   3.422   0.433  1.00  0.00     0.047 A 
ATOM     79  C   UNL     1      11.085   5.105  -0.801  1.00  0.00     0.047 A 
ATOM     80  C   UNL     1      10.481   2.421  -0.312  1.00  0.00     0.004 A 
ATOM     81  C   UNL     1      11.691   4.105  -1.560  1.00  0.00     0.004 A 
ATOM     82  C   UNL     1      11.388   2.764  -1.317  1.00  0.00     0.000 A 
ENDBRANCH  76  77
ENDBRANCH  74  76
ENDBRANCH  65  70
ENDBRANCH  60  63
ENDBRANCH  58  59
ENDBRANCH   1  58
TORSDOF 14
