REMARK SMILES Nc1c(N2CCCC2)ncnc1N1CCC(C(=O)NCCCCNC(=O)c2ccc(-c3c4nc(c(-c5ccccc5)c5ccc([nH]5)c(-c5ccccc5)c5nc(c(-c6ccccc6)c6ccc3[nH]6)C=C5)C=C4)cc2)CC1
REMARK SMILES IDX 21 1 20 2 19 3 17 4 18 5 16 7 13 8 14 9 76 10 15 11 75 12
REMARK SMILES IDX 12 13 2 14 3 15 9 16 11 17 10 18 1 19 4 22 5 23 8 24 6 25
REMARK SMILES IDX 7 26 22 27 23 28 24 29 25 30 26 32 27 33 28 34 74 35 29 36
REMARK SMILES IDX 73 37 30 38 31 39 32 40 67 41 33 42 72 43 66 44 68 45 34 46
REMARK SMILES IDX 71 47 65 48 64 49 35 51 57 52 42 53 56 54 43 55 46 56 55 57
REMARK SMILES IDX 69 58 44 59 45 60 54 62 70 63 47 64 36 65 37 66 41 67 38 68
REMARK SMILES IDX 40 69 39 70 58 71 59 72 63 73 60 74 62 75 61 76 48 77 49 78
REMARK SMILES IDX 53 79 50 80 52 81 51 82
REMARK H PARENT 19 6 1 20 1 21 24 31 68 50 46 61
REMARK Flexibility Score: inf
ROOT
ATOM      1  C   UNL     1       0.591  -6.687   2.843  1.00  0.00     0.023 C 
ENDROOT
BRANCH   1   2
ATOM      2  C   UNL     1       0.719  -5.367   3.598  1.00  0.00     0.116 C 
BRANCH   2   3
ATOM      3  N   UNL     1       1.882  -5.350   4.474  1.00  0.00    -0.356 N 
ATOM      4  C   UNL     1       3.005  -4.577   4.440  1.00  0.00     0.223 C 
ATOM      5  O   UNL     1       3.860  -4.759   5.310  1.00  0.00    -0.275 OA
ATOM      6  H   UNL     1       1.853  -6.003   5.211  1.00  0.00     0.163 HD
BRANCH   4   7
ATOM      7  C   UNL     1       3.196  -3.500   3.381  1.00  0.00     0.082 C 
ATOM      8  N   UNL     1       1.886  -2.305   1.188  1.00  0.00    -0.355 N 
ATOM      9  C   UNL     1       3.003  -3.154   0.841  1.00  0.00     0.119 C 
ATOM     10  C   UNL     1       1.990  -1.483   2.377  1.00  0.00     0.119 C 
ATOM     11  C   UNL     1       3.286  -4.123   1.977  1.00  0.00     0.035 C 
ATOM     12  C   UNL     1       2.163  -2.381   3.589  1.00  0.00     0.035 C 
BRANCH   8  13
ATOM     13  C   UNL     1       0.842  -2.158   0.294  1.00  0.00     0.157 A 
ATOM     14  C   UNL     1       0.494  -0.900  -0.221  1.00  0.00     0.118 A 
ATOM     15  C   UNL     1      -0.657  -0.844  -1.026  1.00  0.00     0.157 A 
ATOM     16  N   UNL     1      -1.387  -1.936  -1.305  1.00  0.00    -0.217 NA
ATOM     17  N   UNL     1       0.161  -3.270  -0.041  1.00  0.00    -0.217 NA
ATOM     18  C   UNL     1      -0.924  -3.093  -0.810  1.00  0.00     0.226 A 
BRANCH  14  19
ATOM     19  N   UNL     1       1.183   0.275   0.137  1.00  0.00    -0.393 N 
ATOM     20  H   UNL     1       0.910   1.141  -0.244  1.00  0.00     0.156 HD
ATOM     21  H   UNL     1       1.937   0.231   0.768  1.00  0.00     0.156 HD
ENDBRANCH  14  19
BRANCH  15  22
ATOM     22  N   UNL     1      -1.045   0.375  -1.550  1.00  0.00    -0.355 N 
ATOM     23  C   UNL     1      -0.288   0.985  -2.627  1.00  0.00     0.118 C 
ATOM     24  C   UNL     1      -2.445   0.750  -1.633  1.00  0.00     0.118 C 
ATOM     25  C   UNL     1      -0.940   2.359  -2.681  1.00  0.00     0.023 C 
ATOM     26  C   UNL     1      -2.420   2.055  -2.445  1.00  0.00     0.023 C 
ENDBRANCH  15  22
ENDBRANCH   8  13
ENDBRANCH   4   7
ENDBRANCH   2   3
ENDBRANCH   1   2
BRANCH   1  27
ATOM     27  C   UNL     1       0.320  -7.903   3.726  1.00  0.00     0.023 C 
BRANCH  27  28
ATOM     28  C   UNL     1      -0.886  -7.775   4.647  1.00  0.00     0.116 C 
BRANCH  28  29
ATOM     29  N   UNL     1      -2.124  -7.507   3.930  1.00  0.00    -0.352 N 
ATOM     30  C   UNL     1      -3.336  -8.145   4.035  1.00  0.00     0.251 C 
ATOM     31  H   UNL     1      -2.088  -6.768   3.281  1.00  0.00     0.163 HD
ATOM     32  O   UNL     1      -4.255  -7.877   3.267  1.00  0.00    -0.269 OA
BRANCH  30  33
ATOM     33  C   UNL     1      -3.513  -9.188   5.063  1.00  0.00     0.039 A 
ATOM     34  C   UNL     1      -4.011 -10.434   4.679  1.00  0.00     0.014 A 
ATOM     35  C   UNL     1      -3.143  -8.947   6.390  1.00  0.00     0.014 A 
ATOM     36  C   UNL     1      -4.069 -11.468   5.614  1.00  0.00     0.010 A 
ATOM     37  C   UNL     1      -3.139  -9.997   7.302  1.00  0.00     0.010 A 
ATOM     38  C   UNL     1      -3.598 -11.267   6.921  1.00  0.00    -0.014 A 
BRANCH  38  39
ATOM     39  C   UNL     1      -3.574 -12.377   7.903  1.00  0.00     0.031 A 
ATOM     40  C   UNL     1      -4.452 -12.324   9.120  1.00  0.00     0.074 A 
ATOM     41  C   UNL     1      -2.722 -13.406   7.726  1.00  0.00     0.049 A 
ATOM     42  N   UNL     1      -4.539 -13.176  10.109  1.00  0.00    -0.248 NA
ATOM     43  C   UNL     1      -5.333 -11.152   9.255  1.00  0.00     0.031 C 
ATOM     44  C   UNL     1      -1.790 -13.554   6.606  1.00  0.00     0.029 A 
ATOM     45  N   UNL     1      -2.503 -14.524   8.490  1.00  0.00    -0.354 N 
ATOM     46  C   UNL     1      -5.471 -12.638  10.986  1.00  0.00     0.074 A 
ATOM     47  C   UNL     1      -5.888 -11.367  10.439  1.00  0.00     0.031 C 
ATOM     48  C   UNL     1      -1.122 -14.711   6.740  1.00  0.00     0.029 A 
ATOM     49  C   UNL     1      -1.553 -15.370   7.969  1.00  0.00     0.049 A 
ATOM     50  H   UNL     1      -2.980 -14.704   9.332  1.00  0.00     0.167 HD
ATOM     51  C   UNL     1      -5.953 -13.166  12.135  1.00  0.00     0.031 A 
ATOM     52  C   UNL     1      -1.082 -16.544   8.430  1.00  0.00     0.031 A 
ATOM     53  C   UNL     1      -5.557 -14.440  12.670  1.00  0.00     0.049 A 
ATOM     54  C   UNL     1      -1.628 -17.104   9.713  1.00  0.00     0.074 A 
ATOM     55  C   UNL     1      -6.035 -15.085  13.797  1.00  0.00     0.029 A 
ATOM     56  N   UNL     1      -4.592 -15.262  12.113  1.00  0.00    -0.354 N 
ATOM     57  N   UNL     1      -2.553 -16.610  10.500  1.00  0.00    -0.248 NA
ATOM     58  C   UNL     1      -1.069 -18.385  10.169  1.00  0.00     0.031 C 
ATOM     59  C   UNL     1      -5.329 -16.282  13.944  1.00  0.00     0.029 A 
ATOM     60  C   UNL     1      -4.444 -16.401  12.885  1.00  0.00     0.049 A 
ATOM     61  H   UNL     1      -4.087 -15.066  11.291  1.00  0.00     0.167 HD
ATOM     62  C   UNL     1      -2.700 -17.527  11.532  1.00  0.00     0.074 A 
ATOM     63  C   UNL     1      -1.781 -18.614  11.265  1.00  0.00     0.031 C 
ATOM     64  C   UNL     1      -3.524 -17.471  12.605  1.00  0.00     0.031 A 
BRANCH  51  65
ATOM     65  C   UNL     1      -6.977 -12.369  12.889  1.00  0.00    -0.014 A 
ATOM     66  C   UNL     1      -8.295 -12.261  12.419  1.00  0.00     0.009 A 
ATOM     67  C   UNL     1      -6.636 -11.768  14.110  1.00  0.00     0.009 A 
ATOM     68  C   UNL     1      -9.247 -11.546  13.148  1.00  0.00     0.001 A 
ATOM     69  C   UNL     1      -7.596 -11.073  14.848  1.00  0.00     0.001 A 
ATOM     70  C   UNL     1      -8.899 -10.958  14.363  1.00  0.00     0.000 A 
ENDBRANCH  51  65
BRANCH  52  71
ATOM     71  C   UNL     1      -0.050 -17.283   7.659  1.00  0.00    -0.014 A 
ATOM     72  C   UNL     1      -0.391 -18.449   6.957  1.00  0.00     0.009 A 
ATOM     73  C   UNL     1       1.276 -16.826   7.615  1.00  0.00     0.009 A 
ATOM     74  C   UNL     1       0.579 -19.154   6.242  1.00  0.00     0.001 A 
ATOM     75  C   UNL     1       2.239 -17.520   6.880  1.00  0.00     0.001 A 
ATOM     76  C   UNL     1       1.892 -18.686   6.200  1.00  0.00     0.000 A 
ENDBRANCH  52  71
BRANCH  64  77
ATOM     77  C   UNL     1      -3.486 -18.620  13.569  1.00  0.00    -0.014 A 
ATOM     78  C   UNL     1      -2.434 -18.756  14.487  1.00  0.00     0.009 A 
ATOM     79  C   UNL     1      -4.555 -19.529  13.613  1.00  0.00     0.009 A 
ATOM     80  C   UNL     1      -2.447 -19.791  15.423  1.00  0.00     0.001 A 
ATOM     81  C   UNL     1      -4.575 -20.549  14.564  1.00  0.00     0.001 A 
ATOM     82  C   UNL     1      -3.519 -20.681  15.466  1.00  0.00     0.000 A 
ENDBRANCH  64  77
ENDBRANCH  38  39
ENDBRANCH  30  33
ENDBRANCH  28  29
ENDBRANCH  27  28
ENDBRANCH   1  27
TORSDOF 14
