REMARK SMILES O=C(NCCCCNC(=O)c1ccc(-c2c3nc(c(-c4ccccc4)c4ccc([nH]4)c(-c4ccccc4)c4nc(c(-c5ccccc5)c5ccc2[nH]5)C=C4)C=C3)cc1)c1ccc(/C=C2\SC(=S)N(NC(=O)c3ccc(Cl)cc3)C2=O)cc1
REMARK SMILES IDX 5 1 4 2 3 3 1 4 2 5 59 7 60 8 82 9 61 10 81 11 62 12 63 13
REMARK SMILES IDX 64 14 65 15 79 16 66 17 68 18 80 19 67 20 69 21 70 22 71 24
REMARK SMILES IDX 72 25 73 26 78 27 74 28 77 29 75 30 76 31 6 32 7 33 8 34
REMARK SMILES IDX 9 35 10 37 11 38 12 39 58 40 13 41 57 42 14 43 15 44 16 45
REMARK SMILES IDX 51 46 17 47 56 48 50 49 52 50 18 51 55 52 49 53 48 54 19 56
REMARK SMILES IDX 41 57 26 58 40 59 27 60 30 61 39 62 53 63 28 64 29 65 38 67
REMARK SMILES IDX 54 68 31 69 20 70 21 71 25 72 22 73 24 74 23 75 42 76 43 77
REMARK SMILES IDX 47 78 44 79 46 80 45 81 32 82 33 83 37 84 34 85 36 86 35 87
REMARK H PARENT 3 6 69 23 8 36 52 55 30 66
REMARK Flexibility Score: inf
ROOT
ATOM      1  C   UNL     1       4.836  -1.789  -1.727  1.00  0.00     0.023 C 
ENDROOT
BRANCH   1   2
ATOM      2  C   UNL     1       4.465  -0.398  -1.222  1.00  0.00     0.116 C 
BRANCH   2   3
ATOM      3  N   UNL     1       3.026  -0.181  -1.147  1.00  0.00    -0.352 N 
ATOM      4  O   UNL     1       1.036   0.190  -0.128  1.00  0.00    -0.269 OA
ATOM      5  C   UNL     1       2.258   0.142  -0.052  1.00  0.00     0.251 C 
ATOM      6  H   UNL     1       2.537  -0.279  -1.996  1.00  0.00     0.163 HD
BRANCH   5   7
ATOM      7  C   UNL     1       2.932   0.381   1.238  1.00  0.00     0.039 A 
ATOM      8  C   UNL     1       3.923   1.356   1.348  1.00  0.00     0.014 A 
ATOM      9  C   UNL     1       2.633  -0.448   2.317  1.00  0.00     0.014 A 
ATOM     10  C   UNL     1       4.735   1.379   2.480  1.00  0.00     0.009 A 
ATOM     11  C   UNL     1       3.429  -0.395   3.464  1.00  0.00     0.009 A 
ATOM     12  C   UNL     1       4.544   0.453   3.519  1.00  0.00    -0.024 A 
BRANCH  12  13
ATOM     13  C   UNL     1       5.563   0.429   4.582  1.00  0.00     0.029 C 
ATOM     14  C   UNL     1       6.000  -0.597   5.328  1.00  0.00     0.082 C 
ATOM     15  S   UNL     1       5.436  -2.219   5.423  1.00  0.00    -0.052 SA
ATOM     16  C   UNL     1       7.122  -0.409   6.286  1.00  0.00     0.285 C 
ATOM     17  C   UNL     1       6.306  -2.528   6.918  1.00  0.00     0.168 C 
ATOM     18  N   UNL     1       7.077  -1.422   7.226  1.00  0.00    -0.198 N 
ATOM     19  O   UNL     1       7.952   0.493   6.188  1.00  0.00    -0.266 OA
ATOM     20  S   UNL     1       6.190  -3.956   7.770  1.00  0.00    -0.050 S 
BRANCH  18  21
ATOM     21  N   UNL     1       7.901  -1.427   8.362  1.00  0.00    -0.255 N 
ATOM     22  C   UNL     1       8.024  -0.417   9.294  1.00  0.00     0.270 C 
ATOM     23  H   UNL     1       8.447  -2.233   8.508  1.00  0.00     0.192 HD
ATOM     24  O   UNL     1       8.681  -0.596  10.316  1.00  0.00    -0.267 OA
BRANCH  22  25
ATOM     25  C   UNL     1       7.447   0.920   9.049  1.00  0.00     0.041 A 
ATOM     26  C   UNL     1       8.343   1.995   8.967  1.00  0.00     0.015 A 
ATOM     27  C   UNL     1       6.077   1.122   8.850  1.00  0.00     0.015 A 
ATOM     28  C   UNL     1       7.879   3.263   8.617  1.00  0.00     0.021 A 
ATOM     29  C   UNL     1       5.617   2.395   8.496  1.00  0.00     0.021 A 
ATOM     30  C   UNL     1       6.521   3.454   8.368  1.00  0.00     0.041 A 
ATOM     31  Cl  UNL     1       5.955   5.005   7.886  1.00  0.00    -0.084 Cl
ENDBRANCH  22  25
ENDBRANCH  18  21
ENDBRANCH  12  13
ENDBRANCH   5   7
ENDBRANCH   2   3
ENDBRANCH   1   2
BRANCH   1  32
ATOM     32  C   UNL     1       4.384  -2.113  -3.149  1.00  0.00     0.023 C 
BRANCH  32  33
ATOM     33  C   UNL     1       4.766  -1.090  -4.213  1.00  0.00     0.116 C 
BRANCH  33  34
ATOM     34  N   UNL     1       6.200  -0.875  -4.324  1.00  0.00    -0.352 N 
ATOM     35  C   UNL     1       6.990  -0.830  -5.448  1.00  0.00     0.251 C 
ATOM     36  H   UNL     1       6.673  -0.742  -3.470  1.00  0.00     0.163 HD
ATOM     37  O   UNL     1       8.209  -0.730  -5.340  1.00  0.00    -0.269 OA
BRANCH  35  38
ATOM     38  C   UNL     1       6.377  -0.946  -6.789  1.00  0.00     0.039 A 
ATOM     39  C   UNL     1       6.937  -1.839  -7.708  1.00  0.00     0.014 A 
ATOM     40  C   UNL     1       5.249  -0.198  -7.135  1.00  0.00     0.014 A 
ATOM     41  C   UNL     1       6.316  -2.044  -8.943  1.00  0.00     0.010 A 
ATOM     42  C   UNL     1       4.596  -0.450  -8.339  1.00  0.00     0.010 A 
ATOM     43  C   UNL     1       5.117  -1.382  -9.250  1.00  0.00    -0.014 A 
BRANCH  43  44
ATOM     44  C   UNL     1       4.376  -1.666 -10.505  1.00  0.00     0.031 A 
ATOM     45  C   UNL     1       4.203  -0.593 -11.543  1.00  0.00     0.074 A 
ATOM     46  C   UNL     1       3.780  -2.864 -10.671  1.00  0.00     0.049 A 
ATOM     47  N   UNL     1       3.505  -0.621 -12.650  1.00  0.00    -0.248 NA
ATOM     48  C   UNL     1       4.881   0.689 -11.290  1.00  0.00     0.031 C 
ATOM     49  C   UNL     1       3.830  -3.978  -9.722  1.00  0.00     0.029 A 
ATOM     50  N   UNL     1       2.998  -3.336 -11.695  1.00  0.00    -0.354 N 
ATOM     51  C   UNL     1       3.632   0.644 -13.208  1.00  0.00     0.074 A 
ATOM     52  C   UNL     1       4.452   1.424 -12.306  1.00  0.00     0.031 C 
ATOM     53  C   UNL     1       3.122  -5.008 -10.215  1.00  0.00     0.029 A 
ATOM     54  C   UNL     1       2.541  -4.616 -11.494  1.00  0.00     0.049 A 
ATOM     55  H   UNL     1       2.784  -2.807 -12.498  1.00  0.00     0.167 HD
ATOM     56  C   UNL     1       3.121   1.112 -14.371  1.00  0.00     0.031 A 
ATOM     57  C   UNL     1       1.734  -5.385 -12.249  1.00  0.00     0.031 A 
ATOM     58  C   UNL     1       2.336   0.331 -15.288  1.00  0.00     0.049 A 
ATOM     59  C   UNL     1       1.198  -4.847 -13.545  1.00  0.00     0.074 A 
ATOM     60  C   UNL     1       1.850   0.696 -16.532  1.00  0.00     0.029 A 
ATOM     61  N   UNL     1       1.924  -0.971 -15.062  1.00  0.00    -0.354 N 
ATOM     62  N   UNL     1       1.390  -3.672 -14.093  1.00  0.00    -0.248 NA
ATOM     63  C   UNL     1       0.338  -5.745 -14.329  1.00  0.00     0.031 C 
ATOM     64  C   UNL     1       1.112  -0.376 -17.044  1.00  0.00     0.029 A 
ATOM     65  C   UNL     1       1.171  -1.419 -16.134  1.00  0.00     0.049 A 
ATOM     66  H   UNL     1       2.136  -1.500 -14.259  1.00  0.00     0.167 HD
ATOM     67  C   UNL     1       0.697  -3.700 -15.296  1.00  0.00     0.074 A 
ATOM     68  C   UNL     1       0.088  -5.009 -15.403  1.00  0.00     0.031 C 
ATOM     69  C   UNL     1       0.578  -2.725 -16.229  1.00  0.00     0.031 A 
BRANCH  56  70
ATOM     70  C   UNL     1       3.392   2.547 -14.717  1.00  0.00    -0.014 A 
ATOM     71  C   UNL     1       4.657   2.962 -15.159  1.00  0.00     0.009 A 
ATOM     72  C   UNL     1       2.353   3.488 -14.642  1.00  0.00     0.009 A 
ATOM     73  C   UNL     1       4.885   4.299 -15.491  1.00  0.00     0.001 A 
ATOM     74  C   UNL     1       2.578   4.819 -14.996  1.00  0.00     0.001 A 
ATOM     75  C   UNL     1       3.845   5.225 -15.413  1.00  0.00     0.000 A 
ENDBRANCH  56  70
BRANCH  57  76
ATOM     76  C   UNL     1       1.387  -6.759 -11.807  1.00  0.00    -0.014 A 
ATOM     77  C   UNL     1       1.955  -7.872 -12.444  1.00  0.00     0.009 A 
ATOM     78  C   UNL     1       0.476  -6.964 -10.760  1.00  0.00     0.009 A 
ATOM     79  C   UNL     1       1.597  -9.166 -12.059  1.00  0.00     0.001 A 
ATOM     80  C   UNL     1       0.138  -8.259 -10.362  1.00  0.00     0.001 A 
ATOM     81  C   UNL     1       0.691  -9.358 -11.017  1.00  0.00     0.000 A 
ENDBRANCH  57  76
BRANCH  69  82
ATOM     82  C   UNL     1      -0.212  -3.051 -17.462  1.00  0.00    -0.014 A 
ATOM     83  C   UNL     1      -1.614  -3.089 -17.435  1.00  0.00     0.009 A 
ATOM     84  C   UNL     1       0.456  -3.285 -18.674  1.00  0.00     0.009 A 
ATOM     85  C   UNL     1      -2.332  -3.380 -18.597  1.00  0.00     0.001 A 
ATOM     86  C   UNL     1      -0.265  -3.554 -19.837  1.00  0.00     0.001 A 
ATOM     87  C   UNL     1      -1.658  -3.608 -19.796  1.00  0.00     0.000 A 
ENDBRANCH  69  82
ENDBRANCH  43  44
ENDBRANCH  35  38
ENDBRANCH  33  34
ENDBRANCH  32  33
ENDBRANCH   1  32
TORSDOF 14
