REMARK SMILES CCCC(=O)N(c1cc2sc(=O)oc2c2ccccc12)S(=O)(=O)c1ccc(C(=O)NCCCCNC(=O)c2ccc(-c3c4nc(c(-c5ccccc5)c5ccc([nH]5)c(-c5ccccc5)c5nc(c(-c6ccccc6)c6ccc3[nH]6)C=C5)C=C4)cc2)cc1
REMARK SMILES IDX 31 1 30 2 28 3 29 4 27 6 24 7 25 8 87 9 26 10 86 11 21 12
REMARK SMILES IDX 22 13 23 14 6 15 4 16 5 17 3 18 2 19 1 20 7 21 8 22 20 23
REMARK SMILES IDX 9 24 15 25 19 26 10 27 14 28 16 29 18 30 11 31 13 32 17 33
REMARK SMILES IDX 12 34 32 35 33 36 34 37 35 38 36 39 37 41 38 42 39 43 85 44
REMARK SMILES IDX 40 45 84 46 41 47 42 48 43 49 78 50 44 51 83 52 77 53 79 54
REMARK SMILES IDX 45 55 82 56 76 57 75 58 46 60 68 61 53 62 67 63 54 64 57 65
REMARK SMILES IDX 66 66 80 67 55 68 56 69 65 71 81 72 58 73 47 74 48 75 52 76
REMARK SMILES IDX 49 77 51 78 50 79 69 80 70 81 74 82 71 83 73 84 72 85 59 86
REMARK SMILES IDX 60 87 64 88 61 89 63 90 62 91
REMARK H PARENT 30 5 35 40 79 59 57 70
REMARK Flexibility Score: inf
ROOT
ATOM      1  C   UNL     1       3.750  -2.775   7.979  1.00  0.00     0.116 C 
ENDROOT
BRANCH   1   2
ATOM      2  N   UNL     1       3.196  -1.443   8.152  1.00  0.00    -0.352 N 
ATOM      3  C   UNL     1       2.144  -0.821   7.518  1.00  0.00     0.251 C 
ATOM      4  O   UNL     1       1.856   0.326   7.858  1.00  0.00    -0.269 OA
ATOM      5  H   UNL     1       3.646  -0.895   8.834  1.00  0.00     0.163 HD
BRANCH   3   6
ATOM      6  C   UNL     1       1.402  -1.453   6.389  1.00  0.00     0.039 A 
ATOM      7  C   UNL     1       0.311  -2.500   4.032  1.00  0.00     0.088 A 
ATOM      8  C   UNL     1       0.218  -1.130   4.289  1.00  0.00     0.023 A 
ATOM      9  C   UNL     1       0.788  -3.361   5.021  1.00  0.00     0.023 A 
ATOM     10  C   UNL     1       0.808  -0.605   5.442  1.00  0.00     0.015 A 
ATOM     11  C   UNL     1       1.275  -2.834   6.218  1.00  0.00     0.015 A 
BRANCH   7  12
ATOM     12  S   UNL     1      -0.264  -3.168   2.475  1.00  0.00     0.270 S 
ATOM     13  O   UNL     1      -1.627  -2.713   2.347  1.00  0.00    -0.201 OA
ATOM     14  O   UNL     1       0.068  -4.585   2.519  1.00  0.00    -0.201 OA
BRANCH  12  15
ATOM     15  N   UNL     1       0.691  -2.505   1.231  1.00  0.00    -0.202 N 
BRANCH  15  16
ATOM     16  C   UNL     1       0.419  -2.906  -0.119  1.00  0.00     0.241 C 
ATOM     17  O   UNL     1      -0.603  -3.521  -0.413  1.00  0.00    -0.273 OA
BRANCH  16  18
ATOM     18  C   UNL     1       1.454  -2.646  -1.207  1.00  0.00     0.101 C 
BRANCH  18  19
ATOM     19  C   UNL     1       1.201  -1.387  -2.035  1.00  0.00     0.006 C 
ATOM     20  C   UNL     1       2.378  -0.422  -1.987  1.00  0.00     0.004 C 
ENDBRANCH  18  19
ENDBRANCH  16  18
ENDBRANCH  15  16
BRANCH  15  21
ATOM     21  C   UNL     1       1.480  -1.328   1.469  1.00  0.00     0.070 A 
ATOM     22  C   UNL     1       2.716  -1.523   2.106  1.00  0.00     0.051 A 
ATOM     23  C   UNL     1       1.040  -0.013   1.105  1.00  0.00     0.010 A 
ATOM     24  C   UNL     1       3.505  -0.424   2.389  1.00  0.00     0.080 A 
ATOM     25  C   UNL     1       1.926   1.082   1.301  1.00  0.00     0.028 A 
ATOM     26  C   UNL     1      -0.220   0.270   0.528  1.00  0.00     0.011 A 
ATOM     27  S   UNL     1       5.029  -0.390   3.252  1.00  0.00    -0.052 S 
ATOM     28  C   UNL     1       3.129   0.848   1.980  1.00  0.00     0.157 A 
ATOM     29  C   UNL     1       1.597   2.354   0.793  1.00  0.00     0.013 A 
ATOM     30  C   UNL     1      -0.526   1.536   0.021  1.00  0.00     0.001 A 
ATOM     31  C   UNL     1       5.075   1.362   3.011  1.00  0.00     0.396 A 
ATOM     32  O   UNL     1       4.008   1.893   2.292  1.00  0.00    -0.413 OA
ATOM     33  C   UNL     1       0.395   2.569   0.125  1.00  0.00     0.001 A 
ATOM     34  O   UNL     1       5.989   2.050   3.442  1.00  0.00    -0.233 OA
ENDBRANCH  15  21
ENDBRANCH  12  15
ENDBRANCH   7  12
ENDBRANCH   3   6
ENDBRANCH   1   2
BRANCH   1  35
ATOM     35  C   UNL     1       5.224  -2.919   8.345  1.00  0.00     0.023 C 
BRANCH  35  36
ATOM     36  C   UNL     1       5.617  -2.443   9.740  1.00  0.00     0.023 C 
BRANCH  36  37
ATOM     37  C   UNL     1       4.736  -2.985  10.864  1.00  0.00     0.116 C 
BRANCH  37  38
ATOM     38  N   UNL     1       5.069  -4.341  11.280  1.00  0.00    -0.352 N 
ATOM     39  C   UNL     1       6.058  -4.777  12.135  1.00  0.00     0.251 C 
ATOM     40  H   UNL     1       4.505  -5.050  10.895  1.00  0.00     0.163 HD
ATOM     41  O   UNL     1       6.220  -5.971  12.360  1.00  0.00    -0.269 OA
BRANCH  39  42
ATOM     42  C   UNL     1       6.979  -3.781  12.708  1.00  0.00     0.039 A 
ATOM     43  C   UNL     1       6.473  -2.663  13.373  1.00  0.00     0.014 A 
ATOM     44  C   UNL     1       8.347  -3.915  12.460  1.00  0.00     0.014 A 
ATOM     45  C   UNL     1       7.300  -1.578  13.595  1.00  0.00     0.010 A 
ATOM     46  C   UNL     1       9.193  -2.852  12.752  1.00  0.00     0.010 A 
ATOM     47  C   UNL     1       8.655  -1.665  13.267  1.00  0.00    -0.014 A 
BRANCH  47  48
ATOM     48  C   UNL     1       9.469  -0.514  13.664  1.00  0.00     0.031 A 
ATOM     49  C   UNL     1      10.402  -0.857  14.779  1.00  0.00     0.074 A 
ATOM     50  C   UNL     1       9.773   0.473  12.796  1.00  0.00     0.049 A 
ATOM     51  N   UNL     1      11.523  -1.487  14.581  1.00  0.00    -0.248 NA
ATOM     52  C   UNL     1       9.980  -0.826  16.179  1.00  0.00     0.031 C 
ATOM     53  C   UNL     1      10.070   0.266  11.372  1.00  0.00     0.029 A 
ATOM     54  N   UNL     1      10.097   1.789  13.021  1.00  0.00    -0.354 N 
ATOM     55  C   UNL     1      11.948  -1.964  15.808  1.00  0.00     0.074 A 
ATOM     56  C   UNL     1      10.959  -1.529  16.770  1.00  0.00     0.031 C 
ATOM     57  C   UNL     1      10.725   1.351  10.909  1.00  0.00     0.029 A 
ATOM     58  C   UNL     1      10.774   2.373  11.952  1.00  0.00     0.049 A 
ATOM     59  H   UNL     1       9.875   2.269  13.851  1.00  0.00     0.167 HD
ATOM     60  C   UNL     1      13.093  -2.682  15.958  1.00  0.00     0.031 A 
ATOM     61  C   UNL     1      11.765   3.295  12.113  1.00  0.00     0.031 A 
ATOM     62  C   UNL     1      13.841  -2.897  14.755  1.00  0.00     0.049 A 
ATOM     63  C   UNL     1      12.906   2.395  12.538  1.00  0.00     0.074 A 
ATOM     64  C   UNL     1      14.052  -3.909  13.846  1.00  0.00     0.029 A 
ATOM     65  N   UNL     1      14.564  -1.839  14.264  1.00  0.00    -0.354 N 
ATOM     66  N   UNL     1      13.613   1.613  11.762  1.00  0.00    -0.248 NA
ATOM     67  C   UNL     1      12.997   2.074  13.964  1.00  0.00     0.031 C 
ATOM     68  C   UNL     1      14.498  -3.257  12.652  1.00  0.00     0.029 A 
ATOM     69  C   UNL     1      14.482  -1.883  12.898  1.00  0.00     0.049 A 
ATOM     70  H   UNL     1      15.052  -1.170  14.796  1.00  0.00     0.167 HD
ATOM     71  C   UNL     1      13.982   0.526  12.561  1.00  0.00     0.074 A 
ATOM     72  C   UNL     1      13.589   0.890  13.908  1.00  0.00     0.031 C 
ATOM     73  C   UNL     1      14.403  -0.685  12.083  1.00  0.00     0.031 A 
BRANCH  60  74
ATOM     74  C   UNL     1      13.689  -3.044  17.261  1.00  0.00    -0.014 A 
ATOM     75  C   UNL     1      13.303  -4.167  17.998  1.00  0.00     0.009 A 
ATOM     76  C   UNL     1      14.816  -2.311  17.673  1.00  0.00     0.009 A 
ATOM     77  C   UNL     1      14.057  -4.560  19.111  1.00  0.00     0.001 A 
ATOM     78  C   UNL     1      15.571  -2.710  18.771  1.00  0.00     0.001 A 
ATOM     79  C   UNL     1      15.194  -3.840  19.488  1.00  0.00     0.000 A 
ENDBRANCH  60  74
BRANCH  61  80
ATOM     80  C   UNL     1      11.335   4.528  12.856  1.00  0.00    -0.014 A 
ATOM     81  C   UNL     1      11.909   5.020  14.037  1.00  0.00     0.009 A 
ATOM     82  C   UNL     1      10.217   5.226  12.351  1.00  0.00     0.009 A 
ATOM     83  C   UNL     1      11.292   6.046  14.768  1.00  0.00     0.001 A 
ATOM     84  C   UNL     1       9.618   6.271  13.061  1.00  0.00     0.001 A 
ATOM     85  C   UNL     1      10.135   6.655  14.292  1.00  0.00     0.000 A 
ENDBRANCH  61  80
BRANCH  73  86
ATOM     86  C   UNL     1      14.601  -0.814  10.605  1.00  0.00    -0.014 A 
ATOM     87  C   UNL     1      13.866  -1.757   9.864  1.00  0.00     0.009 A 
ATOM     88  C   UNL     1      15.608  -0.090   9.958  1.00  0.00     0.009 A 
ATOM     89  C   UNL     1      14.188  -2.029   8.533  1.00  0.00     0.001 A 
ATOM     90  C   UNL     1      15.913  -0.344   8.619  1.00  0.00     0.001 A 
ATOM     91  C   UNL     1      15.220  -1.329   7.915  1.00  0.00     0.000 A 
ENDBRANCH  73  86
ENDBRANCH  47  48
ENDBRANCH  39  42
ENDBRANCH  37  38
ENDBRANCH  36  37
ENDBRANCH  35  36
ENDBRANCH   1  35
TORSDOF 17
