REMARK SMILES O=C(NCCCCNC(=O)[C@H]1CCCCN1C(=O)CSCc1ccccc1)c1ccc(-c2c3nc(c(-c4ccccc4)c4ccc([nH]4)c(-c4ccccc4)c4nc(c(-c5ccccc5)c5ccc2[nH]5)C=C4)C=C3)cc1
REMARK SMILES IDX 7 1 6 2 5 3 4 4 3 5 1 6 2 7 28 9 29 10 75 11 30 12 74 13
REMARK SMILES IDX 31 14 32 15 33 16 68 17 34 18 73 19 67 20 69 21 35 22 72 23
REMARK SMILES IDX 66 24 65 25 36 27 58 28 43 29 57 30 44 31 47 32 56 33 70 34
REMARK SMILES IDX 45 35 46 36 55 38 71 39 48 40 37 41 38 42 42 43 39 44 41 45
REMARK SMILES IDX 40 46 59 47 60 48 64 49 61 50 63 51 62 52 49 53 50 54 54 55
REMARK SMILES IDX 51 56 53 57 52 58 8 59 9 60 10 62 11 63 12 64 16 65 13 66
REMARK SMILES IDX 15 67 14 68 17 69 18 70 19 71 20 72 21 73 22 74 23 75 27 76
REMARK SMILES IDX 24 77 26 78 25 79
REMARK H PARENT 3 8 69 26 47 37 8 61
REMARK Flexibility Score: inf
ROOT
ATOM      1  C   UNL     1       5.345   6.546   3.204  1.00  0.00     0.116 C 
ENDROOT
BRANCH   1   2
ATOM      2  C   UNL     1       5.060   6.557   1.707  1.00  0.00     0.023 C 
BRANCH   2   3
ATOM      3  C   UNL     1       3.606   6.791   1.312  1.00  0.00     0.023 C 
BRANCH   3   4
ATOM      4  C   UNL     1       2.962   8.037   1.905  1.00  0.00     0.116 C 
BRANCH   4   5
ATOM      5  N   UNL     1       3.684   9.260   1.591  1.00  0.00    -0.352 N 
ATOM      6  O   UNL     1       3.946  11.354   0.788  1.00  0.00    -0.269 OA
ATOM      7  C   UNL     1       3.193  10.450   1.106  1.00  0.00     0.251 C 
ATOM      8  H   UNL     1       4.656   9.233   1.747  1.00  0.00     0.163 HD
BRANCH   7   9
ATOM      9  C   UNL     1       1.731  10.607   0.954  1.00  0.00     0.039 A 
ATOM     10  C   UNL     1       0.875  10.294   2.013  1.00  0.00     0.014 A 
ATOM     11  C   UNL     1       1.222  11.062  -0.264  1.00  0.00     0.014 A 
ATOM     12  C   UNL     1      -0.499  10.333   1.819  1.00  0.00     0.010 A 
ATOM     13  C   UNL     1      -0.159  11.168  -0.434  1.00  0.00     0.010 A 
ATOM     14  C   UNL     1      -1.028  10.792   0.602  1.00  0.00    -0.014 A 
BRANCH  14  15
ATOM     15  C   UNL     1      -2.490  10.990   0.475  1.00  0.00     0.031 A 
ATOM     16  C   UNL     1      -3.317  10.154  -0.455  1.00  0.00     0.074 A 
ATOM     17  C   UNL     1      -3.059  11.961   1.216  1.00  0.00     0.049 A 
ATOM     18  N   UNL     1      -4.601  10.228  -0.697  1.00  0.00    -0.248 NA
ATOM     19  C   UNL     1      -2.621   9.106  -1.218  1.00  0.00     0.031 C 
ATOM     20  C   UNL     1      -2.342  12.842   2.143  1.00  0.00     0.029 A 
ATOM     21  N   UNL     1      -4.363  12.370   1.310  1.00  0.00    -0.354 N 
ATOM     22  C   UNL     1      -4.865   9.256  -1.652  1.00  0.00     0.074 A 
ATOM     23  C   UNL     1      -3.607   8.608  -1.955  1.00  0.00     0.031 C 
ATOM     24  C   UNL     1      -3.218  13.671   2.727  1.00  0.00     0.029 A 
ATOM     25  C   UNL     1      -4.542  13.423   2.172  1.00  0.00     0.049 A 
ATOM     26  H   UNL     1      -5.098  11.950   0.808  1.00  0.00     0.167 HD
ATOM     27  C   UNL     1      -6.053   8.941  -2.223  1.00  0.00     0.031 A 
ATOM     28  C   UNL     1      -5.644  14.138   2.460  1.00  0.00     0.031 A 
ATOM     29  C   UNL     1      -7.300   9.586  -1.906  1.00  0.00     0.049 A 
ATOM     30  C   UNL     1      -6.932  13.788   1.780  1.00  0.00     0.074 A 
ATOM     31  C   UNL     1      -8.568   9.284  -2.374  1.00  0.00     0.029 A 
ATOM     32  N   UNL     1      -7.436  10.670  -1.053  1.00  0.00    -0.354 N 
ATOM     33  N   UNL     1      -7.177  12.821   0.929  1.00  0.00    -0.248 NA
ATOM     34  C   UNL     1      -8.093  14.633   2.090  1.00  0.00     0.031 C 
ATOM     35  C   UNL     1      -9.462  10.223  -1.849  1.00  0.00     0.029 A 
ATOM     36  C   UNL     1      -8.758  11.079  -1.018  1.00  0.00     0.049 A 
ATOM     37  H   UNL     1      -6.701  11.086  -0.547  1.00  0.00     0.167 HD
ATOM     38  C   UNL     1      -8.519  12.941   0.602  1.00  0.00     0.074 A 
ATOM     39  C   UNL     1      -9.042  14.054   1.368  1.00  0.00     0.031 C 
ATOM     40  C   UNL     1      -9.251  12.200  -0.264  1.00  0.00     0.031 A 
BRANCH  27  41
ATOM     41  C   UNL     1      -6.071   7.869  -3.274  1.00  0.00    -0.014 A 
ATOM     42  C   UNL     1      -5.991   6.511  -2.933  1.00  0.00     0.009 A 
ATOM     43  C   UNL     1      -6.267   8.223  -4.619  1.00  0.00     0.009 A 
ATOM     44  C   UNL     1      -6.095   5.528  -3.922  1.00  0.00     0.001 A 
ATOM     45  C   UNL     1      -6.389   7.239  -5.602  1.00  0.00     0.001 A 
ATOM     46  C   UNL     1      -6.301   5.893  -5.253  1.00  0.00     0.000 A 
ENDBRANCH  27  41
BRANCH  28  47
ATOM     47  C   UNL     1      -5.554  15.288   3.393  1.00  0.00    -0.014 A 
ATOM     48  C   UNL     1      -6.148  15.232   4.662  1.00  0.00     0.009 A 
ATOM     49  C   UNL     1      -4.858  16.449   3.017  1.00  0.00     0.009 A 
ATOM     50  C   UNL     1      -6.064  16.325   5.527  1.00  0.00     0.001 A 
ATOM     51  C   UNL     1      -4.751  17.527   3.896  1.00  0.00     0.001 A 
ATOM     52  C   UNL     1      -5.362  17.468   5.146  1.00  0.00     0.000 A 
ENDBRANCH  28  47
BRANCH  40  53
ATOM     53  C   UNL     1     -10.692  12.581  -0.426  1.00  0.00    -0.014 A 
ATOM     54  C   UNL     1     -11.054  13.718  -1.165  1.00  0.00     0.009 A 
ATOM     55  C   UNL     1     -11.697  11.785   0.143  1.00  0.00     0.009 A 
ATOM     56  C   UNL     1     -12.398  14.065  -1.309  1.00  0.00     0.001 A 
ATOM     57  C   UNL     1     -13.040  12.121  -0.024  1.00  0.00     0.001 A 
ATOM     58  C   UNL     1     -13.389  13.264  -0.742  1.00  0.00     0.000 A 
ENDBRANCH  40  53
ENDBRANCH  14  15
ENDBRANCH   7   9
ENDBRANCH   4   5
ENDBRANCH   3   4
ENDBRANCH   2   3
ENDBRANCH   1   2
BRANCH   1  59
ATOM     59  N   UNL     1       4.716   5.441   3.891  1.00  0.00    -0.354 N 
ATOM     60  C   UNL     1       5.144   4.601   4.869  1.00  0.00     0.242 C 
ATOM     61  H   UNL     1       3.795   5.262   3.592  1.00  0.00     0.163 HD
ATOM     62  O   UNL     1       4.289   3.789   5.255  1.00  0.00    -0.273 OA
BRANCH  60  63
ATOM     63  C   UNL     1       6.601   4.552   5.431  1.00  0.00     0.174 C 
ATOM     64  C   UNL     1       7.457   5.817   5.539  1.00  0.00     0.035 C 
ATOM     65  N   UNL     1       6.552   4.014   6.815  1.00  0.00    -0.330 N 
ATOM     66  C   UNL     1       6.817   6.847   6.467  1.00  0.00     0.004 C 
ATOM     67  C   UNL     1       5.895   4.890   7.794  1.00  0.00     0.120 C 
ATOM     68  C   UNL     1       6.595   6.249   7.857  1.00  0.00     0.022 C 
BRANCH  65  69
ATOM     69  C   UNL     1       7.214   2.829   7.095  1.00  0.00     0.233 C 
ATOM     70  O   UNL     1       7.735   2.152   6.203  1.00  0.00    -0.274 OA
BRANCH  69  71
ATOM     71  C   UNL     1       7.372   2.391   8.543  1.00  0.00     0.170 C 
BRANCH  71  72
ATOM     72  S   UNL     1       8.575   3.419   9.466  1.00  0.00    -0.147 SA
BRANCH  72  73
ATOM     73  C   UNL     1       9.960   3.527   8.282  1.00  0.00     0.105 C 
BRANCH  73  74
ATOM     74  C   UNL     1      10.980   2.431   8.445  1.00  0.00    -0.038 A 
ATOM     75  C   UNL     1      10.710   1.121   8.026  1.00  0.00     0.004 A 
ATOM     76  C   UNL     1      12.240   2.714   8.995  1.00  0.00     0.004 A 
ATOM     77  C   UNL     1      11.663   0.113   8.180  1.00  0.00     0.000 A 
ATOM     78  C   UNL     1      13.199   1.709   9.131  1.00  0.00     0.000 A 
ATOM     79  C   UNL     1      12.908   0.407   8.731  1.00  0.00     0.000 A 
ENDBRANCH  73  74
ENDBRANCH  72  73
ENDBRANCH  71  72
ENDBRANCH  69  71
ENDBRANCH  65  69
ENDBRANCH  60  63
ENDBRANCH   1  59
TORSDOF 16
