REMARK SMILES Cc1ccc(Cl)c(Nc2ccccc2C(=O)NCC(=O)NCCCCNC(=O)c2ccc(-c3c4nc(c(-c5ccccc5)c5ccc([nH]5)c(-c5ccccc5)c5nc(c(-c6ccccc6)c6ccc3[nH]6)C=C5)C=C4)cc2)c1Cl
REMARK SMILES IDX 22 1 21 2 19 3 20 4 18 6 17 7 15 8 16 9 14 11 9 12 10 13
REMARK SMILES IDX 11 14 13 15 12 16 8 17 7 19 1 20 2 21 3 22 77 23 4 24 78 25
REMARK SMILES IDX 5 26 6 27 23 28 24 29 25 30 26 31 27 32 28 34 29 35 30 36
REMARK SMILES IDX 76 37 31 38 75 39 32 40 33 41 34 42 69 43 35 44 74 45 68 46
REMARK SMILES IDX 70 47 36 48 73 49 67 50 66 51 37 53 59 54 44 55 58 56 45 57
REMARK SMILES IDX 48 58 57 59 71 60 46 61 47 62 56 64 72 65 49 66 38 67 39 68
REMARK SMILES IDX 43 69 40 70 42 71 41 72 60 73 61 74 65 75 62 76 64 77 63 78
REMARK SMILES IDX 50 79 51 80 55 81 52 82 54 83 53 84
REMARK H PARENT 21 5 17 10 8 18 26 33 70 52 48 63
REMARK Flexibility Score: inf
ROOT
ATOM      1  C   UNL     1      -1.629  -3.551   2.539  1.00  0.00     0.116 C 
ENDROOT
BRANCH   1   2
ATOM      2  N   UNL     1      -2.543  -2.438   2.478  1.00  0.00    -0.355 N 
ATOM      3  C   UNL     1      -2.207  -1.122   2.372  1.00  0.00     0.239 C 
ATOM      4  O   UNL     1      -3.096  -0.278   2.498  1.00  0.00    -0.273 OA
ATOM      5  H   UNL     1      -3.504  -2.649   2.518  1.00  0.00     0.163 HD
BRANCH   3   6
ATOM      6  C   UNL     1      -0.830  -0.753   1.825  1.00  0.00     0.216 C 
BRANCH   6   7
ATOM      7  N   UNL     1       0.429  -1.199   2.383  1.00  0.00    -0.343 N 
ATOM      8  C   UNL     1       1.515  -1.841   1.835  1.00  0.00     0.253 C 
ATOM      9  O   UNL     1       2.575  -1.673   2.449  1.00  0.00    -0.269 OA
ATOM     10  H   UNL     1       0.527  -1.006   3.344  1.00  0.00     0.164 HD
BRANCH   8  11
ATOM     11  C   UNL     1       1.499  -2.863   0.724  1.00  0.00     0.063 A 
ATOM     12  C   UNL     1       0.805  -2.902  -0.508  1.00  0.00     0.051 A 
ATOM     13  C   UNL     1       0.916  -4.078  -1.299  1.00  0.00     0.027 A 
ATOM     14  C   UNL     1       1.734  -5.151  -0.949  1.00  0.00     0.002 A 
ATOM     15  C   UNL     1       2.337  -3.968   1.044  1.00  0.00     0.016 A 
ATOM     16  C   UNL     1       2.467  -5.086   0.219  1.00  0.00     0.001 A 
BRANCH  12  17
ATOM     17  N   UNL     1       0.101  -1.865  -1.157  1.00  0.00    -0.352 N 
ATOM     18  H   UNL     1      -0.646  -2.191  -1.710  1.00  0.00     0.167 HD
BRANCH  17  19
ATOM     19  C   UNL     1       0.240  -0.455  -1.184  1.00  0.00     0.077 A 
ATOM     20  C   UNL     1       2.700   2.287  -0.149  1.00  0.00     0.046 C 
ATOM     21  C   UNL     1       1.440   1.589  -0.583  1.00  0.00    -0.030 A 
ATOM     22  C   UNL     1       0.233   2.303  -0.606  1.00  0.00     0.006 A 
ATOM     23  C   UNL     1       1.444   0.221  -0.917  1.00  0.00     0.069 A 
ATOM     24  C   UNL     1      -0.949   1.681  -0.997  1.00  0.00     0.023 A 
ATOM     25  Cl  UNL     1       2.972  -0.590  -1.105  1.00  0.00    -0.082 Cl
ATOM     26  C   UNL     1      -0.942   0.321  -1.294  1.00  0.00     0.066 A 
ATOM     27  Cl  UNL     1      -2.462  -0.430  -1.669  1.00  0.00    -0.082 Cl
ENDBRANCH  17  19
ENDBRANCH  12  17
ENDBRANCH   8  11
ENDBRANCH   6   7
ENDBRANCH   3   6
ENDBRANCH   1   2
BRANCH   1  28
ATOM     28  C   UNL     1      -1.119  -3.721   3.966  1.00  0.00     0.023 C 
BRANCH  28  29
ATOM     29  C   UNL     1      -2.237  -4.075   4.948  1.00  0.00     0.023 C 
BRANCH  29  30
ATOM     30  C   UNL     1      -3.007  -5.332   4.573  1.00  0.00     0.116 C 
BRANCH  30  31
ATOM     31  N   UNL     1      -2.143  -6.499   4.490  1.00  0.00    -0.352 N 
ATOM     32  C   UNL     1      -2.401  -7.771   4.939  1.00  0.00     0.251 C 
ATOM     33  H   UNL     1      -1.269  -6.361   4.060  1.00  0.00     0.163 HD
ATOM     34  O   UNL     1      -1.530  -8.624   4.961  1.00  0.00    -0.269 OA
BRANCH  32  35
ATOM     35  C   UNL     1      -3.761  -8.068   5.426  1.00  0.00     0.039 A 
ATOM     36  C   UNL     1      -3.918  -8.605   6.703  1.00  0.00     0.014 A 
ATOM     37  C   UNL     1      -4.870  -7.744   4.639  1.00  0.00     0.014 A 
ATOM     38  C   UNL     1      -5.203  -8.772   7.217  1.00  0.00     0.010 A 
ATOM     39  C   UNL     1      -6.144  -7.842   5.182  1.00  0.00     0.010 A 
ATOM     40  C   UNL     1      -6.323  -8.364   6.473  1.00  0.00    -0.014 A 
BRANCH  40  41
ATOM     41  C   UNL     1      -7.693  -8.484   7.024  1.00  0.00     0.031 A 
ATOM     42  C   UNL     1      -8.687  -9.400   6.364  1.00  0.00     0.074 A 
ATOM     43  C   UNL     1      -8.059  -7.725   8.076  1.00  0.00     0.049 A 
ATOM     44  N   UNL     1      -9.944  -9.605   6.664  1.00  0.00    -0.248 NA
ATOM     45  C   UNL     1      -8.216 -10.168   5.199  1.00  0.00     0.031 C 
ATOM     46  C   UNL     1      -7.200  -6.765   8.774  1.00  0.00     0.029 A 
ATOM     47  N   UNL     1      -9.257  -7.639   8.740  1.00  0.00    -0.354 N 
ATOM     48  C   UNL     1     -10.416 -10.500   5.714  1.00  0.00     0.074 A 
ATOM     49  C   UNL     1      -9.328 -10.770   4.802  1.00  0.00     0.031 C 
ATOM     50  C   UNL     1      -7.891  -6.208   9.782  1.00  0.00     0.029 A 
ATOM     51  C   UNL     1      -9.249  -6.740   9.779  1.00  0.00     0.049 A 
ATOM     52  H   UNL     1     -10.048  -8.172   8.494  1.00  0.00     0.167 HD
ATOM     53  C   UNL     1     -11.643 -11.062   5.620  1.00  0.00     0.031 A 
ATOM     54  C   UNL     1     -10.230  -6.381  10.628  1.00  0.00     0.031 A 
ATOM     55  C   UNL     1     -12.715 -10.819   6.546  1.00  0.00     0.049 A 
ATOM     56  C   UNL     1     -11.583  -7.027  10.498  1.00  0.00     0.074 A 
ATOM     57  C   UNL     1     -13.968 -11.405   6.583  1.00  0.00     0.029 A 
ATOM     58  N   UNL     1     -12.660  -9.918   7.596  1.00  0.00    -0.354 N 
ATOM     59  N   UNL     1     -11.984  -7.943   9.650  1.00  0.00    -0.248 NA
ATOM     60  C   UNL     1     -12.615  -6.596  11.452  1.00  0.00     0.031 C 
ATOM     61  C   UNL     1     -14.692 -10.818   7.624  1.00  0.00     0.029 A 
ATOM     62  C   UNL     1     -13.869  -9.909   8.270  1.00  0.00     0.049 A 
ATOM     63  H   UNL     1     -11.879  -9.366   7.828  1.00  0.00     0.167 HD
ATOM     64  C   UNL     1     -13.301  -8.222   9.992  1.00  0.00     0.074 A 
ATOM     65  C   UNL     1     -13.624  -7.393  11.133  1.00  0.00     0.031 C 
ATOM     66  C   UNL     1     -14.167  -9.088   9.412  1.00  0.00     0.031 A 
BRANCH  53  67
ATOM     67  C   UNL     1     -11.901 -11.999   4.474  1.00  0.00    -0.014 A 
ATOM     68  C   UNL     1     -11.327 -13.278   4.434  1.00  0.00     0.009 A 
ATOM     69  C   UNL     1     -12.790 -11.620   3.455  1.00  0.00     0.009 A 
ATOM     70  C   UNL     1     -11.621 -14.152   3.386  1.00  0.00     0.001 A 
ATOM     71  C   UNL     1     -13.103 -12.506   2.423  1.00  0.00     0.001 A 
ATOM     72  C   UNL     1     -12.514 -13.769   2.386  1.00  0.00     0.000 A 
ENDBRANCH  53  67
BRANCH  54  73
ATOM     73  C   UNL     1      -9.984  -5.362  11.683  1.00  0.00    -0.014 A 
ATOM     74  C   UNL     1      -9.989  -5.725  13.040  1.00  0.00     0.009 A 
ATOM     75  C   UNL     1      -9.791  -4.014  11.344  1.00  0.00     0.009 A 
ATOM     76  C   UNL     1      -9.852  -4.753  14.034  1.00  0.00     0.001 A 
ATOM     77  C   UNL     1      -9.622  -3.049  12.340  1.00  0.00     0.001 A 
ATOM     78  C   UNL     1      -9.667  -3.417  13.683  1.00  0.00     0.000 A 
ENDBRANCH  54  73
BRANCH  66  79
ATOM     79  C   UNL     1     -15.529  -9.217  10.032  1.00  0.00    -0.014 A 
ATOM     80  C   UNL     1     -16.486  -8.198   9.915  1.00  0.00     0.009 A 
ATOM     81  C   UNL     1     -15.872 -10.400  10.707  1.00  0.00     0.009 A 
ATOM     82  C   UNL     1     -17.748  -8.346  10.493  1.00  0.00     0.001 A 
ATOM     83  C   UNL     1     -17.145 -10.558  11.256  1.00  0.00     0.001 A 
ATOM     84  C   UNL     1     -18.078  -9.527  11.157  1.00  0.00     0.000 A 
ENDBRANCH  66  79
ENDBRANCH  40  41
ENDBRANCH  32  35
ENDBRANCH  30  31
ENDBRANCH  29  30
ENDBRANCH  28  29
ENDBRANCH   1  28
TORSDOF 15
