REMARK SMILES Cc1ccc(CN2/C(=[NH+]/C(=O)CCC(=O)NCCCCNC(=O)c3ccc(-c4c5nc(c(-c6ccccc6)c6ccc([nH]6)c(-c6ccccc6)c6nc(c(-c7ccccc7)c7ccc4[nH]7)C=C6)C=C5)cc3)S[C@H]3CS(=O)(=O)C[C@@H]32)cc1
REMARK SMILES IDX 17 1 16 2 14 3 15 4 13 6 12 7 10 8 7 9 8 10 79 11 9 12 72 13
REMARK SMILES IDX 73 14 78 15 74 17 75 18 11 19 76 20 77 21 6 22 5 23 1 24
REMARK SMILES IDX 2 25 3 26 81 27 4 28 80 29 18 30 19 31 20 32 21 33 22 34
REMARK SMILES IDX 23 36 24 37 25 38 71 39 26 40 70 41 27 42 28 43 29 44 64 45
REMARK SMILES IDX 30 46 69 47 63 48 65 49 31 50 68 51 62 52 61 53 32 55 54 56
REMARK SMILES IDX 39 57 53 58 40 59 43 60 52 61 66 62 41 63 42 64 51 66 67 67
REMARK SMILES IDX 44 68 33 69 34 70 38 71 35 72 37 73 36 74 55 75 56 76 60 77
REMARK SMILES IDX 57 78 59 79 58 80 45 81 46 82 50 83 47 84 49 85 48 86
REMARK H PARENT 16 5 9 16 21 35 65 54 43 65
REMARK Flexibility Score: inf
ROOT
ATOM      1  C   UNL     1      -0.176  -3.634  -1.976  1.00  0.00     0.116 C 
ENDROOT
BRANCH   1   2
ATOM      2  N   UNL     1       0.264  -4.904  -1.462  1.00  0.00    -0.356 N 
ATOM      3  C   UNL     1      -0.621  -5.923  -1.203  1.00  0.00     0.220 C 
ATOM      4  O   UNL     1      -0.423  -6.656  -0.237  1.00  0.00    -0.275 OA
ATOM      5  H   UNL     1       1.224  -5.047  -1.291  1.00  0.00     0.163 HD
BRANCH   3   6
ATOM      6  C   UNL     1      -1.807  -6.101  -2.152  1.00  0.00     0.112 C 
BRANCH   6   7
ATOM      7  C   UNL     1      -3.203  -5.642  -1.652  1.00  0.00     0.138 C 
BRANCH   7   8
ATOM      8  C   UNL     1      -3.753  -4.306  -2.225  1.00  0.00     0.308 C 
ATOM      9  N   UNL     1      -4.822  -0.857  -1.081  1.00  0.00    -0.247 N 
ATOM     10  C   UNL     1      -4.771  -2.251  -1.574  1.00  0.00     0.314 C 
ATOM     11  C   UNL     1      -5.966  -0.156  -1.827  1.00  0.00     0.206 C 
ATOM     12  N   UNL     1      -3.989  -3.256  -1.309  1.00  0.00    -0.205 N 
ATOM     13  S   UNL     1      -6.104  -2.499  -2.818  1.00  0.00    -0.030 SA
ATOM     14  C   UNL     1      -5.996  -0.773  -3.233  1.00  0.00     0.120 C 
ATOM     15  C   UNL     1      -5.965   1.341  -2.046  1.00  0.00     0.187 C 
ATOM     16  H   UNL     1      -3.542  -3.286  -0.432  1.00  0.00     0.316 HD
ATOM     17  C   UNL     1      -6.937  -0.063  -4.173  1.00  0.00     0.156 C 
ATOM     18  S   UNL     1      -6.992   1.595  -3.507  1.00  0.00     0.155 S 
ATOM     19  O   UNL     1      -3.772  -4.175  -3.451  1.00  0.00    -0.247 OA
ATOM     20  O   UNL     1      -6.302   2.512  -4.407  1.00  0.00    -0.229 OA
ATOM     21  O   UNL     1      -8.340   1.851  -3.070  1.00  0.00    -0.229 OA
BRANCH   9  22
ATOM     22  C   UNL     1      -4.396  -0.238   0.308  1.00  0.00     0.273 C 
BRANCH  22  23
ATOM     23  C   UNL     1      -2.925   0.134   0.833  1.00  0.00    -0.007 A 
ATOM     24  C   UNL     1       1.395   0.570   0.687  1.00  0.00     0.044 C 
ATOM     25  C   UNL     1      -0.061   0.575   1.114  1.00  0.00    -0.051 A 
ATOM     26  C   UNL     1      -0.676  -0.557   1.658  1.00  0.00     0.004 A 
ATOM     27  C   UNL     1      -0.918   1.618   0.782  1.00  0.00     0.004 A 
ATOM     28  C   UNL     1      -2.093  -0.765   1.534  1.00  0.00     0.008 A 
ATOM     29  C   UNL     1      -2.334   1.414   0.714  1.00  0.00     0.008 A 
ENDBRANCH  22  23
ENDBRANCH   9  22
ENDBRANCH   7   8
ENDBRANCH   6   7
ENDBRANCH   3   6
ENDBRANCH   1   2
BRANCH   1  30
ATOM     30  C   UNL     1      -1.058  -3.086  -0.906  1.00  0.00     0.023 C 
BRANCH  30  31
ATOM     31  C   UNL     1      -1.610  -1.733  -1.181  1.00  0.00     0.023 C 
BRANCH  31  32
ATOM     32  C   UNL     1      -1.530  -0.804  -2.363  1.00  0.00     0.116 C 
BRANCH  32  33
ATOM     33  N   UNL     1      -2.551  -0.680  -3.388  1.00  0.00    -0.352 N 
ATOM     34  C   UNL     1      -3.108   0.465  -3.985  1.00  0.00     0.251 C 
ATOM     35  H   UNL     1      -2.912  -1.535  -3.717  1.00  0.00     0.163 HD
ATOM     36  O   UNL     1      -3.782   0.317  -5.005  1.00  0.00    -0.269 OA
BRANCH  34  37
ATOM     37  C   UNL     1      -2.978   1.884  -3.490  1.00  0.00     0.039 A 
ATOM     38  C   UNL     1      -2.950   2.875  -4.457  1.00  0.00     0.014 A 
ATOM     39  C   UNL     1      -2.205   2.119  -2.400  1.00  0.00     0.014 A 
ATOM     40  C   UNL     1      -1.721   3.443  -4.717  1.00  0.00     0.010 A 
ATOM     41  C   UNL     1      -0.917   2.396  -2.697  1.00  0.00     0.010 A 
ATOM     42  C   UNL     1      -0.683   2.984  -3.930  1.00  0.00    -0.014 A 
BRANCH  42  43
ATOM     43  C   UNL     1       0.702   2.929  -4.283  1.00  0.00     0.031 A 
ATOM     44  C   UNL     1       1.531   3.942  -3.638  1.00  0.00     0.074 A 
ATOM     45  C   UNL     1       1.066   1.745  -4.830  1.00  0.00     0.049 A 
ATOM     46  N   UNL     1       2.660   4.347  -4.079  1.00  0.00    -0.248 NA
ATOM     47  C   UNL     1       1.107   4.661  -2.426  1.00  0.00     0.031 C 
ATOM     48  C   UNL     1       2.352   1.067  -4.886  1.00  0.00     0.029 A 
ATOM     49  N   UNL     1       0.245   0.936  -5.617  1.00  0.00    -0.354 N 
ATOM     50  C   UNL     1       3.276   4.929  -2.994  1.00  0.00     0.074 A 
ATOM     51  C   UNL     1       2.223   5.311  -2.095  1.00  0.00     0.031 C 
ATOM     52  C   UNL     1       2.317   0.148  -5.875  1.00  0.00     0.029 A 
ATOM     53  C   UNL     1       1.043   0.298  -6.573  1.00  0.00     0.049 A 
ATOM     54  H   UNL     1      -0.728   0.831  -5.516  1.00  0.00     0.167 HD
ATOM     55  C   UNL     1       4.616   4.748  -2.856  1.00  0.00     0.031 A 
ATOM     56  C   UNL     1       0.912   0.708  -7.874  1.00  0.00     0.031 A 
ATOM     57  C   UNL     1       5.123   3.917  -3.953  1.00  0.00     0.049 A 
ATOM     58  C   UNL     1       2.086   1.565  -8.311  1.00  0.00     0.074 A 
ATOM     59  C   UNL     1       5.501   2.586  -4.027  1.00  0.00     0.029 A 
ATOM     60  N   UNL     1       4.901   4.332  -5.258  1.00  0.00    -0.354 N 
ATOM     61  N   UNL     1       2.882   2.194  -7.489  1.00  0.00    -0.248 NA
ATOM     62  C   UNL     1       2.470   1.754  -9.706  1.00  0.00     0.031 C 
ATOM     63  C   UNL     1       5.454   2.196  -5.397  1.00  0.00     0.029 A 
ATOM     64  C   UNL     1       5.050   3.288  -6.145  1.00  0.00     0.049 A 
ATOM     65  H   UNL     1       4.668   5.253  -5.516  1.00  0.00     0.167 HD
ATOM     66  C   UNL     1       3.873   2.826  -8.190  1.00  0.00     0.074 A 
ATOM     67  C   UNL     1       3.565   2.526  -9.577  1.00  0.00     0.031 C 
ATOM     68  C   UNL     1       4.862   3.539  -7.570  1.00  0.00     0.031 A 
BRANCH  55  69
ATOM     69  C   UNL     1       5.416   5.049  -1.619  1.00  0.00    -0.014 A 
ATOM     70  C   UNL     1       6.721   4.534  -1.529  1.00  0.00     0.009 A 
ATOM     71  C   UNL     1       4.982   5.826  -0.532  1.00  0.00     0.009 A 
ATOM     72  C   UNL     1       7.537   4.759  -0.416  1.00  0.00     0.001 A 
ATOM     73  C   UNL     1       5.787   6.044   0.595  1.00  0.00     0.001 A 
ATOM     74  C   UNL     1       7.067   5.513   0.650  1.00  0.00     0.000 A 
ENDBRANCH  55  69
BRANCH  56  75
ATOM     75  C   UNL     1      -0.522   0.959  -8.244  1.00  0.00    -0.014 A 
ATOM     76  C   UNL     1      -1.393  -0.151  -8.295  1.00  0.00     0.009 A 
ATOM     77  C   UNL     1      -1.088   2.238  -8.112  1.00  0.00     0.009 A 
ATOM     78  C   UNL     1      -2.768   0.001  -8.082  1.00  0.00     0.001 A 
ATOM     79  C   UNL     1      -2.469   2.385  -7.916  1.00  0.00     0.001 A 
ATOM     80  C   UNL     1      -3.300   1.268  -7.863  1.00  0.00     0.000 A 
ENDBRANCH  56  75
BRANCH  68  81
ATOM     81  C   UNL     1       5.786   4.548  -8.219  1.00  0.00    -0.014 A 
ATOM     82  C   UNL     1       5.627   5.058  -9.509  1.00  0.00     0.009 A 
ATOM     83  C   UNL     1       6.809   5.143  -7.437  1.00  0.00     0.009 A 
ATOM     84  C   UNL     1       6.463   6.070 -10.002  1.00  0.00     0.001 A 
ATOM     85  C   UNL     1       7.591   6.202  -7.892  1.00  0.00     0.001 A 
ATOM     86  C   UNL     1       7.430   6.654  -9.189  1.00  0.00     0.000 A 
ENDBRANCH  68  81
ENDBRANCH  42  43
ENDBRANCH  34  37
ENDBRANCH  32  33
ENDBRANCH  31  32
ENDBRANCH  30  31
ENDBRANCH   1  30
TORSDOF 15
