REMARK SMILES Cc1cc(/C=C2/C(=O)NC(=S)[NH+]=C2NCCCCNC(=O)c2ccc(-c3c4nc(c(-c5ccccc5)c5ccc([nH]5)c(-c5ccccc5)c5nc(c(-c6ccccc6)c6ccc3[nH]6)C=C5)C=C4)cc2)c(C)n1-c1cccc(C(=O)[O-])c1
REMARK SMILES IDX 16 1 15 2 14 3 5 4 6 5 7 6 13 7 8 8 9 9 12 10 10 11 11 15
REMARK SMILES IDX 4 16 1 17 2 18 3 19 72 20 70 21 71 22 73 23 74 24 81 25
REMARK SMILES IDX 75 26 77 27 76 28 78 29 79 30 80 31 17 32 18 33 19 34 20 35
REMARK SMILES IDX 21 37 22 38 23 39 69 40 24 41 68 42 25 43 26 44 27 45 62 46
REMARK SMILES IDX 28 47 67 48 61 49 63 50 29 51 66 52 60 53 59 54 30 56 52 57
REMARK SMILES IDX 37 58 51 59 38 60 41 61 50 62 64 63 39 64 40 65 49 67 65 68
REMARK SMILES IDX 42 69 31 70 32 71 36 72 33 73 35 74 34 75 53 76 54 77 58 78
REMARK SMILES IDX 55 79 57 80 56 81 43 82 44 83 48 84 45 85 47 86 46 87
REMARK H PARENT 9 12 12 13 14 14 19 36 63 55 41 66
REMARK Flexibility Score: inf
ROOT
ATOM      1  C   UNL     1      -2.423  -0.048   2.538  1.00  0.00     0.039 C 
ENDROOT
BRANCH   1   2
ATOM      2  C   UNL     1      -2.112  -1.115   3.602  1.00  0.00     0.194 C 
BRANCH   2   3
ATOM      3  N   UNL     1      -1.636  -0.778   4.931  1.00  0.00    -0.305 N 
ATOM      4  C   UNL     1       0.762  -2.824   4.238  1.00  0.00     0.032 C 
ATOM      5  C   UNL     1      -0.117  -2.844   5.267  1.00  0.00     0.128 C 
ATOM      6  C   UNL     1      -0.108  -4.083   6.083  1.00  0.00     0.319 C 
ATOM      7  C   UNL     1      -1.056  -1.759   5.745  1.00  0.00     0.234 C 
ATOM      8  O   UNL     1       0.278  -5.173   5.677  1.00  0.00    -0.250 OA
ATOM      9  N   UNL     1      -0.541  -3.901   7.362  1.00  0.00    -0.229 N 
ATOM     10  N   UNL     1      -1.433  -1.738   6.999  1.00  0.00    -0.236 N 
ATOM     11  C   UNL     1      -1.079  -2.746   7.864  1.00  0.00     0.295 C 
ATOM     12  H   UNL     1      -0.461  -4.665   7.977  1.00  0.00     0.268 HD
ATOM     13  H   UNL     1      -1.979  -0.988   7.328  1.00  0.00     0.268 HD
ATOM     14  H   UNL     1      -1.721   0.145   5.263  1.00  0.00     0.256 HD
ATOM     15  S   UNL     1      -1.366  -2.703   9.518  1.00  0.00    -0.005 S 
BRANCH   4  16
ATOM     16  C   UNL     1       1.045  -1.766   3.317  1.00  0.00    -0.003 A 
ATOM     17  C   UNL     1       1.411  -0.360  -0.086  1.00  0.00     0.065 C 
ATOM     18  C   UNL     1       1.233  -0.633   1.372  1.00  0.00     0.020 A 
ATOM     19  C   UNL     1       1.177  -1.904   1.927  1.00  0.00     0.031 A 
ATOM     20  N   UNL     1       1.142   0.302   2.416  1.00  0.00    -0.318 N 
ATOM     21  C   UNL     1       1.250  -0.433   3.618  1.00  0.00     0.027 A 
ATOM     22  C   UNL     1       1.380   0.134   4.992  1.00  0.00     0.065 C 
BRANCH  20  23
ATOM     23  C   UNL     1       0.708   1.691   2.359  1.00  0.00     0.046 A 
ATOM     24  C   UNL     1       0.829   2.668   3.888  1.00  0.00     0.026 A 
ATOM     25  C   UNL     1      -0.521   2.141   1.115  1.00  0.00     0.036 A 
ATOM     26  C   UNL     1      -0.362   4.007   4.212  1.00  0.00     0.003 A 
ATOM     27  C   UNL     1      -1.592   3.579   1.362  1.00  0.00    -0.001 A 
ATOM     28  C   UNL     1      -1.536   4.509   2.901  1.00  0.00     0.010 A 
BRANCH  27  29
ATOM     29  C   UNL     1      -2.591   3.975   0.345  1.00  0.00     0.072 C 
ATOM     30  O   UNL     1      -3.240   5.003   0.349  1.00  0.00    -0.545 OA
ATOM     31  O   UNL     1      -2.789   3.012  -0.573  1.00  0.00    -0.545 OA
ENDBRANCH  27  29
ENDBRANCH  20  23
ENDBRANCH   4  16
ENDBRANCH   2   3
ENDBRANCH   1   2
BRANCH   1  32
ATOM     32  C   UNL     1      -2.492   1.487   2.675  1.00  0.00     0.024 C 
BRANCH  32  33
ATOM     33  C   UNL     1      -1.160   2.413   3.157  1.00  0.00     0.116 C 
BRANCH  33  34
ATOM     34  N   UNL     1       0.220   3.717   2.298  1.00  0.00    -0.352 N 
ATOM     35  C   UNL     1       1.231   4.905   2.571  1.00  0.00     0.251 C 
ATOM     36  H   UNL     1       0.259   3.513   1.336  1.00  0.00     0.163 HD
ATOM     37  O   UNL     1       1.879   5.255   1.575  1.00  0.00    -0.269 OA
BRANCH  35  38
ATOM     38  C   UNL     1       1.489   5.711   3.964  1.00  0.00     0.039 A 
ATOM     39  C   UNL     1       0.541   6.619   4.424  1.00  0.00     0.014 A 
ATOM     40  C   UNL     1       2.514   5.476   4.918  1.00  0.00     0.014 A 
ATOM     41  C   UNL     1       0.466   7.007   5.833  1.00  0.00     0.010 A 
ATOM     42  C   UNL     1       2.517   6.037   6.328  1.00  0.00     0.010 A 
ATOM     43  C   UNL     1       1.445   6.783   6.892  1.00  0.00    -0.014 A 
BRANCH  43  44
ATOM     44  C   UNL     1       1.417   7.923   8.224  1.00  0.00     0.031 A 
ATOM     45  C   UNL     1       1.197   9.137   7.399  1.00  0.00     0.074 A 
ATOM     46  C   UNL     1       1.691   8.256   9.595  1.00  0.00     0.049 A 
ATOM     47  N   UNL     1       2.137   9.298   6.521  1.00  0.00    -0.248 NA
ATOM     48  C   UNL     1      -0.054   9.811   7.062  1.00  0.00     0.031 C 
ATOM     49  C   UNL     1       2.270   7.419  10.676  1.00  0.00     0.029 A 
ATOM     50  N   UNL     1       1.548   9.492  10.393  1.00  0.00    -0.354 N 
ATOM     51  C   UNL     1       1.739  10.222   5.602  1.00  0.00     0.074 A 
ATOM     52  C   UNL     1       0.313  10.394   5.904  1.00  0.00     0.031 C 
ATOM     53  C   UNL     1       2.266   8.030  11.911  1.00  0.00     0.029 A 
ATOM     54  C   UNL     1       1.754   9.408  11.862  1.00  0.00     0.049 A 
ATOM     55  H   UNL     1       1.322  10.348   9.962  1.00  0.00     0.167 HD
ATOM     56  C   UNL     1       2.729  11.139   5.401  1.00  0.00     0.031 A 
ATOM     57  C   UNL     1       1.649  10.370  12.914  1.00  0.00     0.031 A 
ATOM     58  C   UNL     1       2.631  12.149   6.431  1.00  0.00     0.049 A 
ATOM     59  C   UNL     1       2.040  11.620  12.268  1.00  0.00     0.074 A 
ATOM     60  C   UNL     1       1.526  12.800   6.956  1.00  0.00     0.029 A 
ATOM     61  N   UNL     1       3.598  12.147   7.413  1.00  0.00    -0.354 N 
ATOM     62  N   UNL     1       3.285  11.895  12.028  1.00  0.00    -0.248 NA
ATOM     63  C   UNL     1       1.073  12.650  11.927  1.00  0.00     0.031 C 
ATOM     64  C   UNL     1       1.670  12.636   8.346  1.00  0.00     0.029 A 
ATOM     65  C   UNL     1       3.017  12.461   8.621  1.00  0.00     0.049 A 
ATOM     66  H   UNL     1       4.553  11.952   7.274  1.00  0.00     0.167 HD
ATOM     67  C   UNL     1       3.159  12.737  10.971  1.00  0.00     0.074 A 
ATOM     68  C   UNL     1       1.858  13.375  11.129  1.00  0.00     0.031 C 
ATOM     69  C   UNL     1       3.780  12.351   9.830  1.00  0.00     0.031 A 
BRANCH  56  70
ATOM     70  C   UNL     1       4.045  10.459   4.999  1.00  0.00    -0.014 A 
ATOM     71  C   UNL     1       4.563  10.683   3.724  1.00  0.00     0.009 A 
ATOM     72  C   UNL     1       4.693   9.475   5.795  1.00  0.00     0.009 A 
ATOM     73  C   UNL     1       5.635   9.912   3.246  1.00  0.00     0.001 A 
ATOM     74  C   UNL     1       5.715   8.666   5.300  1.00  0.00     0.001 A 
ATOM     75  C   UNL     1       6.187   8.886   4.018  1.00  0.00     0.000 A 
ENDBRANCH  56  70
BRANCH  57  76
ATOM     76  C   UNL     1       1.575  10.768  14.485  1.00  0.00    -0.014 A 
ATOM     77  C   UNL     1       2.248  11.950  14.996  1.00  0.00     0.009 A 
ATOM     78  C   UNL     1       0.511  10.369  15.314  1.00  0.00     0.009 A 
ATOM     79  C   UNL     1       1.841  12.699  16.140  1.00  0.00     0.001 A 
ATOM     80  C   UNL     1       0.115  11.109  16.483  1.00  0.00     0.001 A 
ATOM     81  C   UNL     1       0.752  12.285  16.879  1.00  0.00     0.000 A 
ENDBRANCH  57  76
BRANCH  69  82
ATOM     82  C   UNL     1       5.133  11.681   9.937  1.00  0.00    -0.014 A 
ATOM     83  C   UNL     1       5.435  10.555  10.732  1.00  0.00     0.009 A 
ATOM     84  C   UNL     1       6.185  12.254   9.210  1.00  0.00     0.009 A 
ATOM     85  C   UNL     1       6.740  10.047  10.815  1.00  0.00     0.001 A 
ATOM     86  C   UNL     1       7.478  11.727   9.261  1.00  0.00     0.001 A 
ATOM     87  C   UNL     1       7.759  10.632  10.072  1.00  0.00     0.000 A 
ENDBRANCH  69  82
ENDBRANCH  43  44
ENDBRANCH  35  38
ENDBRANCH  33  34
ENDBRANCH  32  33
ENDBRANCH   1  32
TORSDOF 13
