REMARK SMILES Cc1ccccc1[C@@H]1[NH2+][C@@H](C(=O)NCCCCNC(=O)c2ccc(-c3c4nc(c(-c5ccccc5)c5ccc([nH]5)c(-c5ccccc5)c5nc(c(-c6ccccc6)c6ccc3[nH]6)C=C5)C=C4)cc2)CC2=c3ccccc3=N[C@H]21
REMARK SMILES IDX 16 1 15 2 14 3 13 4 11 5 12 6 10 8 8 9 9 10 78 11 70 14
REMARK SMILES IDX 77 15 69 16 71 17 76 18 72 19 75 20 73 21 74 22 7 23 1 24
REMARK SMILES IDX 2 25 3 26 4 27 6 28 5 29 17 30 18 31 19 32 20 34 21 35 22 36
REMARK SMILES IDX 68 37 23 38 67 39 24 40 25 41 26 42 61 43 27 44 66 45 60 46
REMARK SMILES IDX 62 47 28 48 65 49 59 50 58 51 29 53 51 54 36 55 50 56 37 57
REMARK SMILES IDX 40 58 49 59 63 60 38 61 39 62 48 64 64 65 41 66 30 67 31 68
REMARK SMILES IDX 35 69 32 70 34 71 33 72 52 73 53 74 57 75 54 76 56 77 55 78
REMARK SMILES IDX 42 79 43 80 47 81 44 82 46 83 45 84
REMARK H PARENT 13 7 9 12 9 13 18 33 62 52 40 63
REMARK Flexibility Score: inf
ROOT
ATOM      1  C   UNL     1      -3.207   8.317  -1.004  1.00  0.00     0.023 C 
ENDROOT
BRANCH   1   2
ATOM      2  C   UNL     1      -2.964   7.216   0.024  1.00  0.00     0.023 C 
BRANCH   2   3
ATOM      3  C   UNL     1      -3.844   5.964  -0.127  1.00  0.00     0.116 C 
BRANCH   3   4
ATOM      4  N   UNL     1      -3.416   4.952  -1.087  1.00  0.00    -0.351 N 
ATOM      5  C   UNL     1      -2.413   4.019  -1.038  1.00  0.00     0.278 C 
ATOM      6  O   UNL     1      -2.600   2.971  -1.671  1.00  0.00    -0.268 OA
ATOM      7  H   UNL     1      -3.942   4.936  -1.919  1.00  0.00     0.163 HD
BRANCH   5   8
ATOM      8  C   UNL     1      -1.030   4.320  -0.397  1.00  0.00     0.277 C 
ATOM      9  C   UNL     1       0.624   2.476   0.332  1.00  0.00     0.243 C 
ATOM     10  N   UNL     1      -0.058   3.241  -0.746  1.00  0.00    -0.327 N 
ATOM     11  C   UNL     1       0.573   3.030   1.790  1.00  0.00     0.196 C 
ATOM     12  H   UNL     1      -0.564   2.561  -1.314  1.00  0.00     0.347 HD
ATOM     13  H   UNL     1       0.706   3.749  -1.191  1.00  0.00     0.347 HD
ATOM     14  C   UNL     1      -0.744   3.689   1.994  1.00  0.00    -0.024 C 
ATOM     15  N   UNL     1       0.611   1.958   2.835  1.00  0.00    -0.270 NA
ATOM     16  C   UNL     1      -1.061   4.778   1.061  1.00  0.00     0.109 C 
ATOM     17  C   UNL     1      -1.452   3.124   2.958  1.00  0.00     0.002 A 
ATOM     18  C   UNL     1      -0.522   2.102   3.456  1.00  0.00     0.066 A 
ATOM     19  C   UNL     1      -2.768   3.287   3.478  1.00  0.00     0.010 A 
ATOM     20  C   UNL     1      -0.981   1.342   4.639  1.00  0.00     0.028 A 
ATOM     21  C   UNL     1      -3.139   2.520   4.515  1.00  0.00     0.001 A 
ATOM     22  C   UNL     1      -2.216   1.572   5.120  1.00  0.00     0.002 A 
BRANCH   9  23
ATOM     23  C   UNL     1       2.089   2.211  -0.055  1.00  0.00     0.015 A 
ATOM     24  C   UNL     1       2.717   4.702  -0.319  1.00  0.00     0.045 C 
ATOM     25  C   UNL     1       3.037   3.231  -0.322  1.00  0.00    -0.042 A 
ATOM     26  C   UNL     1       4.385   2.881  -0.531  1.00  0.00     0.004 A 
ATOM     27  C   UNL     1       4.798   1.551  -0.521  1.00  0.00     0.000 A 
ATOM     28  C   UNL     1       2.530   0.870  -0.069  1.00  0.00     0.010 A 
ATOM     29  C   UNL     1       3.868   0.544  -0.302  1.00  0.00     0.001 A 
ENDBRANCH   9  23
ENDBRANCH   5   8
ENDBRANCH   3   4
ENDBRANCH   2   3
ENDBRANCH   1   2
BRANCH   1  30
ATOM     30  C   UNL     1      -4.548   9.025  -0.855  1.00  0.00     0.116 C 
BRANCH  30  31
ATOM     31  N   UNL     1      -4.539  10.234  -0.035  1.00  0.00    -0.352 N 
ATOM     32  C   UNL     1      -5.631  11.004   0.365  1.00  0.00     0.251 C 
ATOM     33  H   UNL     1      -3.656  10.542   0.271  1.00  0.00     0.163 HD
ATOM     34  O   UNL     1      -5.492  11.979   1.065  1.00  0.00    -0.269 OA
BRANCH  32  35
ATOM     35  C   UNL     1      -6.991  10.508   0.018  1.00  0.00     0.039 A 
ATOM     36  C   UNL     1      -7.881  10.275   1.069  1.00  0.00     0.014 A 
ATOM     37  C   UNL     1      -7.261  10.021  -1.258  1.00  0.00     0.014 A 
ATOM     38  C   UNL     1      -8.882   9.321   0.905  1.00  0.00     0.010 A 
ATOM     39  C   UNL     1      -8.186   9.002  -1.395  1.00  0.00     0.010 A 
ATOM     40  C   UNL     1      -8.938   8.597  -0.290  1.00  0.00    -0.014 A 
BRANCH  40  41
ATOM     41  C   UNL     1      -9.655   7.329  -0.392  1.00  0.00     0.031 A 
ATOM     42  C   UNL     1     -10.985   7.272  -1.023  1.00  0.00     0.074 A 
ATOM     43  C   UNL     1      -9.156   6.199   0.161  1.00  0.00     0.049 A 
ATOM     44  N   UNL     1     -11.967   6.563  -0.570  1.00  0.00    -0.248 NA
ATOM     45  C   UNL     1     -11.315   8.053  -2.206  1.00  0.00     0.031 C 
ATOM     46  C   UNL     1      -9.712   4.852   0.052  1.00  0.00     0.029 A 
ATOM     47  N   UNL     1      -8.177   6.082   1.147  1.00  0.00    -0.354 N 
ATOM     48  C   UNL     1     -12.939   6.562  -1.542  1.00  0.00     0.074 A 
ATOM     49  C   UNL     1     -12.529   7.574  -2.493  1.00  0.00     0.031 C 
ATOM     50  C   UNL     1      -9.326   4.145   1.127  1.00  0.00     0.029 A 
ATOM     51  C   UNL     1      -8.580   5.038   1.997  1.00  0.00     0.049 A 
ATOM     52  H   UNL     1      -7.361   6.627   1.232  1.00  0.00     0.167 HD
ATOM     53  C   UNL     1     -13.909   5.604  -1.551  1.00  0.00     0.031 A 
ATOM     54  C   UNL     1      -8.736   5.169   3.344  1.00  0.00     0.031 A 
ATOM     55  C   UNL     1     -13.774   4.656  -0.449  1.00  0.00     0.049 A 
ATOM     56  C   UNL     1     -10.127   4.817   3.823  1.00  0.00     0.074 A 
ATOM     57  C   UNL     1     -13.260   3.371  -0.380  1.00  0.00     0.029 A 
ATOM     58  N   UNL     1     -13.946   5.082   0.862  1.00  0.00    -0.354 N 
ATOM     59  N   UNL     1     -11.139   4.614   3.028  1.00  0.00    -0.248 NA
ATOM     60  C   UNL     1     -10.511   4.772   5.234  1.00  0.00     0.031 C 
ATOM     61  C   UNL     1     -13.075   3.043   0.986  1.00  0.00     0.029 A 
ATOM     62  C   UNL     1     -13.486   4.123   1.745  1.00  0.00     0.049 A 
ATOM     63  H   UNL     1     -14.341   5.945   1.125  1.00  0.00     0.167 HD
ATOM     64  C   UNL     1     -12.284   4.482   3.770  1.00  0.00     0.074 A 
ATOM     65  C   UNL     1     -11.835   4.553   5.147  1.00  0.00     0.031 C 
ATOM     66  C   UNL     1     -13.509   4.364   3.180  1.00  0.00     0.031 A 
BRANCH  53  67
ATOM     67  C   UNL     1     -14.770   5.355  -2.766  1.00  0.00    -0.014 A 
ATOM     68  C   UNL     1     -15.159   4.043  -3.094  1.00  0.00     0.009 A 
ATOM     69  C   UNL     1     -15.183   6.363  -3.652  1.00  0.00     0.009 A 
ATOM     70  C   UNL     1     -15.810   3.742  -4.297  1.00  0.00     0.001 A 
ATOM     71  C   UNL     1     -15.791   6.065  -4.880  1.00  0.00     0.001 A 
ATOM     72  C   UNL     1     -16.091   4.750  -5.209  1.00  0.00     0.000 A 
ENDBRANCH  53  67
BRANCH  54  73
ATOM     73  C   UNL     1      -7.886   6.228   3.949  1.00  0.00    -0.014 A 
ATOM     74  C   UNL     1      -6.489   6.042   3.935  1.00  0.00     0.009 A 
ATOM     75  C   UNL     1      -8.394   7.517   4.159  1.00  0.00     0.009 A 
ATOM     76  C   UNL     1      -5.625   7.137   3.995  1.00  0.00     0.001 A 
ATOM     77  C   UNL     1      -7.522   8.608   4.234  1.00  0.00     0.001 A 
ATOM     78  C   UNL     1      -6.144   8.423   4.110  1.00  0.00     0.000 A 
ENDBRANCH  54  73
BRANCH  66  79
ATOM     79  C   UNL     1     -14.838   4.393   3.890  1.00  0.00    -0.014 A 
ATOM     80  C   UNL     1     -15.066   5.031   5.117  1.00  0.00     0.009 A 
ATOM     81  C   UNL     1     -15.968   3.847   3.240  1.00  0.00     0.009 A 
ATOM     82  C   UNL     1     -16.345   5.071   5.691  1.00  0.00     0.001 A 
ATOM     83  C   UNL     1     -17.251   3.922   3.788  1.00  0.00     0.001 A 
ATOM     84  C   UNL     1     -17.437   4.523   5.025  1.00  0.00     0.000 A 
ENDBRANCH  66  79
ENDBRANCH  40  41
ENDBRANCH  32  35
ENDBRANCH  30  31
ENDBRANCH   1  30
TORSDOF 12
