REMARK SMILES COC(=O)c1c(NC(=O)[C@@H]2[C@H]3CC[C@H](CC3)[C@H]2C(=O)NCCCCNC(=O)c2ccc(-c3c4nc(c(-c5ccccc5)c5ccc([nH]5)c(-c5ccccc5)c5nc(c(-c6ccccc6)c6ccc3[nH]6)C=C5)C=C4)cc2)sc(C)c1-c1ccc(C)cc1
REMARK SMILES IDX 21 1 20 2 18 3 19 4 17 6 10 7 11 8 16 9 12 10 14 11 15 12
REMARK SMILES IDX 13 13 8 14 7 15 9 17 6 18 5 19 79 20 76 21 77 22 78 23 3 24
REMARK SMILES IDX 4 25 2 26 1 27 80 28 81 29 86 30 82 31 85 32 83 33 84 34
REMARK SMILES IDX 22 35 23 36 24 37 25 38 26 39 27 41 28 42 29 43 75 44 30 45
REMARK SMILES IDX 74 46 31 47 32 48 33 49 68 50 34 51 73 52 67 53 69 54 35 55
REMARK SMILES IDX 72 56 66 57 65 58 36 60 58 61 43 62 57 63 44 64 47 65 56 66
REMARK SMILES IDX 70 67 45 68 46 69 55 71 71 72 48 73 37 74 38 75 42 76 39 77
REMARK SMILES IDX 41 78 40 79 59 80 60 81 64 82 61 83 63 84 62 85 49 86 50 87
REMARK SMILES IDX 54 88 51 89 53 90 52 91
REMARK H PARENT 20 5 7 16 25 40 69 59 47 70
REMARK Flexibility Score: inf
ROOT
ATOM      1  C   UNL     1       5.708   3.769   5.349  1.00  0.00     0.116 C 
ENDROOT
BRANCH   1   2
ATOM      2  N   UNL     1       4.881   4.394   4.351  1.00  0.00    -0.356 N 
ATOM      3  C   UNL     1       3.906   5.325   4.497  1.00  0.00     0.224 C 
ATOM      4  O   UNL     1       3.637   5.974   3.478  1.00  0.00    -0.275 OA
ATOM      5  H   UNL     1       5.048   4.103   3.426  1.00  0.00     0.163 HD
BRANCH   3   6
ATOM      6  C   UNL     1       3.149   5.610   5.805  1.00  0.00     0.094 C 
ATOM      7  C   UNL     1       2.578   4.411   6.568  1.00  0.00     0.094 C 
ATOM      8  C   UNL     1       2.824   4.660   8.097  1.00  0.00     0.002 C 
ATOM      9  C   UNL     1       4.327   4.887   8.400  1.00  0.00     0.005 C 
ATOM     10  C   UNL     1       2.107   5.951   8.531  1.00  0.00     0.005 C 
ATOM     11  C   UNL     1       3.756   6.675   6.746  1.00  0.00     0.002 C 
ATOM     12  C   UNL     1       4.862   6.097   7.623  1.00  0.00     0.005 C 
ATOM     13  C   UNL     1       2.620   7.138   7.700  1.00  0.00     0.005 C 
BRANCH   7  14
ATOM     14  C   UNL     1       1.124   3.877   6.358  1.00  0.00     0.229 C 
ATOM     15  N   UNL     1      -0.030   4.571   6.152  1.00  0.00    -0.317 N 
ATOM     16  H   UNL     1      -0.827   4.105   6.494  1.00  0.00     0.170 HD
ATOM     17  O   UNL     1       0.954   2.669   6.614  1.00  0.00    -0.274 OA
BRANCH  15  18
ATOM     18  C   UNL     1      -0.323   5.782   5.569  1.00  0.00     0.111 A 
ATOM     19  C   UNL     1      -1.456   6.590   5.651  1.00  0.00     0.102 A 
ATOM     20  C   UNL     1      -1.139   7.906   5.108  1.00  0.00     0.012 A 
ATOM     21  S   UNL     1       0.440   6.238   4.108  1.00  0.00    -0.122 S 
ATOM     22  C   UNL     1       0.115   7.877   4.508  1.00  0.00     0.012 A 
ATOM     23  C   UNL     1       1.070   8.947   4.107  1.00  0.00     0.057 C 
BRANCH  19  24
ATOM     24  C   UNL     1      -2.718   6.125   6.216  1.00  0.00     0.341 C 
ATOM     25  O   UNL     1      -2.807   5.167   6.963  1.00  0.00    -0.246 OA
BRANCH  24  26
ATOM     26  O   UNL     1      -3.780   6.795   5.682  1.00  0.00    -0.465 OA
ATOM     27  C   UNL     1      -5.057   6.187   5.870  1.00  0.00     0.282 C 
ENDBRANCH  24  26
ENDBRANCH  19  24
BRANCH  20  28
ATOM     28  C   UNL     1      -1.937   9.129   5.120  1.00  0.00    -0.016 A 
ATOM     29  C   UNL     1      -2.478   9.652   6.298  1.00  0.00     0.009 A 
ATOM     30  C   UNL     1      -2.192   9.781   3.906  1.00  0.00     0.009 A 
ATOM     31  C   UNL     1      -3.267  10.809   6.254  1.00  0.00     0.004 A 
ATOM     32  C   UNL     1      -2.965  10.941   3.864  1.00  0.00     0.004 A 
ATOM     33  C   UNL     1      -3.512  11.463   5.038  1.00  0.00    -0.051 A 
ATOM     34  C   UNL     1      -4.391  12.678   4.986  1.00  0.00     0.044 C 
ENDBRANCH  20  28
ENDBRANCH  15  18
ENDBRANCH   7  14
ENDBRANCH   3   6
ENDBRANCH   1   2
BRANCH   1  35
ATOM     35  C   UNL     1       6.308   2.433   4.944  1.00  0.00     0.023 C 
BRANCH  35  36
ATOM     36  C   UNL     1       7.311   2.473   3.798  1.00  0.00     0.023 C 
BRANCH  36  37
ATOM     37  C   UNL     1       8.304   3.628   3.813  1.00  0.00     0.116 C 
BRANCH  37  38
ATOM     38  N   UNL     1       9.029   3.786   5.069  1.00  0.00    -0.352 N 
ATOM     39  C   UNL     1      10.368   4.023   5.268  1.00  0.00     0.251 C 
ATOM     40  H   UNL     1       8.484   3.712   5.886  1.00  0.00     0.163 HD
ATOM     41  O   UNL     1      10.828   4.143   6.397  1.00  0.00    -0.269 OA
BRANCH  39  42
ATOM     42  C   UNL     1      11.255   4.056   4.094  1.00  0.00     0.039 A 
ATOM     43  C   UNL     1      12.291   3.123   4.022  1.00  0.00     0.014 A 
ATOM     44  C   UNL     1      10.973   4.905   3.022  1.00  0.00     0.014 A 
ATOM     45  C   UNL     1      12.985   2.967   2.824  1.00  0.00     0.010 A 
ATOM     46  C   UNL     1      11.612   4.693   1.807  1.00  0.00     0.010 A 
ATOM     47  C   UNL     1      12.610   3.711   1.694  1.00  0.00    -0.014 A 
BRANCH  47  48
ATOM     48  C   UNL     1      13.235   3.462   0.373  1.00  0.00     0.031 A 
ATOM     49  C   UNL     1      14.036   4.544  -0.289  1.00  0.00     0.074 A 
ATOM     50  C   UNL     1      13.013   2.294  -0.262  1.00  0.00     0.049 A 
ATOM     51  N   UNL     1      14.587   4.553  -1.475  1.00  0.00    -0.248 NA
ATOM     52  C   UNL     1      14.213   5.793   0.470  1.00  0.00     0.031 C 
ATOM     53  C   UNL     1      12.210   1.182   0.254  1.00  0.00     0.029 A 
ATOM     54  N   UNL     1      13.441   1.852  -1.488  1.00  0.00    -0.354 N 
ATOM     55  C   UNL     1      15.150   5.814  -1.615  1.00  0.00     0.074 A 
ATOM     56  C   UNL     1      14.837   6.557  -0.414  1.00  0.00     0.031 C 
ATOM     57  C   UNL     1      12.231   0.175  -0.636  1.00  0.00     0.029 A 
ATOM     58  C   UNL     1      13.015   0.583  -1.796  1.00  0.00     0.049 A 
ATOM     59  H   UNL     1      14.000   2.394  -2.091  1.00  0.00     0.167 HD
ATOM     60  C   UNL     1      15.880   6.306  -2.643  1.00  0.00     0.031 A 
ATOM     61  C   UNL     1      13.233  -0.167  -2.892  1.00  0.00     0.031 A 
ATOM     62  C   UNL     1      16.217   5.559  -3.823  1.00  0.00     0.049 A 
ATOM     63  C   UNL     1      14.066   0.392  -4.010  1.00  0.00     0.074 A 
ATOM     64  C   UNL     1      17.005   5.946  -4.893  1.00  0.00     0.029 A 
ATOM     65  N   UNL     1      15.790   4.267  -4.084  1.00  0.00    -0.354 N 
ATOM     66  N   UNL     1      14.640   1.567  -4.102  1.00  0.00    -0.248 NA
ATOM     67  C   UNL     1      14.286  -0.481  -5.171  1.00  0.00     0.031 C 
ATOM     68  C   UNL     1      17.029   4.896  -5.817  1.00  0.00     0.029 A 
ATOM     69  C   UNL     1      16.288   3.844  -5.303  1.00  0.00     0.049 A 
ATOM     70  H   UNL     1      15.217   3.730  -3.490  1.00  0.00     0.167 HD
ATOM     71  C   UNL     1      15.310   1.565  -5.318  1.00  0.00     0.074 A 
ATOM     72  C   UNL     1      15.079   0.269  -5.924  1.00  0.00     0.031 C 
ATOM     73  C   UNL     1      16.050   2.549  -5.884  1.00  0.00     0.031 A 
BRANCH  60  74
ATOM     74  C   UNL     1      16.361   7.722  -2.523  1.00  0.00    -0.014 A 
ATOM     75  C   UNL     1      17.385   8.065  -1.625  1.00  0.00     0.009 A 
ATOM     76  C   UNL     1      15.790   8.725  -3.321  1.00  0.00     0.009 A 
ATOM     77  C   UNL     1      17.799   9.392  -1.500  1.00  0.00     0.001 A 
ATOM     78  C   UNL     1      16.225  10.046  -3.213  1.00  0.00     0.001 A 
ATOM     79  C   UNL     1      17.221  10.381  -2.296  1.00  0.00     0.000 A 
ENDBRANCH  60  74
BRANCH  61  80
ATOM     80  C   UNL     1      12.681  -1.543  -2.976  1.00  0.00    -0.014 A 
ATOM     81  C   UNL     1      13.528  -2.653  -2.837  1.00  0.00     0.009 A 
ATOM     82  C   UNL     1      11.312  -1.755  -3.201  1.00  0.00     0.009 A 
ATOM     83  C   UNL     1      13.019  -3.949  -2.946  1.00  0.00     0.001 A 
ATOM     84  C   UNL     1      10.803  -3.053  -3.286  1.00  0.00     0.001 A 
ATOM     85  C   UNL     1      11.658  -4.148  -3.167  1.00  0.00     0.000 A 
ENDBRANCH  61  80
BRANCH  73  86
ATOM     86  C   UNL     1      16.689   2.248  -7.207  1.00  0.00    -0.014 A 
ATOM     87  C   UNL     1      15.935   2.237  -8.390  1.00  0.00     0.009 A 
ATOM     88  C   UNL     1      18.072   2.020  -7.273  1.00  0.00     0.009 A 
ATOM     89  C   UNL     1      16.553   1.976  -9.614  1.00  0.00     0.001 A 
ATOM     90  C   UNL     1      18.690   1.782  -8.501  1.00  0.00     0.001 A 
ATOM     91  C   UNL     1      17.929   1.754  -9.669  1.00  0.00     0.000 A 
ENDBRANCH  73  86
ENDBRANCH  47  48
ENDBRANCH  39  42
ENDBRANCH  37  38
ENDBRANCH  36  37
ENDBRANCH  35  36
ENDBRANCH   1  35
TORSDOF 16
