REMARK SMILES Cc1cc(C)cc(C(=O)N2CC[C@H](C(=O)NCCCCNC(=O)c3ccc(-c4c5nc(c(-c6ccccc6)c6ccc([nH]6)c(-c6ccccc6)c6nc(c(-c7ccccc7)c7ccc4[nH]7)C=C6)C=C5)cc3)[C@@H]2C)c1
REMARK SMILES IDX 18 1 17 2 16 3 14 4 15 5 13 7 10 8 11 9 72 10 12 11 73 12
REMARK SMILES IDX 8 13 9 14 7 15 1 16 2 17 3 18 74 19 4 20 5 21 6 22 19 23
REMARK SMILES IDX 20 24 21 25 22 26 23 28 24 29 25 30 71 31 26 32 70 33 27 34
REMARK SMILES IDX 28 35 29 36 64 37 30 38 69 39 63 40 65 41 31 42 68 43 62 44
REMARK SMILES IDX 61 45 32 47 54 48 39 49 53 50 40 51 43 52 52 53 66 54 41 55
REMARK SMILES IDX 42 56 51 58 67 59 44 60 33 61 34 62 38 63 35 64 37 65 36 66
REMARK SMILES IDX 55 67 56 68 60 69 57 70 59 71 58 72 45 73 46 74 50 75 47 76
REMARK SMILES IDX 49 77 48 78
REMARK H PARENT 16 6 21 27 65 46 43 57
REMARK Flexibility Score: inf
ROOT
ATOM      1  C   UNL     1       5.666  -4.573   3.810  1.00  0.00     0.023 C 
ENDROOT
BRANCH   1   2
ATOM      2  C   UNL     1       5.748  -4.946   2.332  1.00  0.00     0.116 C 
BRANCH   2   3
ATOM      3  N   UNL     1       4.828  -6.012   1.983  1.00  0.00    -0.356 N 
ATOM      4  C   UNL     1       3.804  -6.039   1.086  1.00  0.00     0.225 C 
ATOM      5  O   UNL     1       3.206  -7.103   0.932  1.00  0.00    -0.275 OA
ATOM      6  H   UNL     1       4.967  -6.853   2.475  1.00  0.00     0.163 HD
BRANCH   4   7
ATOM      7  C   UNL     1       3.427  -4.780   0.325  1.00  0.00     0.102 C 
ATOM      8  N   UNL     1       1.228  -3.986  -0.122  1.00  0.00    -0.335 N 
ATOM      9  C   UNL     1       1.452  -5.100  -1.015  1.00  0.00     0.121 C 
ATOM     10  C   UNL     1       2.253  -3.969   0.932  1.00  0.00     0.094 C 
ATOM     11  C   UNL     1       2.963  -5.140  -1.099  1.00  0.00     0.037 C 
ATOM     12  C   UNL     1       1.677  -4.512   2.242  1.00  0.00     0.032 C 
BRANCH   8  13
ATOM     13  C   UNL     1       0.080  -3.230  -0.269  1.00  0.00     0.254 C 
ATOM     14  O   UNL     1      -0.945  -3.715  -0.752  1.00  0.00    -0.269 OA
BRANCH  13  15
ATOM     15  C   UNL     1       0.098  -1.763   0.002  1.00  0.00     0.040 A 
ATOM     16  C   UNL     1       2.498   1.201  -0.040  1.00  0.00     0.044 C 
ATOM     17  C   UNL     1       1.235   0.394   0.027  1.00  0.00    -0.050 A 
ATOM     18  C   UNL     1      -0.003   1.038   0.129  1.00  0.00     0.006 A 
ATOM     19  C   UNL     1       1.272  -1.004  -0.076  1.00  0.00     0.017 A 
ATOM     20  C   UNL     1      -1.195   0.302   0.149  1.00  0.00    -0.050 A 
ATOM     21  C   UNL     1      -2.514   1.017   0.135  1.00  0.00     0.044 C 
ATOM     22  C   UNL     1      -1.133  -1.097   0.109  1.00  0.00     0.017 A 
ENDBRANCH  13  15
ENDBRANCH   8  13
ENDBRANCH   4   7
ENDBRANCH   2   3
ENDBRANCH   1   2
BRANCH   1  23
ATOM     23  C   UNL     1       5.964  -5.713   4.785  1.00  0.00     0.023 C 
BRANCH  23  24
ATOM     24  C   UNL     1       7.300  -6.419   4.581  1.00  0.00     0.116 C 
BRANCH  24  25
ATOM     25  N   UNL     1       8.441  -5.531   4.737  1.00  0.00    -0.352 N 
ATOM     26  C   UNL     1       9.563  -5.680   5.515  1.00  0.00     0.251 C 
ATOM     27  H   UNL     1       8.403  -4.701   4.208  1.00  0.00     0.163 HD
ATOM     28  O   UNL     1      10.360  -4.751   5.625  1.00  0.00    -0.269 OA
BRANCH  26  29
ATOM     29  C   UNL     1       9.800  -6.943   6.248  1.00  0.00     0.039 A 
ATOM     30  C   UNL     1      10.210  -6.880   7.582  1.00  0.00     0.014 A 
ATOM     31  C   UNL     1       9.615  -8.183   5.631  1.00  0.00     0.014 A 
ATOM     32  C   UNL     1      10.362  -8.058   8.318  1.00  0.00     0.010 A 
ATOM     33  C   UNL     1       9.691  -9.351   6.386  1.00  0.00     0.010 A 
ATOM     34  C   UNL     1      10.063  -9.302   7.739  1.00  0.00    -0.014 A 
BRANCH  34  35
ATOM     35  C   UNL     1      10.121 -10.556   8.534  1.00  0.00     0.031 A 
ATOM     36  C   UNL     1      11.095 -11.645   8.169  1.00  0.00     0.074 A 
ATOM     37  C   UNL     1       9.258 -10.742   9.553  1.00  0.00     0.049 A 
ATOM     38  N   UNL     1      11.249 -12.829   8.707  1.00  0.00    -0.248 NA
ATOM     39  C   UNL     1      11.999 -11.377   7.039  1.00  0.00     0.031 C 
ATOM     40  C   UNL     1       8.242  -9.783   9.992  1.00  0.00     0.029 A 
ATOM     41  N   UNL     1       9.094 -11.808  10.404  1.00  0.00    -0.354 N 
ATOM     42  C   UNL     1      12.257 -13.447   7.977  1.00  0.00     0.074 A 
ATOM     43  C   UNL     1      12.641 -12.531   6.926  1.00  0.00     0.031 C 
ATOM     44  C   UNL     1       7.580 -10.291  11.044  1.00  0.00     0.029 A 
ATOM     45  C   UNL     1       8.090 -11.629  11.326  1.00  0.00     0.049 A 
ATOM     46  H   UNL     1       9.644 -12.623  10.358  1.00  0.00     0.167 HD
ATOM     47  C   UNL     1      12.827 -14.659   8.176  1.00  0.00     0.031 A 
ATOM     48  C   UNL     1       7.623 -12.453  12.284  1.00  0.00     0.031 A 
ATOM     49  C   UNL     1      12.450 -15.572   9.223  1.00  0.00     0.049 A 
ATOM     50  C   UNL     1       8.251 -13.809  12.457  1.00  0.00     0.074 A 
ATOM     51  C   UNL     1      13.000 -16.805   9.529  1.00  0.00     0.029 A 
ATOM     52  N   UNL     1      11.429 -15.352  10.133  1.00  0.00    -0.354 N 
ATOM     53  N   UNL     1       9.248 -14.350  11.799  1.00  0.00    -0.248 NA
ATOM     54  C   UNL     1       7.695 -14.665  13.515  1.00  0.00     0.031 C 
ATOM     55  C   UNL     1      12.275 -17.356  10.589  1.00  0.00     0.029 A 
ATOM     56  C   UNL     1      11.316 -16.438  10.985  1.00  0.00     0.049 A 
ATOM     57  H   UNL     1      10.867 -14.545  10.168  1.00  0.00     0.167 HD
ATOM     58  C   UNL     1       9.459 -15.591  12.386  1.00  0.00     0.074 A 
ATOM     59  C   UNL     1       8.500 -15.715  13.464  1.00  0.00     0.031 C 
ATOM     60  C   UNL     1      10.364 -16.545  12.059  1.00  0.00     0.031 A 
BRANCH  47  61
ATOM     61  C   UNL     1      13.927 -15.074   7.238  1.00  0.00    -0.014 A 
ATOM     62  C   UNL     1      15.185 -14.452   7.275  1.00  0.00     0.009 A 
ATOM     63  C   UNL     1      13.724 -16.141   6.348  1.00  0.00     0.009 A 
ATOM     64  C   UNL     1      16.207 -14.870   6.420  1.00  0.00     0.001 A 
ATOM     65  C   UNL     1      14.757 -16.576   5.516  1.00  0.00     0.001 A 
ATOM     66  C   UNL     1      15.994 -15.935   5.547  1.00  0.00     0.000 A 
ENDBRANCH  47  61
BRANCH  48  67
ATOM     67  C   UNL     1       6.497 -12.030  13.160  1.00  0.00    -0.014 A 
ATOM     68  C   UNL     1       6.701 -11.813  14.532  1.00  0.00     0.009 A 
ATOM     69  C   UNL     1       5.203 -11.880  12.637  1.00  0.00     0.009 A 
ATOM     70  C   UNL     1       5.626 -11.497  15.367  1.00  0.00     0.001 A 
ATOM     71  C   UNL     1       4.137 -11.530  13.468  1.00  0.00     0.001 A 
ATOM     72  C   UNL     1       4.346 -11.353  14.834  1.00  0.00     0.000 A 
ENDBRANCH  48  67
BRANCH  60  73
ATOM     73  C   UNL     1      10.396 -17.786  12.908  1.00  0.00    -0.014 A 
ATOM     74  C   UNL     1       9.365 -18.737  12.855  1.00  0.00     0.009 A 
ATOM     75  C   UNL     1      11.497 -18.024  13.746  1.00  0.00     0.009 A 
ATOM     76  C   UNL     1       9.419 -19.882  13.653  1.00  0.00     0.001 A 
ATOM     77  C   UNL     1      11.565 -19.185  14.517  1.00  0.00     0.001 A 
ATOM     78  C   UNL     1      10.521 -20.108  14.478  1.00  0.00     0.000 A 
ENDBRANCH  60  73
ENDBRANCH  34  35
ENDBRANCH  26  29
ENDBRANCH  24  25
ENDBRANCH  23  24
ENDBRANCH   1  23
TORSDOF 13
