REMARK SMILES CCCCCC[C@H](C)[C@@](C)(O)C(=O)NCCCCNC(=O)c1ccc(-c2c3nc(c(-c4ccccc4)c4ccc([nH]4)c(-c4ccccc4)c4nc(c(-c5ccccc5)c5ccc2[nH]5)C=C4)C=C3)cc1
REMARK SMILES IDX 12 1 13 2 14 3 9 5 10 6 7 7 8 8 6 9 5 10 4 11 3 12 2 13 1 14
REMARK SMILES IDX 11 15 15 17 16 18 17 19 18 20 19 21 20 22 21 24 22 25 23 26
REMARK SMILES IDX 69 27 24 28 68 29 25 30 26 31 27 32 62 33 28 34 67 35 61 36
REMARK SMILES IDX 63 37 29 38 66 39 60 40 59 41 30 43 52 44 37 45 51 46 38 47
REMARK SMILES IDX 41 48 50 49 64 50 39 51 40 52 49 54 65 55 42 56 31 57 32 58
REMARK SMILES IDX 36 59 33 60 35 61 34 62 53 63 54 64 58 65 55 66 57 67 56 68
REMARK SMILES IDX 43 69 44 70 48 71 45 72 47 73 46 74
REMARK H PARENT 14 4 11 16 19 23 63 42 41 53
REMARK Flexibility Score: inf
ROOT
ATOM      1  C   UNL     1      -2.655  -4.157   4.574  1.00  0.00     0.251 C 
ATOM      2  O   UNL     1      -3.316  -3.787   3.601  1.00  0.00    -0.272 OA
ATOM      3  N   UNL     1      -3.235  -5.120   5.352  1.00  0.00    -0.354 N 
ATOM      4  H   UNL     1      -4.216  -5.168   5.296  1.00  0.00     0.163 HD
ENDROOT
BRANCH   1   5
ATOM      5  C   UNL     1      -1.198  -3.667   4.830  1.00  0.00     0.142 C 
ATOM      6  C   UNL     1      -0.295  -4.634   4.039  1.00  0.00     0.053 C 
BRANCH   5   7
ATOM      7  C   UNL     1      -0.918  -2.177   4.409  1.00  0.00     0.027 C 
ATOM      8  C   UNL     1      -1.129  -1.833   2.932  1.00  0.00     0.011 C 
BRANCH   7   9
ATOM      9  C   UNL     1      -1.468  -1.091   5.384  1.00  0.00     0.007 C 
BRANCH   9  10
ATOM     10  C   UNL     1      -2.696  -0.253   5.000  1.00  0.00     0.000 C 
BRANCH  10  11
ATOM     11  C   UNL     1      -4.033  -0.977   4.862  1.00  0.00     0.000 C 
BRANCH  11  12
ATOM     12  C   UNL     1      -4.495  -1.743   6.105  1.00  0.00    -0.000 C 
BRANCH  12  13
ATOM     13  C   UNL     1      -5.163  -0.867   7.166  1.00  0.00    -0.003 C 
ATOM     14  C   UNL     1      -6.528  -0.353   6.729  1.00  0.00     0.004 C 
ENDBRANCH  12  13
ENDBRANCH  11  12
ENDBRANCH  10  11
ENDBRANCH   9  10
ENDBRANCH   7   9
ENDBRANCH   5   7
BRANCH   5  15
ATOM     15  O   UNL     1      -0.824  -3.779   6.211  1.00  0.00    -0.380 OA
ATOM     16  H   UNL     1       0.087  -3.465   6.326  1.00  0.00     0.212 HD
ENDBRANCH   5  15
ENDBRANCH   1   5
BRANCH   3  17
ATOM     17  C   UNL     1      -2.621  -6.081   6.247  1.00  0.00     0.116 C 
BRANCH  17  18
ATOM     18  C   UNL     1      -3.215  -6.083   7.651  1.00  0.00     0.023 C 
BRANCH  18  19
ATOM     19  C   UNL     1      -4.723  -6.323   7.743  1.00  0.00     0.023 C 
BRANCH  19  20
ATOM     20  C   UNL     1      -5.280  -7.467   6.902  1.00  0.00     0.116 C 
BRANCH  20  21
ATOM     21  N   UNL     1      -4.670  -8.754   7.189  1.00  0.00    -0.352 N 
ATOM     22  C   UNL     1      -5.259  -9.975   7.426  1.00  0.00     0.251 C 
ATOM     23  H   UNL     1      -3.686  -8.753   7.218  1.00  0.00     0.163 HD
ATOM     24  O   UNL     1      -4.571 -10.938   7.732  1.00  0.00    -0.269 OA
BRANCH  22  25
ATOM     25  C   UNL     1      -6.732 -10.116   7.354  1.00  0.00     0.039 A 
ATOM     26  C   UNL     1      -7.386 -10.800   8.382  1.00  0.00     0.014 A 
ATOM     27  C   UNL     1      -7.466  -9.576   6.295  1.00  0.00     0.014 A 
ATOM     28  C   UNL     1      -8.781 -10.876   8.388  1.00  0.00     0.010 A 
ATOM     29  C   UNL     1      -8.858  -9.587   6.341  1.00  0.00     0.010 A 
ATOM     30  C   UNL     1      -9.531 -10.234   7.390  1.00  0.00    -0.014 A 
BRANCH  30  31
ATOM     31  C   UNL     1     -11.016 -10.216   7.436  1.00  0.00     0.031 A 
ATOM     32  C   UNL     1     -11.819 -10.880   6.350  1.00  0.00     0.074 A 
ATOM     33  C   UNL     1     -11.646  -9.549   8.423  1.00  0.00     0.049 A 
ATOM     34  N   UNL     1     -13.118 -10.923   6.194  1.00  0.00    -0.248 NA
ATOM     35  C   UNL     1     -11.063 -11.564   5.289  1.00  0.00     0.031 C 
ATOM     36  C   UNL     1     -10.987  -8.833   9.518  1.00  0.00     0.029 A 
ATOM     37  N   UNL     1     -12.984  -9.361   8.664  1.00  0.00    -0.354 N 
ATOM     38  C   UNL     1     -13.333 -11.620   5.011  1.00  0.00     0.074 A 
ATOM     39  C   UNL     1     -12.032 -11.940   4.467  1.00  0.00     0.031 C 
ATOM     40  C   UNL     1     -11.922  -8.310  10.328  1.00  0.00     0.029 A 
ATOM     41  C   UNL     1     -13.243  -8.615   9.788  1.00  0.00     0.049 A 
ATOM     42  H   UNL     1     -13.692  -9.726   8.085  1.00  0.00     0.167 HD
ATOM     43  C   UNL     1     -14.507 -11.977   4.438  1.00  0.00     0.031 A 
ATOM     44  C   UNL     1     -14.412  -8.213  10.323  1.00  0.00     0.031 A 
ATOM     45  C   UNL     1     -15.803 -11.669   4.982  1.00  0.00     0.049 A 
ATOM     46  C   UNL     1     -15.700  -8.604   9.653  1.00  0.00     0.074 A 
ATOM     47  C   UNL     1     -17.048 -12.041   4.506  1.00  0.00     0.029 A 
ATOM     48  N   UNL     1     -16.020 -10.910   6.121  1.00  0.00    -0.354 N 
ATOM     49  N   UNL     1     -15.886  -9.327   8.575  1.00  0.00    -0.248 NA
ATOM     50  C   UNL     1     -16.942  -8.131  10.283  1.00  0.00     0.031 C 
ATOM     51  C   UNL     1     -18.021 -11.459   5.325  1.00  0.00     0.029 A 
ATOM     52  C   UNL     1     -17.381 -10.777   6.347  1.00  0.00     0.049 A 
ATOM     53  H   UNL     1     -15.313 -10.522   6.686  1.00  0.00     0.167 HD
ATOM     54  C   UNL     1     -17.263  -9.421   8.416  1.00  0.00     0.074 A 
ATOM     55  C   UNL     1     -17.864  -8.695   9.515  1.00  0.00     0.031 C 
ATOM     56  C   UNL     1     -17.966 -10.054   7.445  1.00  0.00     0.031 A 
BRANCH  43  57
ATOM     57  C   UNL     1     -14.444 -12.736   3.140  1.00  0.00    -0.014 A 
ATOM     58  C   UNL     1     -13.986 -14.063   3.093  1.00  0.00     0.009 A 
ATOM     59  C   UNL     1     -14.886 -12.129   1.955  1.00  0.00     0.009 A 
ATOM     60  C   UNL     1     -13.938 -14.752   1.879  1.00  0.00     0.001 A 
ATOM     61  C   UNL     1     -14.866 -12.831   0.748  1.00  0.00     0.001 A 
ATOM     62  C   UNL     1     -14.383 -14.138   0.710  1.00  0.00     0.000 A 
ENDBRANCH  43  57
BRANCH  44  63
ATOM     63  C   UNL     1     -14.426  -7.404  11.570  1.00  0.00    -0.014 A 
ATOM     64  C   UNL     1     -14.902  -7.956  12.770  1.00  0.00     0.009 A 
ATOM     65  C   UNL     1     -13.981  -6.073  11.567  1.00  0.00     0.009 A 
ATOM     66  C   UNL     1     -14.960  -7.183  13.932  1.00  0.00     0.001 A 
ATOM     67  C   UNL     1     -14.011  -5.312  12.737  1.00  0.00     0.001 A 
ATOM     68  C   UNL     1     -14.510  -5.864  13.916  1.00  0.00     0.000 A 
ENDBRANCH  44  63
BRANCH  56  69
ATOM     69  C   UNL     1     -19.465 -10.025   7.551  1.00  0.00    -0.014 A 
ATOM     70  C   UNL     1     -20.194  -8.852   7.305  1.00  0.00     0.009 A 
ATOM     71  C   UNL     1     -20.160 -11.205   7.863  1.00  0.00     0.009 A 
ATOM     72  C   UNL     1     -21.587  -8.853   7.404  1.00  0.00     0.001 A 
ATOM     73  C   UNL     1     -21.554 -11.210   7.931  1.00  0.00     0.001 A 
ATOM     74  C   UNL     1     -22.265 -10.032   7.711  1.00  0.00     0.000 A 
ENDBRANCH  56  69
ENDBRANCH  30  31
ENDBRANCH  22  25
ENDBRANCH  20  21
ENDBRANCH  19  20
ENDBRANCH  18  19
ENDBRANCH  17  18
ENDBRANCH   3  17
TORSDOF 18
