REMARK SMILES O=C(COc1ccc(Br)cc1/C=C1\C(=O)Nc2ccc(Br)cc21)NCCCCNC(=O)c1ccc(-c2c3nc(c(-c4ccccc4)c4ccc([nH]4)c(-c4ccccc4)c4nc(c(-c5ccccc5)c5ccc2[nH]5)C=C4)C=C3)cc1
REMARK SMILES IDX 26 1 25 2 24 3 1 4 2 5 3 7 4 8 5 9 6 10 11 11 7 12 10 13
REMARK SMILES IDX 8 14 9 15 12 16 13 17 14 18 23 19 15 20 16 21 17 22 22 23
REMARK SMILES IDX 18 25 20 26 19 27 21 28 27 29 28 30 29 31 30 32 31 34 32 35
REMARK SMILES IDX 33 36 79 37 34 38 78 39 35 40 36 41 37 42 72 43 38 44 77 45
REMARK SMILES IDX 71 46 73 47 39 48 76 49 70 50 69 51 40 53 62 54 47 55 61 56
REMARK SMILES IDX 48 57 51 58 60 59 74 60 49 61 50 62 59 64 75 65 52 66 41 67
REMARK SMILES IDX 42 68 46 69 43 70 45 71 44 72 63 73 64 74 68 75 65 76 67 77
REMARK SMILES IDX 66 78 53 79 54 80 58 81 55 82 57 83 56 84
REMARK H PARENT 24 6 16 24 29 33 73 52 51 63
REMARK Flexibility Score: inf
ROOT
ATOM      1  C   UNL     1       2.502   3.071  -1.063  1.00  0.00     0.023 C 
ENDROOT
BRANCH   1   2
ATOM      2  C   UNL     1       2.248   1.595  -1.362  1.00  0.00     0.116 C 
BRANCH   2   3
ATOM      3  N   UNL     1       3.109   0.647  -0.661  1.00  0.00    -0.353 N 
ATOM      4  O   UNL     1       1.437  -0.252   0.629  1.00  0.00    -0.271 OA
ATOM      5  C   UNL     1       2.576  -0.328   0.170  1.00  0.00     0.257 C 
ATOM      6  H   UNL     1       4.085   0.700  -0.781  1.00  0.00     0.163 HD
BRANCH   5   7
ATOM      7  C   UNL     1       3.483  -1.564   0.443  1.00  0.00     0.329 C 
BRANCH   7   8
ATOM      8  O   UNL     1       4.144  -2.296  -0.603  1.00  0.00    -0.483 OA
BRANCH   8   9
ATOM      9  C   UNL     1       3.304  -2.962  -1.473  1.00  0.00     0.127 A 
ATOM     10  C   UNL     1       2.333  -2.206  -2.163  1.00  0.00     0.048 A 
ATOM     11  C   UNL     1       3.462  -4.344  -1.768  1.00  0.00     0.018 A 
ATOM     12  C   UNL     1       1.418  -2.778  -3.034  1.00  0.00     0.019 A 
ATOM     13  C   UNL     1       2.536  -4.866  -2.694  1.00  0.00     0.027 A 
ATOM     14  C   UNL     1       1.515  -4.122  -3.286  1.00  0.00     0.018 A 
ATOM     15  Br  UNL     1       0.287  -4.958  -4.452  1.00  0.00    -0.051 Br
BRANCH  11  16
ATOM     16  C   UNL     1       4.504  -5.242  -1.135  1.00  0.00     0.026 C 
ATOM     17  C   UNL     1       4.595  -6.600  -1.123  1.00  0.00     0.050 C 
ATOM     18  C   UNL     1       3.606  -7.586  -1.700  1.00  0.00     0.256 C 
ATOM     19  C   UNL     1       5.304  -7.409  -0.104  1.00  0.00     0.012 A 
ATOM     20  O   UNL     1       3.288  -7.767  -2.856  1.00  0.00    -0.269 OA
ATOM     21  N   UNL     1       3.326  -8.439  -0.650  1.00  0.00    -0.321 N 
ATOM     22  C   UNL     1       4.368  -8.393   0.270  1.00  0.00     0.049 A 
ATOM     23  C   UNL     1       6.610  -7.538   0.331  1.00  0.00     0.026 A 
ATOM     24  H   UNL     1       2.516  -8.993  -0.567  1.00  0.00     0.170 HD
ATOM     25  C   UNL     1       4.594  -9.356   1.228  1.00  0.00     0.028 A 
ATOM     26  C   UNL     1       6.896  -8.594   1.219  1.00  0.00     0.018 A 
ATOM     27  C   UNL     1       5.891  -9.451   1.715  1.00  0.00     0.018 A 
ATOM     28  Br  UNL     1       8.695  -8.981   1.673  1.00  0.00    -0.051 Br
ENDBRANCH  11  16
ENDBRANCH   8   9
ENDBRANCH   7   8
ENDBRANCH   5   7
ENDBRANCH   2   3
ENDBRANCH   1   2
BRANCH   1  29
ATOM     29  C   UNL     1       3.920   3.567  -1.329  1.00  0.00     0.023 C 
BRANCH  29  30
ATOM     30  C   UNL     1       4.448   3.354  -2.743  1.00  0.00     0.116 C 
BRANCH  30  31
ATOM     31  N   UNL     1       3.855   4.230  -3.744  1.00  0.00    -0.352 N 
ATOM     32  C   UNL     1       4.476   5.037  -4.677  1.00  0.00     0.251 C 
ATOM     33  H   UNL     1       2.871   4.250  -3.758  1.00  0.00     0.163 HD
ATOM     34  O   UNL     1       3.813   5.776  -5.398  1.00  0.00    -0.269 OA
BRANCH  32  35
ATOM     35  C   UNL     1       5.956   5.056  -4.769  1.00  0.00     0.039 A 
ATOM     36  C   UNL     1       6.689   3.869  -4.751  1.00  0.00     0.014 A 
ATOM     37  C   UNL     1       6.621   6.285  -4.812  1.00  0.00     0.014 A 
ATOM     38  C   UNL     1       8.063   3.914  -4.545  1.00  0.00     0.010 A 
ATOM     39  C   UNL     1       8.016   6.325  -4.710  1.00  0.00     0.010 A 
ATOM     40  C   UNL     1       8.744   5.143  -4.502  1.00  0.00    -0.014 A 
BRANCH  40  41
ATOM     41  C   UNL     1      10.204   5.163  -4.212  1.00  0.00     0.031 A 
ATOM     42  C   UNL     1      10.737   5.821  -2.966  1.00  0.00     0.074 A 
ATOM     43  C   UNL     1      11.052   4.522  -5.039  1.00  0.00     0.049 A 
ATOM     44  N   UNL     1      11.973   5.885  -2.533  1.00  0.00    -0.248 NA
ATOM     45  C   UNL     1       9.765   6.493  -2.090  1.00  0.00     0.031 C 
ATOM     46  C   UNL     1      10.661   3.825  -6.265  1.00  0.00     0.029 A 
ATOM     47  N   UNL     1      12.408   4.325  -4.960  1.00  0.00    -0.354 N 
ATOM     48  C   UNL     1      11.926   6.609  -1.347  1.00  0.00     0.074 A 
ATOM     49  C   UNL     1      10.548   7.000  -1.148  1.00  0.00     0.031 C 
ATOM     50  C   UNL     1      11.738   3.225  -6.789  1.00  0.00     0.029 A 
ATOM     51  C   UNL     1      12.909   3.554  -5.980  1.00  0.00     0.049 A 
ATOM     52  H   UNL     1      12.967   4.699  -4.241  1.00  0.00     0.167 HD
ATOM     53  C   UNL     1      12.935   6.907  -0.493  1.00  0.00     0.031 A 
ATOM     54  C   UNL     1      14.167   3.159  -6.253  1.00  0.00     0.031 A 
ATOM     55  C   UNL     1      14.308   6.523  -0.693  1.00  0.00     0.049 A 
ATOM     56  C   UNL     1      15.282   3.558  -5.330  1.00  0.00     0.074 A 
ATOM     57  C   UNL     1      15.397   6.774   0.123  1.00  0.00     0.029 A 
ATOM     58  N   UNL     1      14.783   5.810  -1.784  1.00  0.00    -0.354 N 
ATOM     59  N   UNL     1      15.217   4.238  -4.211  1.00  0.00    -0.248 NA
ATOM     60  C   UNL     1      16.639   3.138  -5.704  1.00  0.00     0.031 C 
ATOM     61  C   UNL     1      16.540   6.275  -0.506  1.00  0.00     0.029 A 
ATOM     62  C   UNL     1      16.154   5.640  -1.675  1.00  0.00     0.049 A 
ATOM     63  H   UNL     1      14.228   5.474  -2.525  1.00  0.00     0.167 HD
ATOM     64  C   UNL     1      16.521   4.319  -3.740  1.00  0.00     0.074 A 
ATOM     65  C   UNL     1      17.353   3.602  -4.685  1.00  0.00     0.031 C 
ATOM     66  C   UNL     1      16.981   4.937  -2.625  1.00  0.00     0.031 A 
BRANCH  53  67
ATOM     67  C   UNL     1      12.600   7.705   0.741  1.00  0.00    -0.014 A 
ATOM     68  C   UNL     1      13.108   9.005   0.894  1.00  0.00     0.009 A 
ATOM     69  C   UNL     1      11.845   7.148   1.786  1.00  0.00     0.009 A 
ATOM     70  C   UNL     1      12.875   9.727   2.067  1.00  0.00     0.001 A 
ATOM     71  C   UNL     1      11.585   7.885   2.944  1.00  0.00     0.001 A 
ATOM     72  C   UNL     1      12.107   9.170   3.087  1.00  0.00     0.000 A 
ENDBRANCH  53  67
BRANCH  54  73
ATOM     73  C   UNL     1      14.408   2.325  -7.459  1.00  0.00    -0.014 A 
ATOM     74  C   UNL     1      14.221   2.864  -8.744  1.00  0.00     0.009 A 
ATOM     75  C   UNL     1      14.721   0.964  -7.334  1.00  0.00     0.009 A 
ATOM     76  C   UNL     1      14.295   2.048  -9.874  1.00  0.00     0.001 A 
ATOM     77  C   UNL     1      14.826   0.157  -8.470  1.00  0.00     0.001 A 
ATOM     78  C   UNL     1      14.597   0.695  -9.736  1.00  0.00     0.000 A 
ENDBRANCH  54  73
BRANCH  66  79
ATOM     79  C   UNL     1      18.457   4.875  -2.340  1.00  0.00    -0.014 A 
ATOM     80  C   UNL     1      18.923   4.156  -1.228  1.00  0.00     0.009 A 
ATOM     81  C   UNL     1      19.373   5.620  -3.099  1.00  0.00     0.009 A 
ATOM     82  C   UNL     1      20.271   4.201  -0.867  1.00  0.00     0.001 A 
ATOM     83  C   UNL     1      20.726   5.637  -2.755  1.00  0.00     0.001 A 
ATOM     84  C   UNL     1      21.172   4.938  -1.633  1.00  0.00     0.000 A 
ENDBRANCH  66  79
ENDBRANCH  40  41
ENDBRANCH  32  35
ENDBRANCH  30  31
ENDBRANCH  29  30
ENDBRANCH   1  29
TORSDOF 14
