REMARK SMILES O=C(Cc1ccccc1)Nc1cccc(C(=O)Nc2ccccc2C(=O)NCCCCNC(=O)c2ccc(-c3c4nc(c(-c5ccccc5)c5ccc([nH]5)c(-c5ccccc5)c5nc(c(-c6ccccc6)c6ccc3[nH]6)C=C5)C=C4)cc2)c1
REMARK SMILES IDX 28 1 27 2 25 3 26 4 24 6 19 7 20 8 21 9 23 10 22 11 18 12
REMARK SMILES IDX 16 13 17 14 15 16 11 17 12 18 83 19 13 20 14 21 10 22 1 23
REMARK SMILES IDX 2 24 3 26 4 27 5 28 9 29 6 30 8 31 7 32 29 33 30 34 31 35
REMARK SMILES IDX 32 36 33 37 34 39 35 40 36 41 82 42 37 43 81 44 38 45 39 46
REMARK SMILES IDX 40 47 75 48 41 49 80 50 74 51 76 52 42 53 79 54 73 55 72 56
REMARK SMILES IDX 43 58 65 59 50 60 64 61 51 62 54 63 63 64 77 65 52 66 53 67
REMARK SMILES IDX 62 69 78 70 55 71 44 72 45 73 49 74 46 75 48 76 47 77 66 78
REMARK SMILES IDX 67 79 71 80 68 81 70 82 69 83 56 84 57 85 61 86 58 87 60 88
REMARK SMILES IDX 59 89
REMARK H PARENT 27 5 18 15 10 25 32 38 76 57 54 68
REMARK Flexibility Score: inf
ROOT
ATOM      1  C   UNL     1      -0.224  -5.134  -3.003  1.00  0.00     0.116 C 
ENDROOT
BRANCH   1   2
ATOM      2  N   UNL     1       1.091  -4.757  -2.534  1.00  0.00    -0.352 N 
ATOM      3  C   UNL     1       1.592  -3.511  -2.250  1.00  0.00     0.253 C 
ATOM      4  O   UNL     1       2.773  -3.433  -1.907  1.00  0.00    -0.269 OA
ATOM      5  H   UNL     1       1.718  -5.503  -2.398  1.00  0.00     0.163 HD
BRANCH   3   6
ATOM      6  C   UNL     1       0.806  -2.259  -2.451  1.00  0.00     0.063 A 
ATOM      7  C   UNL     1      -0.547  -2.014  -2.128  1.00  0.00     0.054 A 
ATOM      8  C   UNL     1      -1.133  -0.813  -2.574  1.00  0.00     0.027 A 
ATOM      9  C   UNL     1      -0.377   0.184  -3.195  1.00  0.00     0.002 A 
ATOM     10  C   UNL     1       1.557  -1.230  -3.066  1.00  0.00     0.016 A 
ATOM     11  C   UNL     1       0.978  -0.013  -3.417  1.00  0.00     0.001 A 
BRANCH   7  12
ATOM     12  N   UNL     1      -1.417  -2.801  -1.331  1.00  0.00    -0.321 N 
ATOM     13  C   UNL     1      -1.195  -3.577  -0.209  1.00  0.00     0.255 C 
ATOM     14  O   UNL     1      -2.066  -4.355   0.175  1.00  0.00    -0.269 OA
ATOM     15  H   UNL     1      -2.354  -2.793  -1.633  1.00  0.00     0.170 HD
BRANCH  13  16
ATOM     16  C   UNL     1       0.063  -3.467   0.555  1.00  0.00     0.042 A 
ATOM     17  C   UNL     1       2.033  -2.191   1.036  1.00  0.00     0.041 A 
ATOM     18  C   UNL     1       2.656  -3.357   1.501  1.00  0.00     0.026 A 
ATOM     19  C   UNL     1       0.698  -2.232   0.672  1.00  0.00     0.040 A 
ATOM     20  C   UNL     1       1.953  -4.562   1.564  1.00  0.00     0.003 A 
ATOM     21  C   UNL     1       0.655  -4.624   1.068  1.00  0.00     0.014 A 
BRANCH  17  22
ATOM     22  N   UNL     1       2.837  -1.066   0.796  1.00  0.00    -0.326 N 
ATOM     23  O   UNL     1       1.284   0.617   0.332  1.00  0.00    -0.274 OA
ATOM     24  C   UNL     1       2.437   0.197   0.385  1.00  0.00     0.228 C 
ATOM     25  H   UNL     1       3.804  -1.188   0.937  1.00  0.00     0.169 HD
BRANCH  24  26
ATOM     26  C   UNL     1       3.611   1.074  -0.027  1.00  0.00     0.135 C 
BRANCH  26  27
ATOM     27  C   UNL     1       4.332   1.660   1.162  1.00  0.00    -0.039 A 
ATOM     28  C   UNL     1       5.161   0.864   1.967  1.00  0.00     0.004 A 
ATOM     29  C   UNL     1       4.146   3.005   1.506  1.00  0.00     0.004 A 
ATOM     30  C   UNL     1       5.747   1.384   3.119  1.00  0.00     0.000 A 
ATOM     31  C   UNL     1       4.758   3.532   2.645  1.00  0.00     0.000 A 
ATOM     32  C   UNL     1       5.545   2.718   3.458  1.00  0.00     0.000 A 
ENDBRANCH  26  27
ENDBRANCH  24  26
ENDBRANCH  17  22
ENDBRANCH  13  16
ENDBRANCH   7  12
ENDBRANCH   3   6
ENDBRANCH   1   2
BRANCH   1  33
ATOM     33  C   UNL     1      -0.264  -6.471  -3.732  1.00  0.00     0.023 C 
BRANCH  33  34
ATOM     34  C   UNL     1       0.196  -7.692  -2.932  1.00  0.00     0.023 C 
BRANCH  34  35
ATOM     35  C   UNL     1      -0.308  -7.809  -1.494  1.00  0.00     0.116 C 
BRANCH  35  36
ATOM     36  N   UNL     1      -1.756  -7.840  -1.369  1.00  0.00    -0.352 N 
ATOM     37  C   UNL     1      -2.595  -8.836  -0.922  1.00  0.00     0.251 C 
ATOM     38  H   UNL     1      -2.212  -7.014  -1.649  1.00  0.00     0.163 HD
ATOM     39  O   UNL     1      -3.809  -8.705  -1.000  1.00  0.00    -0.269 OA
BRANCH  37  40
ATOM     40  C   UNL     1      -2.032 -10.095  -0.385  1.00  0.00     0.039 A 
ATOM     41  C   UNL     1      -2.545 -11.310  -0.848  1.00  0.00     0.014 A 
ATOM     42  C   UNL     1      -0.999 -10.085   0.554  1.00  0.00     0.014 A 
ATOM     43  C   UNL     1      -1.944 -12.509  -0.459  1.00  0.00     0.010 A 
ATOM     44  C   UNL     1      -0.349 -11.274   0.879  1.00  0.00     0.010 A 
ATOM     45  C   UNL     1      -0.801 -12.496   0.359  1.00  0.00    -0.014 A 
BRANCH  45  46
ATOM     46  C   UNL     1      -0.038 -13.743   0.627  1.00  0.00     0.031 A 
ATOM     47  C   UNL     1       0.107 -14.275   2.025  1.00  0.00     0.074 A 
ATOM     48  C   UNL     1       0.594 -14.361  -0.392  1.00  0.00     0.049 A 
ATOM     49  N   UNL     1       0.772 -15.324   2.442  1.00  0.00    -0.248 NA
ATOM     50  C   UNL     1      -0.557 -13.518   3.097  1.00  0.00     0.031 C 
ATOM     51  C   UNL     1       0.586 -13.919  -1.789  1.00  0.00     0.029 A 
ATOM     52  N   UNL     1       1.373 -15.492  -0.409  1.00  0.00    -0.354 N 
ATOM     53  C   UNL     1       0.619 -15.343   3.823  1.00  0.00     0.074 A 
ATOM     54  C   UNL     1      -0.160 -14.175   4.177  1.00  0.00     0.031 C 
ATOM     55  C   UNL     1       1.292 -14.787  -2.530  1.00  0.00     0.029 A 
ATOM     56  C   UNL     1       1.836 -15.823  -1.659  1.00  0.00     0.049 A 
ATOM     57  H   UNL     1       1.579 -16.016   0.399  1.00  0.00     0.167 HD
ATOM     58  C   UNL     1       1.068 -16.258   4.715  1.00  0.00     0.031 A 
ATOM     59  C   UNL     1       2.613 -16.846  -2.064  1.00  0.00     0.031 A 
ATOM     60  C   UNL     1       1.833 -17.427   4.367  1.00  0.00     0.049 A 
ATOM     61  C   UNL     1       3.097 -17.848  -1.055  1.00  0.00     0.074 A 
ATOM     62  C   UNL     1       2.275 -18.445   5.194  1.00  0.00     0.029 A 
ATOM     63  N   UNL     1       2.272 -17.731   3.088  1.00  0.00    -0.354 N 
ATOM     64  N   UNL     1       2.877 -17.893   0.236  1.00  0.00    -0.248 NA
ATOM     65  C   UNL     1       3.929 -18.948  -1.565  1.00  0.00     0.031 C 
ATOM     66  C   UNL     1       3.022 -19.342   4.423  1.00  0.00     0.029 A 
ATOM     67  C   UNL     1       3.001 -18.909   3.107  1.00  0.00     0.049 A 
ATOM     68  H   UNL     1       2.092 -17.190   2.285  1.00  0.00     0.167 HD
ATOM     69  C   UNL     1       3.522 -19.035   0.689  1.00  0.00     0.074 A 
ATOM     70  C   UNL     1       4.127 -19.664  -0.467  1.00  0.00     0.031 C 
ATOM     71  C   UNL     1       3.604 -19.520   1.952  1.00  0.00     0.031 A 
BRANCH  58  72
ATOM     72  C   UNL     1       0.742 -16.026   6.164  1.00  0.00    -0.014 A 
ATOM     73  C   UNL     1      -0.570 -16.170   6.644  1.00  0.00     0.009 A 
ATOM     74  C   UNL     1       1.762 -15.690   7.066  1.00  0.00     0.009 A 
ATOM     75  C   UNL     1      -0.859 -15.943   7.991  1.00  0.00     0.001 A 
ATOM     76  C   UNL     1       1.475 -15.492   8.418  1.00  0.00     0.001 A 
ATOM     77  C   UNL     1       0.164 -15.608   8.877  1.00  0.00     0.000 A 
ENDBRANCH  58  72
BRANCH  59  78
ATOM     78  C   UNL     1       2.962 -16.990  -3.501  1.00  0.00    -0.014 A 
ATOM     79  C   UNL     1       2.386 -18.012  -4.271  1.00  0.00     0.009 A 
ATOM     80  C   UNL     1       3.872 -16.112  -4.108  1.00  0.00     0.009 A 
ATOM     81  C   UNL     1       2.733 -18.167  -5.614  1.00  0.00     0.001 A 
ATOM     82  C   UNL     1       4.197 -16.253  -5.459  1.00  0.00     0.001 A 
ATOM     83  C   UNL     1       3.635 -17.285  -6.208  1.00  0.00     0.000 A 
ENDBRANCH  59  78
BRANCH  71  84
ATOM     84  C   UNL     1       4.355 -20.807   2.144  1.00  0.00    -0.014 A 
ATOM     85  C   UNL     1       5.755 -20.852   2.059  1.00  0.00     0.009 A 
ATOM     86  C   UNL     1       3.653 -21.984   2.445  1.00  0.00     0.009 A 
ATOM     87  C   UNL     1       6.434 -22.059   2.239  1.00  0.00     0.001 A 
ATOM     88  C   UNL     1       4.336 -23.183   2.652  1.00  0.00     0.001 A 
ATOM     89  C   UNL     1       5.725 -23.221   2.540  1.00  0.00     0.000 A 
ENDBRANCH  71  84
ENDBRANCH  45  46
ENDBRANCH  37  40
ENDBRANCH  35  36
ENDBRANCH  34  35
ENDBRANCH  33  34
ENDBRANCH   1  33
TORSDOF 16
