REMARK SMILES CCOc1ccc(NC(=O)CC2(CC(=O)NCCCCNC(=O)c3ccc(-c4c5nc(c(-c6ccccc6)c6ccc([nH]6)c(-c6ccccc6)c6nc(c(-c7ccccc7)c7ccc4[nH]7)C=C6)C=C5)cc3)CCCCC2)cc1
REMARK SMILES IDX 14 1 15 2 16 3 13 5 12 6 72 7 76 8 73 9 75 10 74 11 11 12
REMARK SMILES IDX 9 13 8 14 10 16 7 17 4 18 5 19 78 20 6 21 77 22 3 23 2 24
REMARK SMILES IDX 1 25 17 26 18 27 19 28 20 29 21 30 22 31 23 33 24 34 25 35
REMARK SMILES IDX 71 36 26 37 70 38 27 39 28 40 29 41 64 42 30 43 69 44 63 45
REMARK SMILES IDX 65 46 31 47 68 48 62 49 61 50 32 52 54 53 39 54 53 55 40 56
REMARK SMILES IDX 43 57 52 58 66 59 41 60 42 61 51 63 67 64 44 65 33 66 34 67
REMARK SMILES IDX 38 68 35 69 37 70 36 71 55 72 56 73 60 74 57 75 59 76 58 77
REMARK SMILES IDX 45 78 46 79 50 80 47 81 49 82 48 83
REMARK H PARENT 16 4 8 15 21 32 65 51 43 62
REMARK Flexibility Score: inf
ROOT
ATOM      1  C   UNL     1       3.830   1.537   4.263  1.00  0.00     0.220 C 
ATOM      2  O   UNL     1       2.854   1.575   3.508  1.00  0.00    -0.275 OA
ATOM      3  N   UNL     1       4.957   2.143   3.814  1.00  0.00    -0.356 N 
ATOM      4  H   UNL     1       5.412   1.759   3.031  1.00  0.00     0.163 HD
ENDROOT
BRANCH   1   5
ATOM      5  C   UNL     1       3.690   0.900   5.640  1.00  0.00     0.107 C 
BRANCH   5   6
ATOM      6  C   UNL     1       4.824   0.349   6.559  1.00  0.00    -0.012 C 
ATOM      7  C   UNL     1       4.116  -0.301   7.811  1.00  0.00     0.008 C 
ATOM      8  C   UNL     1       5.729   1.440   7.168  1.00  0.00     0.008 C 
ATOM      9  C   UNL     1       3.349   0.684   8.698  1.00  0.00     0.001 C 
ATOM     10  C   UNL     1       4.954   2.502   7.954  1.00  0.00     0.001 C 
ATOM     11  C   UNL     1       4.195   1.882   9.118  1.00  0.00     0.000 C 
BRANCH   6  12
ATOM     12  C   UNL     1       5.667  -0.815   5.944  1.00  0.00     0.108 C 
BRANCH  12  13
ATOM     13  C   UNL     1       6.570  -0.585   4.743  1.00  0.00     0.224 C 
ATOM     14  N   UNL     1       6.186  -0.767   3.447  1.00  0.00    -0.326 N 
ATOM     15  H   UNL     1       6.913  -0.634   2.796  1.00  0.00     0.169 HD
ATOM     16  O   UNL     1       7.729  -0.193   4.930  1.00  0.00    -0.275 OA
BRANCH  14  17
ATOM     17  C   UNL     1       4.957  -1.109   2.859  1.00  0.00     0.041 A 
ATOM     18  C   UNL     1       2.349  -1.138   1.862  1.00  0.00     0.119 A 
ATOM     19  C   UNL     1       2.680  -1.903   2.976  1.00  0.00     0.048 A 
ATOM     20  C   UNL     1       3.346  -0.470   1.159  1.00  0.00     0.048 A 
ATOM     21  C   UNL     1       3.991  -1.911   3.456  1.00  0.00     0.030 A 
ATOM     22  C   UNL     1       4.660  -0.487   1.639  1.00  0.00     0.030 A 
BRANCH  18  23
ATOM     23  O   UNL     1       1.020  -0.914   1.647  1.00  0.00    -0.494 OA
BRANCH  23  24
ATOM     24  C   UNL     1       0.522  -1.372   0.395  1.00  0.00     0.226 C 
ATOM     25  C   UNL     1       0.445  -0.244  -0.618  1.00  0.00     0.049 C 
ENDBRANCH  23  24
ENDBRANCH  18  23
ENDBRANCH  14  17
ENDBRANCH  12  13
ENDBRANCH   6  12
ENDBRANCH   5   6
ENDBRANCH   1   5
BRANCH   3  26
ATOM     26  C   UNL     1       5.525   3.321   4.423  1.00  0.00     0.116 C 
BRANCH  26  27
ATOM     27  C   UNL     1       7.048   3.281   4.454  1.00  0.00     0.023 C 
BRANCH  27  28
ATOM     28  C   UNL     1       7.741   3.709   3.169  1.00  0.00     0.023 C 
BRANCH  28  29
ATOM     29  C   UNL     1       7.329   5.072   2.640  1.00  0.00     0.116 C 
BRANCH  29  30
ATOM     30  N   UNL     1       7.248   6.114   3.656  1.00  0.00    -0.352 N 
ATOM     31  C   UNL     1       7.512   7.458   3.515  1.00  0.00     0.251 C 
ATOM     32  H   UNL     1       6.972   5.821   4.555  1.00  0.00     0.163 HD
ATOM     33  O   UNL     1       7.434   8.228   4.453  1.00  0.00    -0.269 OA
BRANCH  31  34
ATOM     34  C   UNL     1       7.954   7.922   2.188  1.00  0.00     0.039 A 
ATOM     35  C   UNL     1       9.214   8.509   2.073  1.00  0.00     0.014 A 
ATOM     36  C   UNL     1       7.186   7.621   1.060  1.00  0.00     0.014 A 
ATOM     37  C   UNL     1       9.749   8.719   0.804  1.00  0.00     0.010 A 
ATOM     38  C   UNL     1       7.757   7.750  -0.196  1.00  0.00     0.010 A 
ATOM     39  C   UNL     1       9.044   8.296  -0.334  1.00  0.00    -0.014 A 
BRANCH  39  40
ATOM     40  C   UNL     1       9.623   8.421  -1.690  1.00  0.00     0.031 A 
ATOM     41  C   UNL     1       8.947   9.302  -2.699  1.00  0.00     0.074 A 
ATOM     42  C   UNL     1      10.694   7.681  -2.035  1.00  0.00     0.049 A 
ATOM     43  N   UNL     1       9.221   9.466  -3.967  1.00  0.00    -0.248 NA
ATOM     44  C   UNL     1       7.782  10.071  -2.228  1.00  0.00     0.031 C 
ATOM     45  C   UNL     1      11.407   6.747  -1.158  1.00  0.00     0.029 A 
ATOM     46  N   UNL     1      11.367   7.594  -3.227  1.00  0.00    -0.354 N 
ATOM     47  C   UNL     1       8.243  10.324  -4.450  1.00  0.00     0.074 A 
ATOM     48  C   UNL     1       7.343  10.609  -3.355  1.00  0.00     0.031 C 
ATOM     49  C   UNL     1      12.436   6.208  -1.833  1.00  0.00     0.029 A 
ATOM     50  C   UNL     1      12.435   6.730  -3.195  1.00  0.00     0.049 A 
ATOM     51  H   UNL     1      11.110   8.103  -4.029  1.00  0.00     0.167 HD
ATOM     52  C   UNL     1       8.116  10.848  -5.691  1.00  0.00     0.031 A 
ATOM     53  C   UNL     1      13.313   6.399  -4.160  1.00  0.00     0.031 A 
ATOM     54  C   UNL     1       9.035  10.599  -6.765  1.00  0.00     0.049 A 
ATOM     55  C   UNL     1      13.178   7.028  -5.518  1.00  0.00     0.074 A 
ATOM     56  C   UNL     1       9.037  11.132  -8.041  1.00  0.00     0.029 A 
ATOM     57  N   UNL     1      10.129   9.752  -6.680  1.00  0.00    -0.354 N 
ATOM     58  N   UNL     1      12.277   7.879  -5.946  1.00  0.00    -0.248 NA
ATOM     59  C   UNL     1      14.185   6.657  -6.521  1.00  0.00     0.031 C 
ATOM     60  C   UNL     1      10.121  10.587  -8.738  1.00  0.00     0.029 A 
ATOM     61  C   UNL     1      10.811   9.742  -7.882  1.00  0.00     0.049 A 
ATOM     62  H   UNL     1      10.381   9.233  -5.882  1.00  0.00     0.167 HD
ATOM     63  C   UNL     1      12.623   8.165  -7.260  1.00  0.00     0.074 A 
ATOM     64  C   UNL     1      13.821   7.405  -7.554  1.00  0.00     0.031 C 
ATOM     65  C   UNL     1      12.005   8.983  -8.145  1.00  0.00     0.031 A 
BRANCH  52  66
ATOM     66  C   UNL     1       6.938  11.745  -5.936  1.00  0.00    -0.014 A 
ATOM     67  C   UNL     1       6.876  13.030  -5.373  1.00  0.00     0.009 A 
ATOM     68  C   UNL     1       5.875  11.299  -6.735  1.00  0.00     0.009 A 
ATOM     69  C   UNL     1       5.753  13.835  -5.571  1.00  0.00     0.001 A 
ATOM     70  C   UNL     1       4.765  12.117  -6.953  1.00  0.00     0.001 A 
ATOM     71  C   UNL     1       4.700  13.379  -6.363  1.00  0.00     0.000 A 
ENDBRANCH  52  66
BRANCH  53  72
ATOM     72  C   UNL     1      14.421   5.455  -3.869  1.00  0.00    -0.014 A 
ATOM     73  C   UNL     1      15.733   5.931  -3.723  1.00  0.00     0.009 A 
ATOM     74  C   UNL     1      14.178   4.079  -3.740  1.00  0.00     0.009 A 
ATOM     75  C   UNL     1      16.785   5.045  -3.479  1.00  0.00     0.001 A 
ATOM     76  C   UNL     1      15.229   3.198  -3.474  1.00  0.00     0.001 A 
ATOM     77  C   UNL     1      16.531   3.680  -3.351  1.00  0.00     0.000 A 
ENDBRANCH  53  72
BRANCH  65  78
ATOM     78  C   UNL     1      12.633   9.123  -9.499  1.00  0.00    -0.014 A 
ATOM     79  C   UNL     1      12.499   8.117 -10.466  1.00  0.00     0.009 A 
ATOM     80  C   UNL     1      13.323  10.301  -9.824  1.00  0.00     0.009 A 
ATOM     81  C   UNL     1      13.067   8.278 -11.731  1.00  0.00     0.001 A 
ATOM     82  C   UNL     1      13.872  10.468 -11.096  1.00  0.00     0.001 A 
ATOM     83  C   UNL     1      13.749   9.454 -12.045  1.00  0.00     0.000 A 
ENDBRANCH  65  78
ENDBRANCH  39  40
ENDBRANCH  31  34
ENDBRANCH  29  30
ENDBRANCH  28  29
ENDBRANCH  27  28
ENDBRANCH  26  27
ENDBRANCH   3  26
TORSDOF 17
