REMARK SMILES O=C(COCCNC(=O)c1ccn[nH]1)NCCCCNC(=O)c1ccc(-c2c3nc(c(-c4ccccc4)c4ccc([nH]4)c(-c4ccccc4)c4nc(c(-c5ccccc5)c5ccc2[nH]5)C=C4)C=C3)cc1
REMARK SMILES IDX 16 1 15 2 1 3 2 4 3 6 4 7 5 8 6 9 7 10 8 11 9 13 10 14 11 15
REMARK SMILES IDX 14 16 12 17 13 18 17 20 18 21 19 22 20 23 21 24 22 26 23 27
REMARK SMILES IDX 24 28 70 29 25 30 69 31 26 32 27 33 28 34 63 35 29 36 68 37
REMARK SMILES IDX 62 38 64 39 30 40 67 41 61 42 60 43 31 45 53 46 38 47 52 48
REMARK SMILES IDX 39 49 42 50 51 51 65 52 40 53 41 54 50 56 66 57 43 58 32 59
REMARK SMILES IDX 33 60 37 61 34 62 36 63 35 64 54 65 55 66 59 67 56 68 58 69
REMARK SMILES IDX 57 70 44 71 45 72 49 73 46 74 48 75 47 76
REMARK H PARENT 15 5 7 12 14 19 20 25 64 44 42 55
REMARK Flexibility Score: inf
ROOT
ATOM      1  C   UNL     1       1.923   1.985  -1.760  1.00  0.00     0.116 C 
ENDROOT
BRANCH   1   2
ATOM      2  N   UNL     1       2.574   0.934  -1.009  1.00  0.00    -0.354 N 
ATOM      3  O   UNL     1       0.899   0.678   0.548  1.00  0.00    -0.272 OA
ATOM      4  C   UNL     1       1.981   0.335   0.083  1.00  0.00     0.245 C 
ATOM      5  H   UNL     1       3.470   0.637  -1.287  1.00  0.00     0.163 HD
BRANCH   4   6
ATOM      6  C   UNL     1       2.829  -0.782   0.696  1.00  0.00     0.260 C 
BRANCH   6   7
ATOM      7  O   UNL     1       3.445  -1.645  -0.254  1.00  0.00    -0.370 OA
BRANCH   7   8
ATOM      8  C   UNL     1       2.536  -2.524  -0.931  1.00  0.00     0.182 C 
BRANCH   8   9
ATOM      9  C   UNL     1       2.141  -3.740  -0.080  1.00  0.00     0.144 C 
BRANCH   9  10
ATOM     10  N   UNL     1       0.974  -3.517   0.759  1.00  0.00    -0.348 N 
ATOM     11  C   UNL     1      -0.340  -3.327   0.424  1.00  0.00     0.269 C 
ATOM     12  H   UNL     1       1.160  -3.498   1.726  1.00  0.00     0.163 HD
ATOM     13  O   UNL     1      -1.107  -2.970   1.319  1.00  0.00    -0.268 OA
BRANCH  11  14
ATOM     14  C   UNL     1      -0.793  -3.496  -0.929  1.00  0.00     0.122 A 
ATOM     15  C   UNL     1      -0.438  -4.326  -1.976  1.00  0.00     0.055 A 
ATOM     16  N   UNL     1      -1.871  -2.788  -1.399  1.00  0.00    -0.273 N 
ATOM     17  C   UNL     1      -1.318  -4.000  -3.025  1.00  0.00     0.135 A 
ATOM     18  N   UNL     1      -2.178  -3.042  -2.683  1.00  0.00    -0.183 NA
ATOM     19  H   UNL     1      -2.376  -2.150  -0.844  1.00  0.00     0.190 HD
ENDBRANCH  11  14
ENDBRANCH   9  10
ENDBRANCH   8   9
ENDBRANCH   7   8
ENDBRANCH   6   7
ENDBRANCH   4   6
ENDBRANCH   1   2
BRANCH   1  20
ATOM     20  C   UNL     1       1.942   3.340  -1.052  1.00  0.00     0.023 C 
BRANCH  20  21
ATOM     21  C   UNL     1       3.333   3.897  -0.725  1.00  0.00     0.023 C 
BRANCH  21  22
ATOM     22  C   UNL     1       4.322   3.955  -1.889  1.00  0.00     0.116 C 
BRANCH  22  23
ATOM     23  N   UNL     1       3.826   4.718  -3.020  1.00  0.00    -0.352 N 
ATOM     24  C   UNL     1       4.517   5.443  -3.957  1.00  0.00     0.251 C 
ATOM     25  H   UNL     1       2.848   4.713  -3.132  1.00  0.00     0.163 HD
ATOM     26  O   UNL     1       3.899   6.095  -4.795  1.00  0.00    -0.269 OA
BRANCH  24  27
ATOM     27  C   UNL     1       5.997   5.483  -3.956  1.00  0.00     0.039 A 
ATOM     28  C   UNL     1       6.619   6.725  -4.132  1.00  0.00     0.014 A 
ATOM     29  C   UNL     1       6.773   4.324  -3.852  1.00  0.00     0.014 A 
ATOM     30  C   UNL     1       8.012   6.815  -4.155  1.00  0.00     0.010 A 
ATOM     31  C   UNL     1       8.167   4.416  -3.859  1.00  0.00     0.010 A 
ATOM     32  C   UNL     1       8.795   5.662  -4.005  1.00  0.00    -0.014 A 
BRANCH  32  33
ATOM     33  C   UNL     1      10.272   5.754  -3.994  1.00  0.00     0.031 A 
ATOM     34  C   UNL     1      11.067   5.402  -5.215  1.00  0.00     0.074 A 
ATOM     35  C   UNL     1      10.905   6.141  -2.872  1.00  0.00     0.049 A 
ATOM     36  N   UNL     1      12.366   5.308  -5.351  1.00  0.00    -0.248 NA
ATOM     37  C   UNL     1      10.306   5.109  -6.439  1.00  0.00     0.031 C 
ATOM     38  C   UNL     1      10.253   6.513  -1.615  1.00  0.00     0.029 A 
ATOM     39  N   UNL     1      12.243   6.285  -2.613  1.00  0.00    -0.354 N 
ATOM     40  C   UNL     1      12.579   4.912  -6.663  1.00  0.00     0.074 A 
ATOM     41  C   UNL     1      11.277   4.808  -7.291  1.00  0.00     0.031 C 
ATOM     42  C   UNL     1      11.196   6.853  -0.720  1.00  0.00     0.029 A 
ATOM     43  C   UNL     1      12.511   6.709  -1.337  1.00  0.00     0.049 A 
ATOM     44  H   UNL     1      12.945   6.101  -3.280  1.00  0.00     0.167 HD
ATOM     45  C   UNL     1      13.751   4.644  -7.285  1.00  0.00     0.031 A 
ATOM     46  C   UNL     1      13.686   6.949  -0.729  1.00  0.00     0.031 A 
ATOM     47  C   UNL     1      15.049   4.762  -6.679  1.00  0.00     0.049 A 
ATOM     48  C   UNL     1      14.971   6.735  -1.470  1.00  0.00     0.074 A 
ATOM     49  C   UNL     1      16.286   4.437  -7.210  1.00  0.00     0.029 A 
ATOM     50  N   UNL     1      15.278   5.272  -5.413  1.00  0.00    -0.354 N 
ATOM     51  N   UNL     1      15.153   6.275  -2.682  1.00  0.00    -0.248 NA
ATOM     52  C   UNL     1      16.211   7.072  -0.755  1.00  0.00     0.031 C 
ATOM     53  C   UNL     1      17.268   4.773  -6.268  1.00  0.00     0.029 A 
ATOM     54  C   UNL     1      16.637   5.303  -5.155  1.00  0.00     0.049 A 
ATOM     55  H   UNL     1      14.577   5.569  -4.788  1.00  0.00     0.167 HD
ATOM     56  C   UNL     1      16.527   6.246  -2.870  1.00  0.00     0.074 A 
ATOM     57  C   UNL     1      17.132   6.755  -1.656  1.00  0.00     0.031 C 
ATOM     58  C   UNL     1      17.224   5.818  -3.949  1.00  0.00     0.031 A 
BRANCH  45  59
ATOM     59  C   UNL     1      13.670   4.169  -8.701  1.00  0.00    -0.014 A 
ATOM     60  C   UNL     1      13.705   5.084  -9.763  1.00  0.00     0.009 A 
ATOM     61  C   UNL     1      13.573   2.797  -8.977  1.00  0.00     0.009 A 
ATOM     62  C   UNL     1      13.629   4.632 -11.081  1.00  0.00     0.001 A 
ATOM     63  C   UNL     1      13.500   2.349 -10.297  1.00  0.00     0.001 A 
ATOM     64  C   UNL     1      13.525   3.266 -11.347  1.00  0.00     0.000 A 
ENDBRANCH  45  59
BRANCH  46  65
ATOM     65  C   UNL     1      13.701   7.415   0.675  1.00  0.00    -0.014 A 
ATOM     66  C   UNL     1      13.656   8.786   0.965  1.00  0.00     0.009 A 
ATOM     67  C   UNL     1      13.749   6.489   1.726  1.00  0.00     0.009 A 
ATOM     68  C   UNL     1      13.667   9.223   2.291  1.00  0.00     0.001 A 
ATOM     69  C   UNL     1      13.759   6.931   3.050  1.00  0.00     0.001 A 
ATOM     70  C   UNL     1      13.719   8.296   3.331  1.00  0.00     0.000 A 
ENDBRANCH  46  65
BRANCH  58  71
ATOM     71  C   UNL     1      18.716   5.877  -3.854  1.00  0.00    -0.014 A 
ATOM     72  C   UNL     1      19.434   4.779  -3.359  1.00  0.00     0.009 A 
ATOM     73  C   UNL     1      19.409   7.023  -4.269  1.00  0.00     0.009 A 
ATOM     74  C   UNL     1      20.826   4.833  -3.268  1.00  0.00     0.001 A 
ATOM     75  C   UNL     1      20.800   7.074  -4.175  1.00  0.00     0.001 A 
ATOM     76  C   UNL     1      21.507   5.981  -3.673  1.00  0.00     0.000 A 
ENDBRANCH  58  71
ENDBRANCH  32  33
ENDBRANCH  24  27
ENDBRANCH  22  23
ENDBRANCH  21  22
ENDBRANCH  20  21
ENDBRANCH   1  20
TORSDOF 16
