REMARK SMILES CC(C)C[C@@H](NC(=O)Cn1nc(O)ccc1=O)C(=O)NCCCCNC(=O)c1ccc(-c2c3nc(c(-c4ccccc4)c4ccc([nH]4)c(-c4ccccc4)c4nc(c(-c5ccccc5)c5ccc2[nH]5)C=C4)C=C3)cc1
REMARK SMILES IDX 21 1 20 2 18 3 19 4 5 6 4 7 2 8 1 9 3 10 6 11 7 12 8 14 9 15
REMARK SMILES IDX 10 16 11 17 16 18 12 19 15 20 17 21 14 22 13 23 22 25 23 26
REMARK SMILES IDX 24 27 25 28 26 29 27 31 28 32 29 33 75 34 30 35 74 36 31 37
REMARK SMILES IDX 32 38 33 39 68 40 34 41 73 42 67 43 69 44 35 45 72 46 66 47
REMARK SMILES IDX 65 48 36 50 58 51 43 52 57 53 44 54 47 55 56 56 70 57 45 58
REMARK SMILES IDX 46 59 55 61 71 62 48 63 37 64 38 65 42 66 39 67 41 68 40 69
REMARK SMILES IDX 59 70 60 71 64 72 61 73 63 74 62 75 49 76 50 77 54 78 51 79
REMARK SMILES IDX 53 80 52 81
REMARK H PARENT 20 5 6 13 13 24 25 30 69 49 47 60
REMARK Flexibility Score: inf
ROOT
ATOM      1  C   UNL     1      -4.269  -2.078   3.058  1.00  0.00     0.116 C 
ENDROOT
BRANCH   1   2
ATOM      2  N   UNL     1      -3.948  -1.238   1.164  1.00  0.00    -0.354 N 
ATOM      3  C   UNL     1      -3.114  -0.953   0.036  1.00  0.00     0.242 C 
ATOM      4  O   UNL     1      -3.788  -0.480  -0.903  1.00  0.00    -0.273 OA
ATOM      5  H   UNL     1      -4.815  -0.833   0.930  1.00  0.00     0.163 HD
BRANCH   3   6
ATOM      6  C   UNL     1      -1.537  -1.215  -0.266  1.00  0.00     0.171 C 
BRANCH   6   7
ATOM      7  C   UNL     1      -0.470  -0.675   0.697  1.00  0.00     0.038 C 
BRANCH   7   8
ATOM      8  C   UNL     1       1.053  -0.728   0.458  1.00  0.00    -0.015 C 
ATOM      9  C   UNL     1       1.573  -0.012  -0.772  1.00  0.00     0.007 C 
ATOM     10  C   UNL     1       1.723  -0.161   1.730  1.00  0.00     0.007 C 
ENDBRANCH   7   8
ENDBRANCH   6   7
BRANCH   6  11
ATOM     11  N   UNL     1      -1.175  -2.564  -0.680  1.00  0.00    -0.343 N 
ATOM     12  C   UNL     1      -1.128  -3.665   0.120  1.00  0.00     0.242 C 
ATOM     13  H   UNL     1      -0.942  -2.691  -1.628  1.00  0.00     0.164 HD
ATOM     14  O   UNL     1      -0.283  -4.526  -0.143  1.00  0.00    -0.273 OA
BRANCH  12  15
ATOM     15  C   UNL     1      -2.204  -3.933   1.162  1.00  0.00     0.248 C 
BRANCH  15  16
ATOM     16  N   UNL     1      -3.043  -2.837   1.601  1.00  0.00    -0.217 N 
ATOM     17  N   UNL     1      -4.838  -3.073   1.255  1.00  0.00    -0.131 NA
ATOM     18  C   UNL     1      -2.510  -1.320   2.491  1.00  0.00     0.267 A 
ATOM     19  C   UNL     1      -5.811  -2.024   1.598  1.00  0.00     0.229 A 
ATOM     20  C   UNL     1      -3.930   0.034   2.675  1.00  0.00     0.079 A 
ATOM     21  O   UNL     1      -1.500  -1.231   3.183  1.00  0.00    -0.268 OA
ATOM     22  C   UNL     1      -5.391  -0.319   2.367  1.00  0.00     0.075 A 
BRANCH  19  23
ATOM     23  O   UNL     1      -7.141  -2.222   1.660  1.00  0.00    -0.492 OA
ATOM     24  H   UNL     1      -7.513  -3.013   1.323  1.00  0.00     0.295 HD
ENDBRANCH  19  23
ENDBRANCH  15  16
ENDBRANCH  12  15
ENDBRANCH   6  11
ENDBRANCH   3   6
ENDBRANCH   1   2
BRANCH   1  25
ATOM     25  C   UNL     1      -4.144  -1.364   4.636  1.00  0.00     0.023 C 
BRANCH  25  26
ATOM     26  C   UNL     1      -4.794  -2.240   5.726  1.00  0.00     0.023 C 
BRANCH  26  27
ATOM     27  C   UNL     1      -4.444  -3.719   5.606  1.00  0.00     0.116 C 
BRANCH  27  28
ATOM     28  N   UNL     1      -4.493  -4.431   6.861  1.00  0.00    -0.352 N 
ATOM     29  C   UNL     1      -5.540  -4.807   7.655  1.00  0.00     0.251 C 
ATOM     30  H   UNL     1      -3.610  -4.695   7.209  1.00  0.00     0.163 HD
ATOM     31  O   UNL     1      -5.312  -5.367   8.724  1.00  0.00    -0.269 OA
BRANCH  29  32
ATOM     32  C   UNL     1      -6.936  -4.487   7.290  1.00  0.00     0.039 A 
ATOM     33  C   UNL     1      -7.464  -4.730   6.020  1.00  0.00     0.014 A 
ATOM     34  C   UNL     1      -7.761  -3.984   8.301  1.00  0.00     0.014 A 
ATOM     35  C   UNL     1      -8.786  -4.377   5.737  1.00  0.00     0.010 A 
ATOM     36  C   UNL     1      -9.101  -3.704   8.038  1.00  0.00     0.010 A 
ATOM     37  C   UNL     1      -9.623  -3.875   6.748  1.00  0.00    -0.014 A 
BRANCH  37  38
ATOM     38  C   UNL     1     -11.056  -3.578   6.485  1.00  0.00     0.031 A 
ATOM     39  C   UNL     1     -11.593  -2.184   6.663  1.00  0.00     0.074 A 
ATOM     40  C   UNL     1     -11.887  -4.577   6.130  1.00  0.00     0.049 A 
ATOM     41  N   UNL     1     -12.828  -1.760   6.573  1.00  0.00    -0.248 NA
ATOM     42  C   UNL     1     -10.621  -1.129   6.994  1.00  0.00     0.031 C 
ATOM     43  C   UNL     1     -11.490  -5.970   5.920  1.00  0.00     0.029 A 
ATOM     44  N   UNL     1     -13.238  -4.576   5.881  1.00  0.00    -0.354 N 
ATOM     45  C   UNL     1     -12.787  -0.403   6.869  1.00  0.00     0.074 A 
ATOM     46  C   UNL     1     -11.409  -0.075   7.159  1.00  0.00     0.031 C 
ATOM     47  C   UNL     1     -12.561  -6.679   5.534  1.00  0.00     0.029 A 
ATOM     48  C   UNL     1     -13.735  -5.812   5.544  1.00  0.00     0.049 A 
ATOM     49  H   UNL     1     -13.796  -3.767   5.939  1.00  0.00     0.167 HD
ATOM     50  C   UNL     1     -13.807   0.486   6.892  1.00  0.00     0.031 A 
ATOM     51  C   UNL     1     -14.995  -6.218   5.295  1.00  0.00     0.031 A 
ATOM     52  C   UNL     1     -15.176   0.155   6.591  1.00  0.00     0.049 A 
ATOM     53  C   UNL     1     -16.115  -5.221   5.370  1.00  0.00     0.074 A 
ATOM     54  C   UNL     1     -16.270   1.002   6.545  1.00  0.00     0.029 A 
ATOM     55  N   UNL     1     -15.639  -1.116   6.292  1.00  0.00    -0.354 N 
ATOM     56  N   UNL     1     -16.056  -3.937   5.627  1.00  0.00    -0.248 NA
ATOM     57  C   UNL     1     -17.474  -5.725   5.125  1.00  0.00     0.031 C 
ATOM     58  C   UNL     1     -17.405   0.233   6.287  1.00  0.00     0.029 A 
ATOM     59  C   UNL     1     -17.009  -1.081   6.093  1.00  0.00     0.049 A 
ATOM     60  H   UNL     1     -15.079  -1.923   6.231  1.00  0.00     0.167 HD
ATOM     61  C   UNL     1     -17.363  -3.475   5.558  1.00  0.00     0.074 A 
ATOM     62  C   UNL     1     -18.193  -4.613   5.218  1.00  0.00     0.031 C 
ATOM     63  C   UNL     1     -17.829  -2.219   5.760  1.00  0.00     0.031 A 
BRANCH  50  64
ATOM     64  C   UNL     1     -13.503   1.911   7.270  1.00  0.00    -0.014 A 
ATOM     65  C   UNL     1     -14.020   2.438   8.465  1.00  0.00     0.009 A 
ATOM     66  C   UNL     1     -12.800   2.762   6.404  1.00  0.00     0.009 A 
ATOM     67  C   UNL     1     -13.855   3.788   8.778  1.00  0.00     0.001 A 
ATOM     68  C   UNL     1     -12.609   4.106   6.733  1.00  0.00     0.001 A 
ATOM     69  C   UNL     1     -13.146   4.620   7.914  1.00  0.00     0.000 A 
ENDBRANCH  50  64
BRANCH  51  70
ATOM     70  C   UNL     1     -15.241  -7.641   4.940  1.00  0.00    -0.014 A 
ATOM     71  C   UNL     1     -15.044  -8.662   5.885  1.00  0.00     0.009 A 
ATOM     72  C   UNL     1     -15.594  -7.992   3.629  1.00  0.00     0.009 A 
ATOM     73  C   UNL     1     -15.156 -10.004   5.516  1.00  0.00     0.001 A 
ATOM     74  C   UNL     1     -15.738  -9.335   3.270  1.00  0.00     0.001 A 
ATOM     75  C   UNL     1     -15.505 -10.339   4.209  1.00  0.00     0.000 A 
ENDBRANCH  51  70
BRANCH  63  76
ATOM     76  C   UNL     1     -19.306  -1.980   5.609  1.00  0.00    -0.014 A 
ATOM     77  C   UNL     1     -19.777  -1.186   4.550  1.00  0.00     0.009 A 
ATOM     78  C   UNL     1     -20.217  -2.435   6.574  1.00  0.00     0.009 A 
ATOM     79  C   UNL     1     -21.124  -0.832   4.473  1.00  0.00     0.001 A 
ATOM     80  C   UNL     1     -21.570  -2.106   6.477  1.00  0.00     0.001 A 
ATOM     81  C   UNL     1     -22.020  -1.295   5.435  1.00  0.00     0.000 A 
ENDBRANCH  63  76
ENDBRANCH  37  38
ENDBRANCH  29  32
ENDBRANCH  27  28
ENDBRANCH  26  27
ENDBRANCH  25  26
ENDBRANCH   1  25
TORSDOF 17
