REMARK SMILES C[C@@H]1CCN(c2cncc(C(=O)NCCCCNC(=O)c3ccc(-c4c5nc(c(-c6ccccc6)c6ccc([nH]6)c(-c6ccccc6)c6nc(c(-c7ccccc7)c7ccc4[nH]7)C=C6)C=C5)cc3)n2)[C@H](C)C1
REMARK SMILES IDX 16 1 15 2 14 3 13 4 11 5 12 6 10 8 6 9 7 10 69 11 8 12 9 13
REMARK SMILES IDX 5 14 1 15 2 16 3 17 72 18 4 19 70 20 71 21 17 22 18 23 19 24
REMARK SMILES IDX 20 26 21 27 22 28 68 29 23 30 67 31 24 32 25 33 26 34 61 35
REMARK SMILES IDX 27 36 66 37 60 38 62 39 28 40 65 41 59 42 58 43 29 45 51 46
REMARK SMILES IDX 36 47 50 48 37 49 40 50 49 51 63 52 38 53 39 54 48 56 64 57
REMARK SMILES IDX 41 58 30 59 31 60 35 61 32 62 34 63 33 64 52 65 53 66 57 67
REMARK SMILES IDX 54 68 56 69 55 70 42 71 43 72 47 73 44 74 46 75 45 76
REMARK H PARENT 13 7 18 25 62 44 40 55
REMARK Flexibility Score: inf
ROOT
ATOM      1  C   UNL     1      -5.948   1.362  -3.749  1.00  0.00     0.023 C 
ENDROOT
BRANCH   1   2
ATOM      2  C   UNL     1      -5.100   0.897  -2.560  1.00  0.00     0.023 C 
BRANCH   2   3
ATOM      3  C   UNL     1      -5.321   1.704  -1.281  1.00  0.00     0.116 C 
BRANCH   3   4
ATOM      4  N   UNL     1      -6.553   1.334  -0.614  1.00  0.00    -0.351 N 
ATOM      5  C   UNL     1      -6.780   0.488   0.449  1.00  0.00     0.271 C 
ATOM      6  O   UNL     1      -7.950   0.349   0.816  1.00  0.00    -0.267 OA
ATOM      7  H   UNL     1      -7.362   1.757  -0.983  1.00  0.00     0.163 HD
BRANCH   5   8
ATOM      8  C   UNL     1      -5.700  -0.263   1.160  1.00  0.00     0.148 A 
ATOM      9  C   UNL     1      -3.470  -0.825   1.457  1.00  0.00     0.148 A 
ATOM     10  C   UNL     1      -3.880  -1.706   2.465  1.00  0.00     0.157 A 
ATOM     11  N   UNL     1      -4.399  -0.089   0.806  1.00  0.00    -0.222 NA
ATOM     12  N   UNL     1      -5.168  -1.885   2.852  1.00  0.00    -0.258 NA
ATOM     13  C   UNL     1      -6.069  -1.138   2.172  1.00  0.00     0.145 A 
BRANCH   9  14
ATOM     14  N   UNL     1      -2.139  -0.654   1.134  1.00  0.00    -0.353 N 
ATOM     15  C   UNL     1       1.510  -0.227   0.247  1.00  0.00     0.008 C 
ATOM     16  C   UNL     1       0.696  -0.264   1.542  1.00  0.00    -0.011 C 
ATOM     17  C   UNL     1       0.014  -1.625   1.757  1.00  0.00     0.025 C 
ATOM     18  C   UNL     1      -0.325   0.885   1.651  1.00  0.00     0.028 C 
ATOM     19  C   UNL     1      -1.259  -1.797   0.930  1.00  0.00     0.118 C 
ATOM     20  C   UNL     1      -1.630   0.689   0.857  1.00  0.00     0.081 C 
ATOM     21  C   UNL     1      -1.463   0.947  -0.637  1.00  0.00     0.031 C 
ENDBRANCH   9  14
ENDBRANCH   5   8
ENDBRANCH   3   4
ENDBRANCH   2   3
ENDBRANCH   1   2
BRANCH   1  22
ATOM     22  C   UNL     1      -5.795   2.834  -4.126  1.00  0.00     0.116 C 
BRANCH  22  23
ATOM     23  N   UNL     1      -4.419   3.232  -4.388  1.00  0.00    -0.352 N 
ATOM     24  C   UNL     1      -3.950   4.144  -5.303  1.00  0.00     0.251 C 
ATOM     25  H   UNL     1      -3.734   2.789  -3.836  1.00  0.00     0.163 HD
ATOM     26  O   UNL     1      -2.744   4.304  -5.465  1.00  0.00    -0.269 OA
BRANCH  24  27
ATOM     27  C   UNL     1      -4.915   4.899  -6.128  1.00  0.00     0.039 A 
ATOM     28  C   UNL     1      -4.753   4.907  -7.516  1.00  0.00     0.014 A 
ATOM     29  C   UNL     1      -6.000   5.552  -5.537  1.00  0.00     0.014 A 
ATOM     30  C   UNL     1      -5.729   5.497  -8.320  1.00  0.00     0.010 A 
ATOM     31  C   UNL     1      -7.003   6.083  -6.342  1.00  0.00     0.010 A 
ATOM     32  C   UNL     1      -6.883   6.049  -7.740  1.00  0.00    -0.014 A 
BRANCH  32  33
ATOM     33  C   UNL     1      -7.996   6.560  -8.577  1.00  0.00     0.031 A 
ATOM     34  C   UNL     1      -8.367   8.014  -8.544  1.00  0.00     0.074 A 
ATOM     35  C   UNL     1      -8.733   5.693  -9.299  1.00  0.00     0.049 A 
ATOM     36  N   UNL     1      -9.356   8.627  -9.144  1.00  0.00    -0.248 NA
ATOM     37  C   UNL     1      -7.535   8.889  -7.704  1.00  0.00     0.031 C 
ATOM     38  C   UNL     1      -8.512   4.247  -9.371  1.00  0.00     0.029 A 
ATOM     39  N   UNL     1      -9.831   5.902 -10.095  1.00  0.00    -0.354 N 
ATOM     40  C   UNL     1      -9.277   9.953  -8.740  1.00  0.00     0.074 A 
ATOM     41  C   UNL     1      -8.172  10.046  -7.809  1.00  0.00     0.031 C 
ATOM     42  C   UNL     1      -9.437   3.701 -10.177  1.00  0.00     0.029 A 
ATOM     43  C   UNL     1     -10.335   4.750 -10.649  1.00  0.00     0.049 A 
ATOM     44  H   UNL     1     -10.220   6.792 -10.254  1.00  0.00     0.167 HD
ATOM     45  C   UNL     1     -10.044  11.002  -9.120  1.00  0.00     0.031 A 
ATOM     46  C   UNL     1     -11.408   4.556 -11.438  1.00  0.00     0.031 A 
ATOM     47  C   UNL     1     -11.138  10.912 -10.050  1.00  0.00     0.049 A 
ATOM     48  C   UNL     1     -12.243   5.734 -11.849  1.00  0.00     0.074 A 
ATOM     49  C   UNL     1     -11.928  11.930 -10.554  1.00  0.00     0.029 A 
ATOM     50  N   UNL     1     -11.602   9.731 -10.609  1.00  0.00    -0.354 N 
ATOM     51  N   UNL     1     -12.104   6.996 -11.526  1.00  0.00    -0.248 NA
ATOM     52  C   UNL     1     -13.378   5.461 -12.743  1.00  0.00     0.031 C 
ATOM     53  C   UNL     1     -12.902  11.359 -11.381  1.00  0.00     0.029 A 
ATOM     54  C   UNL     1     -12.686   9.991 -11.431  1.00  0.00     0.049 A 
ATOM     55  H   UNL     1     -11.217   8.839 -10.446  1.00  0.00     0.167 HD
ATOM     56  C   UNL     1     -13.121   7.671 -12.187  1.00  0.00     0.074 A 
ATOM     57  C   UNL     1     -13.858   6.680 -12.945  1.00  0.00     0.031 C 
ATOM     58  C   UNL     1     -13.417   8.993 -12.168  1.00  0.00     0.031 A 
BRANCH  45  59
ATOM     59  C   UNL     1      -9.726  12.340  -8.514  1.00  0.00    -0.014 A 
ATOM     60  C   UNL     1      -8.554  13.034  -8.857  1.00  0.00     0.009 A 
ATOM     61  C   UNL     1     -10.615  12.921  -7.598  1.00  0.00     0.009 A 
ATOM     62  C   UNL     1      -8.258  14.261  -8.261  1.00  0.00     0.001 A 
ATOM     63  C   UNL     1     -10.331  14.162  -7.025  1.00  0.00     0.001 A 
ATOM     64  C   UNL     1      -9.148  14.825  -7.348  1.00  0.00     0.000 A 
ENDBRANCH  45  59
BRANCH  46  65
ATOM     65  C   UNL     1     -11.745   3.184 -11.896  1.00  0.00    -0.014 A 
ATOM     66  C   UNL     1     -11.516   2.801 -13.226  1.00  0.00     0.009 A 
ATOM     67  C   UNL     1     -12.280   2.246 -11.000  1.00  0.00     0.009 A 
ATOM     68  C   UNL     1     -11.833   1.509 -13.653  1.00  0.00     0.001 A 
ATOM     69  C   UNL     1     -12.572   0.948 -11.424  1.00  0.00     0.001 A 
ATOM     70  C   UNL     1     -12.355   0.583 -12.751  1.00  0.00     0.000 A 
ENDBRANCH  46  65
BRANCH  58  71
ATOM     71  C   UNL     1     -14.580   9.447 -13.003  1.00  0.00    -0.014 A 
ATOM     72  C   UNL     1     -15.901   9.183 -12.611  1.00  0.00     0.009 A 
ATOM     73  C   UNL     1     -14.351  10.185 -14.175  1.00  0.00     0.009 A 
ATOM     74  C   UNL     1     -16.970   9.625 -13.393  1.00  0.00     0.001 A 
ATOM     75  C   UNL     1     -15.422  10.648 -14.941  1.00  0.00     0.001 A 
ATOM     76  C   UNL     1     -16.730  10.361 -14.553  1.00  0.00     0.000 A 
ENDBRANCH  58  71
ENDBRANCH  32  33
ENDBRANCH  24  27
ENDBRANCH  22  23
ENDBRANCH   1  22
TORSDOF 12
