REMARK SMILES Cn1cncc1COc1c(F)cc(C(=O)NCCCCNC(=O)c2ccc(-c3c4nc(c(-c5ccccc5)c5ccc([nH]5)c(-c5ccccc5)c5nc(c(-c6ccccc6)c6ccc3[nH]6)C=C5)C=C4)cc2)cc1F
REMARK SMILES IDX 18 1 17 2 16 3 14 4 15 5 13 7 9 8 10 9 73 10 11 11 12 12
REMARK SMILES IDX 72 13 74 14 8 15 7 16 6 17 1 18 2 19 3 20 4 21 5 22 19 23
REMARK SMILES IDX 20 24 21 25 22 26 23 28 24 29 25 30 71 31 26 32 70 33 27 34
REMARK SMILES IDX 28 35 29 36 64 37 30 38 69 39 63 40 65 41 31 42 68 43 62 44
REMARK SMILES IDX 61 45 32 47 54 48 39 49 53 50 40 51 43 52 52 53 66 54 41 55
REMARK SMILES IDX 42 56 51 58 67 59 44 60 33 61 34 62 38 63 35 64 37 65 36 66
REMARK SMILES IDX 55 67 56 68 60 69 57 70 59 71 58 72 45 73 46 74 50 75 47 76
REMARK SMILES IDX 49 77 48 78
REMARK H PARENT 16 6 21 27 65 46 43 57
REMARK Flexibility Score: inf
ROOT
ATOM      1  C   UNL     1      -0.583   1.733   6.037  1.00  0.00     0.023 C 
ENDROOT
BRANCH   1   2
ATOM      2  C   UNL     1       0.818   1.113   6.028  1.00  0.00     0.116 C 
BRANCH   2   3
ATOM      3  N   UNL     1       0.867  -0.126   6.784  1.00  0.00    -0.352 N 
ATOM      4  C   UNL     1       0.801  -1.441   6.387  1.00  0.00     0.251 C 
ATOM      5  O   UNL     1       1.019  -2.312   7.228  1.00  0.00    -0.269 OA
ATOM      6  H   UNL     1       0.965  -0.003   7.756  1.00  0.00     0.163 HD
BRANCH   4   7
ATOM      7  C   UNL     1       0.500  -1.857   4.988  1.00  0.00     0.045 A 
ATOM      8  C   UNL     1      -0.055  -2.754   2.368  1.00  0.00     0.191 A 
ATOM      9  C   UNL     1      -0.568  -1.555   2.840  1.00  0.00     0.168 A 
ATOM     10  C   UNL     1       0.677  -3.545   3.248  1.00  0.00     0.168 A 
ATOM     11  F   UNL     1      -1.374  -0.798   2.089  1.00  0.00    -0.203 F 
ATOM     12  C   UNL     1      -0.292  -1.107   4.124  1.00  0.00     0.057 A 
ATOM     13  C   UNL     1       0.956  -3.109   4.548  1.00  0.00     0.057 A 
ATOM     14  F   UNL     1       1.122  -4.748   2.859  1.00  0.00    -0.203 F 
BRANCH   8  15
ATOM     15  O   UNL     1      -0.368  -3.199   1.112  1.00  0.00    -0.481 OA
BRANCH  15  16
ATOM     16  C   UNL     1       0.515  -2.677   0.103  1.00  0.00     0.285 C 
BRANCH  16  17
ATOM     17  C   UNL     1       0.020  -1.347  -0.350  1.00  0.00     0.075 A 
ATOM     18  C   UNL     1       2.174  -0.048  -0.123  1.00  0.00     0.151 C 
ATOM     19  N   UNL     1       0.767  -0.193  -0.400  1.00  0.00    -0.335 N 
ATOM     20  C   UNL     1      -0.063   0.828  -0.771  1.00  0.00     0.199 A 
ATOM     21  N   UNL     1      -1.275   0.395  -1.024  1.00  0.00    -0.245 NA
ATOM     22  C   UNL     1      -1.237  -0.951  -0.770  1.00  0.00     0.138 A 
ENDBRANCH  16  17
ENDBRANCH  15  16
ENDBRANCH   8  15
ENDBRANCH   4   7
ENDBRANCH   2   3
ENDBRANCH   1   2
BRANCH   1  23
ATOM     23  C   UNL     1      -0.914   2.588   7.256  1.00  0.00     0.023 C 
BRANCH  23  24
ATOM     24  C   UNL     1      -0.041   3.821   7.436  1.00  0.00     0.116 C 
BRANCH  24  25
ATOM     25  N   UNL     1      -0.052   4.720   6.294  1.00  0.00    -0.352 N 
ATOM     26  C   UNL     1       0.126   6.085   6.282  1.00  0.00     0.251 C 
ATOM     27  H   UNL     1      -0.206   4.300   5.417  1.00  0.00     0.163 HD
ATOM     28  O   UNL     1       0.008   6.718   5.244  1.00  0.00    -0.269 OA
BRANCH  26  29
ATOM     29  C   UNL     1       0.415   6.784   7.553  1.00  0.00     0.039 A 
ATOM     30  C   UNL     1      -0.326   7.924   7.872  1.00  0.00     0.014 A 
ATOM     31  C   UNL     1       1.384   6.302   8.436  1.00  0.00     0.014 A 
ATOM     32  C   UNL     1      -0.132   8.546   9.106  1.00  0.00     0.010 A 
ATOM     33  C   UNL     1       1.517   6.873   9.697  1.00  0.00     0.010 A 
ATOM     34  C   UNL     1       0.768   8.008  10.040  1.00  0.00    -0.014 A 
BRANCH  34  35
ATOM     35  C   UNL     1       0.945   8.633  11.373  1.00  0.00     0.031 A 
ATOM     36  C   UNL     1       2.267   9.241  11.754  1.00  0.00     0.074 A 
ATOM     37  C   UNL     1      -0.072   8.619  12.256  1.00  0.00     0.049 A 
ATOM     38  N   UNL     1       2.609   9.841  12.866  1.00  0.00    -0.248 NA
ATOM     39  C   UNL     1       3.356   9.139  10.769  1.00  0.00     0.031 C 
ATOM     40  C   UNL     1      -1.385   8.011  12.030  1.00  0.00     0.029 A 
ATOM     41  N   UNL     1      -0.160   9.138  13.523  1.00  0.00    -0.354 N 
ATOM     42  C   UNL     1       3.949  10.175  12.718  1.00  0.00     0.074 A 
ATOM     43  C   UNL     1       4.375   9.659  11.436  1.00  0.00     0.031 C 
ATOM     44  C   UNL     1      -2.160   8.227  13.105  1.00  0.00     0.029 A 
ATOM     45  C   UNL     1      -1.392   8.960  14.105  1.00  0.00     0.049 A 
ATOM     46  H   UNL     1       0.588   9.594  13.972  1.00  0.00     0.167 HD
ATOM     47  C   UNL     1       4.749  10.872  13.559  1.00  0.00     0.031 A 
ATOM     48  C   UNL     1      -1.852   9.353  15.307  1.00  0.00     0.031 A 
ATOM     49  C   UNL     1       4.323  11.397  14.829  1.00  0.00     0.049 A 
ATOM     50  C   UNL     1      -0.948  10.134  16.219  1.00  0.00     0.074 A 
ATOM     51  C   UNL     1       5.040  12.165  15.729  1.00  0.00     0.029 A 
ATOM     52  N   UNL     1       3.065  11.204  15.378  1.00  0.00    -0.354 N 
ATOM     53  N   UNL     1       0.293  10.512  16.029  1.00  0.00    -0.248 NA
ATOM     54  C   UNL     1      -1.518  10.559  17.505  1.00  0.00     0.031 C 
ATOM     55  C   UNL     1       4.230  12.398  16.846  1.00  0.00     0.029 A 
ATOM     56  C   UNL     1       2.991  11.822  16.615  1.00  0.00     0.049 A 
ATOM     57  H   UNL     1       2.333  10.703  14.952  1.00  0.00     0.167 HD
ATOM     58  C   UNL     1       0.643  11.242  17.158  1.00  0.00     0.074 A 
ATOM     59  C   UNL     1      -0.524  11.272  18.015  1.00  0.00     0.031 C 
ATOM     60  C   UNL     1       1.824  11.835  17.459  1.00  0.00     0.031 A 
BRANCH  47  61
ATOM     61  C   UNL     1       6.170  11.104  13.125  1.00  0.00    -0.014 A 
ATOM     62  C   UNL     1       6.473  11.965  12.057  1.00  0.00     0.009 A 
ATOM     63  C   UNL     1       7.222  10.471  13.804  1.00  0.00     0.009 A 
ATOM     64  C   UNL     1       7.796  12.155  11.653  1.00  0.00     0.001 A 
ATOM     65  C   UNL     1       8.546  10.687  13.418  1.00  0.00     0.001 A 
ATOM     66  C   UNL     1       8.831  11.520  12.337  1.00  0.00     0.000 A 
ENDBRANCH  47  61
BRANCH  48  67
ATOM     67  C   UNL     1      -3.250   9.046  15.708  1.00  0.00    -0.014 A 
ATOM     68  C   UNL     1      -4.207  10.070  15.794  1.00  0.00     0.009 A 
ATOM     69  C   UNL     1      -3.633   7.732  16.019  1.00  0.00     0.009 A 
ATOM     70  C   UNL     1      -5.509   9.789  16.214  1.00  0.00     0.001 A 
ATOM     71  C   UNL     1      -4.944   7.450  16.410  1.00  0.00     0.001 A 
ATOM     72  C   UNL     1      -5.877   8.480  16.518  1.00  0.00     0.000 A 
ENDBRANCH  48  67
BRANCH  60  73
ATOM     73  C   UNL     1       1.897  12.591  18.756  1.00  0.00    -0.014 A 
ATOM     74  C   UNL     1       1.900  11.923  19.991  1.00  0.00     0.009 A 
ATOM     75  C   UNL     1       1.980  13.992  18.740  1.00  0.00     0.009 A 
ATOM     76  C   UNL     1       1.940  12.647  21.184  1.00  0.00     0.001 A 
ATOM     77  C   UNL     1       2.052  14.711  19.933  1.00  0.00     0.001 A 
ATOM     78  C   UNL     1       2.019  14.039  21.154  1.00  0.00     0.000 A 
ENDBRANCH  60  73
ENDBRANCH  34  35
ENDBRANCH  26  29
ENDBRANCH  24  25
ENDBRANCH  23  24
ENDBRANCH   1  23
TORSDOF 14
