REMARK SMILES O=C(NCCCCNC(=O)[C@H]1CC2(CCN(C(=O)c3cccc(O)c3)CC2)CN1C(=O)C1CC1)c1ccc(-c2c3nc(c(-c4ccccc4)c4ccc([nH]4)c(-c4ccccc4)c4nc(c(-c5ccccc5)c5ccc2[nH]5)C=C4)C=C3)cc1
REMARK SMILES IDX 5 1 4 2 3 3 1 4 2 5 35 7 36 8 82 9 37 10 81 11 38 12 39 13
REMARK SMILES IDX 40 14 75 15 41 16 80 17 74 18 76 19 42 20 79 21 73 22 72 23
REMARK SMILES IDX 43 25 65 26 50 27 64 28 51 29 54 30 63 31 77 32 52 33 53 34
REMARK SMILES IDX 62 36 78 37 55 38 44 39 45 40 49 41 46 42 48 43 47 44 66 45
REMARK SMILES IDX 67 46 71 47 68 48 70 49 69 50 56 51 57 52 61 53 58 54 60 55
REMARK SMILES IDX 59 56 6 57 7 58 8 59 9 60 10 62 11 63 12 64 29 65 13 66
REMARK SMILES IDX 28 67 14 68 27 69 15 70 26 71 16 72 17 73 18 74 30 75 31 76
REMARK SMILES IDX 32 77 33 78 34 79 19 80 20 81 25 82 21 83 23 84 22 85 24 86
REMARK H PARENT 3 6 76 24 54 35 8 61 24 87
REMARK Flexibility Score: inf
ROOT
ATOM      1  C   UNL     1       6.374  -6.940   2.752  1.00  0.00     0.023 C 
ENDROOT
BRANCH   1   2
ATOM      2  C   UNL     1       5.913  -6.712   1.321  1.00  0.00     0.116 C 
BRANCH   2   3
ATOM      3  N   UNL     1       6.935  -7.083   0.362  1.00  0.00    -0.352 N 
ATOM      4  O   UNL     1       7.971  -8.409  -1.131  1.00  0.00    -0.269 OA
ATOM      5  C   UNL     1       6.921  -8.082  -0.576  1.00  0.00     0.251 C 
ATOM      6  H   UNL     1       7.755  -6.540   0.388  1.00  0.00     0.163 HD
BRANCH   5   7
ATOM      7  C   UNL     1       5.660  -8.768  -0.934  1.00  0.00     0.039 A 
ATOM      8  C   UNL     1       4.470  -8.052  -1.095  1.00  0.00     0.014 A 
ATOM      9  C   UNL     1       5.688 -10.142  -1.195  1.00  0.00     0.014 A 
ATOM     10  C   UNL     1       3.294  -8.717  -1.428  1.00  0.00     0.010 A 
ATOM     11  C   UNL     1       4.526 -10.796  -1.608  1.00  0.00     0.010 A 
ATOM     12  C   UNL     1       3.320 -10.088  -1.726  1.00  0.00    -0.014 A 
BRANCH  12  13
ATOM     13  C   UNL     1       2.111 -10.742  -2.280  1.00  0.00     0.031 A 
ATOM     14  C   UNL     1       1.402 -11.829  -1.530  1.00  0.00     0.074 A 
ATOM     15  C   UNL     1       1.681 -10.362  -3.499  1.00  0.00     0.049 A 
ATOM     16  N   UNL     1       0.371 -12.544  -1.900  1.00  0.00    -0.248 NA
ATOM     17  C   UNL     1       1.923 -12.165  -0.197  1.00  0.00     0.031 C 
ATOM     18  C   UNL     1       2.305  -9.325  -4.326  1.00  0.00     0.029 A 
ATOM     19  N   UNL     1       0.627 -10.802  -4.256  1.00  0.00    -0.354 N 
ATOM     20  C   UNL     1       0.134 -13.433  -0.860  1.00  0.00     0.074 A 
ATOM     21  C   UNL     1       1.140 -13.177   0.150  1.00  0.00     0.031 C 
ATOM     22  C   UNL     1       1.611  -9.194  -5.464  1.00  0.00     0.029 A 
ATOM     23  C   UNL     1       0.537 -10.180  -5.477  1.00  0.00     0.049 A 
ATOM     24  H   UNL     1      -0.003 -11.496  -3.955  1.00  0.00     0.167 HD
ATOM     25  C   UNL     1      -0.832 -14.378  -0.763  1.00  0.00     0.031 A 
ATOM     26  C   UNL     1      -0.294 -10.398  -6.512  1.00  0.00     0.031 A 
ATOM     27  C   UNL     1      -1.820 -14.630  -1.780  1.00  0.00     0.049 A 
ATOM     28  C   UNL     1      -1.337 -11.466  -6.393  1.00  0.00     0.074 A 
ATOM     29  C   UNL     1      -2.867 -15.535  -1.760  1.00  0.00     0.029 A 
ATOM     30  N   UNL     1      -1.875 -13.981  -3.005  1.00  0.00    -0.354 N 
ATOM     31  N   UNL     1      -1.577 -12.269  -5.384  1.00  0.00    -0.248 NA
ATOM     32  C   UNL     1      -2.221 -11.662  -7.548  1.00  0.00     0.031 C 
ATOM     33  C   UNL     1      -3.522 -15.471  -2.995  1.00  0.00     0.029 A 
ATOM     34  C   UNL     1      -2.918 -14.487  -3.762  1.00  0.00     0.049 A 
ATOM     35  H   UNL     1      -1.263 -13.266  -3.293  1.00  0.00     0.167 HD
ATOM     36  C   UNL     1      -2.648 -13.058  -5.776  1.00  0.00     0.074 A 
ATOM     37  C   UNL     1      -3.020 -12.626  -7.109  1.00  0.00     0.031 C 
ATOM     38  C   UNL     1      -3.267 -14.049  -5.090  1.00  0.00     0.031 A 
BRANCH  25  39
ATOM     39  C   UNL     1      -0.832 -15.241   0.469  1.00  0.00    -0.014 A 
ATOM     40  C   UNL     1      -1.199 -14.729   1.724  1.00  0.00     0.009 A 
ATOM     41  C   UNL     1      -0.471 -16.594   0.368  1.00  0.00     0.009 A 
ATOM     42  C   UNL     1      -1.162 -15.545   2.858  1.00  0.00     0.001 A 
ATOM     43  C   UNL     1      -0.461 -17.413   1.499  1.00  0.00     0.001 A 
ATOM     44  C   UNL     1      -0.795 -16.885   2.745  1.00  0.00     0.000 A 
ENDBRANCH  25  39
BRANCH  26  45
ATOM     45  C   UNL     1      -0.133  -9.595  -7.751  1.00  0.00    -0.014 A 
ATOM     46  C   UNL     1      -1.050  -8.586  -8.076  1.00  0.00     0.009 A 
ATOM     47  C   UNL     1       0.988  -9.788  -8.576  1.00  0.00     0.009 A 
ATOM     48  C   UNL     1      -0.851  -7.789  -9.206  1.00  0.00     0.001 A 
ATOM     49  C   UNL     1       1.198  -8.973  -9.689  1.00  0.00     0.001 A 
ATOM     50  C   UNL     1       0.277  -7.976 -10.005  1.00  0.00     0.000 A 
ENDBRANCH  26  45
BRANCH  38  51
ATOM     51  C   UNL     1      -4.428 -14.722  -5.763  1.00  0.00    -0.014 A 
ATOM     52  C   UNL     1      -4.229 -15.649  -6.798  1.00  0.00     0.009 A 
ATOM     53  C   UNL     1      -5.733 -14.463  -5.316  1.00  0.00     0.009 A 
ATOM     54  C   UNL     1      -5.321 -16.290  -7.385  1.00  0.00     0.001 A 
ATOM     55  C   UNL     1      -6.819 -15.124  -5.889  1.00  0.00     0.001 A 
ATOM     56  C   UNL     1      -6.613 -16.033  -6.926  1.00  0.00     0.000 A 
ENDBRANCH  38  51
ENDBRANCH  12  13
ENDBRANCH   5   7
ENDBRANCH   2   3
ENDBRANCH   1   2
BRANCH   1  57
ATOM     57  C   UNL     1       7.493  -6.009   3.236  1.00  0.00     0.023 C 
BRANCH  57  58
ATOM     58  C   UNL     1       7.165  -4.514   3.209  1.00  0.00     0.116 C 
BRANCH  58  59
ATOM     59  N   UNL     1       5.883  -4.200   3.815  1.00  0.00    -0.354 N 
ATOM     60  C   UNL     1       5.572  -3.673   5.036  1.00  0.00     0.242 C 
ATOM     61  H   UNL     1       5.104  -4.403   3.248  1.00  0.00     0.163 HD
ATOM     62  O   UNL     1       4.376  -3.519   5.293  1.00  0.00    -0.273 OA
BRANCH  60  63
ATOM     63  C   UNL     1       6.678  -3.240   6.011  1.00  0.00     0.175 C 
ATOM     64  C   UNL     1       6.230  -2.097   6.926  1.00  0.00     0.044 C 
ATOM     65  N   UNL     1       7.526  -4.032   6.911  1.00  0.00    -0.330 N 
ATOM     66  C   UNL     1       7.472  -1.815   7.819  1.00  0.00    -0.006 C 
ATOM     67  C   UNL     1       8.370  -3.067   7.613  1.00  0.00     0.127 C 
ATOM     68  C   UNL     1       7.048  -1.672   9.301  1.00  0.00     0.030 C 
ATOM     69  C   UNL     1       8.237  -0.545   7.380  1.00  0.00     0.030 C 
ATOM     70  C   UNL     1       6.299  -0.365   9.558  1.00  0.00     0.120 C 
ATOM     71  C   UNL     1       7.503   0.751   7.725  1.00  0.00     0.120 C 
ATOM     72  N   UNL     1       7.117   0.768   9.131  1.00  0.00    -0.339 N 
ATOM     73  C   UNL     1       7.444   1.883   9.901  1.00  0.00     0.253 C 
ATOM     74  O   UNL     1       8.001   2.880   9.445  1.00  0.00    -0.269 OA
BRANCH  65  75
ATOM     75  C   UNL     1       7.495  -5.297   7.487  1.00  0.00     0.226 C 
ATOM     76  O   UNL     1       8.468  -5.676   8.144  1.00  0.00    -0.275 OA
BRANCH  75  77
ATOM     77  C   UNL     1       6.370  -6.267   7.458  1.00  0.00     0.079 C 
ATOM     78  C   UNL     1       4.911  -5.923   7.418  1.00  0.00     0.014 C 
ATOM     79  C   UNL     1       5.556  -6.646   6.269  1.00  0.00     0.014 C 
ENDBRANCH  75  77
ENDBRANCH  65  75
BRANCH  73  80
ATOM     80  C   UNL     1       7.114   1.899  11.341  1.00  0.00     0.043 A 
ATOM     81  C   UNL     1       7.652   0.946  12.215  1.00  0.00     0.014 A 
ATOM     82  C   UNL     1       6.317   2.937  11.832  1.00  0.00     0.060 A 
ATOM     83  C   UNL     1       7.346   1.005  13.576  1.00  0.00     0.005 A 
ATOM     84  C   UNL     1       6.028   2.987  13.190  1.00  0.00     0.116 A 
ATOM     85  C   UNL     1       6.528   2.026  14.066  1.00  0.00     0.046 A 
BRANCH  84  86
ATOM     86  O   UNL     1       5.243   4.010  13.633  1.00  0.00    -0.508 OA
ATOM     87  H   UNL     1       5.027   4.075  14.543  1.00  0.00     0.293 HD
ENDBRANCH  84  86
ENDBRANCH  73  80
ENDBRANCH  60  63
ENDBRANCH  58  59
ENDBRANCH  57  58
ENDBRANCH   1  57
TORSDOF 15
