REMARK SMILES CC(C)CC1(CNc2ccnc(C(=O)NCCCCNC(=O)c3ccc(-c4c5nc(c(-c6ccccc6)c6ccc([nH]6)c(-c6ccccc6)c6nc(c(-c7ccccc7)c7ccc4[nH]7)C=C6)C=C5)cc3)c2)CCCC1
REMARK SMILES IDX 16 1 15 2 13 3 14 4 12 6 8 7 9 8 71 9 10 10 11 11 7 12 6 14
REMARK SMILES IDX 5 15 72 16 75 17 73 18 74 19 4 20 2 21 1 22 3 23 17 24 18 25
REMARK SMILES IDX 19 26 20 27 21 28 22 30 23 31 24 32 70 33 25 34 69 35 26 36
REMARK SMILES IDX 27 37 28 38 63 39 29 40 68 41 62 42 64 43 30 44 67 45 61 46
REMARK SMILES IDX 60 47 31 49 53 50 38 51 52 52 39 53 42 54 51 55 65 56 40 57
REMARK SMILES IDX 41 58 50 60 66 61 43 62 32 63 33 64 37 65 34 66 36 67 35 68
REMARK SMILES IDX 54 69 55 70 59 71 56 72 58 73 57 74 44 75 45 76 49 77 46 78
REMARK SMILES IDX 48 79 47 80
REMARK H PARENT 15 5 7 13 20 29 64 48 42 59
REMARK Flexibility Score: inf
ROOT
ATOM      1  C   UNL     1      -3.576  -2.025   5.561  1.00  0.00     0.116 C 
ENDROOT
BRANCH   1   2
ATOM      2  N   UNL     1      -4.265  -0.794   5.886  1.00  0.00    -0.351 N 
ATOM      3  C   UNL     1      -4.894   0.178   5.137  1.00  0.00     0.269 C 
ATOM      4  O   UNL     1      -5.396   1.096   5.793  1.00  0.00    -0.268 OA
ATOM      5  H   UNL     1      -4.289  -0.610   6.853  1.00  0.00     0.163 HD
BRANCH   3   6
ATOM      6  C   UNL     1      -5.012   0.183   3.630  1.00  0.00     0.130 A 
ATOM      7  C   UNL     1      -4.511  -0.592   1.396  1.00  0.00     0.038 A 
ATOM      8  C   UNL     1      -5.332   0.408   0.899  1.00  0.00     0.046 A 
ATOM      9  C   UNL     1      -4.322  -0.666   2.779  1.00  0.00     0.060 A 
ATOM     10  C   UNL     1      -5.983   1.231   1.800  1.00  0.00     0.114 A 
ATOM     11  N   UNL     1      -5.851   1.133   3.140  1.00  0.00    -0.251 NA
BRANCH   7  12
ATOM     12  N   UNL     1      -3.827  -1.482   0.593  1.00  0.00    -0.384 N 
ATOM     13  H   UNL     1      -3.860  -2.438   0.828  1.00  0.00     0.160 HD
BRANCH  12  14
ATOM     14  C   UNL     1      -3.060  -1.094  -0.581  1.00  0.00     0.119 C 
BRANCH  14  15
ATOM     15  C   UNL     1      -1.544  -1.460  -0.406  1.00  0.00    -0.012 C 
ATOM     16  C   UNL     1      -0.793  -1.189  -1.722  1.00  0.00     0.009 C 
ATOM     17  C   UNL     1      -1.335  -2.989  -0.292  1.00  0.00     0.009 C 
ATOM     18  C   UNL     1      -1.192  -2.337  -2.645  1.00  0.00     0.001 C 
ATOM     19  C   UNL     1      -1.418  -3.531  -1.721  1.00  0.00     0.001 C 
BRANCH  15  20
ATOM     20  C   UNL     1      -0.994  -0.693   0.834  1.00  0.00     0.012 C 
BRANCH  20  21
ATOM     21  C   UNL     1       0.532  -0.622   1.070  1.00  0.00    -0.017 C 
ATOM     22  C   UNL     1       1.185   0.555   0.335  1.00  0.00     0.007 C 
ATOM     23  C   UNL     1       0.807  -0.447   2.572  1.00  0.00     0.007 C 
ENDBRANCH  20  21
ENDBRANCH  15  20
ENDBRANCH  14  15
ENDBRANCH  12  14
ENDBRANCH   7  12
ENDBRANCH   3   6
ENDBRANCH   1   2
BRANCH   1  24
ATOM     24  C   UNL     1      -2.076  -1.787   5.368  1.00  0.00     0.023 C 
BRANCH  24  25
ATOM     25  C   UNL     1      -1.270  -1.768   6.673  1.00  0.00     0.023 C 
BRANCH  25  26
ATOM     26  C   UNL     1      -1.319  -3.060   7.487  1.00  0.00     0.116 C 
BRANCH  26  27
ATOM     27  N   UNL     1      -0.910  -4.238   6.737  1.00  0.00    -0.352 N 
ATOM     28  C   UNL     1      -0.365  -5.405   7.216  1.00  0.00     0.251 C 
ATOM     29  H   UNL     1      -1.040  -4.193   5.762  1.00  0.00     0.163 HD
ATOM     30  O   UNL     1       0.011  -6.281   6.444  1.00  0.00    -0.269 OA
BRANCH  28  31
ATOM     31  C   UNL     1      -0.192  -5.574   8.672  1.00  0.00     0.039 A 
ATOM     32  C   UNL     1       1.066  -5.934   9.161  1.00  0.00     0.014 A 
ATOM     33  C   UNL     1      -1.251  -5.333   9.550  1.00  0.00     0.014 A 
ATOM     34  C   UNL     1       1.282  -5.981  10.539  1.00  0.00     0.010 A 
ATOM     35  C   UNL     1      -1.019  -5.318  10.921  1.00  0.00     0.010 A 
ATOM     36  C   UNL     1       0.251  -5.635  11.428  1.00  0.00    -0.014 A 
BRANCH  36  37
ATOM     37  C   UNL     1       0.485  -5.582  12.892  1.00  0.00     0.031 A 
ATOM     38  C   UNL     1      -0.231  -6.534  13.807  1.00  0.00     0.074 A 
ATOM     39  C   UNL     1       1.287  -4.628  13.402  1.00  0.00     0.049 A 
ATOM     40  N   UNL     1      -0.204  -6.599  15.114  1.00  0.00    -0.248 NA
ATOM     41  C   UNL     1      -1.114  -7.526  13.172  1.00  0.00     0.031 C 
ATOM     42  C   UNL     1       2.004  -3.615  12.623  1.00  0.00     0.029 A 
ATOM     43  N   UNL     1       1.627  -4.349  14.702  1.00  0.00    -0.354 N 
ATOM     44  C   UNL     1      -1.078  -7.622  15.457  1.00  0.00     0.074 A 
ATOM     45  C   UNL     1      -1.653  -8.119  14.227  1.00  0.00     0.031 C 
ATOM     46  C   UNL     1       2.717  -2.842  13.459  1.00  0.00     0.029 A 
ATOM     47  C   UNL     1       2.481  -3.281  14.831  1.00  0.00     0.049 A 
ATOM     48  H   UNL     1       1.291  -4.866  15.469  1.00  0.00     0.167 HD
ATOM     49  C   UNL     1      -1.363  -8.116  16.686  1.00  0.00     0.031 A 
ATOM     50  C   UNL     1       3.012  -2.716  15.931  1.00  0.00     0.031 A 
ATOM     51  C   UNL     1      -0.781  -7.632  17.908  1.00  0.00     0.049 A 
ATOM     52  C   UNL     1       2.681  -3.283  17.282  1.00  0.00     0.074 A 
ATOM     53  C   UNL     1      -0.960  -8.107  19.196  1.00  0.00     0.029 A 
ATOM     54  N   UNL     1       0.093  -6.560  17.994  1.00  0.00    -0.354 N 
ATOM     55  N   UNL     1       1.907  -4.297  17.584  1.00  0.00    -0.248 NA
ATOM     56  C   UNL     1       3.307  -2.634  18.443  1.00  0.00     0.031 C 
ATOM     57  C   UNL     1      -0.226  -7.295  20.067  1.00  0.00     0.029 A 
ATOM     58  C   UNL     1       0.448  -6.346  19.315  1.00  0.00     0.049 A 
ATOM     59  H   UNL     1       0.414  -6.030  17.230  1.00  0.00     0.167 HD
ATOM     60  C   UNL     1       1.974  -4.424  18.965  1.00  0.00     0.074 A 
ATOM     61  C   UNL     1       2.874  -3.394  19.439  1.00  0.00     0.031 C 
ATOM     62  C   UNL     1       1.346  -5.316  19.769  1.00  0.00     0.031 A 
BRANCH  49  63
ATOM     63  C   UNL     1      -2.357  -9.241  16.762  1.00  0.00    -0.014 A 
ATOM     64  C   UNL     1      -2.034 -10.527  16.301  1.00  0.00     0.009 A 
ATOM     65  C   UNL     1      -3.623  -9.018  17.324  1.00  0.00     0.009 A 
ATOM     66  C   UNL     1      -2.973 -11.558  16.367  1.00  0.00     0.001 A 
ATOM     67  C   UNL     1      -4.550 -10.058  17.415  1.00  0.00     0.001 A 
ATOM     68  C   UNL     1      -4.228 -11.324  16.927  1.00  0.00     0.000 A 
ENDBRANCH  49  63
BRANCH  50  69
ATOM     69  C   UNL     1       3.933  -1.557  15.801  1.00  0.00    -0.014 A 
ATOM     70  C   UNL     1       5.306  -1.713  16.046  1.00  0.00     0.009 A 
ATOM     71  C   UNL     1       3.447  -0.292  15.439  1.00  0.00     0.009 A 
ATOM     72  C   UNL     1       6.170  -0.619  15.955  1.00  0.00     0.001 A 
ATOM     73  C   UNL     1       4.317   0.794  15.323  1.00  0.00     0.001 A 
ATOM     74  C   UNL     1       5.675   0.632  15.590  1.00  0.00     0.000 A 
ENDBRANCH  50  69
BRANCH  62  75
ATOM     75  C   UNL     1       1.637  -5.238  21.240  1.00  0.00    -0.014 A 
ATOM     76  C   UNL     1       1.110  -4.207  22.033  1.00  0.00     0.009 A 
ATOM     77  C   UNL     1       2.419  -6.233  21.846  1.00  0.00     0.009 A 
ATOM     78  C   UNL     1       1.385  -4.160  23.401  1.00  0.00     0.001 A 
ATOM     79  C   UNL     1       2.671  -6.197  23.218  1.00  0.00     0.001 A 
ATOM     80  C   UNL     1       2.160  -5.157  23.993  1.00  0.00     0.000 A 
ENDBRANCH  62  75
ENDBRANCH  36  37
ENDBRANCH  28  31
ENDBRANCH  26  27
ENDBRANCH  25  26
ENDBRANCH  24  25
ENDBRANCH   1  24
TORSDOF 16
