REMARK SMILES Nc1c(Cl)ccc2c1C=C(C(=O)NCCCCNC(=O)c1ccc(-c3c4nc(c(-c5ccccc5)c5ccc([nH]5)c(-c5ccccc5)c5nc(c(-c6ccccc6)c6ccc3[nH]6)C=C5)C=C4)cc1)[C@@H](C(F)(F)F)O2
REMARK SMILES IDX 16 1 15 2 14 3 13 4 11 5 12 6 10 8 2 9 3 10 8 11 4 12 5 13
REMARK SMILES IDX 7 14 9 15 6 16 74 17 69 18 1 19 70 22 71 23 72 24 73 25
REMARK SMILES IDX 17 26 18 27 19 28 20 30 21 31 22 32 68 33 23 34 67 35 24 36
REMARK SMILES IDX 25 37 26 38 61 39 27 40 66 41 60 42 62 43 28 44 65 45 59 46
REMARK SMILES IDX 58 47 29 49 51 50 36 51 50 52 37 53 40 54 49 55 63 56 38 57
REMARK SMILES IDX 39 58 48 60 64 61 41 62 30 63 31 64 35 65 32 66 34 67 33 68
REMARK SMILES IDX 52 69 53 70 57 71 54 72 56 73 55 74 42 75 43 76 47 77 44 78
REMARK SMILES IDX 46 79 45 80
REMARK H PARENT 13 7 1 20 1 21 18 29 62 48 40 59
REMARK Flexibility Score: inf
ROOT
ATOM      1  C   UNL     1      -6.874   2.233  -4.370  1.00  0.00     0.023 C 
ENDROOT
BRANCH   1   2
ATOM      2  C   UNL     1      -5.960   1.026  -4.136  1.00  0.00     0.023 C 
BRANCH   2   3
ATOM      3  C   UNL     1      -4.537   1.213  -4.654  1.00  0.00     0.116 C 
BRANCH   3   4
ATOM      4  N   UNL     1      -3.714   1.947  -3.710  1.00  0.00    -0.352 N 
ATOM      5  C   UNL     1      -2.723   1.664  -2.833  1.00  0.00     0.251 C 
ATOM      6  O   UNL     1      -2.306   2.634  -2.191  1.00  0.00    -0.270 OA
ATOM      7  H   UNL     1      -3.936   2.906  -3.706  1.00  0.00     0.163 HD
BRANCH   5   8
ATOM      8  C   UNL     1      -2.124   0.314  -2.604  1.00  0.00     0.067 C 
ATOM      9  C   UNL     1       0.548  -1.141  -0.436  1.00  0.00     0.061 A 
ATOM     10  C   UNL     1       1.113  -2.423  -0.234  1.00  0.00     0.064 A 
ATOM     11  C   UNL     1      -0.553  -1.031  -1.316  1.00  0.00     0.042 A 
ATOM     12  Cl  UNL     1       2.485  -2.629   0.805  1.00  0.00    -0.082 Cl
ATOM     13  C   UNL     1       0.584  -3.562  -0.844  1.00  0.00     0.026 A 
ATOM     14  C   UNL     1      -1.062  -2.185  -1.931  1.00  0.00     0.130 A 
ATOM     15  C   UNL     1      -1.233   0.238  -1.597  1.00  0.00     0.027 C 
ATOM     16  C   UNL     1      -0.513  -3.442  -1.688  1.00  0.00     0.049 A 
ATOM     17  O   UNL     1      -2.142  -2.166  -2.770  1.00  0.00    -0.475 OA
ATOM     18  C   UNL     1      -2.422  -0.902  -3.429  1.00  0.00     0.314 C 
BRANCH   9  19
ATOM     19  N   UNL     1       1.145  -0.021   0.147  1.00  0.00    -0.397 N 
ATOM     20  H   UNL     1       1.911  -0.132   0.756  1.00  0.00     0.156 HD
ATOM     21  H   UNL     1       0.801   0.880  -0.051  1.00  0.00     0.156 HD
ENDBRANCH   9  19
BRANCH  18  22
ATOM     22  C   UNL     1      -1.733  -0.875  -4.806  1.00  0.00     0.429 C 
ATOM     23  F   UNL     1      -2.279  -1.808  -5.626  1.00  0.00    -0.167 F 
ATOM     24  F   UNL     1      -1.879   0.316  -5.434  1.00  0.00    -0.167 F 
ATOM     25  F   UNL     1      -0.407  -1.123  -4.734  1.00  0.00    -0.167 F 
ENDBRANCH  18  22
ENDBRANCH   5   8
ENDBRANCH   3   4
ENDBRANCH   2   3
ENDBRANCH   1   2
BRANCH   1  26
ATOM     26  C   UNL     1      -6.996   2.689  -5.823  1.00  0.00     0.116 C 
BRANCH  26  27
ATOM     27  N   UNL     1      -7.367   1.620  -6.740  1.00  0.00    -0.352 N 
ATOM     28  C   UNL     1      -8.141   1.716  -7.870  1.00  0.00     0.251 C 
ATOM     29  H   UNL     1      -7.023   0.724  -6.524  1.00  0.00     0.163 HD
ATOM     30  O   UNL     1      -8.435   0.726  -8.529  1.00  0.00    -0.269 OA
BRANCH  28  31
ATOM     31  C   UNL     1      -8.647   3.044  -8.251  1.00  0.00     0.039 A 
ATOM     32  C   UNL     1     -10.025   3.264  -8.243  1.00  0.00     0.014 A 
ATOM     33  C   UNL     1      -7.748   4.082  -8.513  1.00  0.00     0.014 A 
ATOM     34  C   UNL     1     -10.508   4.557  -8.432  1.00  0.00     0.010 A 
ATOM     35  C   UNL     1      -8.231   5.377  -8.664  1.00  0.00     0.010 A 
ATOM     36  C   UNL     1      -9.612   5.623  -8.611  1.00  0.00    -0.014 A 
BRANCH  36  37
ATOM     37  C   UNL     1     -10.105   7.012  -8.739  1.00  0.00     0.031 A 
ATOM     38  C   UNL     1     -10.037   7.708 -10.064  1.00  0.00     0.074 A 
ATOM     39  C   UNL     1     -10.569   7.655  -7.652  1.00  0.00     0.049 A 
ATOM     40  N   UNL     1     -10.373   8.935 -10.364  1.00  0.00    -0.248 NA
ATOM     41  C   UNL     1      -9.511   6.928 -11.196  1.00  0.00     0.031 C 
ATOM     42  C   UNL     1     -10.666   7.087  -6.306  1.00  0.00     0.029 A 
ATOM     43  N   UNL     1     -11.048   8.932  -7.510  1.00  0.00    -0.354 N 
ATOM     44  C   UNL     1     -10.094   9.078 -11.715  1.00  0.00     0.074 A 
ATOM     45  C   UNL     1      -9.529   7.827 -12.171  1.00  0.00     0.031 C 
ATOM     46  C   UNL     1     -11.197   8.004  -5.481  1.00  0.00     0.029 A 
ATOM     47  C   UNL     1     -11.452   9.229  -6.232  1.00  0.00     0.049 A 
ATOM     48  H   UNL     1     -11.097   9.575  -8.254  1.00  0.00     0.167 HD
ATOM     49  C   UNL     1     -10.306  10.152 -12.509  1.00  0.00     0.031 A 
ATOM     50  C   UNL     1     -11.972  10.362  -5.724  1.00  0.00     0.031 A 
ATOM     51  C   UNL     1     -10.878  11.390 -12.063  1.00  0.00     0.049 A 
ATOM     52  C   UNL     1     -12.179  11.547  -6.622  1.00  0.00     0.074 A 
ATOM     53  C   UNL     1     -11.162  12.523 -12.804  1.00  0.00     0.029 A 
ATOM     54  N   UNL     1     -11.258  11.655 -10.757  1.00  0.00    -0.354 N 
ATOM     55  N   UNL     1     -11.930  11.660  -7.903  1.00  0.00    -0.248 NA
ATOM     56  C   UNL     1     -12.737  12.760  -6.005  1.00  0.00     0.031 C 
ATOM     57  C   UNL     1     -11.692  13.486 -11.941  1.00  0.00     0.029 A 
ATOM     58  C   UNL     1     -11.766  12.939 -10.669  1.00  0.00     0.049 A 
ATOM     59  H   UNL     1     -11.179  11.025 -10.005  1.00  0.00     0.167 HD
ATOM     60  C   UNL     1     -12.316  12.947  -8.252  1.00  0.00     0.074 A 
ATOM     61  C   UNL     1     -12.819  13.577  -7.048  1.00  0.00     0.031 C 
ATOM     62  C   UNL     1     -12.259  13.548  -9.463  1.00  0.00     0.031 A 
BRANCH  49  63
ATOM     63  C   UNL     1      -9.922  10.026 -13.952  1.00  0.00    -0.014 A 
ATOM     64  C   UNL     1     -10.730   9.307 -14.846  1.00  0.00     0.009 A 
ATOM     65  C   UNL     1      -8.771  10.667 -14.431  1.00  0.00     0.009 A 
ATOM     66  C   UNL     1     -10.380   9.217 -16.194  1.00  0.00     0.001 A 
ATOM     67  C   UNL     1      -8.433  10.589 -15.782  1.00  0.00     0.001 A 
ATOM     68  C   UNL     1      -9.234   9.862 -16.661  1.00  0.00     0.000 A 
ENDBRANCH  49  63
BRANCH  50  69
ATOM     69  C   UNL     1     -12.361  10.412  -4.294  1.00  0.00    -0.014 A 
ATOM     70  C   UNL     1     -13.709  10.285  -3.928  1.00  0.00     0.009 A 
ATOM     71  C   UNL     1     -11.390  10.550  -3.291  1.00  0.00     0.009 A 
ATOM     72  C   UNL     1     -14.079  10.303  -2.582  1.00  0.00     0.001 A 
ATOM     73  C   UNL     1     -11.762  10.553  -1.945  1.00  0.00     0.001 A 
ATOM     74  C   UNL     1     -13.106  10.433  -1.592  1.00  0.00     0.000 A 
ENDBRANCH  50  69
BRANCH  62  75
ATOM     75  C   UNL     1     -12.764  14.956  -9.565  1.00  0.00    -0.014 A 
ATOM     76  C   UNL     1     -11.957  16.035  -9.180  1.00  0.00     0.009 A 
ATOM     77  C   UNL     1     -14.014  15.206 -10.152  1.00  0.00     0.009 A 
ATOM     78  C   UNL     1     -12.397  17.345  -9.377  1.00  0.00     0.001 A 
ATOM     79  C   UNL     1     -14.444  16.516 -10.361  1.00  0.00     0.001 A 
ATOM     80  C   UNL     1     -13.635  17.584  -9.974  1.00  0.00     0.000 A 
ENDBRANCH  62  75
ENDBRANCH  36  37
ENDBRANCH  28  31
ENDBRANCH  26  27
ENDBRANCH   1  26
TORSDOF 13
