REMARK SMILES Cc1ccn2c([C@H]3C[C@@H]3C(=O)NCCCCNC(=O)c3ccc(-c4c5nc(c(-c6ccccc6)c6ccc([nH]6)c(-c6ccccc6)c6nc(c(-c7ccccc7)c7ccc4[nH]7)C=C6)C=C5)cc3)nnc2c1
REMARK SMILES IDX 15 1 14 2 13 3 12 4 10 5 11 6 9 8 7 9 8 10 6 11 1 12 2 13
REMARK SMILES IDX 3 14 71 15 4 16 70 17 5 18 69 19 68 20 16 21 17 22 18 23
REMARK SMILES IDX 19 25 20 26 21 27 67 28 22 29 66 30 23 31 24 32 25 33 60 34
REMARK SMILES IDX 26 35 65 36 59 37 61 38 27 39 64 40 58 41 57 42 28 44 50 45
REMARK SMILES IDX 35 46 49 47 36 48 39 49 48 50 62 51 37 52 38 53 47 55 63 56
REMARK SMILES IDX 40 57 29 58 30 59 34 60 31 61 33 62 32 63 51 64 52 65 56 66
REMARK SMILES IDX 53 67 55 68 54 69 41 70 42 71 46 72 43 73 45 74 44 75
REMARK H PARENT 12 7 17 24 61 43 39 54
REMARK Flexibility Score: inf
ROOT
ATOM      1  C   UNL     1      -0.748   2.425  -1.003  1.00  0.00     0.023 C 
ENDROOT
BRANCH   1   2
ATOM      2  C   UNL     1      -0.847   3.801  -0.331  1.00  0.00     0.023 C 
BRANCH   2   3
ATOM      3  C   UNL     1      -2.195   4.071   0.334  1.00  0.00     0.116 C 
BRANCH   3   4
ATOM      4  N   UNL     1      -2.363   3.247   1.515  1.00  0.00    -0.356 N 
ATOM      5  C   UNL     1      -2.393   3.661   2.816  1.00  0.00     0.223 C 
ATOM      6  O   UNL     1      -2.503   2.858   3.737  1.00  0.00    -0.275 OA
ATOM      7  H   UNL     1      -2.467   2.280   1.362  1.00  0.00     0.163 HD
BRANCH   5   8
ATOM      8  C   UNL     1      -2.347   5.111   3.075  1.00  0.00     0.090 C 
ATOM      9  C   UNL     1      -1.072   5.903   2.833  1.00  0.00     0.071 C 
ATOM     10  C   UNL     1      -1.579   5.689   4.230  1.00  0.00     0.026 C 
BRANCH   9  11
ATOM     11  C   UNL     1      -1.232   7.250   2.148  1.00  0.00     0.141 A 
ATOM     12  C   UNL     1       2.078  11.562   0.899  1.00  0.00     0.044 C 
ATOM     13  C   UNL     1       1.222  10.365   1.191  1.00  0.00    -0.046 A 
ATOM     14  C   UNL     1       1.831   9.282   1.966  1.00  0.00     0.022 A 
ATOM     15  C   UNL     1      -0.070  10.292   0.799  1.00  0.00     0.053 A 
ATOM     16  C   UNL     1       1.092   8.205   2.286  1.00  0.00     0.095 A 
ATOM     17  C   UNL     1      -0.859   9.171   1.171  1.00  0.00     0.161 A 
ATOM     18  N   UNL     1      -0.238   8.159   1.886  1.00  0.00    -0.286 N 
ATOM     19  N   UNL     1      -2.136   8.891   1.028  1.00  0.00    -0.130 NA
ATOM     20  N   UNL     1      -2.380   7.706   1.686  1.00  0.00    -0.134 NA
ENDBRANCH   9  11
ENDBRANCH   5   8
ENDBRANCH   3   4
ENDBRANCH   2   3
ENDBRANCH   1   2
BRANCH   1  21
ATOM     21  C   UNL     1      -1.876   2.128  -1.996  1.00  0.00     0.116 C 
BRANCH  21  22
ATOM     22  N   UNL     1      -2.011   3.142  -3.022  1.00  0.00    -0.352 N 
ATOM     23  C   UNL     1      -1.515   3.306  -4.283  1.00  0.00     0.251 C 
ATOM     24  H   UNL     1      -2.596   3.885  -2.745  1.00  0.00     0.163 HD
ATOM     25  O   UNL     1      -1.962   4.261  -4.923  1.00  0.00    -0.269 OA
BRANCH  23  26
ATOM     26  C   UNL     1      -0.448   2.474  -4.901  1.00  0.00     0.039 A 
ATOM     27  C   UNL     1       0.213   1.415  -4.282  1.00  0.00     0.014 A 
ATOM     28  C   UNL     1      -0.022   2.875  -6.183  1.00  0.00     0.014 A 
ATOM     29  C   UNL     1       1.333   0.847  -4.873  1.00  0.00     0.010 A 
ATOM     30  C   UNL     1       1.093   2.304  -6.785  1.00  0.00     0.010 A 
ATOM     31  C   UNL     1       1.803   1.329  -6.098  1.00  0.00    -0.014 A 
BRANCH  31  32
ATOM     32  C   UNL     1       3.029   0.740  -6.617  1.00  0.00     0.031 A 
ATOM     33  C   UNL     1       2.979  -0.727  -6.857  1.00  0.00     0.074 A 
ATOM     34  C   UNL     1       4.143   1.448  -6.884  1.00  0.00     0.049 A 
ATOM     35  N   UNL     1       3.647  -1.653  -6.249  1.00  0.00    -0.248 NA
ATOM     36  C   UNL     1       1.990  -1.228  -7.820  1.00  0.00     0.031 C 
ATOM     37  C   UNL     1       4.319   2.901  -6.944  1.00  0.00     0.029 A 
ATOM     38  N   UNL     1       5.369   0.974  -7.239  1.00  0.00    -0.354 N 
ATOM     39  C   UNL     1       3.266  -2.856  -6.838  1.00  0.00     0.074 A 
ATOM     40  C   UNL     1       2.173  -2.545  -7.726  1.00  0.00     0.031 C 
ATOM     41  C   UNL     1       5.508   3.183  -7.527  1.00  0.00     0.029 A 
ATOM     42  C   UNL     1       6.237   1.941  -7.721  1.00  0.00     0.049 A 
ATOM     43  H   UNL     1       5.618   0.025  -7.160  1.00  0.00     0.167 HD
ATOM     44  C   UNL     1       3.979  -4.004  -6.673  1.00  0.00     0.031 A 
ATOM     45  C   UNL     1       7.452   1.721  -8.275  1.00  0.00     0.031 A 
ATOM     46  C   UNL     1       4.867  -3.931  -5.545  1.00  0.00     0.049 A 
ATOM     47  C   UNL     1       7.925   0.402  -7.803  1.00  0.00     0.074 A 
ATOM     48  C   UNL     1       4.699  -3.835  -4.179  1.00  0.00     0.029 A 
ATOM     49  N   UNL     1       6.177  -3.604  -5.791  1.00  0.00    -0.354 N 
ATOM     50  N   UNL     1       8.243   0.151  -6.566  1.00  0.00    -0.248 NA
ATOM     51  C   UNL     1       7.668  -0.764  -8.633  1.00  0.00     0.031 C 
ATOM     52  C   UNL     1       5.770  -3.006  -3.736  1.00  0.00     0.029 A 
ATOM     53  C   UNL     1       6.553  -2.684  -4.847  1.00  0.00     0.049 A 
ATOM     54  H   UNL     1       6.743  -3.965  -6.511  1.00  0.00     0.167 HD
ATOM     55  C   UNL     1       7.816  -1.149  -6.348  1.00  0.00     0.074 A 
ATOM     56  C   UNL     1       7.578  -1.697  -7.681  1.00  0.00     0.031 C 
ATOM     57  C   UNL     1       7.437  -1.567  -5.105  1.00  0.00     0.031 A 
BRANCH  44  58
ATOM     58  C   UNL     1       4.108  -5.074  -7.726  1.00  0.00    -0.014 A 
ATOM     59  C   UNL     1       3.748  -4.877  -9.071  1.00  0.00     0.009 A 
ATOM     60  C   UNL     1       4.856  -6.232  -7.437  1.00  0.00     0.009 A 
ATOM     61  C   UNL     1       4.123  -5.769 -10.079  1.00  0.00     0.001 A 
ATOM     62  C   UNL     1       5.268  -7.107  -8.450  1.00  0.00     0.001 A 
ATOM     63  C   UNL     1       4.906  -6.872  -9.772  1.00  0.00     0.000 A 
ENDBRANCH  44  58
BRANCH  45  64
ATOM     64  C   UNL     1       8.038   2.379  -9.461  1.00  0.00    -0.014 A 
ATOM     65  C   UNL     1       7.196   2.852 -10.485  1.00  0.00     0.009 A 
ATOM     66  C   UNL     1       9.409   2.259  -9.740  1.00  0.00     0.009 A 
ATOM     67  C   UNL     1       7.697   3.143 -11.757  1.00  0.00     0.001 A 
ATOM     68  C   UNL     1       9.910   2.551 -11.015  1.00  0.00     0.001 A 
ATOM     69  C   UNL     1       9.051   2.974 -12.027  1.00  0.00     0.000 A 
ENDBRANCH  45  64
BRANCH  57  70
ATOM     70  C   UNL     1       7.700  -0.650  -3.932  1.00  0.00    -0.014 A 
ATOM     71  C   UNL     1       8.387  -1.165  -2.823  1.00  0.00     0.009 A 
ATOM     72  C   UNL     1       7.115   0.625  -3.820  1.00  0.00     0.009 A 
ATOM     73  C   UNL     1       8.469  -0.442  -1.630  1.00  0.00     0.001 A 
ATOM     74  C   UNL     1       7.218   1.359  -2.633  1.00  0.00     0.001 A 
ATOM     75  C   UNL     1       7.883   0.819  -1.535  1.00  0.00     0.000 A 
ENDBRANCH  57  70
ENDBRANCH  31  32
ENDBRANCH  23  26
ENDBRANCH  21  22
ENDBRANCH   1  21
TORSDOF 12
