REMARK SMILES Cc1ccccc1NC(=O)NC[C@@H]1CC[C@@H](C(=O)NCCCCNC(=O)c2ccc(-c3c4nc(c(-c5ccccc5)c5ccc([nH]5)c(-c5ccccc5)c5nc(c(-c6ccccc6)c6ccc3[nH]6)C=C5)C=C4)cc2)O1
REMARK SMILES IDX 21 1 20 2 19 3 17 4 18 5 16 7 13 8 14 9 75 10 15 11 12 12
REMARK SMILES IDX 11 13 8 14 9 15 10 17 7 19 1 20 2 21 3 22 4 23 6 24 5 25
REMARK SMILES IDX 22 26 23 27 24 28 25 29 26 31 27 32 28 33 74 34 29 35 73 36
REMARK SMILES IDX 30 37 31 38 32 39 67 40 33 41 72 42 66 43 68 44 34 45 71 46
REMARK SMILES IDX 65 47 64 48 35 50 57 51 42 52 56 53 43 54 46 55 55 56 69 57
REMARK SMILES IDX 44 58 45 59 54 61 70 62 47 63 36 64 37 65 41 66 38 67 40 68
REMARK SMILES IDX 39 69 58 70 59 71 63 72 60 73 62 74 61 75 48 76 49 77 53 78
REMARK SMILES IDX 50 79 52 80 51 81
REMARK H PARENT 19 6 8 16 11 18 24 30 68 49 46 60
REMARK Flexibility Score: inf
ROOT
ATOM      1  C   UNL     1      -6.514   0.975   4.568  1.00  0.00     0.023 C 
ENDROOT
BRANCH   1   2
ATOM      2  C   UNL     1      -7.255   2.004   3.693  1.00  0.00     0.116 C 
BRANCH   2   3
ATOM      3  N   UNL     1      -6.596   3.300   3.664  1.00  0.00    -0.354 N 
ATOM      4  C   UNL     1      -5.745   3.894   2.775  1.00  0.00     0.249 C 
ATOM      5  O   UNL     1      -5.352   5.024   3.082  1.00  0.00    -0.272 OA
ATOM      6  H   UNL     1      -6.807   3.865   4.442  1.00  0.00     0.163 HD
BRANCH   4   7
ATOM      7  C   UNL     1      -5.350   3.240   1.427  1.00  0.00     0.207 C 
ATOM      8  C   UNL     1      -3.150   2.817   0.719  1.00  0.00     0.138 C 
ATOM      9  C   UNL     1      -3.975   1.579   0.450  1.00  0.00     0.037 C 
ATOM     10  O   UNL     1      -4.154   3.846   0.849  1.00  0.00    -0.363 OA
ATOM     11  C   UNL     1      -5.055   1.752   1.478  1.00  0.00     0.045 C 
BRANCH   8  12
ATOM     12  C   UNL     1      -2.101   3.102  -0.373  1.00  0.00     0.149 C 
BRANCH  12  13
ATOM     13  N   UNL     1      -0.893   3.698   0.194  1.00  0.00    -0.335 N 
ATOM     14  N   UNL     1       0.961   2.160   0.164  1.00  0.00    -0.308 N 
ATOM     15  C   UNL     1       0.393   3.364   0.328  1.00  0.00     0.319 C 
ATOM     16  H   UNL     1       1.935   2.253   0.053  1.00  0.00     0.171 HD
ATOM     17  O   UNL     1       1.167   4.295   0.589  1.00  0.00    -0.249 OA
ATOM     18  H   UNL     1      -1.076   4.584   0.582  1.00  0.00     0.165 HD
BRANCH  14  19
ATOM     19  C   UNL     1       0.587   0.805   0.103  1.00  0.00     0.045 A 
ATOM     20  C   UNL     1       3.006   0.073  -0.431  1.00  0.00     0.046 C 
ATOM     21  C   UNL     1       1.529  -0.180  -0.273  1.00  0.00    -0.027 A 
ATOM     22  C   UNL     1       1.117  -1.525  -0.405  1.00  0.00     0.005 A 
ATOM     23  C   UNL     1      -0.195  -1.905  -0.148  1.00  0.00     0.000 A 
ATOM     24  C   UNL     1      -0.674   0.370   0.483  1.00  0.00     0.026 A 
ATOM     25  C   UNL     1      -1.085  -0.958   0.326  1.00  0.00     0.002 A 
ENDBRANCH  14  19
ENDBRANCH  12  13
ENDBRANCH   8  12
ENDBRANCH   4   7
ENDBRANCH   2   3
ENDBRANCH   1   2
BRANCH   1  26
ATOM     26  C   UNL     1      -6.412   1.334   6.056  1.00  0.00     0.023 C 
BRANCH  26  27
ATOM     27  C   UNL     1      -7.734   1.229   6.802  1.00  0.00     0.116 C 
BRANCH  27  28
ATOM     28  N   UNL     1      -8.029  -0.092   7.351  1.00  0.00    -0.352 N 
ATOM     29  C   UNL     1      -9.232  -0.586   7.827  1.00  0.00     0.251 C 
ATOM     30  H   UNL     1      -7.269  -0.717   7.388  1.00  0.00     0.163 HD
ATOM     31  O   UNL     1      -9.295  -1.708   8.319  1.00  0.00    -0.269 OA
BRANCH  29  32
ATOM     32  C   UNL     1     -10.474   0.192   7.597  1.00  0.00     0.039 A 
ATOM     33  C   UNL     1     -11.531  -0.464   6.959  1.00  0.00     0.014 A 
ATOM     34  C   UNL     1     -10.475   1.579   7.723  1.00  0.00     0.014 A 
ATOM     35  C   UNL     1     -12.418   0.280   6.189  1.00  0.00     0.010 A 
ATOM     36  C   UNL     1     -11.286   2.309   6.875  1.00  0.00     0.010 A 
ATOM     37  C   UNL     1     -12.192   1.646   6.040  1.00  0.00    -0.014 A 
BRANCH  37  38
ATOM     38  C   UNL     1     -12.722   2.417   4.920  1.00  0.00     0.031 A 
ATOM     39  C   UNL     1     -13.734   3.464   5.140  1.00  0.00     0.074 A 
ATOM     40  C   UNL     1     -12.239   2.204   3.673  1.00  0.00     0.049 A 
ATOM     41  N   UNL     1     -14.455   3.970   4.198  1.00  0.00    -0.248 NA
ATOM     42  C   UNL     1     -14.089   3.964   6.466  1.00  0.00     0.031 C 
ATOM     43  C   UNL     1     -12.413   3.039   2.487  1.00  0.00     0.029 A 
ATOM     44  N   UNL     1     -11.690   1.019   3.180  1.00  0.00    -0.354 N 
ATOM     45  C   UNL     1     -15.130   5.040   4.724  1.00  0.00     0.074 A 
ATOM     46  C   UNL     1     -14.977   4.913   6.152  1.00  0.00     0.031 C 
ATOM     47  C   UNL     1     -12.239   2.280   1.394  1.00  0.00     0.029 A 
ATOM     48  C   UNL     1     -12.097   0.905   1.836  1.00  0.00     0.049 A 
ATOM     49  H   UNL     1     -11.126   0.384   3.677  1.00  0.00     0.167 HD
ATOM     50  C   UNL     1     -15.634   5.979   3.878  1.00  0.00     0.031 A 
ATOM     51  C   UNL     1     -12.899  -0.130   1.445  1.00  0.00     0.031 A 
ATOM     52  C   UNL     1     -15.655   5.508   2.490  1.00  0.00     0.049 A 
ATOM     53  C   UNL     1     -14.274   0.287   0.952  1.00  0.00     0.074 A 
ATOM     54  C   UNL     1     -14.980   5.832   1.326  1.00  0.00     0.029 A 
ATOM     55  N   UNL     1     -16.346   4.337   2.214  1.00  0.00    -0.354 N 
ATOM     56  N   UNL     1     -14.704   1.519   0.906  1.00  0.00    -0.248 NA
ATOM     57  C   UNL     1     -15.309  -0.673   0.565  1.00  0.00     0.031 C 
ATOM     58  C   UNL     1     -15.257   4.818   0.356  1.00  0.00     0.029 A 
ATOM     59  C   UNL     1     -16.120   3.901   0.925  1.00  0.00     0.049 A 
ATOM     60  H   UNL     1     -16.926   3.873   2.860  1.00  0.00     0.167 HD
ATOM     61  C   UNL     1     -16.027   1.529   0.549  1.00  0.00     0.074 A 
ATOM     62  C   UNL     1     -16.362   0.132   0.341  1.00  0.00     0.031 C 
ATOM     63  C   UNL     1     -16.768   2.673   0.492  1.00  0.00     0.031 A 
BRANCH  50  64
ATOM     64  C   UNL     1     -15.973   7.394   4.289  1.00  0.00    -0.014 A 
ATOM     65  C   UNL     1     -16.371   8.324   3.312  1.00  0.00     0.009 A 
ATOM     66  C   UNL     1     -15.820   7.908   5.590  1.00  0.00     0.009 A 
ATOM     67  C   UNL     1     -16.583   9.678   3.616  1.00  0.00     0.001 A 
ATOM     68  C   UNL     1     -16.057   9.252   5.909  1.00  0.00     0.001 A 
ATOM     69  C   UNL     1     -16.430  10.142   4.917  1.00  0.00     0.000 A 
ENDBRANCH  50  64
BRANCH  51  70
ATOM     70  C   UNL     1     -12.589  -1.404   2.154  1.00  0.00    -0.014 A 
ATOM     71  C   UNL     1     -11.320  -1.985   1.946  1.00  0.00     0.009 A 
ATOM     72  C   UNL     1     -13.345  -1.827   3.255  1.00  0.00     0.009 A 
ATOM     73  C   UNL     1     -10.772  -2.865   2.884  1.00  0.00     0.001 A 
ATOM     74  C   UNL     1     -12.798  -2.722   4.183  1.00  0.00     0.001 A 
ATOM     75  C   UNL     1     -11.501  -3.209   4.018  1.00  0.00     0.000 A 
ENDBRANCH  51  70
BRANCH  63  76
ATOM     76  C   UNL     1     -18.212   2.720   0.067  1.00  0.00    -0.014 A 
ATOM     77  C   UNL     1     -18.721   1.943  -0.983  1.00  0.00     0.009 A 
ATOM     78  C   UNL     1     -19.088   3.661   0.647  1.00  0.00     0.009 A 
ATOM     79  C   UNL     1     -20.057   2.058  -1.390  1.00  0.00     0.001 A 
ATOM     80  C   UNL     1     -20.414   3.796   0.229  1.00  0.00     0.001 A 
ATOM     81  C   UNL     1     -20.903   2.983  -0.784  1.00  0.00     0.000 A 
ENDBRANCH  63  76
ENDBRANCH  37  38
ENDBRANCH  29  32
ENDBRANCH  27  28
ENDBRANCH  26  27
ENDBRANCH   1  26
TORSDOF 14
