REMARK SMILES O=C(NCCCCNC(=O)[C@H](c1c[nH]c2ccc(Cl)cc12)[NH+]1CCN(c2cccc(Cl)c2)CC1)c1ccc(-c2c3nc(c(-c4ccccc4)c4ccc([nH]4)c(-c4ccccc4)c4nc(c(-c5ccccc5)c5ccc2[nH]5)C=C4)C=C3)cc1
REMARK SMILES IDX 5 1 4 2 3 3 1 4 2 5 35 7 36 8 82 9 37 10 81 11 38 12 39 13
REMARK SMILES IDX 40 14 75 15 41 16 80 17 74 18 76 19 42 20 79 21 73 22 72 23
REMARK SMILES IDX 43 25 65 26 50 27 64 28 51 29 54 30 63 31 77 32 52 33 53 34
REMARK SMILES IDX 62 36 78 37 55 38 44 39 45 40 49 41 46 42 48 43 47 44 66 45
REMARK SMILES IDX 67 46 71 47 68 48 70 49 69 50 56 51 57 52 61 53 58 54 60 55
REMARK SMILES IDX 59 56 6 57 7 58 8 59 9 60 10 62 11 63 22 64 23 65 34 66
REMARK SMILES IDX 24 68 33 69 25 70 26 71 27 72 32 73 28 74 30 75 29 76 31 77
REMARK SMILES IDX 12 78 13 79 21 80 14 81 15 82 20 83 16 85 18 86 17 87 19 88
REMARK H PARENT 3 6 76 24 54 35 8 61 22 67 14 84
REMARK Flexibility Score: inf
ROOT
ATOM      1  C   UNL     1       7.932  -9.745   0.902  1.00  0.00     0.023 C 
ENDROOT
BRANCH   1   2
ATOM      2  C   UNL     1       7.165 -11.055   0.761  1.00  0.00     0.116 C 
BRANCH   2   3
ATOM      3  N   UNL     1       7.936 -12.092   0.097  1.00  0.00    -0.352 N 
ATOM      4  O   UNL     1       8.933 -14.105  -0.121  1.00  0.00    -0.269 OA
ATOM      5  C   UNL     1       8.135 -13.400   0.479  1.00  0.00     0.251 C 
ATOM      6  H   UNL     1       8.377 -11.823  -0.741  1.00  0.00     0.163 HD
BRANCH   5   7
ATOM      7  C   UNL     1       7.398 -13.938   1.644  1.00  0.00     0.039 A 
ATOM      8  C   UNL     1       6.024 -13.728   1.779  1.00  0.00     0.014 A 
ATOM      9  C   UNL     1       8.101 -14.653   2.617  1.00  0.00     0.014 A 
ATOM     10  C   UNL     1       5.381 -14.110   2.952  1.00  0.00     0.010 A 
ATOM     11  C   UNL     1       7.437 -15.101   3.762  1.00  0.00     0.010 A 
ATOM     12  C   UNL     1       6.080 -14.799   3.957  1.00  0.00    -0.014 A 
BRANCH  12  13
ATOM     13  C   UNL     1       5.365 -15.217   5.188  1.00  0.00     0.031 A 
ATOM     14  C   UNL     1       5.711 -14.623   6.526  1.00  0.00     0.074 A 
ATOM     15  C   UNL     1       4.370 -16.119   5.091  1.00  0.00     0.049 A 
ATOM     16  N   UNL     1       5.153 -14.841   7.692  1.00  0.00    -0.248 NA
ATOM     17  C   UNL     1       6.828 -13.668   6.565  1.00  0.00     0.031 C 
ATOM     18  C   UNL     1       3.940 -16.770   3.851  1.00  0.00     0.029 A 
ATOM     19  N   UNL     1       3.525 -16.626   6.044  1.00  0.00    -0.354 N 
ATOM     20  C   UNL     1       5.866 -14.072   8.604  1.00  0.00     0.074 A 
ATOM     21  C   UNL     1       6.910 -13.399   7.860  1.00  0.00     0.031 C 
ATOM     22  C   UNL     1       2.876 -17.545   4.109  1.00  0.00     0.029 A 
ATOM     23  C   UNL     1       2.585 -17.489   5.538  1.00  0.00     0.049 A 
ATOM     24  H   UNL     1       3.586 -16.393   6.999  1.00  0.00     0.167 HD
ATOM     25  C   UNL     1       5.668 -13.936   9.938  1.00  0.00     0.031 A 
ATOM     26  C   UNL     1       1.598 -18.166   6.152  1.00  0.00     0.031 A 
ATOM     27  C   UNL     1       4.626 -14.599  10.678  1.00  0.00     0.049 A 
ATOM     28  C   UNL     1       1.413 -18.012   7.632  1.00  0.00     0.074 A 
ATOM     29  C   UNL     1       4.322 -14.492  12.024  1.00  0.00     0.029 A 
ATOM     30  N   UNL     1       3.721 -15.497  10.134  1.00  0.00    -0.354 N 
ATOM     31  N   UNL     1       2.073 -17.253   8.472  1.00  0.00    -0.248 NA
ATOM     32  C   UNL     1       0.343 -18.809   8.247  1.00  0.00     0.031 C 
ATOM     33  C   UNL     1       3.261 -15.362  12.304  1.00  0.00     0.029 A 
ATOM     34  C   UNL     1       2.873 -15.970  11.122  1.00  0.00     0.049 A 
ATOM     35  H   UNL     1       3.685 -15.760   9.186  1.00  0.00     0.167 HD
ATOM     36  C   UNL     1       1.484 -17.462   9.712  1.00  0.00     0.074 A 
ATOM     37  C   UNL     1       0.406 -18.409   9.510  1.00  0.00     0.031 C 
ATOM     38  C   UNL     1       1.808 -16.916  10.909  1.00  0.00     0.031 A 
BRANCH  25  39
ATOM     39  C   UNL     1       6.626 -13.056  10.692  1.00  0.00    -0.014 A 
ATOM     40  C   UNL     1       6.595 -11.658  10.563  1.00  0.00     0.009 A 
ATOM     41  C   UNL     1       7.557 -13.635  11.569  1.00  0.00     0.009 A 
ATOM     42  C   UNL     1       7.501 -10.863  11.268  1.00  0.00     0.001 A 
ATOM     43  C   UNL     1       8.444 -12.836  12.292  1.00  0.00     0.001 A 
ATOM     44  C   UNL     1       8.422 -11.451  12.134  1.00  0.00     0.000 A 
ENDBRANCH  25  39
BRANCH  26  45
ATOM     45  C   UNL     1       0.700 -19.038   5.356  1.00  0.00    -0.014 A 
ATOM     46  C   UNL     1      -0.629 -18.659   5.116  1.00  0.00     0.009 A 
ATOM     47  C   UNL     1       1.173 -20.242   4.810  1.00  0.00     0.009 A 
ATOM     48  C   UNL     1      -1.471 -19.475   4.358  1.00  0.00     0.001 A 
ATOM     49  C   UNL     1       0.337 -21.043   4.031  1.00  0.00     0.001 A 
ATOM     50  C   UNL     1      -0.985 -20.662   3.811  1.00  0.00     0.000 A 
ENDBRANCH  26  45
BRANCH  38  51
ATOM     51  C   UNL     1       0.959 -17.305  12.085  1.00  0.00    -0.014 A 
ATOM     52  C   UNL     1       1.063 -18.576  12.671  1.00  0.00     0.009 A 
ATOM     53  C   UNL     1       0.056 -16.377  12.626  1.00  0.00     0.009 A 
ATOM     54  C   UNL     1       0.253 -18.921  13.754  1.00  0.00     0.001 A 
ATOM     55  C   UNL     1      -0.734 -16.716  13.725  1.00  0.00     0.001 A 
ATOM     56  C   UNL     1      -0.642 -17.991  14.282  1.00  0.00     0.000 A 
ENDBRANCH  38  51
ENDBRANCH  12  13
ENDBRANCH   5   7
ENDBRANCH   2   3
ENDBRANCH   1   2
BRANCH   1  57
ATOM     57  C   UNL     1       8.296  -9.059  -0.418  1.00  0.00     0.023 C 
BRANCH  57  58
ATOM     58  C   UNL     1       7.102  -8.779  -1.330  1.00  0.00     0.116 C 
BRANCH  58  59
ATOM     59  N   UNL     1       6.136  -7.905  -0.682  1.00  0.00    -0.351 N 
ATOM     60  C   UNL     1       5.875  -6.571  -0.875  1.00  0.00     0.283 C 
ATOM     61  H   UNL     1       5.581  -8.340   0.005  1.00  0.00     0.163 HD
ATOM     62  O   UNL     1       5.066  -6.049  -0.103  1.00  0.00    -0.268 OA
BRANCH  60  63
ATOM     63  C   UNL     1       6.534  -5.820  -2.057  1.00  0.00     0.307 C 
BRANCH  63  64
ATOM     64  N   UNL     1       5.668  -5.689  -3.267  1.00  0.00    -0.318 N 
ATOM     65  C   UNL     1       4.679  -6.779  -3.475  1.00  0.00     0.284 C 
ATOM     66  C   UNL     1       4.995  -4.407  -3.521  1.00  0.00     0.284 C 
ATOM     67  H   UNL     1       6.418  -5.759  -3.955  1.00  0.00     0.349 HD
ATOM     68  C   UNL     1       3.287  -6.622  -2.782  1.00  0.00     0.178 C 
ATOM     69  C   UNL     1       3.700  -4.181  -2.724  1.00  0.00     0.178 C 
ATOM     70  N   UNL     1       2.742  -5.270  -2.985  1.00  0.00    -0.360 N 
BRANCH  70  71
ATOM     71  C   UNL     1       1.440  -4.960  -2.592  1.00  0.00     0.038 A 
ATOM     72  C   UNL     1       0.724  -3.997  -3.325  1.00  0.00     0.026 A 
ATOM     73  C   UNL     1       0.830  -5.500  -1.454  1.00  0.00     0.046 A 
ATOM     74  C   UNL     1      -0.546  -3.570  -2.933  1.00  0.00     0.004 A 
ATOM     75  C   UNL     1      -0.439  -5.068  -1.057  1.00  0.00     0.043 A 
ATOM     76  C   UNL     1      -1.128  -4.103  -1.788  1.00  0.00     0.020 A 
ATOM     77  Cl  UNL     1      -1.153  -5.713   0.372  1.00  0.00    -0.084 Cl
ENDBRANCH  70  71
ENDBRANCH  63  64
BRANCH  63  78
ATOM     78  C   UNL     1       7.212  -4.545  -1.571  1.00  0.00     0.044 A 
ATOM     79  C   UNL     1       6.628  -3.429  -0.991  1.00  0.00     0.094 A 
ATOM     80  C   UNL     1       8.636  -4.316  -1.494  1.00  0.00     0.011 A 
ATOM     81  N   UNL     1       7.597  -2.516  -0.690  1.00  0.00    -0.361 N 
ATOM     82  C   UNL     1       8.836  -3.046  -0.946  1.00  0.00     0.046 A 
ATOM     83  C   UNL     1       9.777  -5.085  -1.810  1.00  0.00     0.031 A 
ATOM     84  H   UNL     1       7.431  -1.611  -0.341  1.00  0.00     0.166 HD
ATOM     85  C   UNL     1      10.103  -2.498  -0.713  1.00  0.00     0.028 A 
ATOM     86  C   UNL     1      11.050  -4.560  -1.556  1.00  0.00     0.041 A 
ATOM     87  C   UNL     1      11.213  -3.286  -1.022  1.00  0.00     0.022 A 
ATOM     88  Cl  UNL     1      12.440  -5.520  -1.895  1.00  0.00    -0.084 Cl
ENDBRANCH  63  78
ENDBRANCH  60  63
ENDBRANCH  58  59
ENDBRANCH  57  58
ENDBRANCH   1  57
TORSDOF 14
