REMARK SMILES CC[NH2+][C@@]1(C(=O)NCCCCNC(=O)c2ccc(-c3c4nc(c(-c5ccccc5)c5ccc([nH]5)c(-c5ccccc5)c5nc(c(-c6ccccc6)c6ccc3[nH]6)C=C5)C=C4)cc2)CCC[C@@H]1CC[NH+]1CCS(=O)(=O)CC1
REMARK SMILES IDX 9 1 8 2 7 3 5 4 6 5 4 7 63 8 66 9 64 10 65 11 3 12 2 15 1 16
REMARK SMILES IDX 67 17 68 18 69 19 70 20 76 21 71 23 75 24 72 25 73 26 74 27
REMARK SMILES IDX 10 28 11 29 12 30 13 31 14 33 15 34 16 35 62 36 17 37 61 38
REMARK SMILES IDX 18 39 19 40 20 41 55 42 21 43 60 44 54 45 56 46 22 47 59 48
REMARK SMILES IDX 53 49 52 50 23 52 45 53 30 54 44 55 31 56 34 57 43 58 57 59
REMARK SMILES IDX 32 60 33 61 42 63 58 64 35 65 24 66 25 67 29 68 26 69 28 70
REMARK SMILES IDX 27 71 46 72 47 73 51 74 48 75 50 76 49 77 36 78 37 79 41 80
REMARK SMILES IDX 38 81 40 82 39 83
REMARK H PARENT 7 6 3 13 3 14 69 22 12 32 56 51 34 62
REMARK Flexibility Score: inf
ROOT
ATOM      1  C   UNL     1      -1.726   6.000   2.912  1.00  0.00     0.023 C 
ENDROOT
BRANCH   1   2
ATOM      2  C   UNL     1      -0.276   5.923   2.440  1.00  0.00     0.116 C 
BRANCH   2   3
ATOM      3  N   UNL     1       0.358   4.639   2.595  1.00  0.00    -0.351 N 
ATOM      4  C   UNL     1       1.036   3.880   1.688  1.00  0.00     0.281 C 
ATOM      5  O   UNL     1       1.866   3.093   2.173  1.00  0.00    -0.268 OA
ATOM      6  H   UNL     1       0.291   4.248   3.497  1.00  0.00     0.163 HD
BRANCH   4   7
ATOM      7  C   UNL     1       0.850   3.956   0.109  1.00  0.00     0.178 C 
ATOM      8  C   UNL     1       1.371   5.305  -0.446  1.00  0.00     0.079 C 
ATOM      9  C   UNL     1      -0.614   3.823  -0.400  1.00  0.00     0.066 C 
ATOM     10  C   UNL     1       0.189   6.111  -0.962  1.00  0.00     0.008 C 
ATOM     11  C   UNL     1      -1.056   5.253  -0.793  1.00  0.00     0.011 C 
BRANCH   7  12
ATOM     12  N   UNL     1       1.835   2.973  -0.460  1.00  0.00    -0.334 N 
ATOM     13  H   UNL     1       2.511   3.511  -1.004  1.00  0.00     0.347 HD
ATOM     14  H   UNL     1       2.190   2.485   0.363  1.00  0.00     0.347 HD
BRANCH  12  15
ATOM     15  C   UNL     1       1.361   1.901  -1.316  1.00  0.00     0.257 C 
ATOM     16  C   UNL     1       2.410   0.805  -1.439  1.00  0.00     0.071 C 
ENDBRANCH  12  15
ENDBRANCH   7  12
BRANCH   9  17
ATOM     17  C   UNL     1      -1.688   3.158   0.501  1.00  0.00     0.072 C 
BRANCH  17  18
ATOM     18  C   UNL     1      -1.690   1.645   0.798  1.00  0.00     0.262 C 
BRANCH  18  19
ATOM     19  N   UNL     1      -0.923   1.227   1.986  1.00  0.00    -0.333 N 
ATOM     20  C   UNL     1       0.292   0.442   1.716  1.00  0.00     0.278 C 
ATOM     21  C   UNL     1      -1.726   0.515   3.001  1.00  0.00     0.278 C 
ATOM     22  H   UNL     1      -0.630   2.130   2.360  1.00  0.00     0.348 HD
ATOM     23  C   UNL     1       0.061  -0.888   1.026  1.00  0.00     0.198 C 
ATOM     24  C   UNL     1      -2.255  -0.846   2.573  1.00  0.00     0.198 C 
ATOM     25  S   UNL     1      -0.950  -1.926   2.041  1.00  0.00     0.161 S 
ATOM     26  O   UNL     1      -1.543  -2.934   1.177  1.00  0.00    -0.228 OA
ATOM     27  O   UNL     1      -0.178  -2.318   3.201  1.00  0.00    -0.228 OA
ENDBRANCH  18  19
ENDBRANCH  17  18
ENDBRANCH   9  17
ENDBRANCH   4   7
ENDBRANCH   2   3
ENDBRANCH   1   2
BRANCH   1  28
ATOM     28  C   UNL     1      -1.905   6.137   4.415  1.00  0.00     0.023 C 
BRANCH  28  29
ATOM     29  C   UNL     1      -1.140   7.295   5.031  1.00  0.00     0.116 C 
BRANCH  29  30
ATOM     30  N   UNL     1      -1.422   8.579   4.399  1.00  0.00    -0.352 N 
ATOM     31  C   UNL     1      -1.657   9.791   5.004  1.00  0.00     0.251 C 
ATOM     32  H   UNL     1      -1.448   8.578   3.415  1.00  0.00     0.163 HD
ATOM     33  O   UNL     1      -1.998  10.769   4.351  1.00  0.00    -0.269 OA
BRANCH  31  34
ATOM     34  C   UNL     1      -1.530   9.870   6.471  1.00  0.00     0.039 A 
ATOM     35  C   UNL     1      -2.586  10.394   7.216  1.00  0.00     0.014 A 
ATOM     36  C   UNL     1      -0.414   9.315   7.101  1.00  0.00     0.014 A 
ATOM     37  C   UNL     1      -2.555  10.286   8.605  1.00  0.00     0.010 A 
ATOM     38  C   UNL     1      -0.441   9.107   8.471  1.00  0.00     0.010 A 
ATOM     39  C   UNL     1      -1.506   9.599   9.239  1.00  0.00    -0.014 A 
BRANCH  39  40
ATOM     40  C   UNL     1      -1.494   9.397  10.708  1.00  0.00     0.031 A 
ATOM     41  C   UNL     1      -0.372   9.969  11.531  1.00  0.00     0.074 A 
ATOM     42  C   UNL     1      -2.454   8.654  11.291  1.00  0.00     0.049 A 
ATOM     43  N   UNL     1      -0.164   9.874  12.820  1.00  0.00    -0.248 NA
ATOM     44  C   UNL     1       0.670  10.719  10.810  1.00  0.00     0.031 C 
ATOM     45  C   UNL     1      -3.567   8.001  10.596  1.00  0.00     0.029 A 
ATOM     46  N   UNL     1      -2.650   8.324  12.609  1.00  0.00    -0.354 N 
ATOM     47  C   UNL     1       1.034  10.536  13.055  1.00  0.00     0.074 A 
ATOM     48  C   UNL     1       1.543  10.966  11.773  1.00  0.00     0.031 C 
ATOM     49  C   UNL     1      -4.350   7.388  11.497  1.00  0.00     0.029 A 
ATOM     50  C   UNL     1      -3.774   7.564  12.826  1.00  0.00     0.049 A 
ATOM     51  H   UNL     1      -2.042   8.605  13.331  1.00  0.00     0.167 HD
ATOM     52  C   UNL     1       1.645  10.791  14.236  1.00  0.00     0.031 A 
ATOM     53  C   UNL     1      -4.282   7.064  13.968  1.00  0.00     0.031 A 
ATOM     54  C   UNL     1       1.133  10.371  15.511  1.00  0.00     0.049 A 
ATOM     55  C   UNL     1      -3.576   7.347  15.266  1.00  0.00     0.074 A 
ATOM     56  C   UNL     1       1.645  10.626  16.771  1.00  0.00     0.029 A 
ATOM     57  N   UNL     1      -0.008   9.604  15.688  1.00  0.00    -0.354 N 
ATOM     58  N   UNL     1      -2.486   8.043  15.480  1.00  0.00    -0.248 NA
ATOM     59  C   UNL     1      -4.180   6.784  16.482  1.00  0.00     0.031 C 
ATOM     60  C   UNL     1       0.847   9.960  17.706  1.00  0.00     0.029 A 
ATOM     61  C   UNL     1      -0.201   9.352  17.035  1.00  0.00     0.049 A 
ATOM     62  H   UNL     1      -0.594   9.286  14.963  1.00  0.00     0.167 HD
ATOM     63  C   UNL     1      -2.292   8.030  16.856  1.00  0.00     0.074 A 
ATOM     64  C   UNL     1      -3.387   7.272  17.425  1.00  0.00     0.031 C 
ATOM     65  C   UNL     1      -1.297   8.595  17.584  1.00  0.00     0.031 A 
BRANCH  52  66
ATOM     66  C   UNL     1       2.938  11.558  14.194  1.00  0.00    -0.014 A 
ATOM     67  C   UNL     1       2.974  12.909  13.809  1.00  0.00     0.009 A 
ATOM     68  C   UNL     1       4.135  10.929  14.567  1.00  0.00     0.009 A 
ATOM     69  C   UNL     1       4.186  13.600  13.759  1.00  0.00     0.001 A 
ATOM     70  C   UNL     1       5.341  11.632  14.550  1.00  0.00     0.001 A 
ATOM     71  C   UNL     1       5.367  12.963  14.136  1.00  0.00     0.000 A 
ENDBRANCH  52  66
BRANCH  53  72
ATOM     72  C   UNL     1      -5.536   6.264  13.944  1.00  0.00    -0.014 A 
ATOM     73  C   UNL     1      -6.716   6.767  14.515  1.00  0.00     0.009 A 
ATOM     74  C   UNL     1      -5.557   4.986  13.365  1.00  0.00     0.009 A 
ATOM     75  C   UNL     1      -7.880   5.995  14.535  1.00  0.00     0.001 A 
ATOM     76  C   UNL     1      -6.731   4.229  13.357  1.00  0.00     0.001 A 
ATOM     77  C   UNL     1      -7.888   4.729  13.952  1.00  0.00     0.000 A 
ENDBRANCH  53  72
BRANCH  65  78
ATOM     78  C   UNL     1      -1.372   8.453  19.078  1.00  0.00    -0.014 A 
ATOM     79  C   UNL     1      -1.155   7.219  19.710  1.00  0.00     0.009 A 
ATOM     80  C   UNL     1      -1.624   9.587  19.868  1.00  0.00     0.009 A 
ATOM     81  C   UNL     1      -1.228   7.117  21.101  1.00  0.00     0.001 A 
ATOM     82  C   UNL     1      -1.662   9.488  21.259  1.00  0.00     0.001 A 
ATOM     83  C   UNL     1      -1.476   8.251  21.874  1.00  0.00     0.000 A 
ENDBRANCH  65  78
ENDBRANCH  39  40
ENDBRANCH  31  34
ENDBRANCH  29  30
ENDBRANCH  28  29
ENDBRANCH   1  28
TORSDOF 16
