REMARK SMILES Cc1nc(-c2ccco2)nc(S)c1C(=O)NCCCCNC(=O)c1ccc(-c2c3nc(c(-c4ccccc4)c4ccc([nH]4)c(-c4ccccc4)c4nc(c(-c5ccccc5)c5ccc2[nH]5)C=C4)C=C3)cc1
REMARK SMILES IDX 19 1 18 2 17 3 16 4 14 5 15 6 13 8 1 9 2 10 3 11 4 12 11 13
REMARK SMILES IDX 10 14 5 15 6 16 9 17 7 18 8 19 12 20 20 22 21 23 22 24 23 26
REMARK SMILES IDX 24 27 25 28 71 29 26 30 70 31 27 32 28 33 29 34 64 35 30 36
REMARK SMILES IDX 69 37 63 38 65 39 31 40 68 41 62 42 61 43 32 45 54 46 39 47
REMARK SMILES IDX 53 48 40 49 43 50 52 51 66 52 41 53 42 54 51 56 67 57 44 58
REMARK SMILES IDX 33 59 34 60 38 61 35 62 37 63 36 64 55 65 56 66 60 67 57 68
REMARK SMILES IDX 59 69 58 70 45 71 46 72 50 73 47 74 49 75 48 76
REMARK H PARENT 16 7 12 21 21 25 65 44 43 55
REMARK Flexibility Score: inf
ROOT
ATOM      1  C   UNL     1       4.285  -1.704   0.880  1.00  0.00     0.023 C 
ENDROOT
BRANCH   1   2
ATOM      2  C   UNL     1       2.944  -1.105   0.476  1.00  0.00     0.023 C 
BRANCH   2   3
ATOM      3  C   UNL     1       2.366  -0.051   1.431  1.00  0.00     0.116 C 
BRANCH   3   4
ATOM      4  N   UNL     1       2.890   1.249   1.071  1.00  0.00    -0.352 N 
ATOM      5  C   UNL     1       2.440   2.256   0.259  1.00  0.00     0.255 C 
ATOM      6  O   UNL     1       3.267   3.130  -0.015  1.00  0.00    -0.269 OA
ATOM      7  H   UNL     1       3.752   1.453   1.501  1.00  0.00     0.163 HD
BRANCH   5   8
ATOM      8  C   UNL     1       1.060   2.423  -0.266  1.00  0.00     0.093 A 
ATOM      9  C   UNL     1       0.734   0.110  -1.352  1.00  0.00     0.068 C 
ATOM     10  C   UNL     1       0.332   1.500  -1.008  1.00  0.00     0.055 A 
ATOM     11  N   UNL     1      -0.844   1.810  -1.601  1.00  0.00    -0.230 NA
ATOM     12  C   UNL     1      -1.265   3.075  -1.544  1.00  0.00     0.196 A 
ATOM     13  C   UNL     1       0.489   3.708  -0.232  1.00  0.00     0.110 A 
ATOM     14  N   UNL     1      -0.646   4.054  -0.890  1.00  0.00    -0.218 NA
BRANCH  12  15
ATOM     15  C   UNL     1      -2.312   3.408  -2.484  1.00  0.00     0.171 A 
ATOM     16  C   UNL     1      -2.343   4.158  -3.643  1.00  0.00     0.054 A 
ATOM     17  O   UNL     1      -3.514   2.783  -2.303  1.00  0.00    -0.461 OA
ATOM     18  C   UNL     1      -3.626   3.965  -4.211  1.00  0.00     0.043 A 
ATOM     19  C   UNL     1      -4.304   3.133  -3.350  1.00  0.00     0.196 A 
ENDBRANCH  12  15
BRANCH  13  20
ATOM     20  S   UNL     1       1.148   5.084   0.714  1.00  0.00    -0.123 SA
ATOM     21  H   UNL     1       0.362   6.178   0.529  1.00  0.00     0.110 HD
ENDBRANCH  13  20
ENDBRANCH   5   8
ENDBRANCH   3   4
ENDBRANCH   2   3
ENDBRANCH   1   2
BRANCH   1  22
ATOM     22  C   UNL     1       4.200  -2.678   2.038  1.00  0.00     0.116 C 
BRANCH  22  23
ATOM     23  N   UNL     1       3.350  -3.835   1.782  1.00  0.00    -0.352 N 
ATOM     24  C   UNL     1       3.472  -5.102   2.309  1.00  0.00     0.251 C 
ATOM     25  H   UNL     1       2.602  -3.694   1.158  1.00  0.00     0.163 HD
ATOM     26  O   UNL     1       2.720  -6.007   1.967  1.00  0.00    -0.269 OA
BRANCH  24  27
ATOM     27  C   UNL     1       4.583  -5.357   3.245  1.00  0.00     0.039 A 
ATOM     28  C   UNL     1       4.798  -4.488   4.315  1.00  0.00     0.014 A 
ATOM     29  C   UNL     1       5.494  -6.373   2.953  1.00  0.00     0.014 A 
ATOM     30  C   UNL     1       6.026  -4.502   4.958  1.00  0.00     0.010 A 
ATOM     31  C   UNL     1       6.687  -6.449   3.674  1.00  0.00     0.010 A 
ATOM     32  C   UNL     1       6.989  -5.474   4.637  1.00  0.00    -0.014 A 
BRANCH  32  33
ATOM     33  C   UNL     1       8.307  -5.435   5.316  1.00  0.00     0.031 A 
ATOM     34  C   UNL     1       9.569  -5.167   4.540  1.00  0.00     0.074 A 
ATOM     35  C   UNL     1       8.351  -5.567   6.655  1.00  0.00     0.049 A 
ATOM     36  N   UNL     1      10.799  -5.083   4.982  1.00  0.00    -0.248 NA
ATOM     37  C   UNL     1       9.442  -4.966   3.087  1.00  0.00     0.031 C 
ATOM     38  C   UNL     1       7.188  -5.795   7.516  1.00  0.00     0.029 A 
ATOM     39  N   UNL     1       9.403  -5.490   7.529  1.00  0.00    -0.354 N 
ATOM     40  C   UNL     1      11.591  -4.851   3.864  1.00  0.00     0.074 A 
ATOM     41  C   UNL     1      10.708  -4.819   2.719  1.00  0.00     0.031 C 
ATOM     42  C   UNL     1       7.579  -5.766   8.797  1.00  0.00     0.029 A 
ATOM     43  C   UNL     1       9.027  -5.598   8.845  1.00  0.00     0.049 A 
ATOM     44  H   UNL     1      10.337  -5.369   7.242  1.00  0.00     0.167 HD
ATOM     45  C   UNL     1      12.932  -4.676   3.801  1.00  0.00     0.031 A 
ATOM     46  C   UNL     1       9.763  -5.580   9.971  1.00  0.00     0.031 A 
ATOM     47  C   UNL     1      13.805  -4.687   4.944  1.00  0.00     0.049 A 
ATOM     48  C   UNL     1      11.251  -5.426   9.869  1.00  0.00     0.074 A 
ATOM     49  C   UNL     1      15.177  -4.509   4.978  1.00  0.00     0.029 A 
ATOM     50  N   UNL     1      13.392  -4.877   6.253  1.00  0.00    -0.354 N 
ATOM     51  N   UNL     1      11.984  -5.234   8.800  1.00  0.00    -0.248 NA
ATOM     52  C   UNL     1      12.013  -5.501  11.123  1.00  0.00     0.031 C 
ATOM     53  C   UNL     1      15.601  -4.638   6.303  1.00  0.00     0.029 A 
ATOM     54  C   UNL     1      14.486  -4.842   7.100  1.00  0.00     0.049 A 
ATOM     55  H   UNL     1      12.460  -5.016   6.538  1.00  0.00     0.167 HD
ATOM     56  C   UNL     1      13.294  -5.163   9.250  1.00  0.00     0.074 A 
ATOM     57  C   UNL     1      13.253  -5.309  10.691  1.00  0.00     0.031 C 
ATOM     58  C   UNL     1      14.430  -4.999   8.530  1.00  0.00     0.031 A 
BRANCH  45  59
ATOM     59  C   UNL     1      13.557  -4.476   2.449  1.00  0.00    -0.014 A 
ATOM     60  C   UNL     1      14.346  -5.495   1.891  1.00  0.00     0.009 A 
ATOM     61  C   UNL     1      13.448  -3.253   1.770  1.00  0.00     0.009 A 
ATOM     62  C   UNL     1      15.023  -5.291   0.688  1.00  0.00     0.001 A 
ATOM     63  C   UNL     1      14.108  -3.059   0.554  1.00  0.00     0.001 A 
ATOM     64  C   UNL     1      14.901  -4.074   0.018  1.00  0.00     0.000 A 
ENDBRANCH  45  59
BRANCH  46  65
ATOM     65  C   UNL     1       9.084  -5.723  11.283  1.00  0.00    -0.014 A 
ATOM     66  C   UNL     1       8.486  -6.941  11.646  1.00  0.00     0.009 A 
ATOM     67  C   UNL     1       8.970  -4.625  12.148  1.00  0.00     0.009 A 
ATOM     68  C   UNL     1       7.762  -7.049  12.834  1.00  0.00     0.001 A 
ATOM     69  C   UNL     1       8.268  -4.744  13.349  1.00  0.00     0.001 A 
ATOM     70  C   UNL     1       7.656  -5.951  13.686  1.00  0.00     0.000 A 
ENDBRANCH  46  65
BRANCH  58  71
ATOM     71  C   UNL     1      15.728  -4.964   9.281  1.00  0.00    -0.014 A 
ATOM     72  C   UNL     1      16.424  -3.753   9.416  1.00  0.00     0.009 A 
ATOM     73  C   UNL     1      16.302  -6.144   9.778  1.00  0.00     0.009 A 
ATOM     74  C   UNL     1      17.679  -3.725  10.026  1.00  0.00     0.001 A 
ATOM     75  C   UNL     1      17.547  -6.108  10.408  1.00  0.00     0.001 A 
ATOM     76  C   UNL     1      18.237  -4.902  10.524  1.00  0.00     0.000 A 
ENDBRANCH  58  71
ENDBRANCH  32  33
ENDBRANCH  24  27
ENDBRANCH  22  23
ENDBRANCH   1  22
TORSDOF 13
