REMARK SMILES CC(C)N(CCCC(=O)NCCCCNC(=O)c1ccc(-c2c3nc(c(-c4ccccc4)c4ccc([nH]4)c(-c4ccccc4)c4nc(c(-c5ccccc5)c5ccc2[nH]5)C=C4)C=C3)cc1)c1cc(Cl)c(Cl)cc1[N+](=O)[O-]
REMARK SMILES IDX 11 1 10 2 8 3 9 4 7 6 6 7 5 8 4 9 2 10 1 11 3 12 66 13 67 14
REMARK SMILES IDX 73 15 68 16 72 17 69 18 70 19 71 20 74 21 75 22 76 23 12 24
REMARK SMILES IDX 13 25 14 26 15 27 16 28 17 30 18 31 19 32 65 33 20 34 64 35
REMARK SMILES IDX 21 36 22 37 23 38 58 39 24 40 63 41 57 42 59 43 25 44 62 45
REMARK SMILES IDX 56 46 55 47 26 49 48 50 33 51 47 52 34 53 37 54 46 55 60 56
REMARK SMILES IDX 35 57 36 58 45 60 61 61 38 62 27 63 28 64 32 65 29 66 31 67
REMARK SMILES IDX 30 68 49 69 50 70 54 71 51 72 53 73 52 74 39 75 40 76 44 77
REMARK SMILES IDX 41 78 43 79 42 80
REMARK H PARENT 10 5 15 29 59 48 37 59
REMARK Flexibility Score: inf
ROOT
ATOM      1  C   UNL     1      -3.362   1.364   0.279  1.00  0.00     0.116 C 
ENDROOT
BRANCH   1   2
ATOM      2  N   UNL     1      -4.464   1.649  -0.614  1.00  0.00    -0.356 N 
ATOM      3  C   UNL     1      -4.663   1.200  -1.885  1.00  0.00     0.220 C 
ATOM      4  O   UNL     1      -5.525   1.743  -2.575  1.00  0.00    -0.275 OA
ATOM      5  H   UNL     1      -5.161   2.245  -0.257  1.00  0.00     0.163 HD
BRANCH   3   6
ATOM      6  C   UNL     1      -3.873   0.011  -2.395  1.00  0.00     0.102 C 
BRANCH   6   7
ATOM      7  C   UNL     1      -2.587   0.338  -3.161  1.00  0.00     0.031 C 
BRANCH   7   8
ATOM      8  C   UNL     1      -1.288   0.562  -2.374  1.00  0.00     0.117 C 
BRANCH   8   9
ATOM      9  N   UNL     1      -0.538  -0.611  -1.836  1.00  0.00    -0.364 N 
BRANCH   9  10
ATOM     10  C   UNL     1       0.938  -0.577  -2.051  1.00  0.00     0.076 C 
ATOM     11  C   UNL     1       1.737  -0.092  -0.846  1.00  0.00     0.030 C 
ATOM     12  C   UNL     1       1.470  -1.901  -2.586  1.00  0.00     0.030 C 
ENDBRANCH   9  10
BRANCH   9  13
ATOM     13  C   UNL     1      -1.173  -1.629  -1.139  1.00  0.00     0.117 A 
ATOM     14  C   UNL     1      -1.978  -2.519  -1.880  1.00  0.00     0.055 A 
ATOM     15  C   UNL     1      -1.146  -1.881   0.249  1.00  0.00     0.294 A 
ATOM     16  C   UNL     1      -2.810  -3.481  -1.280  1.00  0.00     0.062 A 
ATOM     17  C   UNL     1      -1.946  -2.863   0.869  1.00  0.00     0.110 A 
ATOM     18  Cl  UNL     1      -3.864  -4.383  -2.308  1.00  0.00    -0.083 Cl
ATOM     19  C   UNL     1      -2.804  -3.640   0.103  1.00  0.00     0.066 A 
ATOM     20  Cl  UNL     1      -3.837  -4.750   0.926  1.00  0.00    -0.082 Cl
BRANCH  15  21
ATOM     21  N   UNL     1      -0.347  -1.113   1.178  1.00  0.00     0.065 N 
ATOM     22  O   UNL     1       0.502  -1.738   1.828  1.00  0.00    -0.258 OA
ATOM     23  O   UNL     1      -0.641   0.077   1.337  1.00  0.00    -0.258 OA
ENDBRANCH  15  21
ENDBRANCH   9  13
ENDBRANCH   8   9
ENDBRANCH   7   8
ENDBRANCH   6   7
ENDBRANCH   3   6
ENDBRANCH   1   2
BRANCH   1  24
ATOM     24  C   UNL     1      -2.395   2.551   0.299  1.00  0.00     0.023 C 
BRANCH  24  25
ATOM     25  C   UNL     1      -2.596   3.482   1.482  1.00  0.00     0.023 C 
BRANCH  25  26
ATOM     26  C   UNL     1      -2.244   2.852   2.823  1.00  0.00     0.116 C 
BRANCH  26  27
ATOM     27  N   UNL     1      -0.847   2.458   2.948  1.00  0.00    -0.352 N 
ATOM     28  C   UNL     1      -0.047   2.518   4.064  1.00  0.00     0.251 C 
ATOM     29  H   UNL     1      -0.425   2.104   2.132  1.00  0.00     0.163 HD
ATOM     30  O   UNL     1       1.147   2.239   4.021  1.00  0.00    -0.269 OA
BRANCH  28  31
ATOM     31  C   UNL     1      -0.660   2.962   5.328  1.00  0.00     0.039 A 
ATOM     32  C   UNL     1      -0.089   4.027   6.024  1.00  0.00     0.014 A 
ATOM     33  C   UNL     1      -1.862   2.389   5.753  1.00  0.00     0.014 A 
ATOM     34  C   UNL     1      -0.779   4.580   7.101  1.00  0.00     0.010 A 
ATOM     35  C   UNL     1      -2.591   3.003   6.760  1.00  0.00     0.010 A 
ATOM     36  C   UNL     1      -2.058   4.105   7.442  1.00  0.00    -0.014 A 
BRANCH  36  37
ATOM     37  C   UNL     1      -2.857   4.767   8.499  1.00  0.00     0.031 A 
ATOM     38  C   UNL     1      -3.238   4.013   9.742  1.00  0.00     0.074 A 
ATOM     39  C   UNL     1      -3.290   6.028   8.308  1.00  0.00     0.049 A 
ATOM     40  N   UNL     1      -3.922   4.427  10.777  1.00  0.00    -0.248 NA
ATOM     41  C   UNL     1      -2.825   2.602   9.819  1.00  0.00     0.031 C 
ATOM     42  C   UNL     1      -3.051   6.838   7.109  1.00  0.00     0.029 A 
ATOM     43  N   UNL     1      -4.017   6.855   9.126  1.00  0.00    -0.354 N 
ATOM     44  C   UNL     1      -4.035   3.326  11.616  1.00  0.00     0.074 A 
ATOM     45  C   UNL     1      -3.404   2.212  10.944  1.00  0.00     0.031 C 
ATOM     46  C   UNL     1      -3.578   8.059   7.292  1.00  0.00     0.029 A 
ATOM     47  C   UNL     1      -4.214   8.110   8.604  1.00  0.00     0.049 A 
ATOM     48  H   UNL     1      -4.365   6.575  10.003  1.00  0.00     0.167 HD
ATOM     49  C   UNL     1      -4.591   3.253  12.848  1.00  0.00     0.031 A 
ATOM     50  C   UNL     1      -4.824   9.186   9.132  1.00  0.00     0.031 A 
ATOM     51  C   UNL     1      -5.199   4.367  13.523  1.00  0.00     0.049 A 
ATOM     52  C   UNL     1      -5.401   9.091  10.516  1.00  0.00     0.074 A 
ATOM     53  C   UNL     1      -5.726   4.418  14.801  1.00  0.00     0.029 A 
ATOM     54  N   UNL     1      -5.359   5.628  12.971  1.00  0.00    -0.354 N 
ATOM     55  N   UNL     1      -5.418   8.067  11.335  1.00  0.00    -0.248 NA
ATOM     56  C   UNL     1      -6.026  10.307  11.054  1.00  0.00     0.031 C 
ATOM     57  C   UNL     1      -6.243   5.702  15.007  1.00  0.00     0.029 A 
ATOM     58  C   UNL     1      -5.994   6.462  13.875  1.00  0.00     0.049 A 
ATOM     59  H   UNL     1      -5.065   5.891  12.069  1.00  0.00     0.167 HD
ATOM     60  C   UNL     1      -6.033   8.522  12.494  1.00  0.00     0.074 A 
ATOM     61  C   UNL     1      -6.354   9.919  12.277  1.00  0.00     0.031 C 
ATOM     62  C   UNL     1      -6.309   7.846  13.636  1.00  0.00     0.031 A 
BRANCH  49  63
ATOM     63  C   UNL     1      -4.560   1.918  13.537  1.00  0.00    -0.014 A 
ATOM     64  C   UNL     1      -3.354   1.373  14.011  1.00  0.00     0.009 A 
ATOM     65  C   UNL     1      -5.750   1.201  13.729  1.00  0.00     0.009 A 
ATOM     66  C   UNL     1      -3.337   0.119  14.624  1.00  0.00     0.001 A 
ATOM     67  C   UNL     1      -5.734  -0.040  14.368  1.00  0.00     0.001 A 
ATOM     68  C   UNL     1      -4.527  -0.584  14.806  1.00  0.00     0.000 A 
ENDBRANCH  49  63
BRANCH  50  69
ATOM     69  C   UNL     1      -4.877  10.463   8.374  1.00  0.00    -0.014 A 
ATOM     70  C   UNL     1      -4.089  11.555   8.771  1.00  0.00     0.009 A 
ATOM     71  C   UNL     1      -5.715  10.600   7.258  1.00  0.00     0.009 A 
ATOM     72  C   UNL     1      -4.162  12.768   8.082  1.00  0.00     0.001 A 
ATOM     73  C   UNL     1      -5.766  11.807   6.556  1.00  0.00     0.001 A 
ATOM     74  C   UNL     1      -4.998  12.892   6.974  1.00  0.00     0.000 A 
ENDBRANCH  50  69
BRANCH  62  75
ATOM     75  C   UNL     1      -6.968   8.620  14.740  1.00  0.00    -0.014 A 
ATOM     76  C   UNL     1      -8.313   9.011  14.653  1.00  0.00     0.009 A 
ATOM     77  C   UNL     1      -6.235   8.947  15.892  1.00  0.00     0.009 A 
ATOM     78  C   UNL     1      -8.900   9.750  15.681  1.00  0.00     0.001 A 
ATOM     79  C   UNL     1      -6.833   9.661  16.930  1.00  0.00     0.001 A 
ATOM     80  C   UNL     1      -8.161  10.072  16.819  1.00  0.00     0.000 A 
ENDBRANCH  62  75
ENDBRANCH  36  37
ENDBRANCH  28  31
ENDBRANCH  26  27
ENDBRANCH  25  26
ENDBRANCH  24  25
ENDBRANCH   1  24
TORSDOF 17
