REMARK SMILES C[C@H]([C@@H]1CCCO1)n1c(SCC(=O)NCCCCNC(=O)c2ccc(-c3c4nc(c(-c5ccccc5)c5ccc([nH]5)c(-c5ccccc5)c5nc(c(-c6ccccc6)c6ccc3[nH]6)C=C5)C=C4)cc2)nc2cnccc21
REMARK SMILES IDX 15 1 14 2 12 3 13 4 11 6 10 7 9 8 8 9 76 10 70 11 71 12
REMARK SMILES IDX 75 13 72 14 74 15 73 16 2 17 1 18 3 19 4 20 7 21 5 22 6 23
REMARK SMILES IDX 16 24 17 25 18 26 19 27 20 28 21 30 22 31 23 32 69 33 24 34
REMARK SMILES IDX 68 35 25 36 26 37 27 38 62 39 28 40 67 41 61 42 63 43 29 44
REMARK SMILES IDX 66 45 60 46 59 47 30 49 52 50 37 51 51 52 38 53 41 54 50 55
REMARK SMILES IDX 64 56 39 57 40 58 49 60 65 61 42 62 31 63 32 64 36 65 33 66
REMARK SMILES IDX 35 67 34 68 53 69 54 70 58 71 55 72 57 73 56 74 43 75 44 76
REMARK SMILES IDX 48 77 45 78 47 79 46 80
REMARK H PARENT 14 5 19 29 63 48 41 59
REMARK Flexibility Score: inf
ROOT
ATOM      1  C   UNL     1      -0.389   1.650  -5.104  1.00  0.00     0.116 C 
ENDROOT
BRANCH   1   2
ATOM      2  N   UNL     1       0.696   1.732  -4.155  1.00  0.00    -0.355 N 
ATOM      3  C   UNL     1       1.062   0.781  -3.256  1.00  0.00     0.230 C 
ATOM      4  O   UNL     1       2.172   0.884  -2.728  1.00  0.00    -0.274 OA
ATOM      5  H   UNL     1       1.224   2.562  -4.159  1.00  0.00     0.163 HD
BRANCH   3   6
ATOM      6  C   UNL     1       0.160  -0.395  -2.999  1.00  0.00     0.178 C 
BRANCH   6   7
ATOM      7  S   UNL     1      -1.393  -0.112  -2.197  1.00  0.00    -0.078 SA
BRANCH   7   8
ATOM      8  C   UNL     1      -1.660   0.843  -0.784  1.00  0.00     0.169 A 
ATOM      9  N   UNL     1      -0.918   1.330   0.284  1.00  0.00    -0.313 N 
ATOM     10  C   UNL     1      -1.819   2.008   1.128  1.00  0.00     0.072 A 
ATOM     11  N   UNL     1      -2.946   1.089  -0.585  1.00  0.00    -0.221 NA
ATOM     12  C   UNL     1      -3.069   1.780   0.580  1.00  0.00     0.108 A 
ATOM     13  C   UNL     1      -1.678   2.761   2.303  1.00  0.00     0.049 A 
ATOM     14  C   UNL     1      -4.209   2.259   1.235  1.00  0.00     0.141 A 
ATOM     15  C   UNL     1      -2.861   3.213   2.874  1.00  0.00     0.113 A 
ATOM     16  N   UNL     1      -4.096   2.975   2.383  1.00  0.00    -0.262 NA
BRANCH   9  17
ATOM     17  C   UNL     1       0.497   1.303   0.645  1.00  0.00     0.116 C 
ATOM     18  C   UNL     1       1.311   2.283  -0.192  1.00  0.00     0.034 C 
BRANCH  17  19
ATOM     19  C   UNL     1       1.139  -0.048   1.052  1.00  0.00     0.141 C 
ATOM     20  C   UNL     1       1.550  -0.993  -0.041  1.00  0.00     0.036 C 
ATOM     21  O   UNL     1       0.274  -0.784   1.933  1.00  0.00    -0.376 OA
ATOM     22  C   UNL     1       0.655  -2.202   0.086  1.00  0.00     0.031 C 
ATOM     23  C   UNL     1      -0.310  -1.861   1.195  1.00  0.00     0.160 C 
ENDBRANCH  17  19
ENDBRANCH   9  17
ENDBRANCH   7   8
ENDBRANCH   6   7
ENDBRANCH   3   6
ENDBRANCH   1   2
BRANCH   1  24
ATOM     24  C   UNL     1      -1.394   2.773  -4.931  1.00  0.00     0.023 C 
BRANCH  24  25
ATOM     25  C   UNL     1      -0.847   4.178  -5.179  1.00  0.00     0.023 C 
BRANCH  25  26
ATOM     26  C   UNL     1       0.121   4.323  -6.359  1.00  0.00     0.116 C 
BRANCH  26  27
ATOM     27  N   UNL     1      -0.286   3.657  -7.583  1.00  0.00    -0.352 N 
ATOM     28  C   UNL     1      -1.150   3.927  -8.598  1.00  0.00     0.251 C 
ATOM     29  H   UNL     1       0.178   2.798  -7.710  1.00  0.00     0.163 HD
ATOM     30  O   UNL     1      -1.176   3.104  -9.524  1.00  0.00    -0.269 OA
BRANCH  28  31
ATOM     31  C   UNL     1      -2.075   5.080  -8.644  1.00  0.00     0.039 A 
ATOM     32  C   UNL     1      -2.119   6.103  -7.700  1.00  0.00     0.014 A 
ATOM     33  C   UNL     1      -2.996   5.098  -9.709  1.00  0.00     0.014 A 
ATOM     34  C   UNL     1      -3.132   7.046  -7.743  1.00  0.00     0.010 A 
ATOM     35  C   UNL     1      -3.988   6.066  -9.782  1.00  0.00     0.010 A 
ATOM     36  C   UNL     1      -4.080   7.009  -8.768  1.00  0.00    -0.014 A 
BRANCH  36  37
ATOM     37  C   UNL     1      -5.055   8.088  -8.796  1.00  0.00     0.031 A 
ATOM     38  C   UNL     1      -4.450   9.444  -8.900  1.00  0.00     0.074 A 
ATOM     39  C   UNL     1      -6.388   7.905  -8.779  1.00  0.00     0.049 A 
ATOM     40  N   UNL     1      -4.499  10.396  -8.029  1.00  0.00    -0.248 NA
ATOM     41  C   UNL     1      -3.568   9.719 -10.046  1.00  0.00     0.031 C 
ATOM     42  C   UNL     1      -7.141   6.661  -8.941  1.00  0.00     0.029 A 
ATOM     43  N   UNL     1      -7.366   8.849  -8.701  1.00  0.00    -0.354 N 
ATOM     44  C   UNL     1      -3.776  11.454  -8.572  1.00  0.00     0.074 A 
ATOM     45  C   UNL     1      -3.127  10.943  -9.752  1.00  0.00     0.031 C 
ATOM     46  C   UNL     1      -8.438   6.957  -9.192  1.00  0.00     0.029 A 
ATOM     47  C   UNL     1      -8.628   8.391  -9.050  1.00  0.00     0.049 A 
ATOM     48  H   UNL     1      -7.192   9.777  -8.421  1.00  0.00     0.167 HD
ATOM     49  C   UNL     1      -3.904  12.725  -8.104  1.00  0.00     0.031 A 
ATOM     50  C   UNL     1      -9.726   9.156  -9.265  1.00  0.00     0.031 A 
ATOM     51  C   UNL     1      -4.508  12.756  -6.800  1.00  0.00     0.049 A 
ATOM     52  C   UNL     1      -9.508  10.458  -8.596  1.00  0.00     0.074 A 
ATOM     53  C   UNL     1      -4.136  12.295  -5.553  1.00  0.00     0.029 A 
ATOM     54  N   UNL     1      -5.858  12.997  -6.734  1.00  0.00    -0.354 N 
ATOM     55  N   UNL     1      -9.464  10.608  -7.305  1.00  0.00    -0.248 NA
ATOM     56  C   UNL     1      -8.920  11.537  -9.372  1.00  0.00     0.031 C 
ATOM     57  C   UNL     1      -5.345  11.836  -4.958  1.00  0.00     0.029 A 
ATOM     58  C   UNL     1      -6.395  12.110  -5.837  1.00  0.00     0.049 A 
ATOM     59  H   UNL     1      -6.351  13.683  -7.239  1.00  0.00     0.167 HD
ATOM     60  C   UNL     1      -8.466  11.547  -7.096  1.00  0.00     0.074 A 
ATOM     61  C   UNL     1      -8.245  12.161  -8.403  1.00  0.00     0.031 C 
ATOM     62  C   UNL     1      -7.722  11.541  -5.950  1.00  0.00     0.031 A 
BRANCH  49  63
ATOM     63  C   UNL     1      -3.799  13.949  -8.975  1.00  0.00    -0.014 A 
ATOM     64  C   UNL     1      -3.847  13.897 -10.380  1.00  0.00     0.009 A 
ATOM     65  C   UNL     1      -3.923  15.220  -8.385  1.00  0.00     0.009 A 
ATOM     66  C   UNL     1      -4.020  15.044 -11.160  1.00  0.00     0.001 A 
ATOM     67  C   UNL     1      -4.136  16.366  -9.161  1.00  0.00     0.001 A 
ATOM     68  C   UNL     1      -4.189  16.276 -10.548  1.00  0.00     0.000 A 
ENDBRANCH  49  63
BRANCH  50  69
ATOM     69  C   UNL     1     -10.767   8.996 -10.304  1.00  0.00    -0.014 A 
ATOM     70  C   UNL     1     -10.450   8.387 -11.531  1.00  0.00     0.009 A 
ATOM     71  C   UNL     1     -11.965   9.726 -10.223  1.00  0.00     0.009 A 
ATOM     72  C   UNL     1     -11.269   8.552 -12.653  1.00  0.00     0.001 A 
ATOM     73  C   UNL     1     -12.783   9.893 -11.348  1.00  0.00     0.001 A 
ATOM     74  C   UNL     1     -12.424   9.322 -12.567  1.00  0.00     0.000 A 
ENDBRANCH  50  69
BRANCH  62  75
ATOM     75  C   UNL     1      -8.174  10.668  -4.799  1.00  0.00    -0.014 A 
ATOM     76  C   UNL     1      -8.238  11.249  -3.522  1.00  0.00     0.009 A 
ATOM     77  C   UNL     1      -8.363   9.278  -4.903  1.00  0.00     0.009 A 
ATOM     78  C   UNL     1      -8.465  10.470  -2.385  1.00  0.00     0.001 A 
ATOM     79  C   UNL     1      -8.623   8.502  -3.766  1.00  0.00     0.001 A 
ATOM     80  C   UNL     1      -8.661   9.098  -2.507  1.00  0.00     0.000 A 
ENDBRANCH  62  75
ENDBRANCH  36  37
ENDBRANCH  28  31
ENDBRANCH  26  27
ENDBRANCH  25  26
ENDBRANCH  24  25
ENDBRANCH   1  24
TORSDOF 15
