REMARK SMILES O=C(/C=C/c1ccc(NC(=O)CCc2nc(-c3cc(Br)cs3)no2)cc1)NCCCCNC(=O)c1ccc(-c2c3nc(c(-c4ccccc4)c4ccc([nH]4)c(-c4ccccc4)c4nc(c(-c5ccccc5)c5ccc2[nH]5)C=C4)C=C3)cc1
REMARK SMILES IDX 1 1 2 2 27 3 3 5 4 6 5 7 6 8 26 9 7 10 25 11 8 12 9 13 10 14
REMARK SMILES IDX 11 16 12 17 13 18 14 19 15 20 24 21 16 22 23 23 17 24 18 25
REMARK SMILES IDX 22 26 19 27 21 28 20 29 28 30 29 31 30 32 31 33 32 34 33 35
REMARK SMILES IDX 34 37 35 38 36 39 82 40 37 41 81 42 38 43 39 44 40 45 75 46
REMARK SMILES IDX 41 47 80 48 74 49 76 50 42 51 79 52 73 53 72 54 43 56 65 57
REMARK SMILES IDX 50 58 64 59 51 60 54 61 63 62 77 63 52 64 53 65 62 67 78 68
REMARK SMILES IDX 55 69 44 70 45 71 49 72 46 73 48 74 47 75 66 76 67 77 71 78
REMARK SMILES IDX 68 79 70 80 69 81 56 82 57 83 61 84 58 85 60 86 59 87
REMARK H PARENT 27 4 9 15 32 36 76 55 54 66
REMARK Flexibility Score: inf
ROOT
ATOM      1  O   UNL     1       0.753  -0.130  -0.039  1.00  0.00    -0.270 OA
ATOM      2  C   UNL     1       1.979  -0.140  -0.032  1.00  0.00     0.243 C 
ATOM      3  N   UNL     1       2.735  -1.128   0.540  1.00  0.00    -0.353 N 
ATOM      4  H   UNL     1       3.712  -1.020   0.586  1.00  0.00     0.163 HD
ENDROOT
BRANCH   2   5
ATOM      5  C   UNL     1       2.706   0.977  -0.685  1.00  0.00     0.072 C 
ATOM      6  C   UNL     1       4.017   1.036  -0.959  1.00  0.00     0.014 C 
BRANCH   6   7
ATOM      7  C   UNL     1       4.637   2.147  -1.693  1.00  0.00    -0.025 A 
ATOM      8  C   UNL     1       5.748   1.876  -2.496  1.00  0.00     0.010 A 
ATOM      9  C   UNL     1       4.203   3.471  -1.584  1.00  0.00     0.010 A 
ATOM     10  C   UNL     1       6.456   2.912  -3.114  1.00  0.00     0.027 A 
ATOM     11  C   UNL     1       4.908   4.502  -2.214  1.00  0.00     0.027 A 
ATOM     12  C   UNL     1       6.094   4.238  -2.906  1.00  0.00     0.041 A 
BRANCH  12  13
ATOM     13  N   UNL     1       6.874   5.356  -3.249  1.00  0.00    -0.326 N 
ATOM     14  C   UNL     1       8.219   5.537  -3.381  1.00  0.00     0.224 C 
ATOM     15  H   UNL     1       6.345   6.167  -3.428  1.00  0.00     0.169 HD
ATOM     16  O   UNL     1       8.626   6.686  -3.588  1.00  0.00    -0.275 OA
BRANCH  14  17
ATOM     17  C   UNL     1       9.223   4.412  -3.264  1.00  0.00     0.110 C 
BRANCH  17  18
ATOM     18  C   UNL     1       9.634   3.958  -1.865  1.00  0.00     0.110 C 
BRANCH  18  19
ATOM     19  C   UNL     1       8.605   3.960  -0.799  1.00  0.00     0.227 A 
ATOM     20  N   UNL     1       7.822   4.926  -0.380  1.00  0.00    -0.190 NA
ATOM     21  O   UNL     1       8.487   2.819  -0.057  1.00  0.00    -0.339 OA
ATOM     22  C   UNL     1       7.138   4.334   0.655  1.00  0.00     0.212 A 
ATOM     23  N   UNL     1       7.522   3.075   0.919  1.00  0.00    -0.056 NA
BRANCH  22  24
ATOM     24  C   UNL     1       6.029   5.019   1.390  1.00  0.00     0.076 A 
ATOM     25  C   UNL     1       5.418   4.529   2.528  1.00  0.00     0.039 A 
ATOM     26  S   UNL     1       5.347   6.510   0.894  1.00  0.00    -0.139 S 
ATOM     27  C   UNL     1       4.360   5.372   2.951  1.00  0.00     0.029 A 
ATOM     28  C   UNL     1       4.168   6.458   2.135  1.00  0.00     0.081 A 
ATOM     29  Br  UNL     1       3.334   4.992   4.486  1.00  0.00    -0.050 Br
ENDBRANCH  22  24
ENDBRANCH  18  19
ENDBRANCH  17  18
ENDBRANCH  14  17
ENDBRANCH  12  13
ENDBRANCH   6   7
ENDBRANCH   2   5
BRANCH   3  30
ATOM     30  C   UNL     1       2.129  -2.329   1.080  1.00  0.00     0.116 C 
BRANCH  30  31
ATOM     31  C   UNL     1       2.491  -3.564   0.255  1.00  0.00     0.023 C 
BRANCH  31  32
ATOM     32  C   UNL     1       3.978  -3.929   0.263  1.00  0.00     0.023 C 
BRANCH  32  33
ATOM     33  C   UNL     1       4.585  -4.169   1.641  1.00  0.00     0.116 C 
BRANCH  33  34
ATOM     34  N   UNL     1       3.973  -5.285   2.345  1.00  0.00    -0.352 N 
ATOM     35  C   UNL     1       4.565  -6.356   2.972  1.00  0.00     0.251 C 
ATOM     36  H   UNL     1       2.989  -5.272   2.377  1.00  0.00     0.163 HD
ATOM     37  O   UNL     1       3.878  -7.278   3.394  1.00  0.00    -0.269 OA
BRANCH  35  38
ATOM     38  C   UNL     1       6.038  -6.416   3.109  1.00  0.00     0.039 A 
ATOM     39  C   UNL     1       6.690  -7.621   2.833  1.00  0.00     0.014 A 
ATOM     40  C   UNL     1       6.776  -5.298   3.506  1.00  0.00     0.014 A 
ATOM     41  C   UNL     1       8.085  -7.684   2.884  1.00  0.00     0.010 A 
ATOM     42  C   UNL     1       8.168  -5.340   3.479  1.00  0.00     0.010 A 
ATOM     43  C   UNL     1       8.838  -6.532   3.166  1.00  0.00    -0.014 A 
BRANCH  43  44
ATOM     44  C   UNL     1      10.324  -6.556   3.125  1.00  0.00     0.031 A 
ATOM     45  C   UNL     1      11.126  -6.275   4.367  1.00  0.00     0.074 A 
ATOM     46  C   UNL     1      10.956  -6.770   1.954  1.00  0.00     0.049 A 
ATOM     47  N   UNL     1      12.425  -6.198   4.510  1.00  0.00    -0.248 NA
ATOM     48  C   UNL     1      10.369  -6.024   5.603  1.00  0.00     0.031 C 
ATOM     49  C   UNL     1      10.299  -7.020   0.669  1.00  0.00     0.029 A 
ATOM     50  N   UNL     1      12.295  -6.806   1.654  1.00  0.00    -0.354 N 
ATOM     51  C   UNL     1      12.640  -5.879   5.845  1.00  0.00     0.074 A 
ATOM     52  C   UNL     1      11.337  -5.722   6.455  1.00  0.00     0.031 C 
ATOM     53  C   UNL     1      11.235  -7.212  -0.273  1.00  0.00     0.029 A 
ATOM     54  C   UNL     1      12.556  -7.052   0.327  1.00  0.00     0.049 A 
ATOM     55  H   UNL     1      13.002  -6.669   2.325  1.00  0.00     0.167 HD
ATOM     56  C   UNL     1      13.813  -5.749   6.511  1.00  0.00     0.031 A 
ATOM     57  C   UNL     1      13.725  -7.132  -0.337  1.00  0.00     0.031 A 
ATOM     58  C   UNL     1      15.109  -5.903   5.905  1.00  0.00     0.049 A 
ATOM     59  C   UNL     1      15.013  -6.950   0.417  1.00  0.00     0.074 A 
ATOM     60  C   UNL     1      16.355  -5.836   6.507  1.00  0.00     0.029 A 
ATOM     61  N   UNL     1      15.329  -6.148   4.559  1.00  0.00    -0.354 N 
ATOM     62  N   UNL     1      15.198  -6.714   1.693  1.00  0.00    -0.248 NA
ATOM     63  C   UNL     1      16.255  -7.057  -0.362  1.00  0.00     0.031 C 
ATOM     64  C   UNL     1      17.328  -5.978   5.513  1.00  0.00     0.029 A 
ATOM     65  C   UNL     1      16.690  -6.204   4.304  1.00  0.00     0.049 A 
ATOM     66  H   UNL     1      14.623  -6.264   3.883  1.00  0.00     0.167 HD
ATOM     67  C   UNL     1      16.575  -6.675   1.875  1.00  0.00     0.074 A 
ATOM     68  C   UNL     1      17.176  -6.928   0.582  1.00  0.00     0.031 C 
ATOM     69  C   UNL     1      17.277  -6.452   3.013  1.00  0.00     0.031 A 
BRANCH  56  70
ATOM     70  C   UNL     1      13.743  -5.409   7.975  1.00  0.00    -0.014 A 
ATOM     71  C   UNL     1      13.249  -6.329   8.915  1.00  0.00     0.009 A 
ATOM     72  C   UNL     1      14.207  -4.164   8.427  1.00  0.00     0.009 A 
ATOM     73  C   UNL     1      13.181  -5.992  10.269  1.00  0.00     0.001 A 
ATOM     74  C   UNL     1      14.170  -3.842   9.785  1.00  0.00     0.001 A 
ATOM     75  C   UNL     1      13.646  -4.751  10.703  1.00  0.00     0.000 A 
ENDBRANCH  56  70
BRANCH  57  76
ATOM     76  C   UNL     1      13.733  -7.402  -1.800  1.00  0.00    -0.014 A 
ATOM     77  C   UNL     1      14.212  -8.623  -2.298  1.00  0.00     0.009 A 
ATOM     78  C   UNL     1      13.267  -6.437  -2.706  1.00  0.00     0.009 A 
ATOM     79  C   UNL     1      14.251  -8.861  -3.674  1.00  0.00     0.001 A 
ATOM     80  C   UNL     1      13.277  -6.689  -4.080  1.00  0.00     0.001 A 
ATOM     81  C   UNL     1      13.778  -7.896  -4.563  1.00  0.00     0.000 A 
ENDBRANCH  57  76
BRANCH  69  82
ATOM     82  C   UNL     1      18.778  -6.507   2.920  1.00  0.00    -0.014 A 
ATOM     83  C   UNL     1      19.509  -5.508   2.259  1.00  0.00     0.009 A 
ATOM     84  C   UNL     1      19.471  -7.559   3.539  1.00  0.00     0.009 A 
ATOM     85  C   UNL     1      20.903  -5.582   2.190  1.00  0.00     0.001 A 
ATOM     86  C   UNL     1      20.865  -7.612   3.498  1.00  0.00     0.001 A 
ATOM     87  C   UNL     1      21.579  -6.630   2.815  1.00  0.00     0.000 A 
ENDBRANCH  69  82
ENDBRANCH  43  44
ENDBRANCH  35  38
ENDBRANCH  33  34
ENDBRANCH  32  33
ENDBRANCH  31  32
ENDBRANCH  30  31
ENDBRANCH   3  30
TORSDOF 17
