REMARK SMILES CN(C)c1ccc(CCC(=O)N2C[C@@H](C(=O)NCCCCNC(=O)c3ccc(-c4c5nc(c(-c6ccccc6)c6ccc([nH]6)c(-c6ccccc6)c6nc(c(-c7ccccc7)c7ccc4[nH]7)C=C6)C=C5)cc3)[C@H](c3cccnc3)C2)cc1
REMARK SMILES IDX 18 1 17 2 15 3 16 4 14 6 12 7 13 8 80 9 73 10 10 11 11 12
REMARK SMILES IDX 9 13 8 14 7 15 4 16 5 17 82 18 6 19 81 20 2 21 1 22 3 23
REMARK SMILES IDX 74 24 75 25 79 26 76 27 78 28 77 29 19 30 20 31 21 32 22 33
REMARK SMILES IDX 23 34 24 36 25 37 26 38 72 39 27 40 71 41 28 42 29 43 30 44
REMARK SMILES IDX 65 45 31 46 70 47 64 48 66 49 32 50 69 51 63 52 62 53 33 55
REMARK SMILES IDX 55 56 40 57 54 58 41 59 44 60 53 61 67 62 42 63 43 64 52 66
REMARK SMILES IDX 68 67 45 68 34 69 35 70 39 71 36 72 38 73 37 74 56 75 57 76
REMARK SMILES IDX 61 77 58 78 60 79 59 80 46 81 47 82 51 83 48 84 50 85 49 86
REMARK H PARENT 17 5 22 35 66 54 44 65
REMARK Flexibility Score: inf
ROOT
ATOM      1  C   UNL     1       2.281   2.593  -1.823  1.00  0.00     0.116 C 
ENDROOT
BRANCH   1   2
ATOM      2  N   UNL     1       0.915   2.502  -1.350  1.00  0.00    -0.356 N 
ATOM      3  C   UNL     1      -0.034   3.471  -1.228  1.00  0.00     0.225 C 
ATOM      4  O   UNL     1      -1.203   3.113  -1.079  1.00  0.00    -0.275 OA
ATOM      5  H   UNL     1       0.628   1.601  -1.074  1.00  0.00     0.163 HD
BRANCH   3   6
ATOM      6  C   UNL     1       0.383   4.931  -1.231  1.00  0.00     0.107 C 
ATOM      7  N   UNL     1       0.470   6.477   0.588  1.00  0.00    -0.341 N 
ATOM      8  C   UNL     1       1.010   5.227   0.115  1.00  0.00     0.133 C 
ATOM      9  C   UNL     1      -0.521   7.015  -0.331  1.00  0.00     0.128 C 
ATOM     10  C   UNL     1      -0.827   5.891  -1.338  1.00  0.00     0.054 C 
BRANCH   7  11
ATOM     11  C   UNL     1       0.744   7.059   1.810  1.00  0.00     0.222 C 
ATOM     12  O   UNL     1       0.103   8.024   2.227  1.00  0.00    -0.275 OA
BRANCH  11  13
ATOM     13  C   UNL     1       1.916   6.508   2.621  1.00  0.00     0.105 C 
BRANCH  13  14
ATOM     14  C   UNL     1       1.529   5.555   3.757  1.00  0.00     0.045 C 
BRANCH  14  15
ATOM     15  C   UNL     1       1.094   4.183   3.304  1.00  0.00    -0.047 A 
ATOM     16  C   UNL     1       0.221   1.698   2.171  1.00  0.00     0.036 A 
ATOM     17  C   UNL     1      -0.684   2.659   2.644  1.00  0.00     0.026 A 
ATOM     18  C   UNL     1       1.583   2.004   2.332  1.00  0.00     0.026 A 
ATOM     19  C   UNL     1      -0.264   3.872   3.211  1.00  0.00     0.006 A 
ATOM     20  C   UNL     1       2.020   3.223   2.881  1.00  0.00     0.006 A 
BRANCH  16  21
ATOM     21  N   UNL     1      -0.191   0.519   1.562  1.00  0.00    -0.378 N 
ATOM     22  C   UNL     1       0.432  -0.744   1.934  1.00  0.00     0.143 C 
ATOM     23  C   UNL     1      -1.432   0.443   0.793  1.00  0.00     0.143 C 
ENDBRANCH  16  21
ENDBRANCH  14  15
ENDBRANCH  13  14
ENDBRANCH  11  13
ENDBRANCH   7  11
BRANCH  10  24
ATOM     24  C   UNL     1      -1.030   6.220  -2.805  1.00  0.00    -0.024 A 
ATOM     25  C   UNL     1      -1.531   5.220  -3.657  1.00  0.00     0.007 A 
ATOM     26  C   UNL     1      -0.619   7.400  -3.413  1.00  0.00     0.115 A 
ATOM     27  C   UNL     1      -1.543   5.403  -5.034  1.00  0.00     0.020 A 
ATOM     28  N   UNL     1      -0.632   7.612  -4.751  1.00  0.00    -0.264 NA
ATOM     29  C   UNL     1      -1.080   6.605  -5.530  1.00  0.00     0.111 A 
ENDBRANCH  10  24
ENDBRANCH   3   6
ENDBRANCH   1   2
BRANCH   1  30
ATOM     30  C   UNL     1       3.211   1.550  -1.195  1.00  0.00     0.023 C 
BRANCH  30  31
ATOM     31  C   UNL     1       2.700   0.103  -1.177  1.00  0.00     0.023 C 
BRANCH  31  32
ATOM     32  C   UNL     1       2.421  -0.512  -2.546  1.00  0.00     0.116 C 
BRANCH  32  33
ATOM     33  N   UNL     1       3.651  -0.829  -3.249  1.00  0.00    -0.352 N 
ATOM     34  C   UNL     1       4.189  -2.041  -3.605  1.00  0.00     0.251 C 
ATOM     35  H   UNL     1       4.188  -0.047  -3.513  1.00  0.00     0.163 HD
ATOM     36  O   UNL     1       5.365  -2.084  -3.960  1.00  0.00    -0.269 OA
BRANCH  34  37
ATOM     37  C   UNL     1       3.395  -3.296  -3.582  1.00  0.00     0.039 A 
ATOM     38  C   UNL     1       4.048  -4.489  -3.242  1.00  0.00     0.014 A 
ATOM     39  C   UNL     1       2.062  -3.344  -3.999  1.00  0.00     0.014 A 
ATOM     40  C   UNL     1       3.368  -5.711  -3.298  1.00  0.00     0.010 A 
ATOM     41  C   UNL     1       1.366  -4.558  -3.999  1.00  0.00     0.010 A 
ATOM     42  C   UNL     1       2.016  -5.757  -3.668  1.00  0.00    -0.014 A 
BRANCH  42  43
ATOM     43  C   UNL     1       1.286  -7.052  -3.761  1.00  0.00     0.031 A 
ATOM     44  C   UNL     1       0.802  -7.557  -5.096  1.00  0.00     0.074 A 
ATOM     45  C   UNL     1       1.026  -7.768  -2.648  1.00  0.00     0.049 A 
ATOM     46  N   UNL     1       0.084  -8.619  -5.370  1.00  0.00    -0.248 NA
ATOM     47  C   UNL     1       1.160  -6.756  -6.278  1.00  0.00     0.031 C 
ATOM     48  C   UNL     1       1.428  -7.401  -1.290  1.00  0.00     0.029 A 
ATOM     49  N   UNL     1       0.355  -8.955  -2.488  1.00  0.00    -0.354 N 
ATOM     50  C   UNL     1      -0.111  -8.602  -6.746  1.00  0.00     0.074 A 
ATOM     51  C   UNL     1       0.533  -7.407  -7.248  1.00  0.00     0.031 C 
ATOM     52  C   UNL     1       1.012  -8.353  -0.437  1.00  0.00     0.029 A 
ATOM     53  C   UNL     1       0.282  -9.375  -1.181  1.00  0.00     0.049 A 
ATOM     54  H   UNL     1      -0.037  -9.458  -3.238  1.00  0.00     0.167 HD
ATOM     55  C   UNL     1      -0.751  -9.505  -7.527  1.00  0.00     0.031 A 
ATOM     56  C   UNL     1      -0.313 -10.456  -0.640  1.00  0.00     0.031 A 
ATOM     57  C   UNL     1      -1.377 -10.707  -7.044  1.00  0.00     0.049 A 
ATOM     58  C   UNL     1      -1.037 -11.430  -1.528  1.00  0.00     0.074 A 
ATOM     59  C   UNL     1      -2.025 -11.693  -7.769  1.00  0.00     0.029 A 
ATOM     60  N   UNL     1      -1.424 -11.092  -5.715  1.00  0.00    -0.354 N 
ATOM     61  N   UNL     1      -1.188 -11.409  -2.829  1.00  0.00    -0.248 NA
ATOM     62  C   UNL     1      -1.667 -12.584  -0.867  1.00  0.00     0.031 C 
ATOM     63  C   UNL     1      -2.493 -12.660  -6.873  1.00  0.00     0.029 A 
ATOM     64  C   UNL     1      -2.098 -12.296  -5.597  1.00  0.00     0.049 A 
ATOM     65  H   UNL     1      -1.036 -10.585  -4.965  1.00  0.00     0.167 HD
ATOM     66  C   UNL     1      -1.902 -12.558  -3.145  1.00  0.00     0.074 A 
ATOM     67  C   UNL     1      -2.143 -13.261  -1.903  1.00  0.00     0.031 C 
ATOM     68  C   UNL     1      -2.321 -12.991  -4.358  1.00  0.00     0.031 A 
BRANCH  55  69
ATOM     69  C   UNL     1      -0.809  -9.227  -9.003  1.00  0.00    -0.014 A 
ATOM     70  C   UNL     1       0.328  -9.378  -9.812  1.00  0.00     0.009 A 
ATOM     71  C   UNL     1      -2.026  -8.862  -9.601  1.00  0.00     0.009 A 
ATOM     72  C   UNL     1       0.253  -9.143 -11.187  1.00  0.00     0.001 A 
ATOM     73  C   UNL     1      -2.103  -8.652 -10.979  1.00  0.00     0.001 A 
ATOM     74  C   UNL     1      -0.963  -8.785 -11.769  1.00  0.00     0.000 A 
ENDBRANCH  55  69
BRANCH  56  75
ATOM     75  C   UNL     1      -0.253 -10.687   0.827  1.00  0.00    -0.014 A 
ATOM     76  C   UNL     1       0.523 -11.732   1.350  1.00  0.00     0.009 A 
ATOM     77  C   UNL     1      -0.998  -9.886   1.707  1.00  0.00     0.009 A 
ATOM     78  C   UNL     1       0.528 -11.991   2.723  1.00  0.00     0.001 A 
ATOM     79  C   UNL     1      -0.969 -10.130   3.081  1.00  0.00     0.001 A 
ATOM     80  C   UNL     1      -0.216 -11.189   3.587  1.00  0.00     0.000 A 
ENDBRANCH  56  75
BRANCH  68  81
ATOM     81  C   UNL     1      -3.042 -14.307  -4.407  1.00  0.00    -0.014 A 
ATOM     82  C   UNL     1      -4.368 -14.428  -3.965  1.00  0.00     0.009 A 
ATOM     83  C   UNL     1      -2.395 -15.434  -4.938  1.00  0.00     0.009 A 
ATOM     84  C   UNL     1      -5.021 -15.660  -4.024  1.00  0.00     0.001 A 
ATOM     85  C   UNL     1      -3.058 -16.659  -5.019  1.00  0.00     0.001 A 
ATOM     86  C   UNL     1      -4.368 -16.773  -4.554  1.00  0.00     0.000 A 
ENDBRANCH  68  81
ENDBRANCH  42  43
ENDBRANCH  34  37
ENDBRANCH  32  33
ENDBRANCH  31  32
ENDBRANCH  30  31
ENDBRANCH   1  30
TORSDOF 17
