REMARK SMILES O=C(NCCCCNC(=O)c1ccn(-c2cc(-c3ccncc3)nc(-c3ccccc3F)n2)n1)c1ccc(-c2c3nc(c(-c4ccccc4)c4ccc([nH]4)c(-c4ccccc4)c4nc(c(-c5ccccc5)c5ccc2[nH]5)C=C4)C=C3)cc1
REMARK SMILES IDX 5 1 4 2 3 3 1 4 2 5 35 7 36 8 82 9 37 10 81 11 38 12 39 13
REMARK SMILES IDX 40 14 75 15 41 16 80 17 74 18 76 19 42 20 79 21 73 22 72 23
REMARK SMILES IDX 43 25 65 26 50 27 64 28 51 29 54 30 63 31 77 32 52 33 53 34
REMARK SMILES IDX 62 36 78 37 55 38 44 39 45 40 49 41 46 42 48 43 47 44 66 45
REMARK SMILES IDX 67 46 71 47 68 48 70 49 69 50 56 51 57 52 61 53 58 54 60 55
REMARK SMILES IDX 59 56 6 57 7 58 8 59 9 60 10 62 11 63 12 64 34 65 13 66
REMARK SMILES IDX 14 67 15 68 16 69 33 70 17 71 25 72 24 73 18 74 19 75 23 76
REMARK SMILES IDX 20 77 22 78 21 79 26 80 27 81 31 82 28 83 30 84 32 85 29 86
REMARK H PARENT 3 6 76 24 54 35 8 61
REMARK Flexibility Score: inf
ROOT
ATOM      1  C   UNL     1       5.006   2.139  -0.514  1.00  0.00     0.023 C 
ENDROOT
BRANCH   1   2
ATOM      2  C   UNL     1       4.699   0.929   0.367  1.00  0.00     0.116 C 
BRANCH   2   3
ATOM      3  N   UNL     1       3.290   0.749   0.648  1.00  0.00    -0.352 N 
ATOM      4  O   UNL     1       1.202   0.059   0.703  1.00  0.00    -0.269 OA
ATOM      5  C   UNL     1       2.254   0.083   0.056  1.00  0.00     0.251 C 
ATOM      6  H   UNL     1       3.010   1.223   1.464  1.00  0.00     0.163 HD
BRANCH   5   7
ATOM      7  C   UNL     1       2.271  -0.556  -1.291  1.00  0.00     0.039 A 
ATOM      8  C   UNL     1       3.382  -0.716  -2.118  1.00  0.00     0.014 A 
ATOM      9  C   UNL     1       1.021  -1.009  -1.762  1.00  0.00     0.014 A 
ATOM     10  C   UNL     1       3.236  -1.258  -3.399  1.00  0.00     0.010 A 
ATOM     11  C   UNL     1       0.870  -1.550  -3.037  1.00  0.00     0.010 A 
ATOM     12  C   UNL     1       1.977  -1.648  -3.871  1.00  0.00    -0.014 A 
BRANCH  12  13
ATOM     13  C   UNL     1       1.884  -2.270  -5.193  1.00  0.00     0.031 A 
ATOM     14  C   UNL     1       2.613  -3.565  -5.340  1.00  0.00     0.074 A 
ATOM     15  C   UNL     1       1.100  -1.832  -6.199  1.00  0.00     0.049 A 
ATOM     16  N   UNL     1       3.586  -3.846  -6.144  1.00  0.00    -0.248 NA
ATOM     17  C   UNL     1       2.250  -4.662  -4.430  1.00  0.00     0.031 C 
ATOM     18  C   UNL     1       0.082  -0.779  -6.172  1.00  0.00     0.029 A 
ATOM     19  N   UNL     1       0.993  -2.327  -7.468  1.00  0.00    -0.354 N 
ATOM     20  C   UNL     1       3.876  -5.196  -5.949  1.00  0.00     0.074 A 
ATOM     21  C   UNL     1       3.090  -5.623  -4.818  1.00  0.00     0.031 C 
ATOM     22  C   UNL     1      -0.680  -0.863  -7.289  1.00  0.00     0.029 A 
ATOM     23  C   UNL     1      -0.113  -1.870  -8.172  1.00  0.00     0.049 A 
ATOM     24  H   UNL     1       1.647  -2.955  -7.852  1.00  0.00     0.167 HD
ATOM     25  C   UNL     1       4.618  -5.919  -6.833  1.00  0.00     0.031 A 
ATOM     26  C   UNL     1      -0.554  -2.316  -9.375  1.00  0.00     0.031 A 
ATOM     27  C   UNL     1       5.367  -5.083  -7.729  1.00  0.00     0.049 A 
ATOM     28  C   UNL     1       0.567  -3.012 -10.041  1.00  0.00     0.074 A 
ATOM     29  C   UNL     1       6.363  -4.139  -7.577  1.00  0.00     0.029 A 
ATOM     30  N   UNL     1       4.873  -4.902  -8.997  1.00  0.00    -0.354 N 
ATOM     31  N   UNL     1       1.629  -2.407 -10.486  1.00  0.00    -0.248 NA
ATOM     32  C   UNL     1       0.695  -4.448  -9.857  1.00  0.00     0.031 C 
ATOM     33  C   UNL     1       6.063  -3.135  -8.543  1.00  0.00     0.029 A 
ATOM     34  C   UNL     1       4.941  -3.558  -9.258  1.00  0.00     0.049 A 
ATOM     35  H   UNL     1       4.536  -5.601  -9.602  1.00  0.00     0.167 HD
ATOM     36  C   UNL     1       2.669  -3.284 -10.222  1.00  0.00     0.074 A 
ATOM     37  C   UNL     1       2.023  -4.562  -9.934  1.00  0.00     0.031 C 
ATOM     38  C   UNL     1       3.935  -2.827  -9.993  1.00  0.00     0.031 A 
BRANCH  25  39
ATOM     39  C   UNL     1       4.403  -7.385  -7.109  1.00  0.00    -0.014 A 
ATOM     40  C   UNL     1       5.292  -8.059  -7.967  1.00  0.00     0.009 A 
ATOM     41  C   UNL     1       3.207  -8.052  -6.784  1.00  0.00     0.009 A 
ATOM     42  C   UNL     1       4.970  -9.307  -8.517  1.00  0.00     0.001 A 
ATOM     43  C   UNL     1       2.900  -9.314  -7.300  1.00  0.00     0.001 A 
ATOM     44  C   UNL     1       3.770  -9.930  -8.188  1.00  0.00     0.000 A 
ENDBRANCH  25  39
BRANCH  26  45
ATOM     45  C   UNL     1      -1.936  -2.418  -9.889  1.00  0.00    -0.014 A 
ATOM     46  C   UNL     1      -2.189  -2.551 -11.264  1.00  0.00     0.009 A 
ATOM     47  C   UNL     1      -2.993  -2.683  -9.000  1.00  0.00     0.009 A 
ATOM     48  C   UNL     1      -3.442  -2.974 -11.729  1.00  0.00     0.001 A 
ATOM     49  C   UNL     1      -4.244  -3.104  -9.463  1.00  0.00     0.001 A 
ATOM     50  C   UNL     1      -4.464  -3.265 -10.828  1.00  0.00     0.000 A 
ENDBRANCH  26  45
BRANCH  38  51
ATOM     51  C   UNL     1       4.223  -1.370 -10.262  1.00  0.00    -0.014 A 
ATOM     52  C   UNL     1       3.555  -0.322  -9.604  1.00  0.00     0.009 A 
ATOM     53  C   UNL     1       5.309  -1.048 -11.090  1.00  0.00     0.009 A 
ATOM     54  C   UNL     1       3.945   1.008  -9.793  1.00  0.00     0.001 A 
ATOM     55  C   UNL     1       5.713   0.278 -11.260  1.00  0.00     0.001 A 
ATOM     56  C   UNL     1       5.029   1.306 -10.616  1.00  0.00     0.000 A 
ENDBRANCH  38  51
ENDBRANCH  12  13
ENDBRANCH   5   7
ENDBRANCH   2   3
ENDBRANCH   1   2
BRANCH   1  57
ATOM     57  C   UNL     1       4.489   3.488   0.014  1.00  0.00     0.023 C 
BRANCH  57  58
ATOM     58  C   UNL     1       4.920   3.860   1.435  1.00  0.00     0.116 C 
BRANCH  58  59
ATOM     59  N   UNL     1       6.358   4.002   1.539  1.00  0.00    -0.351 N 
ATOM     60  C   UNL     1       7.095   5.122   1.846  1.00  0.00     0.271 C 
ATOM     61  H   UNL     1       6.880   3.185   1.366  1.00  0.00     0.163 HD
ATOM     62  O   UNL     1       8.315   5.074   1.704  1.00  0.00    -0.267 OA
BRANCH  60  63
ATOM     63  C   UNL     1       6.415   6.305   2.387  1.00  0.00     0.150 A 
ATOM     64  C   UNL     1       5.693   6.393   3.606  1.00  0.00     0.056 A 
ATOM     65  N   UNL     1       6.476   7.503   1.777  1.00  0.00    -0.161 NA
ATOM     66  C   UNL     1       5.468   7.735   3.791  1.00  0.00     0.118 A 
ATOM     67  N   UNL     1       6.001   8.381   2.699  1.00  0.00    -0.222 N 
BRANCH  67  68
ATOM     68  C   UNL     1       6.092   9.789   2.517  1.00  0.00     0.158 A 
ATOM     69  C   UNL     1       6.147  10.282   1.229  1.00  0.00     0.078 A 
ATOM     70  N   UNL     1       6.117  10.578   3.616  1.00  0.00    -0.209 NA
ATOM     71  C   UNL     1       6.179  11.656   1.109  1.00  0.00     0.077 A 
ATOM     72  C   UNL     1       6.246  11.897   3.391  1.00  0.00     0.165 A 
ATOM     73  N   UNL     1       6.272  12.472   2.177  1.00  0.00    -0.228 NA
BRANCH  71  74
ATOM     74  C   UNL     1       6.051  12.325  -0.187  1.00  0.00     0.003 A 
ATOM     75  C   UNL     1       4.910  12.140  -0.979  1.00  0.00     0.030 A 
ATOM     76  C   UNL     1       7.043  13.191  -0.658  1.00  0.00     0.030 A 
ATOM     77  C   UNL     1       4.818  12.807  -2.189  1.00  0.00     0.111 A 
ATOM     78  C   UNL     1       6.864  13.805  -1.887  1.00  0.00     0.111 A 
ATOM     79  N   UNL     1       5.775  13.628  -2.666  1.00  0.00    -0.265 NA
ENDBRANCH  71  74
BRANCH  72  80
ATOM     80  C   UNL     1       6.514  12.757   4.535  1.00  0.00     0.055 A 
ATOM     81  C   UNL     1       7.722  12.651   5.250  1.00  0.00     0.015 A 
ATOM     82  C   UNL     1       5.603  13.739   4.934  1.00  0.00     0.134 A 
ATOM     83  C   UNL     1       8.006  13.513   6.315  1.00  0.00     0.001 A 
ATOM     84  C   UNL     1       5.876  14.596   6.000  1.00  0.00     0.040 A 
ATOM     85  F   UNL     1       4.428  13.869   4.299  1.00  0.00    -0.206 F 
ATOM     86  C   UNL     1       7.083  14.487   6.689  1.00  0.00     0.003 A 
ENDBRANCH  72  80
ENDBRANCH  67  68
ENDBRANCH  60  63
ENDBRANCH  58  59
ENDBRANCH  57  58
ENDBRANCH   1  57
TORSDOF 14
