REMARK SMILES Cc1ccc(C(=O)N2CCC3(CCC(=O)N(CC(=O)NCCCCNC(=O)c4ccc(-c5c6nc(c(-c7ccccc7)c7ccc([nH]7)c(-c7ccccc7)c7nc(c(-c8ccccc8)c8ccc5[nH]8)C=C7)C=C6)cc4)C3)CC2)cc1O
REMARK SMILES IDX 22 1 21 2 20 3 18 4 19 5 17 7 16 8 6 9 7 10 8 11 9 12 78 13
REMARK SMILES IDX 10 14 77 15 11 16 12 17 76 18 13 19 14 20 15 21 5 22 1 23
REMARK SMILES IDX 2 24 3 25 80 26 4 27 79 28 81 29 23 31 24 32 25 33 26 34
REMARK SMILES IDX 27 36 28 37 29 38 75 39 30 40 74 41 31 42 32 43 33 44 68 45
REMARK SMILES IDX 34 46 73 47 67 48 69 49 35 50 72 51 66 52 65 53 36 55 58 56
REMARK SMILES IDX 43 57 57 58 44 59 47 60 56 61 70 62 45 63 46 64 55 66 71 67
REMARK SMILES IDX 48 68 37 69 38 70 42 71 39 72 41 73 40 74 59 75 60 76 64 77
REMARK SMILES IDX 61 78 63 79 62 80 49 81 50 82 54 83 51 84 53 85 52 86
REMARK H PARENT 20 6 81 30 25 35 69 54 47 65
REMARK Flexibility Score: inf
ROOT
ATOM      1  C   UNL     1       8.722  -5.184   1.417  1.00  0.00     0.023 C 
ENDROOT
BRANCH   1   2
ATOM      2  C   UNL     1       7.987  -5.087   2.750  1.00  0.00     0.116 C 
BRANCH   2   3
ATOM      3  N   UNL     1       8.838  -4.579   3.797  1.00  0.00    -0.355 N 
ATOM      4  C   UNL     1       8.858  -3.338   4.361  1.00  0.00     0.239 C 
ATOM      5  O   UNL     1       9.519  -3.203   5.395  1.00  0.00    -0.273 OA
ATOM      6  H   UNL     1       9.496  -5.218   4.155  1.00  0.00     0.163 HD
BRANCH   4   7
ATOM      7  C   UNL     1       7.930  -2.224   3.856  1.00  0.00     0.219 C 
BRANCH   7   8
ATOM      8  N   UNL     1       8.034  -1.800   2.454  1.00  0.00    -0.333 N 
ATOM      9  C   UNL     1       3.009   1.503   0.201  1.00  0.00     0.253 C 
ATOM     10  O   UNL     1       2.862   2.659   0.597  1.00  0.00    -0.269 OA
ATOM     11  N   UNL     1       4.271   0.922   0.111  1.00  0.00    -0.339 N 
ATOM     12  C   UNL     1       5.317   1.435   0.981  1.00  0.00     0.120 C 
ATOM     13  C   UNL     1       4.720  -0.000  -0.926  1.00  0.00     0.120 C 
ATOM     14  C   UNL     1       5.968   0.261   1.701  1.00  0.00     0.030 C 
ATOM     15  C   UNL     1       5.457  -1.197  -0.317  1.00  0.00     0.030 C 
ATOM     16  C   UNL     1       6.540  -0.800   0.726  1.00  0.00    -0.008 C 
ATOM     17  C   UNL     1       7.816  -0.332   0.000  1.00  0.00     0.019 C 
ATOM     18  C   UNL     1       6.937  -2.049   1.529  1.00  0.00     0.127 C 
ATOM     19  C   UNL     1       8.978  -0.075   0.949  1.00  0.00     0.101 C 
ATOM     20  C   UNL     1       9.144  -1.056   2.095  1.00  0.00     0.223 C 
ATOM     21  O   UNL     1      10.182  -1.064   2.754  1.00  0.00    -0.275 OA
BRANCH   9  22
ATOM     22  C   UNL     1       1.782   0.683  -0.032  1.00  0.00     0.043 A 
ATOM     23  C   UNL     1      -1.921  -1.562  -0.078  1.00  0.00     0.048 C 
ATOM     24  C   UNL     1      -0.650  -0.764  -0.098  1.00  0.00    -0.009 A 
ATOM     25  C   UNL     1       0.575  -1.427   0.047  1.00  0.00     0.008 A 
ATOM     26  C   UNL     1      -0.637   0.631  -0.205  1.00  0.00     0.119 A 
ATOM     27  C   UNL     1       1.773  -0.708   0.103  1.00  0.00     0.014 A 
ATOM     28  C   UNL     1       0.560   1.348  -0.188  1.00  0.00     0.060 A 
BRANCH  26  29
ATOM     29  O   UNL     1      -1.780   1.373  -0.296  1.00  0.00    -0.508 OA
ATOM     30  H   UNL     1      -2.615   0.947  -0.311  1.00  0.00     0.293 HD
ENDBRANCH  26  29
ENDBRANCH   9  22
ENDBRANCH   7   8
ENDBRANCH   4   7
ENDBRANCH   2   3
ENDBRANCH   1   2
BRANCH   1  31
ATOM     31  C   UNL     1       9.846  -6.221   1.385  1.00  0.00     0.023 C 
BRANCH  31  32
ATOM     32  C   UNL     1       9.443  -7.634   1.791  1.00  0.00     0.116 C 
BRANCH  32  33
ATOM     33  N   UNL     1       8.357  -8.174   0.986  1.00  0.00    -0.352 N 
ATOM     34  C   UNL     1       8.202  -9.446   0.491  1.00  0.00     0.251 C 
ATOM     35  H   UNL     1       7.636  -7.542   0.767  1.00  0.00     0.163 HD
ATOM     36  O   UNL     1       7.276  -9.702  -0.273  1.00  0.00    -0.269 OA
BRANCH  34  37
ATOM     37  C   UNL     1       9.179 -10.495   0.851  1.00  0.00     0.039 A 
ATOM     38  C   UNL     1       9.717 -11.289  -0.165  1.00  0.00     0.014 A 
ATOM     39  C   UNL     1       9.584 -10.674   2.176  1.00  0.00     0.014 A 
ATOM     40  C   UNL     1      10.715 -12.215   0.140  1.00  0.00     0.010 A 
ATOM     41  C   UNL     1      10.629 -11.545   2.467  1.00  0.00     0.010 A 
ATOM     42  C   UNL     1      11.207 -12.322   1.452  1.00  0.00    -0.014 A 
BRANCH  42  43
ATOM     43  C   UNL     1      12.342 -13.223   1.771  1.00  0.00     0.031 A 
ATOM     44  C   UNL     1      12.155 -14.387   2.702  1.00  0.00     0.074 A 
ATOM     45  C   UNL     1      13.565 -12.947   1.277  1.00  0.00     0.049 A 
ATOM     46  N   UNL     1      13.038 -15.258   3.121  1.00  0.00    -0.248 NA
ATOM     47  C   UNL     1      10.807 -14.582   3.258  1.00  0.00     0.031 C 
ATOM     48  C   UNL     1      13.893 -11.813   0.411  1.00  0.00     0.029 A 
ATOM     49  N   UNL     1      14.763 -13.597   1.442  1.00  0.00    -0.354 N 
ATOM     50  C   UNL     1      12.359 -16.089   4.003  1.00  0.00     0.074 A 
ATOM     51  C   UNL     1      11.004 -15.590   4.095  1.00  0.00     0.031 C 
ATOM     52  C   UNL     1      15.198 -11.860   0.102  1.00  0.00     0.029 A 
ATOM     53  C   UNL     1      15.806 -13.003   0.775  1.00  0.00     0.049 A 
ATOM     54  H   UNL     1      14.864 -14.410   1.987  1.00  0.00     0.167 HD
ATOM     55  C   UNL     1      12.816 -17.179   4.664  1.00  0.00     0.031 A 
ATOM     56  C   UNL     1      17.109 -13.337   0.714  1.00  0.00     0.031 A 
ATOM     57  C   UNL     1      14.161 -17.680   4.567  1.00  0.00     0.049 A 
ATOM     58  C   UNL     1      17.592 -14.555   1.448  1.00  0.00     0.074 A 
ATOM     59  C   UNL     1      14.699 -18.822   5.134  1.00  0.00     0.029 A 
ATOM     60  N   UNL     1      15.185 -17.061   3.865  1.00  0.00    -0.354 N 
ATOM     61  N   UNL     1      16.915 -15.387   2.201  1.00  0.00    -0.248 NA
ATOM     62  C   UNL     1      19.017 -14.886   1.313  1.00  0.00     0.031 C 
ATOM     63  C   UNL     1      16.062 -18.864   4.823  1.00  0.00     0.029 A 
ATOM     64  C   UNL     1      16.360 -17.780   4.013  1.00  0.00     0.049 A 
ATOM     65  H   UNL     1      15.090 -16.234   3.340  1.00  0.00     0.167 HD
ATOM     66  C   UNL     1      17.825 -16.351   2.614  1.00  0.00     0.074 A 
ATOM     67  C   UNL     1      19.097 -16.011   2.010  1.00  0.00     0.031 C 
ATOM     68  C   UNL     1      17.623 -17.423   3.419  1.00  0.00     0.031 A 
BRANCH  55  69
ATOM     69  C   UNL     1      11.849 -17.893   5.569  1.00  0.00    -0.014 A 
ATOM     70  C   UNL     1      10.757 -18.610   5.052  1.00  0.00     0.009 A 
ATOM     71  C   UNL     1      12.044 -17.865   6.958  1.00  0.00     0.009 A 
ATOM     72  C   UNL     1       9.856 -19.244   5.911  1.00  0.00     0.001 A 
ATOM     73  C   UNL     1      11.160 -18.526   7.813  1.00  0.00     0.001 A 
ATOM     74  C   UNL     1      10.061 -19.205   7.290  1.00  0.00     0.000 A 
ENDBRANCH  55  69
BRANCH  56  75
ATOM     75  C   UNL     1      18.044 -12.508  -0.091  1.00  0.00    -0.014 A 
ATOM     76  C   UNL     1      18.558 -12.988  -1.304  1.00  0.00     0.009 A 
ATOM     77  C   UNL     1      18.409 -11.223   0.342  1.00  0.00     0.009 A 
ATOM     78  C   UNL     1      19.434 -12.204  -2.060  1.00  0.00     0.001 A 
ATOM     79  C   UNL     1      19.263 -10.432  -0.429  1.00  0.00     0.001 A 
ATOM     80  C   UNL     1      19.780 -10.926  -1.625  1.00  0.00     0.000 A 
ENDBRANCH  56  75
BRANCH  68  81
ATOM     81  C   UNL     1      18.803 -18.317   3.679  1.00  0.00    -0.014 A 
ATOM     82  C   UNL     1      19.863 -17.904   4.502  1.00  0.00     0.009 A 
ATOM     83  C   UNL     1      18.835 -19.605   3.123  1.00  0.00     0.009 A 
ATOM     84  C   UNL     1      20.948 -18.753   4.734  1.00  0.00     0.001 A 
ATOM     85  C   UNL     1      19.906 -20.462   3.382  1.00  0.00     0.001 A 
ATOM     86  C   UNL     1      20.966 -20.032   4.178  1.00  0.00     0.000 A 
ENDBRANCH  68  81
ENDBRANCH  42  43
ENDBRANCH  34  37
ENDBRANCH  32  33
ENDBRANCH  31  32
ENDBRANCH   1  31
TORSDOF 14
