REMARK SMILES O=C(NCCCCNC(=O)c1sccc1S(=O)(=O)Nc1ccc(Cn2cncn2)cc1)c1ccc(-c2c3nc(c(-c4ccccc4)c4ccc([nH]4)c(-c4ccccc4)c4nc(c(-c5ccccc5)c5ccc2[nH]5)C=C4)C=C3)cc1
REMARK SMILES IDX 7 1 6 2 5 3 4 4 3 5 1 6 2 7 32 9 33 10 79 11 34 12 78 13
REMARK SMILES IDX 35 14 36 15 37 16 72 17 38 18 77 19 71 20 73 21 39 22 76 23
REMARK SMILES IDX 70 24 69 25 40 27 62 28 47 29 61 30 48 31 51 32 60 33 74 34
REMARK SMILES IDX 49 35 50 36 59 38 75 39 52 40 41 41 42 42 46 43 43 44 45 45
REMARK SMILES IDX 44 46 63 47 64 48 68 49 65 50 67 51 66 52 53 53 54 54 58 55
REMARK SMILES IDX 55 56 57 57 56 58 8 59 9 60 10 62 11 63 12 64 15 65 13 66
REMARK SMILES IDX 14 67 16 68 17 69 18 70 19 71 20 73 21 74 31 75 22 76 30 77
REMARK SMILES IDX 23 78 24 79 25 80 26 81 29 82 27 83 28 84
REMARK H PARENT 3 8 73 26 51 37 8 61 19 72
REMARK Flexibility Score: inf
ROOT
ATOM      1  C   UNL     1       4.352  -3.882  -1.889  1.00  0.00     0.116 C 
ENDROOT
BRANCH   1   2
ATOM      2  C   UNL     1       3.820  -3.496  -0.515  1.00  0.00     0.023 C 
BRANCH   2   3
ATOM      3  C   UNL     1       4.524  -2.300   0.132  1.00  0.00     0.023 C 
BRANCH   3   4
ATOM      4  C   UNL     1       4.468  -0.996  -0.665  1.00  0.00     0.116 C 
BRANCH   4   5
ATOM      5  N   UNL     1       3.149  -0.535  -1.043  1.00  0.00    -0.352 N 
ATOM      6  O   UNL     1       1.161   0.446  -1.038  1.00  0.00    -0.269 OA
ATOM      7  C   UNL     1       2.106   0.032  -0.364  1.00  0.00     0.251 C 
ATOM      8  H   UNL     1       2.962  -0.656  -2.002  1.00  0.00     0.163 HD
BRANCH   7   9
ATOM      9  C   UNL     1       2.014   0.103   1.115  1.00  0.00     0.039 A 
ATOM     10  C   UNL     1       3.098   0.038   1.990  1.00  0.00     0.014 A 
ATOM     11  C   UNL     1       0.721   0.233   1.651  1.00  0.00     0.014 A 
ATOM     12  C   UNL     1       2.891  -0.036   3.363  1.00  0.00     0.010 A 
ATOM     13  C   UNL     1       0.512   0.216   3.026  1.00  0.00     0.010 A 
ATOM     14  C   UNL     1       1.597   0.036   3.881  1.00  0.00    -0.014 A 
BRANCH  14  15
ATOM     15  C   UNL     1       1.452   0.062   5.335  1.00  0.00     0.031 A 
ATOM     16  C   UNL     1       2.077   1.224   6.031  1.00  0.00     0.074 A 
ATOM     17  C   UNL     1       0.670  -0.784   6.032  1.00  0.00     0.049 A 
ATOM     18  N   UNL     1       2.934   1.220   7.001  1.00  0.00    -0.248 NA
ATOM     19  C   UNL     1       1.725   2.568   5.544  1.00  0.00     0.031 C 
ATOM     20  C   UNL     1      -0.272  -1.770   5.500  1.00  0.00     0.029 A 
ATOM     21  N   UNL     1       0.459  -0.839   7.381  1.00  0.00    -0.354 N 
ATOM     22  C   UNL     1       3.107   2.554   7.365  1.00  0.00     0.074 A 
ATOM     23  C   UNL     1       2.426   3.343   6.369  1.00  0.00     0.031 C 
ATOM     24  C   UNL     1      -1.114  -2.148   6.486  1.00  0.00     0.029 A 
ATOM     25  C   UNL     1      -0.691  -1.528   7.732  1.00  0.00     0.049 A 
ATOM     26  H   UNL     1       1.066  -0.430   8.040  1.00  0.00     0.167 HD
ATOM     27  C   UNL     1       3.617   2.923   8.573  1.00  0.00     0.031 A 
ATOM     28  C   UNL     1      -1.305  -1.530   8.938  1.00  0.00     0.031 A 
ATOM     29  C   UNL     1       4.348   1.865   9.213  1.00  0.00     0.049 A 
ATOM     30  C   UNL     1      -0.347  -1.053   9.958  1.00  0.00     0.074 A 
ATOM     31  C   UNL     1       5.441   1.084   8.893  1.00  0.00     0.029 A 
ATOM     32  N   UNL     1       3.777   1.268  10.310  1.00  0.00    -0.354 N 
ATOM     33  N   UNL     1       0.679  -1.736  10.374  1.00  0.00    -0.248 NA
ATOM     34  C   UNL     1      -0.338   0.359  10.305  1.00  0.00     0.031 C 
ATOM     35  C   UNL     1       5.193  -0.177   9.511  1.00  0.00     0.029 A 
ATOM     36  C   UNL     1       3.971  -0.079  10.179  1.00  0.00     0.049 A 
ATOM     37  H   UNL     1       3.316   1.724  11.050  1.00  0.00     0.167 HD
ATOM     38  C   UNL     1       1.646  -0.784  10.658  1.00  0.00     0.074 A 
ATOM     39  C   UNL     1       0.920   0.479  10.734  1.00  0.00     0.031 C 
ATOM     40  C   UNL     1       2.975  -1.069  10.518  1.00  0.00     0.031 A 
BRANCH  27  41
ATOM     41  C   UNL     1       3.107   4.116   9.352  1.00  0.00    -0.014 A 
ATOM     42  C   UNL     1       3.713   4.432  10.584  1.00  0.00     0.009 A 
ATOM     43  C   UNL     1       1.873   4.739   9.080  1.00  0.00     0.009 A 
ATOM     44  C   UNL     1       3.071   5.243  11.527  1.00  0.00     0.001 A 
ATOM     45  C   UNL     1       1.254   5.590  10.000  1.00  0.00     0.001 A 
ATOM     46  C   UNL     1       1.836   5.813  11.238  1.00  0.00     0.000 A 
ENDBRANCH  27  41
BRANCH  28  47
ATOM     47  C   UNL     1      -2.739  -1.718   9.236  1.00  0.00    -0.014 A 
ATOM     48  C   UNL     1      -3.166  -2.063  10.527  1.00  0.00     0.009 A 
ATOM     49  C   UNL     1      -3.718  -1.329   8.303  1.00  0.00     0.009 A 
ATOM     50  C   UNL     1      -4.522  -1.998  10.876  1.00  0.00     0.001 A 
ATOM     51  C   UNL     1      -5.071  -1.274   8.647  1.00  0.00     0.001 A 
ATOM     52  C   UNL     1      -5.471  -1.596   9.939  1.00  0.00     0.000 A 
ENDBRANCH  28  47
BRANCH  40  53
ATOM     53  C   UNL     1       3.382  -2.511  10.374  1.00  0.00    -0.014 A 
ATOM     54  C   UNL     1       2.920  -3.329   9.329  1.00  0.00     0.009 A 
ATOM     55  C   UNL     1       4.369  -3.018  11.233  1.00  0.00     0.009 A 
ATOM     56  C   UNL     1       3.400  -4.632   9.175  1.00  0.00     0.001 A 
ATOM     57  C   UNL     1       4.865  -4.313  11.065  1.00  0.00     0.001 A 
ATOM     58  C   UNL     1       4.375  -5.121  10.041  1.00  0.00     0.000 A 
ENDBRANCH  40  53
ENDBRANCH  14  15
ENDBRANCH   7   9
ENDBRANCH   4   5
ENDBRANCH   3   4
ENDBRANCH   2   3
ENDBRANCH   1   2
BRANCH   1  59
ATOM     59  N   UNL     1       5.731  -4.317  -1.812  1.00  0.00    -0.351 N 
ATOM     60  C   UNL     1       6.399  -5.217  -2.595  1.00  0.00     0.262 C 
ATOM     61  H   UNL     1       6.263  -3.907  -1.092  1.00  0.00     0.163 HD
ATOM     62  O   UNL     1       7.504  -5.587  -2.195  1.00  0.00    -0.268 OA
BRANCH  60  63
ATOM     63  C   UNL     1       5.764  -5.740  -3.780  1.00  0.00     0.112 A 
ATOM     64  S   UNL     1       5.621  -7.461  -3.826  1.00  0.00    -0.137 S 
ATOM     65  C   UNL     1       5.269  -5.166  -4.939  1.00  0.00     0.111 A 
ATOM     66  C   UNL     1       4.819  -7.435  -5.326  1.00  0.00     0.067 A 
ATOM     67  C   UNL     1       4.689  -6.156  -5.809  1.00  0.00     0.035 A 
BRANCH  65  68
ATOM     68  S   UNL     1       5.278  -3.507  -5.454  1.00  0.00     0.263 S 
ATOM     69  O   UNL     1       5.950  -3.547  -6.726  1.00  0.00    -0.201 OA
ATOM     70  O   UNL     1       3.869  -3.151  -5.371  1.00  0.00    -0.201 OA
BRANCH  68  71
ATOM     71  N   UNL     1       6.052  -2.410  -4.480  1.00  0.00    -0.280 N 
ATOM     72  H   UNL     1       5.539  -1.617  -4.201  1.00  0.00     0.180 HD
BRANCH  71  73
ATOM     73  C   UNL     1       7.385  -2.514  -4.016  1.00  0.00     0.049 A 
ATOM     74  C   UNL     1       7.664  -1.780  -2.862  1.00  0.00     0.027 A 
ATOM     75  C   UNL     1       8.325  -3.410  -4.508  1.00  0.00     0.027 A 
ATOM     76  C   UNL     1       8.756  -2.113  -2.069  1.00  0.00     0.008 A 
ATOM     77  C   UNL     1       9.447  -3.718  -3.733  1.00  0.00     0.008 A 
ATOM     78  C   UNL     1       9.622  -3.138  -2.467  1.00  0.00    -0.026 A 
BRANCH  78  79
ATOM     79  C   UNL     1      10.630  -3.713  -1.502  1.00  0.00     0.181 C 
BRANCH  79  80
ATOM     80  N   UNL     1      11.670  -2.768  -1.154  1.00  0.00    -0.249 N 
ATOM     81  C   UNL     1      11.642  -1.828  -0.170  1.00  0.00     0.220 A 
ATOM     82  N   UNL     1      12.879  -2.810  -1.746  1.00  0.00    -0.160 NA
ATOM     83  N   UNL     1      12.799  -1.210  -0.118  1.00  0.00    -0.224 NA
ATOM     84  C   UNL     1      13.523  -1.841  -1.090  1.00  0.00     0.246 A 
ENDBRANCH  79  80
ENDBRANCH  78  79
ENDBRANCH  71  73
ENDBRANCH  68  71
ENDBRANCH  65  68
ENDBRANCH  60  63
ENDBRANCH   1  59
TORSDOF 16
