REMARK SMILES Cc1nn(C)c(=O)c(C(=O)N[C@H](C)CC(=O)NCCCCNC(=O)c2ccc(-c3c4nc(c(-c5ccccc5)c5ccc([nH]5)c(-c5ccccc5)c5nc(c(-c6ccccc6)c6ccc3[nH]6)C=C5)C=C4)cc2)c1C
REMARK SMILES IDX 19 1 18 2 17 3 15 4 16 5 14 7 12 8 13 9 11 10 9 11 10 12
REMARK SMILES IDX 8 14 1 15 2 16 3 17 73 18 4 19 74 20 5 21 6 22 7 23 20 24
REMARK SMILES IDX 21 25 22 26 23 27 24 29 25 30 26 31 72 32 27 33 71 34 28 35
REMARK SMILES IDX 29 36 30 37 65 38 31 39 70 40 64 41 66 42 32 43 69 44 63 45
REMARK SMILES IDX 62 46 33 48 55 49 40 50 54 51 41 52 44 53 53 54 67 55 42 56
REMARK SMILES IDX 43 57 52 59 68 60 45 61 34 62 35 63 39 64 36 65 38 66 37 67
REMARK SMILES IDX 56 68 57 69 61 70 58 71 60 72 59 73 46 74 47 75 51 76 48 77
REMARK SMILES IDX 50 78 49 79
REMARK H PARENT 17 6 11 13 22 28 66 47 44 58
REMARK Flexibility Score: inf
ROOT
ATOM      1  C   UNL     1      -1.986   3.740  -3.593  1.00  0.00     0.023 C 
ENDROOT
BRANCH   1   2
ATOM      2  C   UNL     1      -2.444   4.261  -2.228  1.00  0.00     0.116 C 
BRANCH   2   3
ATOM      3  N   UNL     1      -2.061   3.340  -1.171  1.00  0.00    -0.356 N 
ATOM      4  C   UNL     1      -0.878   3.212  -0.500  1.00  0.00     0.222 C 
ATOM      5  O   UNL     1      -0.730   2.244   0.246  1.00  0.00    -0.275 OA
ATOM      6  H   UNL     1      -2.764   2.708  -0.896  1.00  0.00     0.163 HD
BRANCH   4   7
ATOM      7  C   UNL     1       0.211   4.257  -0.647  1.00  0.00     0.124 C 
BRANCH   7   8
ATOM      8  C   UNL     1       1.487   3.767  -1.350  1.00  0.00     0.088 C 
ATOM      9  C   UNL     1       1.284   3.160  -2.728  1.00  0.00     0.031 C 
BRANCH   8  10
ATOM     10  N   UNL     1       2.544   4.797  -1.300  1.00  0.00    -0.349 N 
ATOM     11  C   UNL     1       3.051   5.770  -2.108  1.00  0.00     0.257 C 
ATOM     12  O   UNL     1       3.926   6.496  -1.631  1.00  0.00    -0.269 OA
ATOM     13  H   UNL     1       3.018   4.775  -0.437  1.00  0.00     0.164 HD
BRANCH  11  14
ATOM     14  C   UNL     1       2.591   6.019  -3.498  1.00  0.00     0.111 A 
ATOM     15  C   UNL     1      -0.323   7.069  -5.622  1.00  0.00     0.069 C 
ATOM     16  C   UNL     1       1.108   6.904  -5.168  1.00  0.00     0.062 A 
ATOM     17  N   UNL     1       1.997   6.954  -6.103  1.00  0.00    -0.175 NA
ATOM     18  C   UNL     1       1.408   6.614  -3.740  1.00  0.00    -0.010 A 
ATOM     19  N   UNL     1       3.276   6.615  -5.773  1.00  0.00    -0.232 N 
ATOM     20  C   UNL     1       0.445   7.115  -2.721  1.00  0.00     0.047 C 
ATOM     21  C   UNL     1       4.261   6.842  -6.816  1.00  0.00     0.178 C 
ATOM     22  C   UNL     1       3.609   5.950  -4.596  1.00  0.00     0.279 A 
ATOM     23  O   UNL     1       4.681   5.374  -4.426  1.00  0.00    -0.267 OA
ENDBRANCH  11  14
ENDBRANCH   8  10
ENDBRANCH   7   8
ENDBRANCH   4   7
ENDBRANCH   2   3
ENDBRANCH   1   2
BRANCH   1  24
ATOM     24  C   UNL     1      -3.117   3.197  -4.464  1.00  0.00     0.023 C 
BRANCH  24  25
ATOM     25  C   UNL     1      -3.891   4.278  -5.203  1.00  0.00     0.116 C 
BRANCH  25  26
ATOM     26  N   UNL     1      -3.116   4.894  -6.270  1.00  0.00    -0.352 N 
ATOM     27  C   UNL     1      -3.546   5.447  -7.453  1.00  0.00     0.251 C 
ATOM     28  H   UNL     1      -2.143   4.918  -6.124  1.00  0.00     0.163 HD
ATOM     29  O   UNL     1      -2.744   5.935  -8.243  1.00  0.00    -0.269 OA
BRANCH  27  30
ATOM     30  C   UNL     1      -4.972   5.338  -7.810  1.00  0.00     0.039 A 
ATOM     31  C   UNL     1      -5.293   4.742  -9.032  1.00  0.00     0.014 A 
ATOM     32  C   UNL     1      -5.968   5.669  -6.891  1.00  0.00     0.014 A 
ATOM     33  C   UNL     1      -6.608   4.359  -9.280  1.00  0.00     0.010 A 
ATOM     34  C   UNL     1      -7.263   5.215  -7.104  1.00  0.00     0.010 A 
ATOM     35  C   UNL     1      -7.585   4.533  -8.288  1.00  0.00    -0.014 A 
BRANCH  35  36
ATOM     36  C   UNL     1      -8.946   3.979  -8.462  1.00  0.00     0.031 A 
ATOM     37  C   UNL     1     -10.119   4.905  -8.573  1.00  0.00     0.074 A 
ATOM     38  C   UNL     1      -9.123   2.643  -8.466  1.00  0.00     0.049 A 
ATOM     39  N   UNL     1     -11.388   4.614  -8.687  1.00  0.00    -0.248 NA
ATOM     40  C   UNL     1      -9.829   6.348  -8.528  1.00  0.00     0.031 C 
ATOM     41  C   UNL     1      -8.059   1.644  -8.328  1.00  0.00     0.029 A 
ATOM     42  N   UNL     1     -10.264   1.894  -8.599  1.00  0.00    -0.354 N 
ATOM     43  C   UNL     1     -12.047   5.835  -8.716  1.00  0.00     0.074 A 
ATOM     44  C   UNL     1     -11.047   6.867  -8.554  1.00  0.00     0.031 C 
ATOM     45  C   UNL     1      -8.594   0.416  -8.431  1.00  0.00     0.029 A 
ATOM     46  C   UNL     1     -10.036   0.539  -8.605  1.00  0.00     0.049 A 
ATOM     47  H   UNL     1     -11.162   2.290  -8.683  1.00  0.00     0.167 HD
ATOM     48  C   UNL     1     -13.367   6.076  -8.888  1.00  0.00     0.031 A 
ATOM     49  C   UNL     1     -10.896  -0.487  -8.746  1.00  0.00     0.031 A 
ATOM     50  C   UNL     1     -14.356   5.050  -9.063  1.00  0.00     0.049 A 
ATOM     51  C   UNL     1     -12.358  -0.193  -8.928  1.00  0.00     0.074 A 
ATOM     52  C   UNL     1     -15.716   5.190  -9.275  1.00  0.00     0.029 A 
ATOM     53  N   UNL     1     -14.086   3.691  -9.055  1.00  0.00    -0.354 N 
ATOM     54  N   UNL     1     -12.963   0.968  -8.988  1.00  0.00    -0.248 NA
ATOM     55  C   UNL     1     -13.255  -1.350  -9.064  1.00  0.00     0.031 C 
ATOM     56  C   UNL     1     -16.275   3.911  -9.364  1.00  0.00     0.029 A 
ATOM     57  C   UNL     1     -15.256   2.978  -9.246  1.00  0.00     0.049 A 
ATOM     58  H   UNL     1     -13.195   3.292  -8.931  1.00  0.00     0.167 HD
ATOM     59  C   UNL     1     -14.307   0.685  -9.186  1.00  0.00     0.074 A 
ATOM     60  C   UNL     1     -14.427  -0.758  -9.249  1.00  0.00     0.031 C 
ATOM     61  C   UNL     1     -15.349   1.543  -9.303  1.00  0.00     0.031 A 
BRANCH  48  62
ATOM     62  C   UNL     1     -13.802   7.512  -8.899  1.00  0.00    -0.014 A 
ATOM     63  C   UNL     1     -13.505   8.345  -9.990  1.00  0.00     0.009 A 
ATOM     64  C   UNL     1     -14.519   8.037  -7.815  1.00  0.00     0.009 A 
ATOM     65  C   UNL     1     -13.888   9.687  -9.978  1.00  0.00     0.001 A 
ATOM     66  C   UNL     1     -14.923   9.374  -7.817  1.00  0.00     0.001 A 
ATOM     67  C   UNL     1     -14.599  10.199  -8.894  1.00  0.00     0.000 A 
ENDBRANCH  48  62
BRANCH  49  68
ATOM     68  C   UNL     1     -10.391  -1.884  -8.761  1.00  0.00    -0.014 A 
ATOM     69  C   UNL     1     -10.340  -2.602  -9.966  1.00  0.00     0.009 A 
ATOM     70  C   UNL     1      -9.947  -2.502  -7.582  1.00  0.00     0.009 A 
ATOM     71  C   UNL     1      -9.868  -3.917  -9.987  1.00  0.00     0.001 A 
ATOM     72  C   UNL     1      -9.456  -3.810  -7.611  1.00  0.00     0.001 A 
ATOM     73  C   UNL     1      -9.423  -4.518  -8.811  1.00  0.00     0.000 A 
ENDBRANCH  49  68
BRANCH  61  74
ATOM     74  C   UNL     1     -16.707   0.947  -9.523  1.00  0.00    -0.014 A 
ATOM     75  C   UNL     1     -17.419   0.367  -8.464  1.00  0.00     0.009 A 
ATOM     76  C   UNL     1     -17.310   1.038 -10.787  1.00  0.00     0.009 A 
ATOM     77  C   UNL     1     -18.708  -0.127  -8.671  1.00  0.00     0.001 A 
ATOM     78  C   UNL     1     -18.606   0.562 -10.986  1.00  0.00     0.001 A 
ATOM     79  C   UNL     1     -19.302  -0.024  -9.928  1.00  0.00     0.000 A 
ENDBRANCH  61  74
ENDBRANCH  35  36
ENDBRANCH  27  30
ENDBRANCH  25  26
ENDBRANCH  24  25
ENDBRANCH   1  24
TORSDOF 14
