REMARK SMILES CC(C)C[C@@H](C(=O)NCCCCNC(=O)c1ccc(-c2c3nc(c(-c4ccccc4)c4ccc([nH]4)c(-c4ccccc4)c4nc(c(-c5ccccc5)c5ccc2[nH]5)C=C4)C=C3)cc1)[C@@H]1CCC[C@@H](C)C1
REMARK SMILES IDX 10 1 9 2 8 3 6 4 7 5 5 7 4 8 2 9 1 10 3 11 64 12 65 13 70 14
REMARK SMILES IDX 66 15 68 16 67 17 69 18 11 19 12 20 13 21 14 22 15 24 16 25
REMARK SMILES IDX 17 26 63 27 18 28 62 29 19 30 20 31 21 32 56 33 22 34 61 35
REMARK SMILES IDX 55 36 57 37 23 38 60 39 54 40 53 41 24 43 46 44 31 45 45 46
REMARK SMILES IDX 32 47 35 48 44 49 58 50 33 51 34 52 43 54 59 55 36 56 25 57
REMARK SMILES IDX 26 58 30 59 27 60 29 61 28 62 47 63 48 64 52 65 49 66 51 67
REMARK SMILES IDX 50 68 37 69 38 70 42 71 39 72 41 73 40 74
REMARK H PARENT 8 6 13 23 57 42 35 53
REMARK Flexibility Score: inf
ROOT
ATOM      1  C   UNL     1       2.791   3.371  -0.219  1.00  0.00     0.023 C 
ENDROOT
BRANCH   1   2
ATOM      2  C   UNL     1       2.041   2.716   0.941  1.00  0.00     0.116 C 
BRANCH   2   3
ATOM      3  N   UNL     1       0.672   3.176   1.090  1.00  0.00    -0.356 N 
ATOM      4  C   UNL     1      -0.552   2.598   0.989  1.00  0.00     0.223 C 
ATOM      5  O   UNL     1      -1.493   3.305   1.380  1.00  0.00    -0.275 OA
ATOM      6  H   UNL     1       0.619   4.133   1.317  1.00  0.00     0.163 HD
BRANCH   4   7
ATOM      7  C   UNL     1      -0.865   1.202   0.398  1.00  0.00     0.082 C 
BRANCH   7   8
ATOM      8  C   UNL     1       0.083   0.107   0.936  1.00  0.00     0.016 C 
BRANCH   8   9
ATOM      9  C   UNL     1      -0.409  -1.358   0.991  1.00  0.00    -0.017 C 
ATOM     10  C   UNL     1      -0.229  -2.093  -0.337  1.00  0.00     0.007 C 
ATOM     11  C   UNL     1       0.409  -2.108   2.055  1.00  0.00     0.007 C 
ENDBRANCH   8   9
ENDBRANCH   7   8
BRANCH   7  12
ATOM     12  C   UNL     1      -1.295   1.171  -1.117  1.00  0.00     0.002 C 
ATOM     13  C   UNL     1      -0.261   0.756  -2.172  1.00  0.00     0.004 C 
ATOM     14  C   UNL     1      -1.994   2.461  -1.623  1.00  0.00     0.007 C 
ATOM     15  C   UNL     1       0.749   1.836  -2.436  1.00  0.00     0.001 C 
ATOM     16  C   UNL     1      -1.031   3.617  -1.956  1.00  0.00    -0.014 C 
ATOM     17  C   UNL     1       0.127   3.164  -2.853  1.00  0.00     0.003 C 
ATOM     18  C   UNL     1      -1.775   4.792  -2.595  1.00  0.00     0.007 C 
ENDBRANCH   7  12
ENDBRANCH   4   7
ENDBRANCH   2   3
ENDBRANCH   1   2
BRANCH   1  19
ATOM     19  C   UNL     1       3.141   4.830  -0.043  1.00  0.00     0.023 C 
BRANCH  19  20
ATOM     20  C   UNL     1       4.225   5.043   0.983  1.00  0.00     0.116 C 
BRANCH  20  21
ATOM     21  N   UNL     1       5.446   4.305   0.652  1.00  0.00    -0.352 N 
ATOM     22  C   UNL     1       6.676   4.795   0.292  1.00  0.00     0.251 C 
ATOM     23  H   UNL     1       5.375   3.324   0.693  1.00  0.00     0.163 HD
ATOM     24  O   UNL     1       7.529   4.075  -0.213  1.00  0.00    -0.269 OA
BRANCH  22  25
ATOM     25  C   UNL     1       6.942   6.220   0.540  1.00  0.00     0.039 A 
ATOM     26  C   UNL     1       7.560   7.009  -0.429  1.00  0.00     0.014 A 
ATOM     27  C   UNL     1       6.478   6.775   1.734  1.00  0.00     0.014 A 
ATOM     28  C   UNL     1       7.653   8.382  -0.216  1.00  0.00     0.010 A 
ATOM     29  C   UNL     1       6.413   8.144   1.858  1.00  0.00     0.010 A 
ATOM     30  C   UNL     1       7.050   8.958   0.914  1.00  0.00    -0.014 A 
BRANCH  30  31
ATOM     31  C   UNL     1       7.134  10.401   1.212  1.00  0.00     0.031 A 
ATOM     32  C   UNL     1       7.763  10.831   2.511  1.00  0.00     0.074 A 
ATOM     33  C   UNL     1       6.557  11.292   0.386  1.00  0.00     0.049 A 
ATOM     34  N   UNL     1       7.815  12.019   3.052  1.00  0.00    -0.248 NA
ATOM     35  C   UNL     1       8.354   9.768   3.348  1.00  0.00     0.031 C 
ATOM     36  C   UNL     1       5.851  10.972  -0.857  1.00  0.00     0.029 A 
ATOM     37  N   UNL     1       6.468  12.655   0.479  1.00  0.00    -0.354 N 
ATOM     38  C   UNL     1       8.397  11.831   4.300  1.00  0.00     0.074 A 
ATOM     39  C   UNL     1       8.594  10.412   4.476  1.00  0.00     0.031 C 
ATOM     40  C   UNL     1       5.436  12.112  -1.431  1.00  0.00     0.029 A 
ATOM     41  C   UNL     1       5.812  13.234  -0.578  1.00  0.00     0.049 A 
ATOM     42  H   UNL     1       6.838  13.170   1.232  1.00  0.00     0.167 HD
ATOM     43  C   UNL     1       8.779  12.762   5.203  1.00  0.00     0.031 A 
ATOM     44  C   UNL     1       5.551  14.530  -0.825  1.00  0.00     0.031 A 
ATOM     45  C   UNL     1       8.625  14.171   4.987  1.00  0.00     0.049 A 
ATOM     46  C   UNL     1       6.035  15.556   0.162  1.00  0.00     0.074 A 
ATOM     47  C   UNL     1       9.041  15.220   5.784  1.00  0.00     0.029 A 
ATOM     48  N   UNL     1       8.014  14.725   3.871  1.00  0.00    -0.354 N 
ATOM     49  N   UNL     1       6.654  15.374   1.304  1.00  0.00    -0.248 NA
ATOM     50  C   UNL     1       5.802  16.963  -0.183  1.00  0.00     0.031 C 
ATOM     51  C   UNL     1       8.646  16.412   5.166  1.00  0.00     0.029 A 
ATOM     52  C   UNL     1       8.031  16.104   3.961  1.00  0.00     0.049 A 
ATOM     53  H   UNL     1       7.626  14.212   3.125  1.00  0.00     0.167 HD
ATOM     54  C   UNL     1       6.905  16.643   1.806  1.00  0.00     0.074 A 
ATOM     55  C   UNL     1       6.388  17.584   0.831  1.00  0.00     0.031 C 
ATOM     56  C   UNL     1       7.504  17.005   2.968  1.00  0.00     0.031 A 
BRANCH  43  57
ATOM     57  C   UNL     1       9.407  12.267   6.478  1.00  0.00    -0.014 A 
ATOM     58  C   UNL     1      10.653  11.614   6.472  1.00  0.00     0.009 A 
ATOM     59  C   UNL     1       8.739  12.434   7.699  1.00  0.00     0.009 A 
ATOM     60  C   UNL     1      11.185  11.088   7.650  1.00  0.00     0.001 A 
ATOM     61  C   UNL     1       9.292  11.939   8.883  1.00  0.00     0.001 A 
ATOM     62  C   UNL     1      10.506  11.254   8.855  1.00  0.00     0.000 A 
ENDBRANCH  43  57
BRANCH  44  63
ATOM     63  C   UNL     1       4.843  14.920  -2.071  1.00  0.00    -0.014 A 
ATOM     64  C   UNL     1       5.536  15.552  -3.115  1.00  0.00     0.009 A 
ATOM     65  C   UNL     1       3.479  14.636  -2.239  1.00  0.00     0.009 A 
ATOM     66  C   UNL     1       4.873  15.913  -4.290  1.00  0.00     0.001 A 
ATOM     67  C   UNL     1       2.825  14.972  -3.427  1.00  0.00     0.001 A 
ATOM     68  C   UNL     1       3.520  15.618  -4.448  1.00  0.00     0.000 A 
ENDBRANCH  44  63
BRANCH  56  69
ATOM     69  C   UNL     1       7.653  18.475   3.226  1.00  0.00    -0.014 A 
ATOM     70  C   UNL     1       6.548  19.265   3.575  1.00  0.00     0.009 A 
ATOM     71  C   UNL     1       8.927  19.061   3.171  1.00  0.00     0.009 A 
ATOM     72  C   UNL     1       6.713  20.626   3.833  1.00  0.00     0.001 A 
ATOM     73  C   UNL     1       9.092  20.416   3.459  1.00  0.00     0.001 A 
ATOM     74  C   UNL     1       7.984  21.198   3.781  1.00  0.00     0.000 A 
ENDBRANCH  56  69
ENDBRANCH  30  31
ENDBRANCH  22  25
ENDBRANCH  20  21
ENDBRANCH  19  20
ENDBRANCH   1  19
TORSDOF 14
