REMARK SMILES Cc1nnc(SCC[C@H]2CCC[C@]2([NH3+])C(=O)NCCCCNC(=O)c2ccc(-c3c4nc(c(-c5ccccc5)c5ccc([nH]5)c(-c5ccccc5)c5nc(c(-c6ccccc6)c6ccc3[nH]6)C=C5)C=C4)cc2)o1
REMARK SMILES IDX 18 1 17 2 15 3 16 4 13 6 9 7 10 8 11 9 12 10 8 11 7 12 6 13
REMARK SMILES IDX 5 14 1 15 2 16 3 17 73 18 4 19 14 20 19 24 20 25 21 26 22 27
REMARK SMILES IDX 23 28 24 30 25 31 26 32 72 33 27 34 71 35 28 36 29 37 30 38
REMARK SMILES IDX 65 39 31 40 70 41 64 42 66 43 32 44 69 45 63 46 62 47 33 49
REMARK SMILES IDX 55 50 40 51 54 52 41 53 44 54 53 55 67 56 42 57 43 58 52 60
REMARK SMILES IDX 68 61 45 62 34 63 35 64 39 65 36 66 38 67 37 68 56 69 57 70
REMARK SMILES IDX 61 71 58 72 60 73 59 74 46 75 47 76 51 77 48 78 50 79 49 80
REMARK H PARENT 17 5 14 21 14 22 14 23 22 29 66 48 44 59
REMARK Flexibility Score: inf
ROOT
ATOM      1  C   UNL     1       5.947  -1.184   1.597  1.00  0.00     0.116 C 
ENDROOT
BRANCH   1   2
ATOM      2  N   UNL     1       5.312  -1.517   2.857  1.00  0.00    -0.351 N 
ATOM      3  C   UNL     1       4.089  -2.050   3.157  1.00  0.00     0.281 C 
ATOM      4  O   UNL     1       3.978  -2.500   4.306  1.00  0.00    -0.268 OA
ATOM      5  H   UNL     1       5.866  -1.322   3.647  1.00  0.00     0.163 HD
BRANCH   3   6
ATOM      6  C   UNL     1       2.904  -2.215   2.126  1.00  0.00     0.176 C 
ATOM      7  C   UNL     1       2.771  -1.067   1.103  1.00  0.00     0.061 C 
ATOM      8  C   UNL     1       1.583  -0.212   1.633  1.00  0.00     0.011 C 
ATOM      9  C   UNL     1       1.135  -0.816   2.960  1.00  0.00     0.008 C 
ATOM     10  C   UNL     1       1.540  -2.260   2.845  1.00  0.00     0.079 C 
BRANCH   7  11
ATOM     11  C   UNL     1       2.615  -1.477  -0.398  1.00  0.00     0.022 C 
BRANCH  11  12
ATOM     12  C   UNL     1       3.827  -2.070  -1.198  1.00  0.00     0.080 C 
BRANCH  12  13
ATOM     13  S   UNL     1       4.123  -3.881  -1.345  1.00  0.00    -0.065 SA
BRANCH  13  14
ATOM     14  C   UNL     1       5.233  -4.313  -0.063  1.00  0.00     0.276 A 
ATOM     15  C   UNL     1       5.698  -5.573   3.193  1.00  0.00     0.113 C 
ATOM     16  C   UNL     1       5.921  -5.061   1.823  1.00  0.00     0.214 A 
ATOM     17  N   UNL     1       6.914  -4.355   1.325  1.00  0.00    -0.112 NA
ATOM     18  O   UNL     1       4.892  -5.203   0.934  1.00  0.00    -0.416 OA
ATOM     19  N   UNL     1       6.469  -3.878   0.091  1.00  0.00    -0.101 NA
ENDBRANCH  13  14
ENDBRANCH  12  13
ENDBRANCH  11  12
ENDBRANCH   7  11
BRANCH   6  20
ATOM     20  N   UNL     1       3.001  -3.543   1.544  1.00  0.00    -0.345 N 
ATOM     21  H   UNL     1       2.244  -3.676   0.872  1.00  0.00     0.345 HD
ATOM     22  H   UNL     1       2.927  -4.244   2.281  1.00  0.00     0.345 HD
ATOM     23  H   UNL     1       3.898  -3.642   1.069  1.00  0.00     0.345 HD
ENDBRANCH   6  20
ENDBRANCH   3   6
ENDBRANCH   1   2
BRANCH   1  24
ATOM     24  C   UNL     1       6.608   0.191   1.555  1.00  0.00     0.023 C 
BRANCH  24  25
ATOM     25  C   UNL     1       7.982   0.223   2.224  1.00  0.00     0.023 C 
BRANCH  25  26
ATOM     26  C   UNL     1       9.030  -0.723   1.632  1.00  0.00     0.116 C 
BRANCH  26  27
ATOM     27  N   UNL     1       9.433  -0.374   0.277  1.00  0.00    -0.352 N 
ATOM     28  C   UNL     1      10.694  -0.144  -0.220  1.00  0.00     0.251 C 
ATOM     29  H   UNL     1       8.700  -0.292  -0.375  1.00  0.00     0.163 HD
ATOM     30  O   UNL     1      10.847   0.255  -1.374  1.00  0.00    -0.269 OA
BRANCH  28  31
ATOM     31  C   UNL     1      11.874  -0.333   0.652  1.00  0.00     0.039 A 
ATOM     32  C   UNL     1      12.839   0.675   0.712  1.00  0.00     0.014 A 
ATOM     33  C   UNL     1      12.013  -1.483   1.434  1.00  0.00     0.014 A 
ATOM     34  C   UNL     1      13.895   0.570   1.621  1.00  0.00     0.010 A 
ATOM     35  C   UNL     1      13.018  -1.548   2.397  1.00  0.00     0.010 A 
ATOM     36  C   UNL     1      13.966  -0.519   2.507  1.00  0.00    -0.014 A 
BRANCH  36  37
ATOM     37  C   UNL     1      15.016  -0.592   3.558  1.00  0.00     0.031 A 
ATOM     38  C   UNL     1      16.024  -1.709   3.548  1.00  0.00     0.074 A 
ATOM     39  C   UNL     1      15.035   0.320   4.552  1.00  0.00     0.049 A 
ATOM     40  N   UNL     1      16.977  -1.969   4.409  1.00  0.00    -0.248 NA
ATOM     41  C   UNL     1      15.942  -2.670   2.437  1.00  0.00     0.031 C 
ATOM     42  C   UNL     1      14.100   1.438   4.698  1.00  0.00     0.029 A 
ATOM     43  N   UNL     1      15.873   0.448   5.633  1.00  0.00    -0.354 N 
ATOM     44  C   UNL     1      17.603  -3.119   3.944  1.00  0.00     0.074 A 
ATOM     45  C   UNL     1      16.885  -3.542   2.762  1.00  0.00     0.031 C 
ATOM     46  C   UNL     1      14.436   2.154   5.784  1.00  0.00     0.029 A 
ATOM     47  C   UNL     1      15.577   1.522   6.438  1.00  0.00     0.049 A 
ATOM     48  H   UNL     1      16.616  -0.172   5.814  1.00  0.00     0.167 HD
ATOM     49  C   UNL     1      18.693  -3.753   4.438  1.00  0.00     0.031 A 
ATOM     50  C   UNL     1      16.152   1.946   7.580  1.00  0.00     0.031 A 
ATOM     51  C   UNL     1      19.409  -3.341   5.616  1.00  0.00     0.049 A 
ATOM     52  C   UNL     1      17.325   1.185   8.138  1.00  0.00     0.074 A 
ATOM     53  C   UNL     1      20.537  -3.909   6.182  1.00  0.00     0.029 A 
ATOM     54  N   UNL     1      19.066  -2.257   6.408  1.00  0.00    -0.354 N 
ATOM     55  N   UNL     1      17.936   0.131   7.654  1.00  0.00    -0.248 NA
ATOM     56  C   UNL     1      17.894   1.683   9.399  1.00  0.00     0.031 C 
ATOM     57  C   UNL     1      20.848  -3.199   7.345  1.00  0.00     0.029 A 
ATOM     58  C   UNL     1      19.951  -2.151   7.468  1.00  0.00     0.049 A 
ATOM     59  H   UNL     1      18.307  -1.653   6.242  1.00  0.00     0.167 HD
ATOM     60  C   UNL     1      18.982  -0.135   8.529  1.00  0.00     0.074 A 
ATOM     61  C   UNL     1      18.934   0.878   9.562  1.00  0.00     0.031 C 
ATOM     62  C   UNL     1      19.901  -1.130   8.482  1.00  0.00     0.031 A 
BRANCH  49  63
ATOM     63  C   UNL     1      19.188  -4.962   3.692  1.00  0.00    -0.014 A 
ATOM     64  C   UNL     1      19.789  -4.835   2.430  1.00  0.00     0.009 A 
ATOM     65  C   UNL     1      19.098  -6.235   4.276  1.00  0.00     0.009 A 
ATOM     66  C   UNL     1      20.262  -5.961   1.753  1.00  0.00     0.001 A 
ATOM     67  C   UNL     1      19.599  -7.356   3.610  1.00  0.00     0.001 A 
ATOM     68  C   UNL     1      20.172  -7.219   2.347  1.00  0.00     0.000 A 
ENDBRANCH  49  63
BRANCH  50  69
ATOM     69  C   UNL     1      15.640   3.151   8.286  1.00  0.00    -0.014 A 
ATOM     70  C   UNL     1      16.428   4.309   8.384  1.00  0.00     0.009 A 
ATOM     71  C   UNL     1      14.384   3.134   8.912  1.00  0.00     0.009 A 
ATOM     72  C   UNL     1      15.989   5.405   9.131  1.00  0.00     0.001 A 
ATOM     73  C   UNL     1      13.932   4.245   9.628  1.00  0.00     0.001 A 
ATOM     74  C   UNL     1      14.741   5.373   9.751  1.00  0.00     0.000 A 
ENDBRANCH  50  69
BRANCH  62  75
ATOM     75  C   UNL     1      20.963  -1.139   9.546  1.00  0.00    -0.014 A 
ATOM     76  C   UNL     1      20.665  -1.467  10.878  1.00  0.00     0.009 A 
ATOM     77  C   UNL     1      22.291  -0.846   9.200  1.00  0.00     0.009 A 
ATOM     78  C   UNL     1      21.670  -1.463  11.848  1.00  0.00     0.001 A 
ATOM     79  C   UNL     1      23.300  -0.875  10.164  1.00  0.00     0.001 A 
ATOM     80  C   UNL     1      22.986  -1.173  11.489  1.00  0.00     0.000 A 
ENDBRANCH  62  75
ENDBRANCH  36  37
ENDBRANCH  28  31
ENDBRANCH  26  27
ENDBRANCH  25  26
ENDBRANCH  24  25
ENDBRANCH   1  24
TORSDOF 16
