REMARK SMILES Cc1c(Br)c(C)c2c(c1Br)O[C@H](C(F)(F)F)C(C(=O)NCCCCNC(=O)c1ccc(-c3c4nc(c(-c5ccccc5)c5ccc([nH]5)c(-c5ccccc5)c5nc(c(-c6ccccc6)c6ccc3[nH]6)C=C5)C=C4)cc1)=C2
REMARK SMILES IDX 23 1 22 2 21 3 20 4 18 5 19 6 17 8 1 9 2 10 3 11 9 12 4 13
REMARK SMILES IDX 5 14 8 15 10 16 6 17 7 18 11 19 76 20 12 21 13 22 14 23
REMARK SMILES IDX 15 24 16 25 24 26 25 27 26 28 27 30 28 31 29 32 75 33 30 34
REMARK SMILES IDX 74 35 31 36 32 37 33 38 68 39 34 40 73 41 67 42 69 43 35 44
REMARK SMILES IDX 72 45 66 46 65 47 36 49 58 50 43 51 57 52 44 53 47 54 56 55
REMARK SMILES IDX 70 56 45 57 46 58 55 60 71 61 48 62 37 63 38 64 42 65 39 66
REMARK SMILES IDX 41 67 40 68 59 69 60 70 64 71 61 72 63 73 62 74 49 75 50 76
REMARK SMILES IDX 54 77 51 78 53 79 52 80
REMARK H PARENT 20 7 25 29 69 48 47 59
REMARK Flexibility Score: inf
ROOT
ATOM      1  C   UNL     1       2.228  -9.425   5.269  1.00  0.00     0.023 C 
ENDROOT
BRANCH   1   2
ATOM      2  C   UNL     1       2.030  -8.312   4.238  1.00  0.00     0.023 C 
BRANCH   2   3
ATOM      3  C   UNL     1       0.568  -7.967   3.967  1.00  0.00     0.116 C 
BRANCH   3   4
ATOM      4  N   UNL     1       0.047  -7.023   4.938  1.00  0.00    -0.352 N 
ATOM      5  C   UNL     1      -0.184  -5.691   4.990  1.00  0.00     0.251 C 
ATOM      6  O   UNL     1      -0.637  -5.280   6.063  1.00  0.00    -0.270 OA
ATOM      7  H   UNL     1      -0.204  -7.469   5.780  1.00  0.00     0.163 HD
BRANCH   5   8
ATOM      8  C   UNL     1       0.061  -4.728   3.876  1.00  0.00     0.067 C 
ATOM      9  C   UNL     1       0.923   0.491  -0.004  1.00  0.00     0.047 C 
ATOM     10  C   UNL     1       0.598  -0.487   1.101  1.00  0.00    -0.019 A 
ATOM     11  C   UNL     1      -0.029  -0.103   2.312  1.00  0.00     0.025 A 
ATOM     12  C   UNL     1       0.955  -1.842   0.942  1.00  0.00     0.064 A 
ATOM     13  Br  UNL     1      -0.447   1.748   2.607  1.00  0.00    -0.050 Br
ATOM     14  C   UNL     1      -0.328  -1.052   3.328  1.00  0.00    -0.026 A 
ATOM     15  C   UNL     1       0.686  -2.783   1.947  1.00  0.00     0.142 A 
ATOM     16  Br  UNL     1       1.831  -2.449  -0.653  1.00  0.00    -0.046 Br
ATOM     17  C   UNL     1      -1.018  -0.665   4.618  1.00  0.00     0.046 C 
ATOM     18  C   UNL     1       0.064  -2.400   3.141  1.00  0.00     0.022 A 
ATOM     19  O   UNL     1       1.109  -4.070   1.740  1.00  0.00    -0.474 OA
ATOM     20  C   UNL     1      -0.105  -3.427   4.178  1.00  0.00     0.026 C 
ATOM     21  C   UNL     1       0.432  -5.115   2.479  1.00  0.00     0.314 C 
BRANCH  21  22
ATOM     22  C   UNL     1      -0.762  -5.649   1.667  1.00  0.00     0.429 C 
ATOM     23  F   UNL     1      -0.332  -6.266   0.538  1.00  0.00    -0.167 F 
ATOM     24  F   UNL     1      -1.481  -6.568   2.354  1.00  0.00    -0.167 F 
ATOM     25  F   UNL     1      -1.620  -4.673   1.297  1.00  0.00    -0.167 F 
ENDBRANCH  21  22
ENDBRANCH   5   8
ENDBRANCH   3   4
ENDBRANCH   2   3
ENDBRANCH   1   2
BRANCH   1  26
ATOM     26  C   UNL     1       1.499 -10.734   4.969  1.00  0.00     0.116 C 
BRANCH  26  27
ATOM     27  N   UNL     1       1.729 -11.246   3.625  1.00  0.00    -0.352 N 
ATOM     28  C   UNL     1       1.752 -12.558   3.217  1.00  0.00     0.251 C 
ATOM     29  H   UNL     1       1.887 -10.571   2.925  1.00  0.00     0.163 HD
ATOM     30  O   UNL     1       2.013 -12.860   2.058  1.00  0.00    -0.269 OA
BRANCH  28  31
ATOM     31  C   UNL     1       1.506 -13.603   4.225  1.00  0.00     0.039 A 
ATOM     32  C   UNL     1       2.511 -14.537   4.478  1.00  0.00     0.014 A 
ATOM     33  C   UNL     1       0.335 -13.578   4.988  1.00  0.00     0.014 A 
ATOM     34  C   UNL     1       2.378 -15.402   5.561  1.00  0.00     0.010 A 
ATOM     35  C   UNL     1       0.231 -14.402   6.102  1.00  0.00     0.010 A 
ATOM     36  C   UNL     1       1.258 -15.309   6.405  1.00  0.00    -0.014 A 
BRANCH  36  37
ATOM     37  C   UNL     1       1.163 -16.143   7.625  1.00  0.00     0.031 A 
ATOM     38  C   UNL     1       0.131 -17.225   7.718  1.00  0.00     0.074 A 
ATOM     39  C   UNL     1       1.987 -15.895   8.661  1.00  0.00     0.049 A 
ATOM     40  N   UNL     1      -0.097 -18.060   8.699  1.00  0.00    -0.248 NA
ATOM     41  C   UNL     1      -0.776 -17.379   6.569  1.00  0.00     0.031 C 
ATOM     42  C   UNL     1       3.005 -14.843   8.704  1.00  0.00     0.029 A 
ATOM     43  N   UNL     1       2.103 -16.521   9.876  1.00  0.00    -0.354 N 
ATOM     44  C   UNL     1      -1.173 -18.834   8.288  1.00  0.00     0.074 A 
ATOM     45  C   UNL     1      -1.586 -18.338   6.994  1.00  0.00     0.031 C 
ATOM     46  C   UNL     1       3.674 -14.928   9.866  1.00  0.00     0.029 A 
ATOM     47  C   UNL     1       3.115 -16.020  10.657  1.00  0.00     0.049 A 
ATOM     48  H   UNL     1       1.517 -17.259  10.161  1.00  0.00     0.167 HD
ATOM     49  C   UNL     1      -1.749 -19.883   8.919  1.00  0.00     0.031 A 
ATOM     50  C   UNL     1       3.554 -16.408  11.869  1.00  0.00     0.031 A 
ATOM     51  C   UNL     1      -1.334 -20.386  10.199  1.00  0.00     0.049 A 
ATOM     52  C   UNL     1       2.888 -17.565  12.556  1.00  0.00     0.074 A 
ATOM     53  C   UNL     1      -1.827 -21.471  10.901  1.00  0.00     0.029 A 
ATOM     54  N   UNL     1      -0.321 -19.835  10.967  1.00  0.00    -0.354 N 
ATOM     55  N   UNL     1       1.904 -18.319  12.132  1.00  0.00    -0.248 NA
ATOM     56  C   UNL     1       3.398 -17.926  13.887  1.00  0.00     0.031 C 
ATOM     57  C   UNL     1      -1.130 -21.560  12.110  1.00  0.00     0.029 A 
ATOM     58  C   UNL     1      -0.182 -20.549  12.144  1.00  0.00     0.049 A 
ATOM     59  H   UNL     1       0.219 -19.052  10.714  1.00  0.00     0.167 HD
ATOM     60  C   UNL     1       1.688 -19.255  13.133  1.00  0.00     0.074 A 
ATOM     61  C   UNL     1       2.648 -18.980  14.183  1.00  0.00     0.031 C 
ATOM     62  C   UNL     1       0.776 -20.256  13.177  1.00  0.00     0.031 A 
BRANCH  49  63
ATOM     63  C   UNL     1      -2.888 -20.559   8.215  1.00  0.00    -0.014 A 
ATOM     64  C   UNL     1      -2.655 -21.381   7.101  1.00  0.00     0.009 A 
ATOM     65  C   UNL     1      -4.202 -20.385   8.673  1.00  0.00     0.009 A 
ATOM     66  C   UNL     1      -3.722 -21.988   6.437  1.00  0.00     0.001 A 
ATOM     67  C   UNL     1      -5.264 -21.012   8.020  1.00  0.00     0.001 A 
ATOM     68  C   UNL     1      -5.024 -21.805   6.899  1.00  0.00     0.000 A 
ENDBRANCH  49  63
BRANCH  50  69
ATOM     69  C   UNL     1       4.718 -15.727  12.485  1.00  0.00    -0.014 A 
ATOM     70  C   UNL     1       5.976 -16.350  12.485  1.00  0.00     0.009 A 
ATOM     71  C   UNL     1       4.588 -14.453  13.057  1.00  0.00     0.009 A 
ATOM     72  C   UNL     1       7.079 -15.715  13.058  1.00  0.00     0.001 A 
ATOM     73  C   UNL     1       5.698 -13.813  13.615  1.00  0.00     0.001 A 
ATOM     74  C   UNL     1       6.941 -14.447  13.619  1.00  0.00     0.000 A 
ENDBRANCH  50  69
BRANCH  62  75
ATOM     75  C   UNL     1       0.778 -21.136  14.390  1.00  0.00    -0.014 A 
ATOM     76  C   UNL     1       0.193 -20.706  15.590  1.00  0.00     0.009 A 
ATOM     77  C   UNL     1       1.305 -22.433  14.310  1.00  0.00     0.009 A 
ATOM     78  C   UNL     1       0.149 -21.558  16.695  1.00  0.00     0.001 A 
ATOM     79  C   UNL     1       1.243 -23.289  15.410  1.00  0.00     0.001 A 
ATOM     80  C   UNL     1       0.668 -22.849  16.602  1.00  0.00     0.000 A 
ENDBRANCH  62  75
ENDBRANCH  36  37
ENDBRANCH  28  31
ENDBRANCH  26  27
ENDBRANCH   1  26
TORSDOF 12
