REMARK SMILES O=C(C[C@H]1S/C(=[NH+]\N=C\c2cc(Br)ccc2OCc2ccccc2)NC1=O)NCCCCNC(=O)c1ccc(-c2c3nc(c(-c4ccccc4)c4ccc([nH]4)c(-c4ccccc4)c4nc(c(-c5ccccc5)c5ccc2[nH]5)C=C4)C=C3)cc1
REMARK SMILES IDX 1 1 2 2 28 3 3 5 4 6 5 7 26 8 6 9 25 10 27 11 7 12 8 15 9 16
REMARK SMILES IDX 10 17 11 18 16 19 12 20 15 21 13 22 14 23 17 24 18 25 19 26
REMARK SMILES IDX 20 27 24 28 21 29 23 30 22 31 29 32 30 33 31 34 32 35 33 36
REMARK SMILES IDX 34 37 35 39 36 40 37 41 83 42 38 43 82 44 39 45 40 46 41 47
REMARK SMILES IDX 76 48 42 49 81 50 75 51 77 52 43 53 80 54 74 55 73 56 44 58
REMARK SMILES IDX 66 59 51 60 65 61 52 62 55 63 64 64 78 65 53 66 54 67 63 69
REMARK SMILES IDX 79 70 56 71 45 72 46 73 50 74 47 75 49 76 48 77 67 78 68 79
REMARK SMILES IDX 72 80 69 81 71 82 70 83 57 84 58 85 62 86 59 87 61 88 60 89
REMARK H PARENT 28 4 25 13 7 14 33 38 77 57 55 68
REMARK Flexibility Score: inf
ROOT
ATOM      1  O   UNL     1       1.050   0.223  -0.344  1.00  0.00    -0.275 OA
ATOM      2  C   UNL     1       2.220   0.024  -0.045  1.00  0.00     0.221 C 
ATOM      3  N   UNL     1       2.792   0.436   1.137  1.00  0.00    -0.356 N 
ATOM      4  H   UNL     1       3.744   0.236   1.289  1.00  0.00     0.163 HD
ENDROOT
BRANCH   2   5
ATOM      5  C   UNL     1       3.181  -0.701  -0.973  1.00  0.00     0.127 C 
BRANCH   5   6
ATOM      6  C   UNL     1       4.105   0.203  -1.785  1.00  0.00     0.183 C 
ATOM      7  S   UNL     1       3.454   0.606  -3.446  1.00  0.00    -0.020 SA
ATOM      8  C   UNL     1       4.369   1.547  -1.136  1.00  0.00     0.322 C 
ATOM      9  C   UNL     1       3.529   2.316  -3.167  1.00  0.00     0.337 C 
ATOM     10  N   UNL     1       3.939   2.582  -1.905  1.00  0.00    -0.202 N 
ATOM     11  O   UNL     1       4.924   1.686  -0.050  1.00  0.00    -0.246 OA
ATOM     12  N   UNL     1       3.282   3.296  -3.967  1.00  0.00    -0.142 N 
ATOM     13  H   UNL     1       3.926   3.502  -1.552  1.00  0.00     0.316 HD
ATOM     14  H   UNL     1       3.238   4.227  -3.651  1.00  0.00     0.343 HD
BRANCH  12  15
ATOM     15  N   UNL     1       3.081   2.960  -5.306  1.00  0.00    -0.093 NA
ATOM     16  C   UNL     1       2.058   3.591  -5.785  1.00  0.00     0.170 C 
BRANCH  16  17
ATOM     17  C   UNL     1       1.752   3.594  -7.216  1.00  0.00     0.040 A 
ATOM     18  C   UNL     1       0.940   2.533  -7.646  1.00  0.00     0.029 A 
ATOM     19  C   UNL     1       2.156   4.599  -8.109  1.00  0.00     0.128 A 
ATOM     20  C   UNL     1       0.538   2.464  -8.976  1.00  0.00     0.018 A 
ATOM     21  C   UNL     1       1.761   4.481  -9.452  1.00  0.00     0.048 A 
ATOM     22  Br  UNL     1      -0.596   1.064  -9.546  1.00  0.00    -0.051 Br
ATOM     23  C   UNL     1       0.953   3.429  -9.887  1.00  0.00     0.019 A 
BRANCH  19  24
ATOM     24  O   UNL     1       2.865   5.749  -7.906  1.00  0.00    -0.488 OA
BRANCH  24  25
ATOM     25  C   UNL     1       3.206   6.236  -6.607  1.00  0.00     0.265 C 
BRANCH  25  26
ATOM     26  C   UNL     1       2.027   6.644  -5.748  1.00  0.00    -0.011 A 
ATOM     27  C   UNL     1       2.168   6.636  -4.351  1.00  0.00     0.007 A 
ATOM     28  C   UNL     1       0.775   6.951  -6.299  1.00  0.00     0.007 A 
ATOM     29  C   UNL     1       1.056   6.816  -3.527  1.00  0.00     0.000 A 
ATOM     30  C   UNL     1      -0.336   7.125  -5.474  1.00  0.00     0.000 A 
ATOM     31  C   UNL     1      -0.199   7.037  -4.090  1.00  0.00     0.000 A 
ENDBRANCH  25  26
ENDBRANCH  24  25
ENDBRANCH  19  24
ENDBRANCH  16  17
ENDBRANCH  12  15
ENDBRANCH   5   6
ENDBRANCH   2   5
BRANCH   3  32
ATOM     32  C   UNL     1       2.068   1.148   2.171  1.00  0.00     0.116 C 
BRANCH  32  33
ATOM     33  C   UNL     1       2.473   0.686   3.571  1.00  0.00     0.023 C 
BRANCH  33  34
ATOM     34  C   UNL     1       3.963   0.820   3.907  1.00  0.00     0.023 C 
BRANCH  34  35
ATOM     35  C   UNL     1       4.534   2.232   3.818  1.00  0.00     0.116 C 
BRANCH  35  36
ATOM     36  N   UNL     1       3.967   3.127   4.814  1.00  0.00    -0.352 N 
ATOM     37  C   UNL     1       4.588   3.887   5.777  1.00  0.00     0.251 C 
ATOM     38  H   UNL     1       2.985   3.200   4.797  1.00  0.00     0.163 HD
ATOM     39  O   UNL     1       3.914   4.456   6.631  1.00  0.00    -0.269 OA
BRANCH  37  40
ATOM     40  C   UNL     1       6.064   4.006   5.815  1.00  0.00     0.039 A 
ATOM     41  C   UNL     1       6.712   3.939   7.052  1.00  0.00     0.014 A 
ATOM     42  C   UNL     1       6.811   4.209   4.651  1.00  0.00     0.014 A 
ATOM     43  C   UNL     1       8.108   4.003   7.115  1.00  0.00     0.010 A 
ATOM     44  C   UNL     1       8.204   4.201   4.707  1.00  0.00     0.010 A 
ATOM     45  C   UNL     1       8.869   4.095   5.939  1.00  0.00    -0.014 A 
BRANCH  45  46
ATOM     46  C   UNL     1      10.355   4.065   5.978  1.00  0.00     0.031 A 
ATOM     47  C   UNL     1      11.158   5.251   5.515  1.00  0.00     0.074 A 
ATOM     48  C   UNL     1      10.989   2.941   6.370  1.00  0.00     0.049 A 
ATOM     49  N   UNL     1      12.458   5.383   5.423  1.00  0.00    -0.248 NA
ATOM     50  C   UNL     1      10.402   6.436   5.080  1.00  0.00     0.031 C 
ATOM     51  C   UNL     1      10.334   1.708   6.813  1.00  0.00     0.029 A 
ATOM     52  N   UNL     1      12.329   2.653   6.454  1.00  0.00    -0.354 N 
ATOM     53  C   UNL     1      12.673   6.654   4.903  1.00  0.00     0.074 A 
ATOM     54  C   UNL     1      11.371   7.235   4.659  1.00  0.00     0.031 C 
ATOM     55  C   UNL     1      11.273   0.808   7.148  1.00  0.00     0.029 A 
ATOM     56  C   UNL     1      12.592   1.380   6.902  1.00  0.00     0.049 A 
ATOM     57  H   UNL     1      13.035   3.297   6.216  1.00  0.00     0.167 HD
ATOM     58  C   UNL     1      13.847   7.287   4.665  1.00  0.00     0.031 A 
ATOM     59  C   UNL     1      13.762   0.740   7.085  1.00  0.00     0.031 A 
ATOM     60  C   UNL     1      15.144   6.715   4.914  1.00  0.00     0.049 A 
ATOM     61  C   UNL     1      15.050   1.456   6.786  1.00  0.00     0.074 A 
ATOM     62  C   UNL     1      16.389   7.302   4.760  1.00  0.00     0.029 A 
ATOM     63  N   UNL     1      15.365   5.422   5.363  1.00  0.00    -0.354 N 
ATOM     64  N   UNL     1      15.236   2.682   6.362  1.00  0.00    -0.248 NA
ATOM     65  C   UNL     1      16.292   0.699   7.002  1.00  0.00     0.031 C 
ATOM     66  C   UNL     1      17.364   6.346   5.059  1.00  0.00     0.029 A 
ATOM     67  C   UNL     1      16.727   5.184   5.461  1.00  0.00     0.049 A 
ATOM     68  H   UNL     1      14.660   4.771   5.580  1.00  0.00     0.167 HD
ATOM     69  C   UNL     1      16.613   2.853   6.291  1.00  0.00     0.074 A 
ATOM     70  C   UNL     1      17.214   1.612   6.731  1.00  0.00     0.031 C 
ATOM     71  C   UNL     1      17.315   3.944   5.899  1.00  0.00     0.031 A 
BRANCH  58  72
ATOM     72  C   UNL     1      13.783   8.676   4.091  1.00  0.00    -0.014 A 
ATOM     73  C   UNL     1      13.320   9.761   4.853  1.00  0.00     0.009 A 
ATOM     74  C   UNL     1      14.234   8.911   2.783  1.00  0.00     0.009 A 
ATOM     75  C   UNL     1      13.274  11.044   4.304  1.00  0.00     0.001 A 
ATOM     76  C   UNL     1      14.216  10.200   2.247  1.00  0.00     0.001 A 
ATOM     77  C   UNL     1      13.727  11.264   3.004  1.00  0.00     0.000 A 
ENDBRANCH  58  72
BRANCH  59  78
ATOM     78  C   UNL     1      13.777  -0.659   7.589  1.00  0.00    -0.014 A 
ATOM     79  C   UNL     1      14.256  -0.947   8.877  1.00  0.00     0.009 A 
ATOM     80  C   UNL     1      13.329  -1.717   6.781  1.00  0.00     0.009 A 
ATOM     81  C   UNL     1      14.314  -2.265   9.334  1.00  0.00     0.001 A 
ATOM     82  C   UNL     1      13.359  -3.031   7.253  1.00  0.00     0.001 A 
ATOM     83  C   UNL     1      13.861  -3.305   8.524  1.00  0.00     0.000 A 
ENDBRANCH  59  78
BRANCH  71  84
ATOM     84  C   UNL     1      18.815   3.860   5.966  1.00  0.00    -0.014 A 
ATOM     85  C   UNL     1      19.544   3.068   5.066  1.00  0.00     0.009 A 
ATOM     86  C   UNL     1      19.509   4.616   6.923  1.00  0.00     0.009 A 
ATOM     87  C   UNL     1      20.938   3.009   5.146  1.00  0.00     0.001 A 
ATOM     88  C   UNL     1      20.903   4.580   6.981  1.00  0.00     0.001 A 
ATOM     89  C   UNL     1      21.615   3.769   6.100  1.00  0.00     0.000 A 
ENDBRANCH  71  84
ENDBRANCH  45  46
ENDBRANCH  37  40
ENDBRANCH  35  36
ENDBRANCH  34  35
ENDBRANCH  33  34
ENDBRANCH  32  33
ENDBRANCH   3  32
TORSDOF 17
