REMARK SMILES CCCCCCNC(=O)Oc1cccc(-c2ccc([C@@H](C)C(=O)NCCCCNC(=O)c3ccc(-c4c5nc(c(-c6ccccc6)c6ccc([nH]6)c(-c6ccccc6)c6nc(c(-c7ccccc7)c7ccc4[nH]7)C=C6)C=C5)cc3)cc2F)c1
REMARK SMILES IDX 20 1 21 2 19 3 16 4 17 5 81 6 18 7 80 8 82 9 15 10 11 11
REMARK SMILES IDX 12 12 83 13 13 14 14 15 10 16 8 17 7 18 9 20 6 21 5 22 4 23
REMARK SMILES IDX 3 24 2 25 1 26 22 27 23 28 24 29 25 31 26 32 27 33 28 34
REMARK SMILES IDX 29 35 30 36 31 38 32 39 33 40 79 41 34 42 78 43 35 44 36 45
REMARK SMILES IDX 37 46 72 47 38 48 77 49 71 50 73 51 39 52 76 53 70 54 69 55
REMARK SMILES IDX 40 57 62 58 47 59 61 60 48 61 51 62 60 63 74 64 49 65 50 66
REMARK SMILES IDX 59 68 75 69 52 70 41 71 42 72 46 73 43 74 45 75 44 76 63 77
REMARK SMILES IDX 64 78 68 79 65 80 67 81 66 82 53 83 54 84 58 85 55 86 57 87
REMARK SMILES IDX 56 88
REMARK H PARENT 7 19 24 30 29 37 73 56 51 67
REMARK Flexibility Score: inf
ROOT
ATOM      1  C   UNL     1      -5.081   6.109 -12.267  1.00  0.00     0.105 C 
ATOM      2  C   UNL     1      -6.282   6.602 -13.075  1.00  0.00     0.023 C 
ENDROOT
BRANCH   1   3
ATOM      3  C   UNL     1      -5.273   6.039 -10.761  1.00  0.00    -0.033 A 
ATOM      4  C   UNL     1      -5.391   5.937  -7.897  1.00  0.00     0.018 A 
ATOM      5  C   UNL     1      -5.942   7.004  -8.627  1.00  0.00     0.012 A 
ATOM      6  C   UNL     1      -4.827   4.898  -8.653  1.00  0.00     0.131 A 
ATOM      7  C   UNL     1      -5.921   7.035 -10.027  1.00  0.00     0.005 A 
ATOM      8  C   UNL     1      -4.745   4.953 -10.049  1.00  0.00     0.044 A 
ATOM      9  F   UNL     1      -4.339   3.801  -8.053  1.00  0.00    -0.206 F 
BRANCH   4  10
ATOM     10  C   UNL     1      -5.400   5.947  -6.414  1.00  0.00    -0.012 A 
ATOM     11  C   UNL     1      -4.374   5.426  -4.267  1.00  0.00     0.133 A 
ATOM     12  C   UNL     1      -5.418   6.030  -3.576  1.00  0.00     0.047 A 
ATOM     13  C   UNL     1      -4.356   5.377  -5.663  1.00  0.00     0.056 A 
ATOM     14  C   UNL     1      -6.458   6.605  -4.295  1.00  0.00     0.004 A 
ATOM     15  C   UNL     1      -6.451   6.553  -5.693  1.00  0.00     0.009 A 
BRANCH  11  16
ATOM     16  O   UNL     1      -3.412   4.755  -3.497  1.00  0.00    -0.410 OA
BRANCH  16  17
ATOM     17  C   UNL     1      -2.079   5.086  -3.676  1.00  0.00     0.412 C 
ATOM     18  N   UNL     1      -1.239   4.339  -2.895  1.00  0.00    -0.321 N 
ATOM     19  H   UNL     1      -0.276   4.530  -2.973  1.00  0.00     0.167 HD
ATOM     20  O   UNL     1      -1.643   5.954  -4.423  1.00  0.00    -0.224 OA
BRANCH  18  21
ATOM     21  C   UNL     1      -1.623   3.296  -1.965  1.00  0.00     0.119 C 
BRANCH  21  22
ATOM     22  C   UNL     1      -1.016   1.944  -2.339  1.00  0.00     0.021 C 
BRANCH  22  23
ATOM     23  C   UNL     1       0.513   1.880  -2.253  1.00  0.00     0.002 C 
BRANCH  23  24
ATOM     24  C   UNL     1       1.112   2.206  -0.880  1.00  0.00    -0.000 C 
BRANCH  24  25
ATOM     25  C   UNL     1       0.622   1.332   0.277  1.00  0.00    -0.003 C 
ATOM     26  C   UNL     1       0.977  -0.138   0.113  1.00  0.00     0.004 C 
ENDBRANCH  24  25
ENDBRANCH  23  24
ENDBRANCH  22  23
ENDBRANCH  21  22
ENDBRANCH  18  21
ENDBRANCH  16  17
ENDBRANCH  11  16
ENDBRANCH   4  10
ENDBRANCH   1   3
BRANCH   1  27
ATOM     27  C   UNL     1      -3.745   6.746 -12.687  1.00  0.00     0.227 C 
ATOM     28  O   UNL     1      -2.842   6.037 -13.147  1.00  0.00    -0.274 OA
ATOM     29  N   UNL     1      -3.479   8.078 -12.598  1.00  0.00    -0.356 N 
ATOM     30  H   UNL     1      -2.606   8.342 -12.970  1.00  0.00     0.163 HD
BRANCH  29  31
ATOM     31  C   UNL     1      -4.250   9.177 -12.055  1.00  0.00     0.116 C 
BRANCH  31  32
ATOM     32  C   UNL     1      -3.857   9.499 -10.613  1.00  0.00     0.023 C 
BRANCH  32  33
ATOM     33  C   UNL     1      -2.683  10.465 -10.465  1.00  0.00     0.023 C 
BRANCH  33  34
ATOM     34  C   UNL     1      -2.906  11.852 -11.054  1.00  0.00     0.116 C 
BRANCH  34  35
ATOM     35  N   UNL     1      -4.062  12.553 -10.512  1.00  0.00    -0.352 N 
ATOM     36  C   UNL     1      -4.221  13.909 -10.338  1.00  0.00     0.251 C 
ATOM     37  H   UNL     1      -4.820  11.989 -10.236  1.00  0.00     0.163 HD
ATOM     38  O   UNL     1      -5.226  14.362  -9.801  1.00  0.00    -0.269 OA
BRANCH  36  39
ATOM     39  C   UNL     1      -3.133  14.811 -10.766  1.00  0.00     0.039 A 
ATOM     40  C   UNL     1      -2.609  15.723  -9.847  1.00  0.00     0.014 A 
ATOM     41  C   UNL     1      -2.581  14.693 -12.043  1.00  0.00     0.014 A 
ATOM     42  C   UNL     1      -1.473  16.461 -10.184  1.00  0.00     0.010 A 
ATOM     43  C   UNL     1      -1.405  15.368 -12.347  1.00  0.00     0.010 A 
ATOM     44  C   UNL     1      -0.837  16.256 -11.420  1.00  0.00    -0.014 A 
BRANCH  44  45
ATOM     45  C   UNL     1       0.420  16.961 -11.773  1.00  0.00     0.031 A 
ATOM     46  C   UNL     1       0.442  17.907 -12.941  1.00  0.00     0.074 A 
ATOM     47  C   UNL     1       1.554  16.698 -11.092  1.00  0.00     0.049 A 
ATOM     48  N   UNL     1       1.456  18.544 -13.470  1.00  0.00    -0.248 NA
ATOM     49  C   UNL     1      -0.841  18.147 -13.624  1.00  0.00     0.031 C 
ATOM     50  C   UNL     1       1.675  15.774  -9.962  1.00  0.00     0.029 A 
ATOM     51  N   UNL     1       2.827  17.183 -11.261  1.00  0.00    -0.354 N 
ATOM     52  C   UNL     1       0.937  19.242 -14.553  1.00  0.00     0.074 A 
ATOM     53  C   UNL     1      -0.468  18.910 -14.640  1.00  0.00     0.031 C 
ATOM     54  C   UNL     1       2.945  15.781  -9.523  1.00  0.00     0.029 A 
ATOM     55  C   UNL     1       3.735  16.675 -10.363  1.00  0.00     0.049 A 
ATOM     56  H   UNL     1       3.067  17.833 -11.960  1.00  0.00     0.167 HD
ATOM     57  C   UNL     1       1.566  20.104 -15.386  1.00  0.00     0.031 A 
ATOM     58  C   UNL     1       5.056  16.900 -10.236  1.00  0.00     0.031 A 
ATOM     59  C   UNL     1       2.957  20.451 -15.289  1.00  0.00     0.049 A 
ATOM     60  C   UNL     1       5.733  17.852 -11.186  1.00  0.00     0.074 A 
ATOM     61  C   UNL     1       3.678  21.344 -16.063  1.00  0.00     0.029 A 
ATOM     62  N   UNL     1       3.835  19.927 -14.355  1.00  0.00    -0.354 N 
ATOM     63  N   UNL     1       5.216  18.543 -12.172  1.00  0.00    -0.248 NA
ATOM     64  C   UNL     1       7.175  18.061 -10.995  1.00  0.00     0.031 C 
ATOM     65  C   UNL     1       5.004  21.334 -15.618  1.00  0.00     0.029 A 
ATOM     66  C   UNL     1       5.095  20.471 -14.537  1.00  0.00     0.049 A 
ATOM     67  H   UNL     1       3.599  19.267 -13.664  1.00  0.00     0.167 HD
ATOM     68  C   UNL     1       6.260  19.294 -12.695  1.00  0.00     0.074 A 
ATOM     69  C   UNL     1       7.436  18.984 -11.909  1.00  0.00     0.031 C 
ATOM     70  C   UNL     1       6.247  20.164 -13.734  1.00  0.00     0.031 A 
BRANCH  57  71
ATOM     71  C   UNL     1       0.744  20.740 -16.470  1.00  0.00    -0.014 A 
ATOM     72  C   UNL     1      -0.220  21.715 -16.167  1.00  0.00     0.009 A 
ATOM     73  C   UNL     1       0.961  20.392 -17.812  1.00  0.00     0.009 A 
ATOM     74  C   UNL     1      -0.972  22.306 -17.184  1.00  0.00     0.001 A 
ATOM     75  C   UNL     1       0.227  21.006 -18.829  1.00  0.00     0.001 A 
ATOM     76  C   UNL     1      -0.744  21.955 -18.514  1.00  0.00     0.000 A 
ENDBRANCH  57  71
BRANCH  58  77
ATOM     77  C   UNL     1       5.837  16.231  -9.163  1.00  0.00    -0.014 A 
ATOM     78  C   UNL     1       6.349  16.976  -8.088  1.00  0.00     0.009 A 
ATOM     79  C   UNL     1       6.109  14.856  -9.223  1.00  0.00     0.009 A 
ATOM     80  C   UNL     1       7.147  16.365  -7.118  1.00  0.00     0.001 A 
ATOM     81  C   UNL     1       6.882  14.242  -8.236  1.00  0.00     0.001 A 
ATOM     82  C   UNL     1       7.412  14.999  -7.192  1.00  0.00     0.000 A 
ENDBRANCH  58  77
BRANCH  70  83
ATOM     83  C   UNL     1       7.529  20.882 -14.045  1.00  0.00    -0.014 A 
ATOM     84  C   UNL     1       8.605  20.223 -14.658  1.00  0.00     0.009 A 
ATOM     85  C   UNL     1       7.639  22.253 -13.761  1.00  0.00     0.009 A 
ATOM     86  C   UNL     1       9.780  20.918 -14.951  1.00  0.00     0.001 A 
ATOM     87  C   UNL     1       8.804  22.950 -14.081  1.00  0.00     0.001 A 
ATOM     88  C   UNL     1       9.876  22.280 -14.668  1.00  0.00     0.000 A 
ENDBRANCH  70  83
ENDBRANCH  44  45
ENDBRANCH  36  39
ENDBRANCH  34  35
ENDBRANCH  33  34
ENDBRANCH  32  33
ENDBRANCH  31  32
ENDBRANCH  29  31
ENDBRANCH   1  27
TORSDOF 20
