REMARK SMILES CC(C)CCOc1ccccc1-c1cc(C(=O)NCCCCNC(=O)c2ccc(-c3c4nc(c(-c5ccccc5)c5ccc([nH]5)c(-c5ccccc5)c5nc(c(-c6ccccc6)c6ccc3[nH]6)C=C5)C=C4)cc2)no1
REMARK SMILES IDX 19 1 18 2 16 3 17 4 15 6 13 7 14 8 75 9 74 10 12 11 7 12
REMARK SMILES IDX 8 13 9 14 11 15 10 16 6 17 5 18 4 19 2 20 1 21 3 22 20 23
REMARK SMILES IDX 21 24 22 25 23 26 24 27 25 29 26 30 27 31 73 32 28 33 72 34
REMARK SMILES IDX 29 35 30 36 31 37 66 38 32 39 71 40 65 41 67 42 33 43 70 44
REMARK SMILES IDX 64 45 63 46 34 48 56 49 41 50 55 51 42 52 45 53 54 54 68 55
REMARK SMILES IDX 43 56 44 57 53 59 69 60 46 61 35 62 36 63 40 64 37 65 39 66
REMARK SMILES IDX 38 67 57 68 58 69 62 70 59 71 61 72 60 73 47 74 48 75 52 76
REMARK SMILES IDX 49 77 51 78 50 79
REMARK H PARENT 18 5 23 28 67 47 45 58
REMARK Flexibility Score: inf
ROOT
ATOM      1  C   UNL     1      -2.851   4.550  -0.428  1.00  0.00     0.116 C 
ENDROOT
BRANCH   1   2
ATOM      2  N   UNL     1      -2.599   4.157  -1.803  1.00  0.00    -0.351 N 
ATOM      3  C   UNL     1      -1.719   3.254  -2.371  1.00  0.00     0.273 C 
ATOM      4  O   UNL     1      -1.891   2.991  -3.561  1.00  0.00    -0.267 OA
ATOM      5  H   UNL     1      -3.166   4.624  -2.459  1.00  0.00     0.163 HD
BRANCH   3   6
ATOM      6  C   UNL     1      -0.607   2.678  -1.594  1.00  0.00     0.171 A 
ATOM      7  C   UNL     1       1.314   2.512   0.557  1.00  0.00     0.171 A 
ATOM      8  C   UNL     1      -0.020   3.271   0.055  1.00  0.00     0.088 A 
ATOM      9  O   UNL     1       1.853   1.344  -0.822  1.00  0.00    -0.355 OA
ATOM     10  N   UNL     1       0.437   1.517  -2.244  1.00  0.00    -0.074 NA
BRANCH   7  11
ATOM     11  C   UNL     1       1.688   2.167   1.920  1.00  0.00     0.062 A 
ATOM     12  C   UNL     1       0.653   1.767   2.806  1.00  0.00     0.130 A 
ATOM     13  C   UNL     1       0.961   1.341   4.091  1.00  0.00     0.047 A 
ATOM     14  C   UNL     1       2.295   1.325   4.500  1.00  0.00     0.004 A 
ATOM     15  C   UNL     1       3.015   2.155   2.335  1.00  0.00     0.016 A 
ATOM     16  C   UNL     1       3.312   1.746   3.635  1.00  0.00     0.001 A 
BRANCH  12  17
ATOM     17  O   UNL     1      -0.684   1.905   2.483  1.00  0.00    -0.493 OA
BRANCH  17  18
ATOM     18  C   UNL     1      -1.260   0.796   1.764  1.00  0.00     0.230 C 
BRANCH  18  19
ATOM     19  C   UNL     1      -1.351   1.074   0.242  1.00  0.00     0.044 C 
BRANCH  19  20
ATOM     20  C   UNL     1       0.179   1.187  -0.439  1.00  0.00    -0.014 C 
ATOM     21  C   UNL     1       0.370  -0.483  -0.992  1.00  0.00     0.007 C 
ATOM     22  C   UNL     1       1.367   2.865  -1.396  1.00  0.00     0.007 C 
ENDBRANCH  19  20
ENDBRANCH  18  19
ENDBRANCH  17  18
ENDBRANCH  12  17
ENDBRANCH   7  11
ENDBRANCH   3   6
ENDBRANCH   1   2
BRANCH   1  23
ATOM     23  C   UNL     1      -2.298   5.934  -0.087  1.00  0.00     0.023 C 
BRANCH  23  24
ATOM     24  C   UNL     1      -3.197   7.082  -0.540  1.00  0.00     0.023 C 
BRANCH  24  25
ATOM     25  C   UNL     1      -4.618   7.028   0.008  1.00  0.00     0.116 C 
BRANCH  25  26
ATOM     26  N   UNL     1      -4.679   7.070   1.463  1.00  0.00    -0.352 N 
ATOM     27  C   UNL     1      -5.551   7.782   2.253  1.00  0.00     0.251 C 
ATOM     28  H   UNL     1      -4.014   6.521   1.939  1.00  0.00     0.163 HD
ATOM     29  O   UNL     1      -5.399   7.836   3.468  1.00  0.00    -0.269 OA
BRANCH  27  30
ATOM     30  C   UNL     1      -6.650   8.522   1.603  1.00  0.00     0.039 A 
ATOM     31  C   UNL     1      -6.815   9.876   1.895  1.00  0.00     0.014 A 
ATOM     32  C   UNL     1      -7.449   7.897   0.640  1.00  0.00     0.014 A 
ATOM     33  C   UNL     1      -7.729  10.627   1.156  1.00  0.00     0.010 A 
ATOM     34  C   UNL     1      -8.291   8.665  -0.154  1.00  0.00     0.010 A 
ATOM     35  C   UNL     1      -8.431  10.040   0.088  1.00  0.00    -0.014 A 
BRANCH  35  36
ATOM     36  C   UNL     1      -9.275  10.863  -0.814  1.00  0.00     0.031 A 
ATOM     37  C   UNL     1     -10.749  10.601  -0.930  1.00  0.00     0.074 A 
ATOM     38  C   UNL     1      -8.695  11.810  -1.579  1.00  0.00     0.049 A 
ATOM     39  N   UNL     1     -11.631  11.190  -1.697  1.00  0.00    -0.248 NA
ATOM     40  C   UNL     1     -11.302   9.525  -0.092  1.00  0.00     0.031 C 
ATOM     41  C   UNL     1      -7.267  12.137  -1.584  1.00  0.00     0.029 A 
ATOM     42  N   UNL     1      -9.234  12.671  -2.502  1.00  0.00    -0.354 N 
ATOM     43  C   UNL     1     -12.838  10.552  -1.440  1.00  0.00     0.074 A 
ATOM     44  C   UNL     1     -12.565   9.497  -0.490  1.00  0.00     0.031 C 
ATOM     45  C   UNL     1      -7.051  13.150  -2.437  1.00  0.00     0.029 A 
ATOM     46  C   UNL     1      -8.309  13.502  -3.087  1.00  0.00     0.049 A 
ATOM     47  H   UNL     1     -10.193  12.691  -2.724  1.00  0.00     0.167 HD
ATOM     48  C   UNL     1     -14.065  10.831  -1.941  1.00  0.00     0.031 A 
ATOM     49  C   UNL     1      -8.449  14.430  -4.052  1.00  0.00     0.031 A 
ATOM     50  C   UNL     1     -14.328  11.872  -2.900  1.00  0.00     0.049 A 
ATOM     51  C   UNL     1      -9.813  14.677  -4.635  1.00  0.00     0.074 A 
ATOM     52  C   UNL     1     -15.545  12.263  -3.430  1.00  0.00     0.029 A 
ATOM     53  N   UNL     1     -13.360  12.673  -3.486  1.00  0.00    -0.354 N 
ATOM     54  N   UNL     1     -10.959  14.124  -4.319  1.00  0.00    -0.248 NA
ATOM     55  C   UNL     1      -9.903  15.680  -5.706  1.00  0.00     0.031 C 
ATOM     56  C   UNL     1     -15.304  13.239  -4.401  1.00  0.00     0.029 A 
ATOM     57  C   UNL     1     -13.947  13.521  -4.411  1.00  0.00     0.049 A 
ATOM     58  H   UNL     1     -12.399  12.644  -3.275  1.00  0.00     0.167 HD
ATOM     59  C   UNL     1     -11.908  14.727  -5.135  1.00  0.00     0.074 A 
ATOM     60  C   UNL     1     -11.208  15.707  -5.939  1.00  0.00     0.031 C 
ATOM     61  C   UNL     1     -13.239  14.486  -5.213  1.00  0.00     0.031 A 
BRANCH  48  62
ATOM     62  C   UNL     1     -15.215   9.973  -1.485  1.00  0.00    -0.014 A 
ATOM     63  C   UNL     1     -15.673  10.003  -0.158  1.00  0.00     0.009 A 
ATOM     64  C   UNL     1     -15.880   9.154  -2.411  1.00  0.00     0.009 A 
ATOM     65  C   UNL     1     -16.743   9.198   0.241  1.00  0.00     0.001 A 
ATOM     66  C   UNL     1     -16.973   8.380  -2.019  1.00  0.00     0.001 A 
ATOM     67  C   UNL     1     -17.396   8.393  -0.692  1.00  0.00     0.000 A 
ENDBRANCH  48  62
BRANCH  49  68
ATOM     68  C   UNL     1      -7.262  15.180  -4.544  1.00  0.00    -0.014 A 
ATOM     69  C   UNL     1      -7.150  16.564  -4.340  1.00  0.00     0.009 A 
ATOM     70  C   UNL     1      -6.236  14.515  -5.235  1.00  0.00     0.009 A 
ATOM     71  C   UNL     1      -6.054  17.268  -4.845  1.00  0.00     0.001 A 
ATOM     72  C   UNL     1      -5.122  15.214  -5.703  1.00  0.00     0.001 A 
ATOM     73  C   UNL     1      -5.038  16.593  -5.519  1.00  0.00     0.000 A 
ENDBRANCH  49  68
BRANCH  61  74
ATOM     74  C   UNL     1     -14.037  15.311  -6.187  1.00  0.00    -0.014 A 
ATOM     75  C   UNL     1     -13.892  15.149  -7.573  1.00  0.00     0.009 A 
ATOM     76  C   UNL     1     -14.991  16.224  -5.707  1.00  0.00     0.009 A 
ATOM     77  C   UNL     1     -14.662  15.908  -8.458  1.00  0.00     0.001 A 
ATOM     78  C   UNL     1     -15.786  16.952  -6.593  1.00  0.00     0.001 A 
ATOM     79  C   UNL     1     -15.614  16.801  -7.967  1.00  0.00     0.000 A 
ENDBRANCH  61  74
ENDBRANCH  35  36
ENDBRANCH  27  30
ENDBRANCH  25  26
ENDBRANCH  24  25
ENDBRANCH  23  24
ENDBRANCH   1  23
TORSDOF 16
