REMARK SMILES Cc1cc(C[N@@H+]2CC[C@@H](C(=O)NCCCCNC(=O)c3ccc(-c4c5nc(c(-c6ccccc6)c6ccc([nH]6)c(-c6ccccc6)c6nc(c(-c7ccccc7)c7ccc4[nH]7)C=C6)C=C5)cc3)C2)ccc1Br
REMARK SMILES IDX 14 1 13 2 12 3 10 4 11 5 9 7 6 8 7 9 68 10 8 12 5 13 4 14
REMARK SMILES IDX 1 15 2 16 3 17 71 18 70 19 72 20 69 21 15 22 16 23 17 24
REMARK SMILES IDX 18 25 19 27 20 28 21 29 67 30 22 31 66 32 23 33 24 34 25 35
REMARK SMILES IDX 60 36 26 37 65 38 59 39 61 40 27 41 64 42 58 43 57 44 28 46
REMARK SMILES IDX 50 47 35 48 49 49 36 50 39 51 48 52 62 53 37 54 38 55 47 57
REMARK SMILES IDX 63 58 40 59 29 60 30 61 34 62 31 63 33 64 32 65 51 66 52 67
REMARK SMILES IDX 56 68 53 69 55 70 54 71 41 72 42 73 46 74 43 75 45 76 44 77
REMARK H PARENT 12 6 6 11 17 26 61 45 39 56
REMARK Flexibility Score: inf
ROOT
ATOM      1  C   UNL     1       7.039   3.742  -3.652  1.00  0.00     0.023 C 
ENDROOT
BRANCH   1   2
ATOM      2  C   UNL     1       5.531   3.683  -3.472  1.00  0.00     0.116 C 
BRANCH   2   3
ATOM      3  N   UNL     1       4.846   2.790  -4.373  1.00  0.00    -0.356 N 
ATOM      4  C   UNL     1       3.903   1.845  -4.094  1.00  0.00     0.229 C 
ATOM      5  O   UNL     1       3.395   1.262  -5.058  1.00  0.00    -0.275 OA
ATOM      6  H   UNL     1       5.093   2.875  -5.323  1.00  0.00     0.163 HD
BRANCH   4   7
ATOM      7  C   UNL     1       3.513   1.442  -2.668  1.00  0.00     0.139 C 
ATOM      8  N   UNL     1       4.694   1.053  -0.601  1.00  0.00    -0.330 N 
ATOM      9  C   UNL     1       4.170   2.412  -0.533  1.00  0.00     0.263 C 
ATOM     10  C   UNL     1       4.586   0.597  -1.991  1.00  0.00     0.276 C 
ATOM     11  H   UNL     1       5.681   1.064  -0.341  1.00  0.00     0.348 HD
ATOM     12  C   UNL     1       3.169   2.552  -1.679  1.00  0.00     0.081 C 
BRANCH   8  13
ATOM     13  C   UNL     1       4.191   0.128   0.421  1.00  0.00     0.299 C 
BRANCH  13  14
ATOM     14  C   UNL     1       2.691  -0.068   0.505  1.00  0.00     0.007 A 
ATOM     15  C   UNL     1       0.110  -2.721  -0.396  1.00  0.00     0.045 C 
ATOM     16  C   UNL     1       0.696  -1.420   0.071  1.00  0.00    -0.036 A 
ATOM     17  C   UNL     1       2.091  -1.235   0.013  1.00  0.00     0.014 A 
ATOM     18  C   UNL     1      -0.102  -0.376   0.561  1.00  0.00     0.020 A 
ATOM     19  C   UNL     1       0.484   0.774   1.085  1.00  0.00     0.016 A 
ATOM     20  Br  UNL     1      -1.999  -0.454   0.544  1.00  0.00    -0.051 Br
ATOM     21  C   UNL     1       1.871   0.901   1.099  1.00  0.00     0.011 A 
ENDBRANCH  13  14
ENDBRANCH   8  13
ENDBRANCH   4   7
ENDBRANCH   2   3
ENDBRANCH   1   2
BRANCH   1  22
ATOM     22  C   UNL     1       7.532   4.820  -4.607  1.00  0.00     0.023 C 
BRANCH  22  23
ATOM     23  C   UNL     1       7.039   6.234  -4.322  1.00  0.00     0.116 C 
BRANCH  23  24
ATOM     24  N   UNL     1       7.310   6.717  -2.972  1.00  0.00    -0.352 N 
ATOM     25  C   UNL     1       7.672   7.992  -2.593  1.00  0.00     0.251 C 
ATOM     26  H   UNL     1       7.225   6.055  -2.248  1.00  0.00     0.163 HD
ATOM     27  O   UNL     1       7.915   8.265  -1.423  1.00  0.00    -0.269 OA
BRANCH  25  28
ATOM     28  C   UNL     1       7.813   9.017  -3.645  1.00  0.00     0.039 A 
ATOM     29  C   UNL     1       9.049   9.644  -3.817  1.00  0.00     0.014 A 
ATOM     30  C   UNL     1       6.764   9.242  -4.539  1.00  0.00     0.014 A 
ATOM     31  C   UNL     1       9.264  10.428  -4.951  1.00  0.00     0.010 A 
ATOM     32  C   UNL     1       7.008   9.956  -5.705  1.00  0.00     0.010 A 
ATOM     33  C   UNL     1       8.262  10.547  -5.929  1.00  0.00    -0.014 A 
BRANCH  33  34
ATOM     34  C   UNL     1       8.501  11.275  -7.199  1.00  0.00     0.031 A 
ATOM     35  C   UNL     1       7.683  12.493  -7.526  1.00  0.00     0.074 A 
ATOM     36  C   UNL     1       9.385  10.795  -8.097  1.00  0.00     0.049 A 
ATOM     37  N   UNL     1       7.670  13.210  -8.620  1.00  0.00    -0.248 NA
ATOM     38  C   UNL     1       6.730  12.944  -6.498  1.00  0.00     0.031 C 
ATOM     39  C   UNL     1      10.206   9.594  -7.926  1.00  0.00     0.029 A 
ATOM     40  N   UNL     1       9.731  11.258  -9.342  1.00  0.00    -0.354 N 
ATOM     41  C   UNL     1       6.690  14.175  -8.424  1.00  0.00     0.074 A 
ATOM     42  C   UNL     1       6.098  13.922  -7.128  1.00  0.00     0.031 C 
ATOM     43  C   UNL     1      10.979   9.431  -9.013  1.00  0.00     0.029 A 
ATOM     44  C   UNL     1      10.683  10.491  -9.971  1.00  0.00     0.049 A 
ATOM     45  H   UNL     1       9.335  12.063  -9.746  1.00  0.00     0.167 HD
ATOM     46  C   UNL     1       6.329  15.194  -9.237  1.00  0.00     0.031 A 
ATOM     47  C   UNL     1      11.250  10.625 -11.185  1.00  0.00     0.031 A 
ATOM     48  C   UNL     1       6.934  15.464 -10.512  1.00  0.00     0.049 A 
ATOM     49  C   UNL     1      10.842  11.774 -12.065  1.00  0.00     0.074 A 
ATOM     50  C   UNL     1       6.684  16.512 -11.380  1.00  0.00     0.029 A 
ATOM     51  N   UNL     1       7.916  14.681 -11.098  1.00  0.00    -0.354 N 
ATOM     52  N   UNL     1       9.962  12.717 -11.835  1.00  0.00    -0.248 NA
ATOM     53  C   UNL     1      11.515  11.881 -13.367  1.00  0.00     0.031 C 
ATOM     54  C   UNL     1       7.488  16.341 -12.512  1.00  0.00     0.029 A 
ATOM     55  C   UNL     1       8.272  15.213 -12.325  1.00  0.00     0.049 A 
ATOM     56  H   UNL     1       8.303  13.867 -10.701  1.00  0.00     0.167 HD
ATOM     57  C   UNL     1       9.996  13.546 -12.949  1.00  0.00     0.074 A 
ATOM     58  C   UNL     1      10.992  13.000 -13.848  1.00  0.00     0.031 C 
ATOM     59  C   UNL     1       9.269  14.661 -13.203  1.00  0.00     0.031 A 
BRANCH  46  60
ATOM     60  C   UNL     1       5.223  16.092  -8.762  1.00  0.00    -0.014 A 
ATOM     61  C   UNL     1       5.418  16.982  -7.694  1.00  0.00     0.009 A 
ATOM     62  C   UNL     1       3.974  16.061  -9.403  1.00  0.00     0.009 A 
ATOM     63  C   UNL     1       4.372  17.794  -7.250  1.00  0.00     0.001 A 
ATOM     64  C   UNL     1       2.940  16.895  -8.976  1.00  0.00     0.001 A 
ATOM     65  C   UNL     1       3.136  17.752  -7.894  1.00  0.00     0.000 A 
ENDBRANCH  46  60
BRANCH  47  66
ATOM     66  C   UNL     1      12.286   9.660 -11.636  1.00  0.00    -0.014 A 
ATOM     67  C   UNL     1      13.632  10.050 -11.713  1.00  0.00     0.009 A 
ATOM     68  C   UNL     1      11.937   8.351 -12.001  1.00  0.00     0.009 A 
ATOM     69  C   UNL     1      14.603   9.157 -12.171  1.00  0.00     0.001 A 
ATOM     70  C   UNL     1      12.915   7.452 -12.434  1.00  0.00     0.001 A 
ATOM     71  C   UNL     1      14.245   7.859 -12.528  1.00  0.00     0.000 A 
ENDBRANCH  47  66
BRANCH  59  72
ATOM     72  C   UNL     1       9.551  15.388 -14.486  1.00  0.00    -0.014 A 
ATOM     73  C   UNL     1       9.117  14.882 -15.720  1.00  0.00     0.009 A 
ATOM     74  C   UNL     1      10.217  16.623 -14.450  1.00  0.00     0.009 A 
ATOM     75  C   UNL     1       9.369  15.589 -16.898  1.00  0.00     0.001 A 
ATOM     76  C   UNL     1      10.445  17.339 -15.625  1.00  0.00     0.001 A 
ATOM     77  C   UNL     1      10.027  16.817 -16.849  1.00  0.00     0.000 A 
ENDBRANCH  59  72
ENDBRANCH  33  34
ENDBRANCH  25  28
ENDBRANCH  23  24
ENDBRANCH  22  23
ENDBRANCH   1  22
TORSDOF 13
