REMARK SMILES Cc1csc(C[C@@H](Cc2ccc(Br)cc2)C(=O)NCCCCNC(=O)c2ccc(-c3c4nc(c(-c5ccccc5)c5ccc([nH]5)c(-c5ccccc5)c5nc(c(-c6ccccc6)c6ccc3[nH]6)C=C5)C=C4)cc2)n1
REMARK SMILES IDX 20 1 19 2 18 3 16 4 17 5 7 7 6 8 5 9 1 10 2 11 3 12 74 13
REMARK SMILES IDX 4 14 8 15 9 16 10 17 15 18 11 19 14 20 12 21 13 22 21 23
REMARK SMILES IDX 22 24 23 25 24 26 25 28 26 29 27 30 73 31 28 32 72 33 29 34
REMARK SMILES IDX 30 35 31 36 66 37 32 38 71 39 65 40 67 41 33 42 70 43 64 44
REMARK SMILES IDX 63 45 34 47 56 48 41 49 55 50 42 51 45 52 54 53 68 54 43 55
REMARK SMILES IDX 44 56 53 58 69 59 46 60 35 61 36 62 40 63 37 64 39 65 38 66
REMARK SMILES IDX 57 67 58 68 62 69 59 70 61 71 60 72 47 73 48 74 52 75 49 76
REMARK SMILES IDX 51 77 50 78
REMARK H PARENT 18 6 23 27 67 46 45 57
REMARK Flexibility Score: inf
ROOT
ATOM      1  C   UNL     1       2.393   5.228   2.510  1.00  0.00     0.023 C 
ENDROOT
BRANCH   1   2
ATOM      2  C   UNL     1       1.460   5.181   1.309  1.00  0.00     0.116 C 
BRANCH   2   3
ATOM      3  N   UNL     1       2.146   5.166   0.033  1.00  0.00    -0.356 N 
ATOM      4  C   UNL     1       1.891   4.449  -1.096  1.00  0.00     0.223 C 
ATOM      5  O   UNL     1       2.495   4.792  -2.119  1.00  0.00    -0.275 OA
ATOM      6  H   UNL     1       2.920   5.771  -0.027  1.00  0.00     0.163 HD
BRANCH   4   7
ATOM      7  C   UNL     1       0.931   3.259  -1.144  1.00  0.00     0.089 C 
BRANCH   7   8
ATOM      8  C   UNL     1       1.339   2.176  -0.134  1.00  0.00     0.081 C 
BRANCH   8   9
ATOM      9  C   UNL     1       0.588   0.886  -0.253  1.00  0.00     0.094 A 
ATOM     10  C   UNL     1      -2.572  -0.815  -0.076  1.00  0.00     0.067 C 
ATOM     11  C   UNL     1      -1.119  -0.529  -0.169  1.00  0.00     0.048 A 
ATOM     12  C   UNL     1      -0.083  -1.439  -0.216  1.00  0.00     0.090 A 
ATOM     13  N   UNL     1      -0.721   0.793  -0.193  1.00  0.00    -0.247 NA
ATOM     14  S   UNL     1       1.419  -0.618  -0.310  1.00  0.00    -0.127 S 
ENDBRANCH   8   9
ENDBRANCH   7   8
BRANCH   7  15
ATOM     15  C   UNL     1      -0.549   3.683  -1.297  1.00  0.00     0.049 C 
BRANCH  15  16
ATOM     16  C   UNL     1      -1.249   4.418  -0.179  1.00  0.00    -0.047 A 
ATOM     17  C   UNL     1      -1.692   3.748   0.971  1.00  0.00     0.005 A 
ATOM     18  C   UNL     1      -1.483   5.799  -0.281  1.00  0.00     0.005 A 
ATOM     19  C   UNL     1      -2.297   4.447   2.019  1.00  0.00     0.016 A 
ATOM     20  C   UNL     1      -2.099   6.499   0.760  1.00  0.00     0.016 A 
ATOM     21  C   UNL     1      -2.492   5.820   1.911  1.00  0.00     0.017 A 
ATOM     22  Br  UNL     1      -3.292   6.770   3.334  1.00  0.00    -0.051 Br
ENDBRANCH  15  16
ENDBRANCH   7  15
ENDBRANCH   4   7
ENDBRANCH   2   3
ENDBRANCH   1   2
BRANCH   1  23
ATOM     23  C   UNL     1       2.954   6.612   2.825  1.00  0.00     0.023 C 
BRANCH  23  24
ATOM     24  C   UNL     1       1.926   7.734   2.962  1.00  0.00     0.116 C 
BRANCH  24  25
ATOM     25  N   UNL     1       0.857   7.455   3.912  1.00  0.00    -0.352 N 
ATOM     26  C   UNL     1       0.285   8.297   4.838  1.00  0.00     0.251 C 
ATOM     27  H   UNL     1       0.494   6.540   3.887  1.00  0.00     0.163 HD
ATOM     28  O   UNL     1      -0.545   7.877   5.638  1.00  0.00    -0.269 OA
BRANCH  26  29
ATOM     29  C   UNL     1       0.727   9.705   4.904  1.00  0.00     0.039 A 
ATOM     30  C   UNL     1       1.116  10.226   6.140  1.00  0.00     0.014 A 
ATOM     31  C   UNL     1       0.830  10.479   3.745  1.00  0.00     0.014 A 
ATOM     32  C   UNL     1       1.714  11.486   6.198  1.00  0.00     0.010 A 
ATOM     33  C   UNL     1       1.490  11.703   3.794  1.00  0.00     0.010 A 
ATOM     34  C   UNL     1       1.960  12.206   5.017  1.00  0.00    -0.014 A 
BRANCH  34  35
ATOM     35  C   UNL     1       2.758  13.456   5.037  1.00  0.00     0.031 A 
ATOM     36  C   UNL     1       2.137  14.765   4.647  1.00  0.00     0.074 A 
ATOM     37  C   UNL     1       4.071  13.394   5.338  1.00  0.00     0.049 A 
ATOM     38  N   UNL     1       2.693  15.947   4.560  1.00  0.00    -0.248 NA
ATOM     39  C   UNL     1       0.711  14.741   4.285  1.00  0.00     0.031 C 
ATOM     40  C   UNL     1       4.807  12.174   5.683  1.00  0.00     0.029 A 
ATOM     41  N   UNL     1       5.022  14.381   5.396  1.00  0.00    -0.354 N 
ATOM     42  C   UNL     1       1.692  16.802   4.122  1.00  0.00     0.074 A 
ATOM     43  C   UNL     1       0.507  15.998   3.917  1.00  0.00     0.031 C 
ATOM     44  C   UNL     1       6.085  12.491   5.948  1.00  0.00     0.029 A 
ATOM     45  C   UNL     1       6.267  13.926   5.757  1.00  0.00     0.049 A 
ATOM     46  H   UNL     1       4.831  15.326   5.198  1.00  0.00     0.167 HD
ATOM     47  C   UNL     1       1.748  18.141   3.925  1.00  0.00     0.031 A 
ATOM     48  C   UNL     1       7.428  14.589   5.916  1.00  0.00     0.031 A 
ATOM     49  C   UNL     1       2.921  18.945   4.136  1.00  0.00     0.049 A 
ATOM     50  C   UNL     1       7.463  16.073   5.690  1.00  0.00     0.074 A 
ATOM     51  C   UNL     1       3.062  20.316   4.014  1.00  0.00     0.029 A 
ATOM     52  N   UNL     1       4.159  18.447   4.513  1.00  0.00    -0.354 N 
ATOM     53  N   UNL     1       6.489  16.877   5.340  1.00  0.00    -0.248 NA
ATOM     54  C   UNL     1       8.757  16.741   5.889  1.00  0.00     0.031 C 
ATOM     55  C   UNL     1       4.396  20.644   4.281  1.00  0.00     0.029 A 
ATOM     56  C   UNL     1       5.074  19.482   4.611  1.00  0.00     0.049 A 
ATOM     57  H   UNL     1       4.358  17.498   4.686  1.00  0.00     0.167 HD
ATOM     58  C   UNL     1       7.045  18.149   5.302  1.00  0.00     0.074 A 
ATOM     59  C   UNL     1       8.438  18.010   5.677  1.00  0.00     0.031 C 
ATOM     60  C   UNL     1       6.455  19.326   4.984  1.00  0.00     0.031 A 
BRANCH  47  61
ATOM     61  C   UNL     1       0.492  18.818   3.454  1.00  0.00    -0.014 A 
ATOM     62  C   UNL     1      -0.606  18.985   4.313  1.00  0.00     0.009 A 
ATOM     63  C   UNL     1       0.414  19.317   2.145  1.00  0.00     0.009 A 
ATOM     64  C   UNL     1      -1.771  19.605   3.859  1.00  0.00     0.001 A 
ATOM     65  C   UNL     1      -0.744  19.960   1.702  1.00  0.00     0.001 A 
ATOM     66  C   UNL     1      -1.838  20.095   2.556  1.00  0.00     0.000 A 
ENDBRANCH  47  61
BRANCH  48  67
ATOM     67  C   UNL     1       8.651  13.859   6.337  1.00  0.00    -0.014 A 
ATOM     68  C   UNL     1       9.158  14.018   7.636  1.00  0.00     0.009 A 
ATOM     69  C   UNL     1       9.321  13.008   5.445  1.00  0.00     0.009 A 
ATOM     70  C   UNL     1      10.326  13.358   8.025  1.00  0.00     0.001 A 
ATOM     71  C   UNL     1      10.475  12.331   5.845  1.00  0.00     0.001 A 
ATOM     72  C   UNL     1      10.981  12.513   7.131  1.00  0.00     0.000 A 
ENDBRANCH  48  67
BRANCH  60  73
ATOM     73  C   UNL     1       7.307  20.559   5.058  1.00  0.00    -0.014 A 
ATOM     74  C   UNL     1       8.273  20.833   4.078  1.00  0.00     0.009 A 
ATOM     75  C   UNL     1       7.115  21.475   6.104  1.00  0.00     0.009 A 
ATOM     76  C   UNL     1       9.052  21.989   4.162  1.00  0.00     0.001 A 
ATOM     77  C   UNL     1       7.878  22.641   6.171  1.00  0.00     0.001 A 
ATOM     78  C   UNL     1       8.851  22.893   5.205  1.00  0.00     0.000 A 
ENDBRANCH  60  73
ENDBRANCH  34  35
ENDBRANCH  26  29
ENDBRANCH  24  25
ENDBRANCH  23  24
ENDBRANCH   1  23
TORSDOF 15
