REMARK SMILES O=C(NCCCCNC(=O)c1ccccc1SCc1ccccc1F)c1ccc(-c2c3nc(c(-c4ccccc4)c4ccc([nH]4)c(-c4ccccc4)c4nc(c(-c5ccccc5)c5ccc2[nH]5)C=C4)C=C3)cc1
REMARK SMILES IDX 6 1 5 2 4 3 3 4 1 5 2 6 26 8 27 9 73 10 28 11 72 12 29 13
REMARK SMILES IDX 30 14 31 15 66 16 32 17 71 18 65 19 67 20 33 21 70 22 64 23
REMARK SMILES IDX 63 24 34 26 56 27 41 28 55 29 42 30 45 31 54 32 68 33 43 34
REMARK SMILES IDX 44 35 53 37 69 38 46 39 35 40 36 41 40 42 37 43 39 44 38 45
REMARK SMILES IDX 57 46 58 47 62 48 59 49 61 50 60 51 47 52 48 53 52 54 49 55
REMARK SMILES IDX 51 56 50 57 7 58 8 59 9 60 10 62 11 63 12 64 16 65 13 66
REMARK SMILES IDX 15 67 14 68 17 69 18 70 19 71 20 72 24 73 21 74 23 75 25 76
REMARK SMILES IDX 22 77
REMARK H PARENT 3 7 67 25 45 36 8 61
REMARK Flexibility Score: inf
ROOT
ATOM      1  C   UNL     1       2.817   3.771  -1.807  1.00  0.00     0.023 C 
ENDROOT
BRANCH   1   2
ATOM      2  C   UNL     1       3.479   2.402  -1.545  1.00  0.00     0.023 C 
BRANCH   2   3
ATOM      3  C   UNL     1       3.548   1.890  -0.100  1.00  0.00     0.116 C 
BRANCH   3   4
ATOM      4  N   UNL     1       2.302   1.250   0.303  1.00  0.00    -0.352 N 
ATOM      5  O   UNL     1       0.718  -0.318   0.438  1.00  0.00    -0.269 OA
ATOM      6  C   UNL     1       1.923  -0.071   0.361  1.00  0.00     0.251 C 
ATOM      7  H   UNL     1       1.602   1.881   0.586  1.00  0.00     0.163 HD
BRANCH   6   8
ATOM      8  C   UNL     1       2.877  -1.218   0.365  1.00  0.00     0.039 A 
ATOM      9  C   UNL     1       4.082  -1.198   1.069  1.00  0.00     0.014 A 
ATOM     10  C   UNL     1       2.453  -2.435  -0.198  1.00  0.00     0.014 A 
ATOM     11  C   UNL     1       4.865  -2.362   1.173  1.00  0.00     0.010 A 
ATOM     12  C   UNL     1       3.211  -3.610  -0.050  1.00  0.00     0.010 A 
ATOM     13  C   UNL     1       4.428  -3.591   0.644  1.00  0.00    -0.014 A 
BRANCH  13  14
ATOM     14  C   UNL     1       5.182  -4.855   0.926  1.00  0.00     0.031 A 
ATOM     15  C   UNL     1       5.831  -5.660  -0.173  1.00  0.00     0.074 A 
ATOM     16  C   UNL     1       5.272  -5.300   2.197  1.00  0.00     0.049 A 
ATOM     17  N   UNL     1       6.539  -6.762  -0.082  1.00  0.00    -0.248 NA
ATOM     18  C   UNL     1       5.661  -5.172  -1.548  1.00  0.00     0.031 C 
ATOM     19  C   UNL     1       4.666  -4.651   3.361  1.00  0.00     0.029 A 
ATOM     20  N   UNL     1       5.915  -6.395   2.729  1.00  0.00    -0.354 N 
ATOM     21  C   UNL     1       6.894  -7.102  -1.383  1.00  0.00     0.074 A 
ATOM     22  C   UNL     1       6.295  -6.105  -2.248  1.00  0.00     0.031 C 
ATOM     23  C   UNL     1       5.003  -5.327   4.470  1.00  0.00     0.029 A 
ATOM     24  C   UNL     1       5.800  -6.492   4.097  1.00  0.00     0.049 A 
ATOM     25  H   UNL     1       6.410  -7.047   2.183  1.00  0.00     0.167 HD
ATOM     26  C   UNL     1       7.652  -8.139  -1.821  1.00  0.00     0.031 A 
ATOM     27  C   UNL     1       6.265  -7.415   4.962  1.00  0.00     0.031 A 
ATOM     28  C   UNL     1       8.239  -9.145  -0.969  1.00  0.00     0.049 A 
ATOM     29  C   UNL     1       7.069  -8.576   4.446  1.00  0.00     0.074 A 
ATOM     30  C   UNL     1       9.051 -10.210  -1.326  1.00  0.00     0.029 A 
ATOM     31  N   UNL     1       8.070  -9.221   0.404  1.00  0.00    -0.354 N 
ATOM     32  N   UNL     1       7.442  -8.841   3.218  1.00  0.00    -0.248 NA
ATOM     33  C   UNL     1       7.517  -9.564   5.438  1.00  0.00     0.031 C 
ATOM     34  C   UNL     1       9.323 -10.963  -0.179  1.00  0.00     0.029 A 
ATOM     35  C   UNL     1       8.736 -10.331   0.904  1.00  0.00     0.049 A 
ATOM     36  H   UNL     1       7.553  -8.582   0.946  1.00  0.00     0.167 HD
ATOM     37  C   UNL     1       8.185 -10.012   3.294  1.00  0.00     0.074 A 
ATOM     38  C   UNL     1       8.232 -10.392   4.690  1.00  0.00     0.031 C 
ATOM     39  C   UNL     1       8.773 -10.711   2.292  1.00  0.00     0.031 A 
BRANCH  26  40
ATOM     40  C   UNL     1       7.883  -8.262  -3.305  1.00  0.00    -0.014 A 
ATOM     41  C   UNL     1       8.716  -7.363  -3.990  1.00  0.00     0.009 A 
ATOM     42  C   UNL     1       7.317  -9.333  -4.016  1.00  0.00     0.009 A 
ATOM     43  C   UNL     1       8.949  -7.514  -5.360  1.00  0.00     0.001 A 
ATOM     44  C   UNL     1       7.575  -9.499  -5.379  1.00  0.00     0.001 A 
ATOM     45  C   UNL     1       8.383  -8.585  -6.052  1.00  0.00     0.000 A 
ENDBRANCH  26  40
BRANCH  27  46
ATOM     46  C   UNL     1       5.971  -7.291   6.416  1.00  0.00    -0.014 A 
ATOM     47  C   UNL     1       6.997  -7.030   7.338  1.00  0.00     0.009 A 
ATOM     48  C   UNL     1       4.660  -7.451   6.892  1.00  0.00     0.009 A 
ATOM     49  C   UNL     1       6.719  -6.957   8.706  1.00  0.00     0.001 A 
ATOM     50  C   UNL     1       4.379  -7.342   8.255  1.00  0.00     0.001 A 
ATOM     51  C   UNL     1       5.410  -7.106   9.162  1.00  0.00     0.000 A 
ENDBRANCH  27  46
BRANCH  39  52
ATOM     52  C   UNL     1       9.547 -11.943   2.677  1.00  0.00    -0.014 A 
ATOM     53  C   UNL     1       8.898 -13.104   3.128  1.00  0.00     0.009 A 
ATOM     54  C   UNL     1      10.946 -11.948   2.568  1.00  0.00     0.009 A 
ATOM     55  C   UNL     1       9.638 -14.228   3.500  1.00  0.00     0.001 A 
ATOM     56  C   UNL     1      11.681 -13.084   2.911  1.00  0.00     0.001 A 
ATOM     57  C   UNL     1      11.027 -14.219   3.388  1.00  0.00     0.000 A 
ENDBRANCH  39  52
ENDBRANCH  13  14
ENDBRANCH   6   8
ENDBRANCH   3   4
ENDBRANCH   2   3
ENDBRANCH   1   2
BRANCH   1  58
ATOM     58  C   UNL     1       3.658   5.025  -1.530  1.00  0.00     0.116 C 
BRANCH  58  59
ATOM     59  N   UNL     1       4.892   5.054  -2.331  1.00  0.00    -0.352 N 
ATOM     60  C   UNL     1       5.925   5.965  -2.400  1.00  0.00     0.252 C 
ATOM     61  H   UNL     1       5.000   4.279  -2.929  1.00  0.00     0.163 HD
ATOM     62  O   UNL     1       6.719   6.000  -3.345  1.00  0.00    -0.269 OA
BRANCH  60  63
ATOM     63  C   UNL     1       6.078   6.984  -1.387  1.00  0.00     0.053 A 
ATOM     64  C   UNL     1       6.076   8.291  -1.921  1.00  0.00     0.015 A 
ATOM     65  C   UNL     1       5.865   6.684  -0.049  1.00  0.00     0.020 A 
ATOM     66  C   UNL     1       5.529   9.322  -1.188  1.00  0.00     0.001 A 
ATOM     67  C   UNL     1       5.246   7.741   0.660  1.00  0.00     0.016 A 
ATOM     68  C   UNL     1       5.036   9.024   0.077  1.00  0.00     0.001 A 
BRANCH  65  69
ATOM     69  S   UNL     1       6.059   5.008   0.693  1.00  0.00    -0.120 SA
BRANCH  69  70
ATOM     70  C   UNL     1       7.427   3.984  -0.126  1.00  0.00     0.113 C 
BRANCH  70  71
ATOM     71  C   UNL     1       7.222   2.865  -1.178  1.00  0.00    -0.002 A 
ATOM     72  C   UNL     1       7.119   3.081  -2.561  1.00  0.00     0.007 A 
ATOM     73  C   UNL     1       7.404   1.510  -0.858  1.00  0.00     0.127 A 
ATOM     74  C   UNL     1       6.956   2.067  -3.527  1.00  0.00     0.001 A 
ATOM     75  C   UNL     1       7.365   0.474  -1.821  1.00  0.00     0.039 A 
ATOM     76  F   UNL     1       7.717   1.160   0.397  1.00  0.00    -0.207 F 
ATOM     77  C   UNL     1       7.085   0.746  -3.155  1.00  0.00     0.003 A 
ENDBRANCH  70  71
ENDBRANCH  69  70
ENDBRANCH  65  69
ENDBRANCH  60  63
ENDBRANCH  58  59
ENDBRANCH   1  58
TORSDOF 14
