REMARK SMILES O=C(NCCCCNC(=O)c1ccccc1Nc1nc(Cl)nc(Nc2ccc(N3CCOCC3=O)cc2)n1)c1ccc(-c2c3nc(c(-c4ccccc4)c4ccc([nH]4)c(-c4ccccc4)c4nc(c(-c5ccccc5)c5ccc2[nH]5)C=C4)C=C3)cc1
REMARK SMILES IDX 7 1 6 2 5 3 4 4 3 5 1 6 2 7 39 9 40 10 86 11 41 12 85 13
REMARK SMILES IDX 42 14 43 15 44 16 79 17 45 18 84 19 78 20 80 21 46 22 83 23
REMARK SMILES IDX 77 24 76 25 47 27 69 28 54 29 68 30 55 31 58 32 67 33 81 34
REMARK SMILES IDX 56 35 57 36 66 38 82 39 59 40 48 41 49 42 53 43 50 44 52 45
REMARK SMILES IDX 51 46 70 47 71 48 75 49 72 50 74 51 73 52 60 53 61 54 65 55
REMARK SMILES IDX 62 56 64 57 63 58 8 59 9 60 10 62 11 63 12 64 16 65 13 66
REMARK SMILES IDX 15 67 14 68 17 69 18 71 19 72 38 73 20 74 23 75 21 76 22 77
REMARK SMILES IDX 24 78 25 80 26 81 37 82 27 83 36 84 28 85 29 86 30 87 34 88
REMARK SMILES IDX 31 89 33 90 35 91 32 92
REMARK H PARENT 3 8 80 26 58 37 8 61 17 70 24 79
REMARK Flexibility Score: inf
ROOT
ATOM      1  C   UNL     1       4.902  -3.895  -1.895  1.00  0.00     0.116 C 
ENDROOT
BRANCH   1   2
ATOM      2  C   UNL     1       4.479  -3.793  -0.433  1.00  0.00     0.023 C 
BRANCH   2   3
ATOM      3  C   UNL     1       4.949  -2.541   0.304  1.00  0.00     0.023 C 
BRANCH   3   4
ATOM      4  C   UNL     1       4.651  -1.218  -0.391  1.00  0.00     0.116 C 
BRANCH   4   5
ATOM      5  N   UNL     1       3.228  -0.944  -0.524  1.00  0.00    -0.352 N 
ATOM      6  O   UNL     1       1.251   0.072  -0.130  1.00  0.00    -0.269 OA
ATOM      7  C   UNL     1       2.472   0.083  -0.005  1.00  0.00     0.251 C 
ATOM      8  H   UNL     1       2.728  -1.593  -1.071  1.00  0.00     0.163 HD
BRANCH   7   9
ATOM      9  C   UNL     1       3.123   1.181   0.743  1.00  0.00     0.039 A 
ATOM     10  C   UNL     1       4.287   1.783   0.265  1.00  0.00     0.014 A 
ATOM     11  C   UNL     1       2.567   1.602   1.955  1.00  0.00     0.014 A 
ATOM     12  C   UNL     1       4.999   2.653   1.085  1.00  0.00     0.010 A 
ATOM     13  C   UNL     1       3.234   2.552   2.734  1.00  0.00     0.010 A 
ATOM     14  C   UNL     1       4.486   3.042   2.333  1.00  0.00    -0.014 A 
BRANCH  14  15
ATOM     15  C   UNL     1       5.282   3.960   3.192  1.00  0.00     0.031 A 
ATOM     16  C   UNL     1       5.816   3.509   4.527  1.00  0.00     0.074 A 
ATOM     17  C   UNL     1       5.575   5.193   2.737  1.00  0.00     0.049 A 
ATOM     18  N   UNL     1       6.586   4.157   5.367  1.00  0.00    -0.248 NA
ATOM     19  C   UNL     1       5.434   2.164   4.985  1.00  0.00     0.031 C 
ATOM     20  C   UNL     1       5.119   5.753   1.462  1.00  0.00     0.029 A 
ATOM     21  N   UNL     1       6.354   6.185   3.276  1.00  0.00    -0.354 N 
ATOM     22  C   UNL     1       6.755   3.314   6.459  1.00  0.00     0.074 A 
ATOM     23  C   UNL     1       5.991   2.116   6.187  1.00  0.00     0.031 C 
ATOM     24  C   UNL     1       5.678   6.960   1.288  1.00  0.00     0.029 A 
ATOM     25  C   UNL     1       6.483   7.283   2.461  1.00  0.00     0.049 A 
ATOM     26  H   UNL     1       6.778   6.117   4.162  1.00  0.00     0.167 HD
ATOM     27  C   UNL     1       7.482   3.516   7.585  1.00  0.00     0.031 A 
ATOM     28  C   UNL     1       7.171   8.426   2.634  1.00  0.00     0.031 A 
ATOM     29  C   UNL     1       8.259   4.698   7.853  1.00  0.00     0.049 A 
ATOM     30  C   UNL     1       7.963   8.625   3.892  1.00  0.00     0.074 A 
ATOM     31  C   UNL     1       9.060   4.974   8.948  1.00  0.00     0.029 A 
ATOM     32  N   UNL     1       8.332   5.801   7.017  1.00  0.00    -0.354 N 
ATOM     33  N   UNL     1       8.138   7.802   4.897  1.00  0.00    -0.248 NA
ATOM     34  C   UNL     1       8.657   9.912   4.035  1.00  0.00     0.031 C 
ATOM     35  C   UNL     1       9.582   6.263   8.796  1.00  0.00     0.029 A 
ATOM     36  C   UNL     1       9.148   6.768   7.582  1.00  0.00     0.049 A 
ATOM     37  H   UNL     1       7.872   5.885   6.151  1.00  0.00     0.167 HD
ATOM     38  C   UNL     1       8.980   8.461   5.781  1.00  0.00     0.074 A 
ATOM     39  C   UNL     1       9.294   9.744   5.186  1.00  0.00     0.031 C 
ATOM     40  C   UNL     1       9.451   8.040   6.979  1.00  0.00     0.031 A 
BRANCH  27  41
ATOM     41  C   UNL     1       7.451   2.438   8.634  1.00  0.00    -0.014 A 
ATOM     42  C   UNL     1       8.123   1.219   8.453  1.00  0.00     0.009 A 
ATOM     43  C   UNL     1       6.772   2.666   9.841  1.00  0.00     0.009 A 
ATOM     44  C   UNL     1       8.087   0.238   9.448  1.00  0.00     0.001 A 
ATOM     45  C   UNL     1       6.759   1.694  10.843  1.00  0.00     0.001 A 
ATOM     46  C   UNL     1       7.409   0.477  10.642  1.00  0.00     0.000 A 
ENDBRANCH  27  41
BRANCH  28  47
ATOM     47  C   UNL     1       7.147   9.468   1.576  1.00  0.00    -0.014 A 
ATOM     48  C   UNL     1       8.290   9.723   0.802  1.00  0.00     0.009 A 
ATOM     49  C   UNL     1       5.980  10.207   1.330  1.00  0.00     0.009 A 
ATOM     50  C   UNL     1       8.268  10.710  -0.185  1.00  0.00     0.001 A 
ATOM     51  C   UNL     1       5.952  11.172   0.323  1.00  0.00     0.001 A 
ATOM     52  C   UNL     1       7.098  11.429  -0.428  1.00  0.00     0.000 A 
ENDBRANCH  28  47
BRANCH  40  53
ATOM     53  C   UNL     1      10.389   8.962   7.704  1.00  0.00    -0.014 A 
ATOM     54  C   UNL     1       9.927  10.134   8.323  1.00  0.00     0.009 A 
ATOM     55  C   UNL     1      11.753   8.643   7.781  1.00  0.00     0.009 A 
ATOM     56  C   UNL     1      10.821  10.988   8.972  1.00  0.00     0.001 A 
ATOM     57  C   UNL     1      12.640   9.485   8.454  1.00  0.00     0.001 A 
ATOM     58  C   UNL     1      12.175  10.661   9.039  1.00  0.00     0.000 A 
ENDBRANCH  40  53
ENDBRANCH  14  15
ENDBRANCH   7   9
ENDBRANCH   4   5
ENDBRANCH   3   4
ENDBRANCH   2   3
ENDBRANCH   1   2
BRANCH   1  59
ATOM     59  N   UNL     1       6.345  -3.849  -2.082  1.00  0.00    -0.352 N 
ATOM     60  C   UNL     1       7.115  -4.609  -2.930  1.00  0.00     0.253 C 
ATOM     61  H   UNL     1       6.830  -3.191  -1.532  1.00  0.00     0.163 HD
ATOM     62  O   UNL     1       8.329  -4.446  -2.991  1.00  0.00    -0.269 OA
BRANCH  60  63
ATOM     63  C   UNL     1       6.473  -5.659  -3.746  1.00  0.00     0.063 A 
ATOM     64  C   UNL     1       6.815  -6.986  -3.450  1.00  0.00     0.016 A 
ATOM     65  C   UNL     1       5.527  -5.350  -4.741  1.00  0.00     0.054 A 
ATOM     66  C   UNL     1       6.168  -8.030  -4.104  1.00  0.00     0.001 A 
ATOM     67  C   UNL     1       4.854  -6.421  -5.347  1.00  0.00     0.027 A 
ATOM     68  C   UNL     1       5.174  -7.747  -5.038  1.00  0.00     0.002 A 
BRANCH  65  69
ATOM     69  N   UNL     1       5.256  -4.022  -5.108  1.00  0.00    -0.323 N 
ATOM     70  H   UNL     1       6.003  -3.393  -4.981  1.00  0.00     0.170 HD
BRANCH  69  71
ATOM     71  C   UNL     1       4.095  -3.461  -5.623  1.00  0.00     0.233 A 
ATOM     72  N   UNL     1       2.917  -3.913  -5.224  1.00  0.00    -0.182 NA
ATOM     73  N   UNL     1       4.256  -2.472  -6.495  1.00  0.00    -0.176 NA
ATOM     74  C   UNL     1       1.894  -3.276  -5.766  1.00  0.00     0.228 A 
ATOM     75  C   UNL     1       3.151  -1.964  -7.033  1.00  0.00     0.233 A 
ATOM     76  Cl  UNL     1       0.343  -3.794  -5.273  1.00  0.00    -0.041 Cl
ATOM     77  N   UNL     1       1.929  -2.314  -6.668  1.00  0.00    -0.182 NA
BRANCH  75  78
ATOM     78  N   UNL     1       3.348  -1.116  -8.121  1.00  0.00    -0.324 N 
ATOM     79  H   UNL     1       4.282  -0.864  -8.306  1.00  0.00     0.170 HD
BRANCH  78  80
ATOM     80  C   UNL     1       2.390  -0.578  -8.983  1.00  0.00     0.041 A 
ATOM     81  C   UNL     1       2.456  -0.857 -10.352  1.00  0.00     0.028 A 
ATOM     82  C   UNL     1       1.296   0.144  -8.503  1.00  0.00     0.028 A 
ATOM     83  C   UNL     1       1.438  -0.442 -11.219  1.00  0.00     0.028 A 
ATOM     84  C   UNL     1       0.308   0.611  -9.375  1.00  0.00     0.028 A 
ATOM     85  C   UNL     1       0.357   0.304 -10.739  1.00  0.00     0.044 A 
BRANCH  85  86
ATOM     86  N   UNL     1      -0.703   0.694 -11.611  1.00  0.00    -0.308 N 
ATOM     87  C   UNL     1      -1.328  -0.369 -12.409  1.00  0.00     0.154 C 
ATOM     88  C   UNL     1      -1.329   1.938 -11.473  1.00  0.00     0.253 C 
ATOM     89  C   UNL     1      -2.245   0.158 -13.505  1.00  0.00     0.183 C 
ATOM     90  C   UNL     1      -2.539   2.178 -12.393  1.00  0.00     0.260 C 
ATOM     91  O   UNL     1      -0.918   2.855 -10.758  1.00  0.00    -0.272 OA
ATOM     92  O   UNL     1      -3.200   1.047 -12.935  1.00  0.00    -0.370 OA
ENDBRANCH  85  86
ENDBRANCH  78  80
ENDBRANCH  75  78
ENDBRANCH  69  71
ENDBRANCH  65  69
ENDBRANCH  60  63
ENDBRANCH   1  59
TORSDOF 16
