REMARK SMILES CC(C)C[C@H](CNC(=O)NC[C@H]1CCC(=O)N1)C(=O)NCCCCNC(=O)c1ccc(-c2c3nc(c(-c4ccccc4)c4ccc([nH]4)c(-c4ccccc4)c4nc(c(-c5ccccc5)c5ccc2[nH]5)C=C4)C=C3)cc1
REMARK SMILES IDX 21 1 20 2 18 3 19 4 5 6 4 7 2 8 1 9 3 10 6 11 7 12 8 13 9 15
REMARK SMILES IDX 10 16 11 18 12 19 13 20 17 21 14 22 15 23 16 25 22 26 23 27
REMARK SMILES IDX 24 28 25 29 26 30 27 32 28 33 29 34 75 35 30 36 74 37 31 38
REMARK SMILES IDX 32 39 33 40 68 41 34 42 73 43 67 44 69 45 35 46 72 47 66 48
REMARK SMILES IDX 65 49 36 51 58 52 43 53 57 54 44 55 47 56 56 57 70 58 45 59
REMARK SMILES IDX 46 60 55 62 71 63 48 64 37 65 38 66 42 67 39 68 41 69 40 70
REMARK SMILES IDX 59 71 60 72 64 73 61 74 63 75 62 76 49 77 50 78 54 79 51 80
REMARK SMILES IDX 53 81 52 82
REMARK H PARENT 20 5 7 14 10 17 17 24 25 31 69 50 47 61
REMARK Flexibility Score: inf
ROOT
ATOM      1  C   UNL     1      -2.417   0.405  10.225  1.00  0.00     0.116 C 
ENDROOT
BRANCH   1   2
ATOM      2  N   UNL     1      -2.404  -0.945  10.726  1.00  0.00    -0.356 N 
ATOM      3  C   UNL     1      -3.066  -2.040  10.262  1.00  0.00     0.224 C 
ATOM      4  O   UNL     1      -2.809  -3.119  10.804  1.00  0.00    -0.275 OA
ATOM      5  H   UNL     1      -1.837  -1.098  11.516  1.00  0.00     0.163 HD
BRANCH   3   6
ATOM      6  C   UNL     1      -4.143  -1.963   9.166  1.00  0.00     0.098 C 
BRANCH   6   7
ATOM      7  C   UNL     1      -3.647  -1.470   7.768  1.00  0.00     0.018 C 
BRANCH   7   8
ATOM      8  C   UNL     1      -4.398  -0.410   6.927  1.00  0.00    -0.017 C 
ATOM      9  C   UNL     1      -4.155   1.041   7.346  1.00  0.00     0.007 C 
ATOM     10  C   UNL     1      -3.987  -0.514   5.449  1.00  0.00     0.007 C 
ENDBRANCH   7   8
ENDBRANCH   6   7
BRANCH   6  11
ATOM     11  C   UNL     1      -5.528  -1.613   9.749  1.00  0.00     0.131 C 
BRANCH  11  12
ATOM     12  N   UNL     1      -5.598  -0.467  10.646  1.00  0.00    -0.337 N 
ATOM     13  C   UNL     1      -6.409   0.582  10.832  1.00  0.00     0.314 C 
ATOM     14  H   UNL     1      -4.850  -0.462  11.285  1.00  0.00     0.165 HD
ATOM     15  O   UNL     1      -6.372   1.152  11.924  1.00  0.00    -0.249 OA
ATOM     16  N   UNL     1      -7.229   1.083   9.904  1.00  0.00    -0.336 N 
ATOM     17  H   UNL     1      -7.918   1.692  10.256  1.00  0.00     0.165 HD
BRANCH  16  18
ATOM     18  C   UNL     1      -7.278   0.888   8.480  1.00  0.00     0.142 C 
BRANCH  18  19
ATOM     19  C   UNL     1      -8.692   0.799   7.895  1.00  0.00     0.101 C 
ATOM     20  C   UNL     1      -9.033   2.046   7.085  1.00  0.00     0.036 C 
ATOM     21  N   UNL     1      -8.757  -0.232   6.886  1.00  0.00    -0.352 N 
ATOM     22  C   UNL     1      -8.446   1.754   5.701  1.00  0.00     0.102 C 
ATOM     23  C   UNL     1      -8.542   0.254   5.616  1.00  0.00     0.220 C 
ATOM     24  H   UNL     1      -8.934  -1.180   7.085  1.00  0.00     0.163 HD
ATOM     25  O   UNL     1      -8.396  -0.432   4.616  1.00  0.00    -0.275 OA
ENDBRANCH  18  19
ENDBRANCH  16  18
ENDBRANCH  11  12
ENDBRANCH   6  11
ENDBRANCH   3   6
ENDBRANCH   1   2
BRANCH   1  26
ATOM     26  C   UNL     1      -3.114   1.403  11.141  1.00  0.00     0.023 C 
BRANCH  26  27
ATOM     27  C   UNL     1      -2.184   2.369  11.851  1.00  0.00     0.023 C 
BRANCH  27  28
ATOM     28  C   UNL     1      -1.312   3.209  10.936  1.00  0.00     0.116 C 
BRANCH  28  29
ATOM     29  N   UNL     1      -2.032   4.175  10.118  1.00  0.00    -0.352 N 
ATOM     30  C   UNL     1      -1.678   5.486   9.868  1.00  0.00     0.251 C 
ATOM     31  H   UNL     1      -2.864   3.858   9.697  1.00  0.00     0.163 HD
ATOM     32  O   UNL     1      -2.392   6.224   9.200  1.00  0.00    -0.269 OA
BRANCH  30  33
ATOM     33  C   UNL     1      -0.435   5.998  10.485  1.00  0.00     0.039 A 
ATOM     34  C   UNL     1      -0.504   7.114  11.320  1.00  0.00     0.014 A 
ATOM     35  C   UNL     1       0.750   5.267  10.371  1.00  0.00     0.014 A 
ATOM     36  C   UNL     1       0.594   7.437  12.120  1.00  0.00     0.010 A 
ATOM     37  C   UNL     1       1.790   5.518  11.256  1.00  0.00     0.010 A 
ATOM     38  C   UNL     1       1.728   6.607  12.139  1.00  0.00    -0.014 A 
BRANCH  38  39
ATOM     39  C   UNL     1       2.861   6.860  13.067  1.00  0.00     0.031 A 
ATOM     40  C   UNL     1       4.240   7.102  12.514  1.00  0.00     0.074 A 
ATOM     41  C   UNL     1       2.672   6.808  14.402  1.00  0.00     0.049 A 
ATOM     42  N   UNL     1       5.367   7.285  13.153  1.00  0.00    -0.248 NA
ATOM     43  C   UNL     1       4.377   7.103  11.047  1.00  0.00     0.031 C 
ATOM     44  C   UNL     1       1.401   6.529  15.073  1.00  0.00     0.029 A 
ATOM     45  N   UNL     1       3.558   6.988  15.437  1.00  0.00    -0.354 N 
ATOM     46  C   UNL     1       6.341   7.405  12.170  1.00  0.00     0.074 A 
ATOM     47  C   UNL     1       5.688   7.200  10.897  1.00  0.00     0.031 C 
ATOM     48  C   UNL     1       1.580   6.596  16.403  1.00  0.00     0.029 A 
ATOM     49  C   UNL     1       2.985   6.875  16.681  1.00  0.00     0.049 A 
ATOM     50  H   UNL     1       4.514   7.179  15.300  1.00  0.00     0.167 HD
ATOM     51  C   UNL     1       7.657   7.692  12.306  1.00  0.00     0.031 A 
ATOM     52  C   UNL     1       3.529   6.981  17.909  1.00  0.00     0.031 A 
ATOM     53  C   UNL     1       8.307   7.908  13.569  1.00  0.00     0.049 A 
ATOM     54  C   UNL     1       4.997   7.283  18.037  1.00  0.00     0.074 A 
ATOM     55  C   UNL     1       9.624   8.257  13.810  1.00  0.00     0.029 A 
ATOM     56  N   UNL     1       7.689   7.792  14.803  1.00  0.00    -0.354 N 
ATOM     57  N   UNL     1       5.888   7.469  17.093  1.00  0.00    -0.248 NA
ATOM     58  C   UNL     1       5.532   7.403  19.401  1.00  0.00     0.031 C 
ATOM     59  C   UNL     1       9.817   8.294  15.195  1.00  0.00     0.029 A 
ATOM     60  C   UNL     1       8.604   8.036  15.813  1.00  0.00     0.049 A 
ATOM     61  H   UNL     1       6.740   7.569  14.942  1.00  0.00     0.167 HD
ATOM     62  C   UNL     1       7.080   7.756  17.748  1.00  0.00     0.074 A 
ATOM     63  C   UNL     1       6.793   7.739  19.168  1.00  0.00     0.031 C 
ATOM     64  C   UNL     1       8.302   8.013  17.221  1.00  0.00     0.031 A 
BRANCH  51  65
ATOM     65  C   UNL     1       8.475   7.786  11.046  1.00  0.00    -0.014 A 
ATOM     66  C   UNL     1       8.271   8.822  10.120  1.00  0.00     0.009 A 
ATOM     67  C   UNL     1       9.475   6.836  10.790  1.00  0.00     0.009 A 
ATOM     68  C   UNL     1       9.018   8.878   8.942  1.00  0.00     0.001 A 
ATOM     69  C   UNL     1      10.246   6.915   9.628  1.00  0.00     0.001 A 
ATOM     70  C   UNL     1      10.009   7.928   8.700  1.00  0.00     0.000 A 
ENDBRANCH  51  65
BRANCH  52  71
ATOM     71  C   UNL     1       2.681   6.815  19.121  1.00  0.00    -0.014 A 
ATOM     72  C   UNL     1       2.406   7.908  19.958  1.00  0.00     0.009 A 
ATOM     73  C   UNL     1       2.152   5.558  19.456  1.00  0.00     0.009 A 
ATOM     74  C   UNL     1       1.644   7.741  21.117  1.00  0.00     0.001 A 
ATOM     75  C   UNL     1       1.363   5.401  20.599  1.00  0.00     0.001 A 
ATOM     76  C   UNL     1       1.120   6.489  21.434  1.00  0.00     0.000 A 
ENDBRANCH  52  71
BRANCH  64  77
ATOM     77  C   UNL     1       9.415   8.334  18.181  1.00  0.00    -0.014 A 
ATOM     78  C   UNL     1       9.972   7.351  19.013  1.00  0.00     0.009 A 
ATOM     79  C   UNL     1       9.944   9.634  18.216  1.00  0.00     0.009 A 
ATOM     80  C   UNL     1      11.013   7.673  19.886  1.00  0.00     0.001 A 
ATOM     81  C   UNL     1      11.006   9.945  19.065  1.00  0.00     0.001 A 
ATOM     82  C   UNL     1      11.533   8.967  19.907  1.00  0.00     0.000 A 
ENDBRANCH  64  77
ENDBRANCH  38  39
ENDBRANCH  30  33
ENDBRANCH  28  29
ENDBRANCH  27  28
ENDBRANCH  26  27
ENDBRANCH   1  26
TORSDOF 17
