REMARK SMILES COc1ccc2c(CC(=O)NCCCCNC(=O)c3ccc(-c4c5nc(c(-c6ccccc6)c6ccc([nH]6)c(-c6ccccc6)c6nc(c(-c7ccccc7)c7ccc4[nH]7)C=C6)C=C5)cc3)c(C(=O)c3cc(C)ccn3)[nH]c2c1
REMARK SMILES IDX 13 1 12 2 11 3 9 4 10 5 8 7 7 8 3 9 4 10 79 11 5 12 78 13
REMARK SMILES IDX 6 14 77 15 67 16 2 18 1 19 68 20 69 21 70 22 71 23 76 24
REMARK SMILES IDX 72 25 75 26 73 27 74 28 14 29 15 30 16 31 17 32 18 34 19 35
REMARK SMILES IDX 20 36 66 37 21 38 65 39 22 40 23 41 24 42 59 43 25 44 64 45
REMARK SMILES IDX 58 46 60 47 26 48 63 49 57 50 56 51 27 53 49 54 34 55 48 56
REMARK SMILES IDX 35 57 38 58 47 59 61 60 36 61 37 62 46 64 62 65 39 66 28 67
REMARK SMILES IDX 29 68 33 69 30 70 32 71 31 72 50 73 51 74 55 75 52 76 54 77
REMARK SMILES IDX 53 78 40 79 41 80 45 81 42 82 44 83 43 84
REMARK H PARENT 11 6 77 17 16 33 60 52 38 63
REMARK Flexibility Score: inf
ROOT
ATOM      1  C   UNL     1       2.191  -6.330  -3.293  1.00  0.00     0.023 C 
ENDROOT
BRANCH   1   2
ATOM      2  C   UNL     1       3.414  -5.744  -3.995  1.00  0.00     0.116 C 
BRANCH   2   3
ATOM      3  N   UNL     1       3.387  -5.954  -5.425  1.00  0.00    -0.356 N 
ATOM      4  C   UNL     1       3.170  -5.055  -6.431  1.00  0.00     0.224 C 
ATOM      5  O   UNL     1       3.415  -5.439  -7.579  1.00  0.00    -0.275 OA
ATOM      6  H   UNL     1       3.548  -6.880  -5.717  1.00  0.00     0.163 HD
BRANCH   4   7
ATOM      7  C   UNL     1       2.787  -3.608  -6.140  1.00  0.00     0.138 C 
BRANCH   7   8
ATOM      8  C   UNL     1       1.562  -3.422  -5.281  1.00  0.00    -0.002 A 
ATOM      9  C   UNL     1       0.867  -1.814  -1.447  1.00  0.00     0.120 A 
ATOM     10  C   UNL     1       2.179  -1.716  -1.902  1.00  0.00     0.047 A 
ATOM     11  C   UNL     1      -0.117  -2.436  -2.222  1.00  0.00     0.073 A 
ATOM     12  C   UNL     1       2.525  -2.196  -3.170  1.00  0.00     0.014 A 
ATOM     13  C   UNL     1       0.248  -2.904  -3.491  1.00  0.00     0.050 A 
ATOM     14  C   UNL     1       1.544  -2.801  -3.986  1.00  0.00     0.004 A 
ATOM     15  N   UNL     1      -0.502  -3.529  -4.457  1.00  0.00    -0.351 N 
ATOM     16  C   UNL     1       0.246  -3.774  -5.590  1.00  0.00     0.093 A 
ATOM     17  H   UNL     1      -1.451  -3.770  -4.354  1.00  0.00     0.167 HD
BRANCH   9  18
ATOM     18  O   UNL     1       0.464  -1.370  -0.214  1.00  0.00    -0.497 OA
ATOM     19  C   UNL     1       0.960  -0.073   0.112  1.00  0.00     0.278 C 
ENDBRANCH   9  18
BRANCH  16  20
ATOM     20  C   UNL     1      -0.265  -4.329  -6.841  1.00  0.00     0.227 C 
ATOM     21  O   UNL     1       0.442  -4.522  -7.827  1.00  0.00    -0.285 OA
BRANCH  20  22
ATOM     22  C   UNL     1      -1.716  -4.630  -6.972  1.00  0.00     0.113 A 
ATOM     23  C   UNL     1      -2.650  -3.602  -6.881  1.00  0.00     0.036 A 
ATOM     24  N   UNL     1      -2.038  -5.924  -7.221  1.00  0.00    -0.253 NA
ATOM     25  C   UNL     1      -4.000  -3.916  -7.054  1.00  0.00    -0.047 A 
ATOM     26  C   UNL     1      -3.343  -6.194  -7.417  1.00  0.00     0.112 A 
ATOM     27  C   UNL     1      -5.062  -2.863  -6.967  1.00  0.00     0.044 C 
ATOM     28  C   UNL     1      -4.346  -5.240  -7.339  1.00  0.00     0.023 A 
ENDBRANCH  20  22
ENDBRANCH  16  20
ENDBRANCH   7   8
ENDBRANCH   4   7
ENDBRANCH   2   3
ENDBRANCH   1   2
BRANCH   1  29
ATOM     29  C   UNL     1       2.124  -7.859  -3.302  1.00  0.00     0.023 C 
BRANCH  29  30
ATOM     30  C   UNL     1       3.345  -8.569  -2.728  1.00  0.00     0.116 C 
BRANCH  30  31
ATOM     31  N   UNL     1       3.629  -8.201  -1.349  1.00  0.00    -0.352 N 
ATOM     32  C   UNL     1       3.995  -9.008  -0.298  1.00  0.00     0.251 C 
ATOM     33  H   UNL     1       3.547  -7.243  -1.140  1.00  0.00     0.163 HD
ATOM     34  O   UNL     1       4.085  -8.548   0.837  1.00  0.00    -0.269 OA
BRANCH  32  35
ATOM     35  C   UNL     1       4.239 -10.446  -0.532  1.00  0.00     0.039 A 
ATOM     36  C   UNL     1       3.631 -11.378   0.313  1.00  0.00     0.014 A 
ATOM     37  C   UNL     1       5.034 -10.874  -1.599  1.00  0.00     0.014 A 
ATOM     38  C   UNL     1       3.756 -12.741   0.040  1.00  0.00     0.010 A 
ATOM     39  C   UNL     1       5.099 -12.229  -1.910  1.00  0.00     0.010 A 
ATOM     40  C   UNL     1       4.453 -13.176  -1.099  1.00  0.00    -0.014 A 
BRANCH  40  41
ATOM     41  C   UNL     1       4.492 -14.611  -1.477  1.00  0.00     0.031 A 
ATOM     42  C   UNL     1       5.797 -15.356  -1.500  1.00  0.00     0.074 A 
ATOM     43  C   UNL     1       3.359 -15.225  -1.869  1.00  0.00     0.049 A 
ATOM     44  N   UNL     1       6.036 -16.590  -1.867  1.00  0.00    -0.248 NA
ATOM     45  C   UNL     1       6.994 -14.612  -1.075  1.00  0.00     0.031 C 
ATOM     46  C   UNL     1       2.033 -14.604  -1.927  1.00  0.00     0.029 A 
ATOM     47  N   UNL     1       3.143 -16.509  -2.304  1.00  0.00    -0.354 N 
ATOM     48  C   UNL     1       7.407 -16.765  -1.732  1.00  0.00     0.074 A 
ATOM     49  C   UNL     1       7.954 -15.498  -1.294  1.00  0.00     0.031 C 
ATOM     50  C   UNL     1       1.140 -15.514  -2.348  1.00  0.00     0.029 A 
ATOM     51  C   UNL     1       1.834 -16.765  -2.634  1.00  0.00     0.049 A 
ATOM     52  H   UNL     1       3.858 -17.182  -2.373  1.00  0.00     0.167 HD
ATOM     53  C   UNL     1       8.144 -17.883  -1.937  1.00  0.00     0.031 A 
ATOM     54  C   UNL     1       1.257 -17.879  -3.124  1.00  0.00     0.031 A 
ATOM     55  C   UNL     1       7.601 -19.142  -2.373  1.00  0.00     0.049 A 
ATOM     56  C   UNL     1       2.103 -19.095  -3.377  1.00  0.00     0.074 A 
ATOM     57  C   UNL     1       8.259 -20.346  -2.557  1.00  0.00     0.029 A 
ATOM     58  N   UNL     1       6.272 -19.359  -2.701  1.00  0.00    -0.354 N 
ATOM     59  N   UNL     1       3.387 -19.265  -3.175  1.00  0.00    -0.248 NA
ATOM     60  C   UNL     1       1.416 -20.276  -3.919  1.00  0.00     0.031 C 
ATOM     61  C   UNL     1       7.339 -21.276  -3.053  1.00  0.00     0.029 A 
ATOM     62  C   UNL     1       6.096 -20.668  -3.118  1.00  0.00     0.049 A 
ATOM     63  H   UNL     1       5.559 -18.682  -2.647  1.00  0.00     0.167 HD
ATOM     64  C   UNL     1       3.657 -20.577  -3.542  1.00  0.00     0.074 A 
ATOM     65  C   UNL     1       2.399 -21.164  -3.958  1.00  0.00     0.031 C 
ATOM     66  C   UNL     1       4.841 -21.237  -3.536  1.00  0.00     0.031 A 
BRANCH  53  67
ATOM     67  C   UNL     1       9.627 -17.788  -1.704  1.00  0.00    -0.014 A 
ATOM     68  C   UNL     1      10.152 -17.640  -0.410  1.00  0.00     0.009 A 
ATOM     69  C   UNL     1      10.512 -17.884  -2.788  1.00  0.00     0.009 A 
ATOM     70  C   UNL     1      11.532 -17.553  -0.212  1.00  0.00     0.001 A 
ATOM     71  C   UNL     1      11.892 -17.829  -2.584  1.00  0.00     0.001 A 
ATOM     72  C   UNL     1      12.400 -17.653  -1.298  1.00  0.00     0.000 A 
ENDBRANCH  53  67
BRANCH  54  73
ATOM     73  C   UNL     1      -0.203 -17.899  -3.409  1.00  0.00    -0.014 A 
ATOM     74  C   UNL     1      -1.071 -18.674  -2.625  1.00  0.00     0.009 A 
ATOM     75  C   UNL     1      -0.734 -17.153  -4.473  1.00  0.00     0.009 A 
ATOM     76  C   UNL     1      -2.436 -18.724  -2.918  1.00  0.00     0.001 A 
ATOM     77  C   UNL     1      -2.103 -17.180  -4.745  1.00  0.00     0.001 A 
ATOM     78  C   UNL     1      -2.951 -17.974  -3.974  1.00  0.00     0.000 A 
ENDBRANCH  54  73
BRANCH  66  79
ATOM     79  C   UNL     1       4.827 -22.678  -3.965  1.00  0.00    -0.014 A 
ATOM     80  C   UNL     1       4.632 -23.037  -5.308  1.00  0.00     0.009 A 
ATOM     81  C   UNL     1       5.047 -23.689  -3.016  1.00  0.00     0.009 A 
ATOM     82  C   UNL     1       4.623 -24.382  -5.685  1.00  0.00     0.001 A 
ATOM     83  C   UNL     1       5.070 -25.030  -3.401  1.00  0.00     0.001 A 
ATOM     84  C   UNL     1       4.848 -25.376  -4.733  1.00  0.00     0.000 A 
ENDBRANCH  66  79
ENDBRANCH  40  41
ENDBRANCH  32  35
ENDBRANCH  30  31
ENDBRANCH  29  30
ENDBRANCH   1  29
TORSDOF 15
