REMARK SMILES COCCS(=O)(=O)Cc1c(C(=O)NCCCCNC(=O)c2ccc(-c3c4nc(c(-c5ccccc5)c5ccc([nH]5)c(-c5ccccc5)c5nc(c(-c6ccccc6)c6ccc3[nH]6)C=C5)C=C4)cc2)oc2ccccc12
REMARK SMILES IDX 14 1 13 2 11 3 12 4 10 6 9 7 75 8 69 9 70 10 74 11 71 12
REMARK SMILES IDX 73 13 72 14 8 15 5 16 6 17 7 18 4 19 3 20 2 21 1 22 15 23
REMARK SMILES IDX 16 24 17 25 18 26 19 27 20 29 21 30 22 31 68 32 23 33 67 34
REMARK SMILES IDX 24 35 25 36 26 37 61 38 27 39 66 40 60 41 62 42 28 43 65 44
REMARK SMILES IDX 59 45 58 46 29 48 51 49 36 50 50 51 37 52 40 53 49 54 63 55
REMARK SMILES IDX 38 56 39 57 48 59 64 60 41 61 30 62 31 63 35 64 32 65 34 66
REMARK SMILES IDX 33 67 52 68 53 69 57 70 54 71 56 72 55 73 42 74 43 75 47 76
REMARK SMILES IDX 44 77 46 78 45 79
REMARK H PARENT 13 5 18 28 62 47 40 58
REMARK Flexibility Score: inf
ROOT
ATOM      1  C   UNL     1      -4.086  -4.726  -0.624  1.00  0.00     0.116 C 
ENDROOT
BRANCH   1   2
ATOM      2  N   UNL     1      -2.651  -4.874  -0.736  1.00  0.00    -0.349 N 
ATOM      3  C   UNL     1      -1.697  -3.959  -1.105  1.00  0.00     0.287 C 
ATOM      4  O   UNL     1      -0.620  -4.415  -1.490  1.00  0.00    -0.266 OA
ATOM      5  H   UNL     1      -2.305  -5.768  -0.514  1.00  0.00     0.163 HD
BRANCH   3   6
ATOM      6  C   UNL     1      -1.944  -2.532  -1.014  1.00  0.00     0.196 A 
ATOM      7  C   UNL     1      -1.038  -1.476  -0.962  1.00  0.00     0.027 A 
ATOM      8  C   UNL     1      -1.823  -0.276  -0.923  1.00  0.00     0.025 A 
ATOM      9  O   UNL     1      -3.215  -2.040  -0.969  1.00  0.00    -0.451 OA
ATOM     10  C   UNL     1      -3.146  -0.690  -0.895  1.00  0.00     0.135 A 
ATOM     11  C   UNL     1      -1.568   1.108  -0.891  1.00  0.00     0.012 A 
ATOM     12  C   UNL     1      -4.243   0.163  -0.803  1.00  0.00     0.048 A 
ATOM     13  C   UNL     1      -2.650   1.998  -0.807  1.00  0.00     0.001 A 
ATOM     14  C   UNL     1      -3.965   1.531  -0.754  1.00  0.00     0.004 A 
BRANCH   7  15
ATOM     15  C   UNL     1       0.449  -1.587  -0.953  1.00  0.00     0.177 C 
BRANCH  15  16
ATOM     16  S   UNL     1       1.184  -2.130   0.605  1.00  0.00     0.156 S 
ATOM     17  O   UNL     1       2.587  -1.752   0.568  1.00  0.00    -0.228 OA
ATOM     18  O   UNL     1       0.836  -3.522   0.827  1.00  0.00    -0.228 OA
BRANCH  16  19
ATOM     19  C   UNL     1       0.389  -1.225   1.922  1.00  0.00     0.165 C 
BRANCH  19  20
ATOM     20  C   UNL     1       1.214  -0.085   2.479  1.00  0.00     0.176 C 
BRANCH  20  21
ATOM     21  O   UNL     1       0.905   1.150   1.832  1.00  0.00    -0.384 OA
ATOM     22  C   UNL     1       1.847   1.521   0.837  1.00  0.00     0.194 C 
ENDBRANCH  20  21
ENDBRANCH  19  20
ENDBRANCH  16  19
ENDBRANCH  15  16
ENDBRANCH   7  15
ENDBRANCH   3   6
ENDBRANCH   1   2
BRANCH   1  23
ATOM     23  C   UNL     1      -4.738  -5.040  -1.970  1.00  0.00     0.023 C 
BRANCH  23  24
ATOM     24  C   UNL     1      -4.568  -6.503  -2.402  1.00  0.00     0.023 C 
BRANCH  24  25
ATOM     25  C   UNL     1      -5.026  -7.527  -1.369  1.00  0.00     0.116 C 
BRANCH  25  26
ATOM     26  N   UNL     1      -6.405  -7.323  -0.951  1.00  0.00    -0.352 N 
ATOM     27  C   UNL     1      -7.354  -8.266  -0.652  1.00  0.00     0.251 C 
ATOM     28  H   UNL     1      -6.693  -6.385  -0.872  1.00  0.00     0.163 HD
ATOM     29  O   UNL     1      -8.516  -7.940  -0.440  1.00  0.00    -0.269 OA
BRANCH  27  30
ATOM     30  C   UNL     1      -6.962  -9.687  -0.625  1.00  0.00     0.039 A 
ATOM     31  C   UNL     1      -7.708 -10.604  -1.367  1.00  0.00     0.014 A 
ATOM     32  C   UNL     1      -5.839 -10.097   0.099  1.00  0.00     0.014 A 
ATOM     33  C   UNL     1      -7.291 -11.932  -1.432  1.00  0.00     0.010 A 
ATOM     34  C   UNL     1      -5.389 -11.406  -0.020  1.00  0.00     0.010 A 
ATOM     35  C   UNL     1      -6.111 -12.335  -0.785  1.00  0.00    -0.014 A 
BRANCH  35  36
ATOM     36  C   UNL     1      -5.614 -13.726  -0.899  1.00  0.00     0.031 A 
ATOM     37  C   UNL     1      -5.555 -14.607   0.317  1.00  0.00     0.074 A 
ATOM     38  C   UNL     1      -5.154 -14.173  -2.083  1.00  0.00     0.049 A 
ATOM     39  N   UNL     1      -5.103 -15.830   0.428  1.00  0.00    -0.248 NA
ATOM     40  C   UNL     1      -6.043 -14.028   1.579  1.00  0.00     0.031 C 
ATOM     41  C   UNL     1      -5.118 -13.399  -3.326  1.00  0.00     0.029 A 
ATOM     42  N   UNL     1      -4.621 -15.388  -2.432  1.00  0.00    -0.354 N 
ATOM     43  C   UNL     1      -5.235 -16.158   1.771  1.00  0.00     0.074 A 
ATOM     44  C   UNL     1      -5.763 -14.991   2.443  1.00  0.00     0.031 C 
ATOM     45  C   UNL     1      -4.615 -14.167  -4.306  1.00  0.00     0.029 A 
ATOM     46  C   UNL     1      -4.260 -15.470  -3.754  1.00  0.00     0.049 A 
ATOM     47  H   UNL     1      -4.509 -16.130  -1.795  1.00  0.00     0.167 HD
ATOM     48  C   UNL     1      -4.959 -17.332   2.387  1.00  0.00     0.031 A 
ATOM     49  C   UNL     1      -3.702 -16.482  -4.444  1.00  0.00     0.031 A 
ATOM     50  C   UNL     1      -4.443 -18.494   1.715  1.00  0.00     0.049 A 
ATOM     51  C   UNL     1      -3.401 -17.773  -3.738  1.00  0.00     0.074 A 
ATOM     52  C   UNL     1      -4.187 -19.749   2.238  1.00  0.00     0.029 A 
ATOM     53  N   UNL     1      -4.102 -18.541   0.372  1.00  0.00    -0.354 N 
ATOM     54  N   UNL     1      -3.598 -18.093  -2.482  1.00  0.00    -0.248 NA
ATOM     55  C   UNL     1      -2.812 -18.848  -4.549  1.00  0.00     0.031 C 
ATOM     56  C   UNL     1      -3.646 -20.543   1.221  1.00  0.00     0.029 A 
ATOM     57  C   UNL     1      -3.617 -19.798   0.053  1.00  0.00     0.049 A 
ATOM     58  H   UNL     1      -4.192 -17.793  -0.261  1.00  0.00     0.167 HD
ATOM     59  C   UNL     1      -3.183 -19.412  -2.358  1.00  0.00     0.074 A 
ATOM     60  C   UNL     1      -2.736 -19.836  -3.669  1.00  0.00     0.031 C 
ATOM     61  C   UNL     1      -3.175 -20.202  -1.257  1.00  0.00     0.031 A 
BRANCH  48  62
ATOM     62  C   UNL     1      -5.203 -17.406   3.868  1.00  0.00    -0.014 A 
ATOM     63  C   UNL     1      -6.507 -17.399   4.391  1.00  0.00     0.009 A 
ATOM     64  C   UNL     1      -4.118 -17.502   4.751  1.00  0.00     0.009 A 
ATOM     65  C   UNL     1      -6.715 -17.446   5.771  1.00  0.00     0.001 A 
ATOM     66  C   UNL     1      -4.330 -17.578   6.129  1.00  0.00     0.001 A 
ATOM     67  C   UNL     1      -5.627 -17.539   6.638  1.00  0.00     0.000 A 
ENDBRANCH  48  62
BRANCH  49  68
ATOM     68  C   UNL     1      -3.414 -16.320  -5.892  1.00  0.00    -0.014 A 
ATOM     69  C   UNL     1      -4.189 -16.994  -6.849  1.00  0.00     0.009 A 
ATOM     70  C   UNL     1      -2.370 -15.489  -6.326  1.00  0.00     0.009 A 
ATOM     71  C   UNL     1      -3.909 -16.855  -8.210  1.00  0.00     0.001 A 
ATOM     72  C   UNL     1      -2.110 -15.332  -7.689  1.00  0.00     0.001 A 
ATOM     73  C   UNL     1      -2.874 -16.021  -8.629  1.00  0.00     0.000 A 
ENDBRANCH  49  68
BRANCH  61  74
ATOM     74  C   UNL     1      -2.700 -21.617  -1.431  1.00  0.00    -0.014 A 
ATOM     75  C   UNL     1      -1.341 -21.912  -1.617  1.00  0.00     0.009 A 
ATOM     76  C   UNL     1      -3.625 -22.671  -1.363  1.00  0.00     0.009 A 
ATOM     77  C   UNL     1      -0.922 -23.236  -1.763  1.00  0.00     0.001 A 
ATOM     78  C   UNL     1      -3.199 -23.994  -1.481  1.00  0.00     0.001 A 
ATOM     79  C   UNL     1      -1.850 -24.275  -1.690  1.00  0.00     0.000 A 
ENDBRANCH  61  74
ENDBRANCH  35  36
ENDBRANCH  27  30
ENDBRANCH  25  26
ENDBRANCH  24  25
ENDBRANCH  23  24
ENDBRANCH   1  23
TORSDOF 16
