REMARK SMILES O=C(NCCCCNC(=O)c1ccccc1C(=O)Nc1ccc(N2C(=O)[C@H]3[C@@H]4CC[C@@H](C4)[C@@H]3C2=O)cc1)c1ccc(-c2c3nc(c(-c4ccccc4)c4ccc([nH]4)c(-c4ccccc4)c4nc(c(-c5ccccc5)c5ccc2[nH]5)C=C4)C=C3)cc1
REMARK SMILES IDX 6 1 5 2 4 3 3 4 1 5 2 6 38 8 39 9 85 10 40 11 84 12 41 13
REMARK SMILES IDX 42 14 43 15 78 16 44 17 83 18 77 19 79 20 45 21 82 22 76 23
REMARK SMILES IDX 75 24 46 26 68 27 53 28 67 29 54 30 57 31 66 32 80 33 55 34
REMARK SMILES IDX 56 35 65 37 81 38 58 39 47 40 48 41 52 42 49 43 51 44 50 45
REMARK SMILES IDX 69 46 70 47 74 48 71 49 73 50 72 51 59 52 60 53 64 54 61 55
REMARK SMILES IDX 63 56 62 57 7 58 8 59 9 60 10 62 11 63 12 64 16 65 13 66
REMARK SMILES IDX 15 67 14 68 17 69 18 70 19 71 20 73 21 74 37 75 22 76 36 77
REMARK SMILES IDX 23 78 24 79 25 80 34 81 26 82 27 83 33 84 35 85 28 86 31 87
REMARK SMILES IDX 29 88 32 89 30 90
REMARK H PARENT 3 7 79 25 57 36 8 61 19 72
REMARK Flexibility Score: inf
ROOT
ATOM      1  C   UNL     1       3.747  -1.956   3.359  1.00  0.00     0.023 C 
ENDROOT
BRANCH   1   2
ATOM      2  C   UNL     1       4.375  -0.856   2.491  1.00  0.00     0.023 C 
BRANCH   2   3
ATOM      3  C   UNL     1       4.231  -1.067   0.986  1.00  0.00     0.116 C 
BRANCH   3   4
ATOM      4  N   UNL     1       2.856  -0.973   0.540  1.00  0.00    -0.352 N 
ATOM      5  O   UNL     1       0.974   0.021  -0.186  1.00  0.00    -0.269 OA
ATOM      6  C   UNL     1       2.196   0.056  -0.081  1.00  0.00     0.251 C 
ATOM      7  H   UNL     1       2.309  -1.774   0.709  1.00  0.00     0.163 HD
BRANCH   6   8
ATOM      8  C   UNL     1       2.938   1.220  -0.615  1.00  0.00     0.039 A 
ATOM      9  C   UNL     1       4.078   1.061  -1.408  1.00  0.00     0.014 A 
ATOM     10  C   UNL     1       2.426   2.498  -0.378  1.00  0.00     0.014 A 
ATOM     11  C   UNL     1       4.763   2.182  -1.879  1.00  0.00     0.010 A 
ATOM     12  C   UNL     1       3.074   3.617  -0.905  1.00  0.00     0.010 A 
ATOM     13  C   UNL     1       4.260   3.471  -1.644  1.00  0.00    -0.014 A 
BRANCH  13  14
ATOM     14  C   UNL     1       4.937   4.668  -2.206  1.00  0.00     0.031 A 
ATOM     15  C   UNL     1       5.533   5.708  -1.299  1.00  0.00     0.074 A 
ATOM     16  C   UNL     1       4.970   4.847  -3.540  1.00  0.00     0.049 A 
ATOM     17  N   UNL     1       6.081   6.857  -1.606  1.00  0.00    -0.248 NA
ATOM     18  C   UNL     1       5.500   5.423   0.143  1.00  0.00     0.031 C 
ATOM     19  C   UNL     1       4.429   3.915  -4.531  1.00  0.00     0.029 A 
ATOM     20  N   UNL     1       5.467   5.882  -4.292  1.00  0.00    -0.354 N 
ATOM     21  C   UNL     1       6.435   7.444  -0.398  1.00  0.00     0.074 A 
ATOM     22  C   UNL     1       6.013   6.536   0.648  1.00  0.00     0.031 C 
ATOM     23  C   UNL     1       4.635   4.413  -5.759  1.00  0.00     0.029 A 
ATOM     24  C   UNL     1       5.262   5.726  -5.641  1.00  0.00     0.049 A 
ATOM     25  H   UNL     1       5.926   6.661  -3.902  1.00  0.00     0.167 HD
ATOM     26  C   UNL     1       7.055   8.629  -0.178  1.00  0.00     0.031 A 
ATOM     27  C   UNL     1       5.518   6.555  -6.670  1.00  0.00     0.031 A 
ATOM     28  C   UNL     1       7.454   9.540  -1.220  1.00  0.00     0.049 A 
ATOM     29  C   UNL     1       6.148   7.892  -6.401  1.00  0.00     0.074 A 
ATOM     30  C   UNL     1       8.116  10.750  -1.101  1.00  0.00     0.029 A 
ATOM     31  N   UNL     1       7.213   9.350  -2.573  1.00  0.00    -0.354 N 
ATOM     32  N   UNL     1       6.515   8.415  -5.256  1.00  0.00    -0.248 NA
ATOM     33  C   UNL     1       6.407   8.749  -7.566  1.00  0.00     0.031 C 
ATOM     34  C   UNL     1       8.214  11.323  -2.373  1.00  0.00     0.029 A 
ATOM     35  C   UNL     1       7.685  10.434  -3.295  1.00  0.00     0.049 A 
ATOM     36  H   UNL     1       6.772   8.561  -2.963  1.00  0.00     0.167 HD
ATOM     37  C   UNL     1       7.079   9.646  -5.566  1.00  0.00     0.074 A 
ATOM     38  C   UNL     1       7.010   9.789  -7.005  1.00  0.00     0.031 C 
ATOM     39  C   UNL     1       7.614  10.568  -4.729  1.00  0.00     0.031 A 
BRANCH  26  40
ATOM     40  C   UNL     1       7.297   9.028   1.254  1.00  0.00    -0.014 A 
ATOM     41  C   UNL     1       8.210   8.336   2.066  1.00  0.00     0.009 A 
ATOM     42  C   UNL     1       6.611  10.127   1.794  1.00  0.00     0.009 A 
ATOM     43  C   UNL     1       8.390   8.704   3.402  1.00  0.00     0.001 A 
ATOM     44  C   UNL     1       6.818  10.514   3.119  1.00  0.00     0.001 A 
ATOM     45  C   UNL     1       7.696   9.794   3.926  1.00  0.00     0.000 A 
ENDBRANCH  26  40
BRANCH  27  46
ATOM     46  C   UNL     1       5.161   6.140  -8.052  1.00  0.00    -0.014 A 
ATOM     47  C   UNL     1       6.160   5.823  -8.983  1.00  0.00     0.009 A 
ATOM     48  C   UNL     1       3.814   6.029  -8.437  1.00  0.00     0.009 A 
ATOM     49  C   UNL     1       5.819   5.419 -10.277  1.00  0.00     0.001 A 
ATOM     50  C   UNL     1       3.476   5.595  -9.719  1.00  0.00     0.001 A 
ATOM     51  C   UNL     1       4.478   5.298 -10.640  1.00  0.00     0.000 A 
ENDBRANCH  27  46
BRANCH  39  52
ATOM     52  C   UNL     1       8.226  11.796  -5.347  1.00  0.00    -0.014 A 
ATOM     53  C   UNL     1       7.438  12.804  -5.923  1.00  0.00     0.009 A 
ATOM     54  C   UNL     1       9.618  11.972  -5.292  1.00  0.00     0.009 A 
ATOM     55  C   UNL     1       8.036  13.950  -6.455  1.00  0.00     0.001 A 
ATOM     56  C   UNL     1      10.210  13.131  -5.794  1.00  0.00     0.001 A 
ATOM     57  C   UNL     1       9.419  14.116  -6.382  1.00  0.00     0.000 A 
ENDBRANCH  39  52
ENDBRANCH  13  14
ENDBRANCH   6   8
ENDBRANCH   3   4
ENDBRANCH   2   3
ENDBRANCH   1   2
BRANCH   1  58
ATOM     58  C   UNL     1       4.373  -3.341   3.187  1.00  0.00     0.116 C 
BRANCH  58  59
ATOM     59  N   UNL     1       5.760  -3.357   3.608  1.00  0.00    -0.352 N 
ATOM     60  C   UNL     1       6.589  -4.412   3.867  1.00  0.00     0.252 C 
ATOM     61  H   UNL     1       6.168  -2.469   3.726  1.00  0.00     0.163 HD
ATOM     62  O   UNL     1       7.661  -4.210   4.438  1.00  0.00    -0.269 OA
BRANCH  60  63
ATOM     63  C   UNL     1       6.202  -5.806   3.588  1.00  0.00     0.052 A 
ATOM     64  C   UNL     1       6.357  -6.649   4.713  1.00  0.00     0.014 A 
ATOM     65  C   UNL     1       5.724  -6.336   2.382  1.00  0.00     0.052 A 
ATOM     66  C   UNL     1       5.937  -7.975   4.690  1.00  0.00     0.001 A 
ATOM     67  C   UNL     1       5.258  -7.672   2.399  1.00  0.00     0.014 A 
ATOM     68  C   UNL     1       5.351  -8.477   3.539  1.00  0.00     0.001 A 
BRANCH  65  69
ATOM     69  C   UNL     1       5.537  -5.641   1.073  1.00  0.00     0.256 C 
ATOM     70  O   UNL     1       4.528  -5.934   0.420  1.00  0.00    -0.269 OA
ATOM     71  N   UNL     1       6.326  -4.638   0.559  1.00  0.00    -0.322 N 
ATOM     72  H   UNL     1       5.967  -4.226  -0.260  1.00  0.00     0.170 HD
BRANCH  71  73
ATOM     73  C   UNL     1       7.539  -4.096   0.982  1.00  0.00     0.041 A 
ATOM     74  C   UNL     1       7.627  -2.700   1.005  1.00  0.00     0.028 A 
ATOM     75  C   UNL     1       8.597  -4.867   1.446  1.00  0.00     0.028 A 
ATOM     76  C   UNL     1       8.638  -2.078   1.735  1.00  0.00     0.029 A 
ATOM     77  C   UNL     1       9.684  -4.235   2.056  1.00  0.00     0.029 A 
ATOM     78  C   UNL     1       9.656  -2.850   2.288  1.00  0.00     0.052 A 
BRANCH  78  79
ATOM     79  N   UNL     1      10.568  -2.292   3.199  1.00  0.00    -0.250 N 
ATOM     80  C   UNL     1      11.934  -2.585   3.186  1.00  0.00     0.237 C 
ATOM     81  C   UNL     1      10.173  -1.615   4.372  1.00  0.00     0.237 C 
ATOM     82  O   UNL     1      12.646  -2.977   2.279  1.00  0.00    -0.274 OA
ATOM     83  C   UNL     1      12.301  -2.473   4.620  1.00  0.00     0.095 C 
ATOM     84  C   UNL     1      11.481  -1.257   5.014  1.00  0.00     0.095 C 
ATOM     85  O   UNL     1       9.070  -1.267   4.754  1.00  0.00    -0.274 OA
ATOM     86  C   UNL     1      13.601  -2.261   5.394  1.00  0.00     0.002 C 
ATOM     87  C   UNL     1      12.014  -1.010   6.422  1.00  0.00     0.002 C 
ATOM     88  C   UNL     1      13.374  -3.039   6.708  1.00  0.00     0.005 C 
ATOM     89  C   UNL     1      13.493  -0.836   5.987  1.00  0.00     0.009 C 
ATOM     90  C   UNL     1      12.152  -2.282   7.309  1.00  0.00     0.005 C 
ENDBRANCH  78  79
ENDBRANCH  71  73
ENDBRANCH  65  69
ENDBRANCH  60  63
ENDBRANCH  58  59
ENDBRANCH   1  58
TORSDOF 14
