REMARK SMILES C[C@H]1[C@@H]([NH2+]C[C@H]2CC[C@@H](C(=O)NCCCCNC(=O)c3ccc(-c4c5nc(c(-c6ccccc6)c6ccc([nH]6)c(-c6ccccc6)c6nc(c(-c7ccccc7)c7ccc4[nH]7)C=C6)C=C5)cc3)CC2)CCC[C@@H]1C
REMARK SMILES IDX 14 1 13 2 12 3 10 4 11 5 9 7 6 8 7 9 69 10 8 11 68 12 5 13
REMARK SMILES IDX 4 14 3 17 1 18 2 19 73 20 70 21 72 22 74 23 71 24 15 25
REMARK SMILES IDX 16 26 17 27 18 28 19 30 20 31 21 32 67 33 22 34 66 35 23 36
REMARK SMILES IDX 24 37 25 38 60 39 26 40 65 41 59 42 61 43 27 44 64 45 58 46
REMARK SMILES IDX 57 47 28 49 50 50 35 51 49 52 36 53 39 54 48 55 62 56 37 57
REMARK SMILES IDX 38 58 47 60 63 61 40 62 29 63 30 64 34 65 31 66 33 67 32 68
REMARK SMILES IDX 51 69 52 70 56 71 53 72 55 73 54 74 41 75 42 76 46 77 43 78
REMARK SMILES IDX 45 79 44 80
REMARK H PARENT 12 6 4 15 4 16 17 29 61 48 39 59
REMARK Flexibility Score: inf
ROOT
ATOM      1  C   UNL     1       5.194   6.048  -1.315  1.00  0.00     0.023 C 
ENDROOT
BRANCH   1   2
ATOM      2  C   UNL     1       3.916   6.664  -0.756  1.00  0.00     0.116 C 
BRANCH   2   3
ATOM      3  N   UNL     1       3.780   8.073  -1.055  1.00  0.00    -0.356 N 
ATOM      4  C   UNL     1       2.869   8.728  -1.829  1.00  0.00     0.223 C 
ATOM      5  O   UNL     1       2.942   9.960  -1.866  1.00  0.00    -0.275 OA
ATOM      6  H   UNL     1       4.454   8.652  -0.631  1.00  0.00     0.163 HD
BRANCH   4   7
ATOM      7  C   UNL     1       1.795   7.991  -2.636  1.00  0.00     0.078 C 
ATOM      8  C   UNL     1       0.535   5.402  -3.479  1.00  0.00     0.044 C 
ATOM      9  C   UNL     1      -0.184   6.351  -2.502  1.00  0.00     0.010 C 
ATOM     10  C   UNL     1       1.387   6.242  -4.442  1.00  0.00     0.010 C 
ATOM     11  C   UNL     1       0.749   7.302  -1.745  1.00  0.00     0.014 C 
ATOM     12  C   UNL     1       2.416   7.107  -3.724  1.00  0.00     0.014 C 
BRANCH   8  13
ATOM     13  C   UNL     1       1.382   4.312  -2.781  1.00  0.00     0.264 C 
BRANCH  13  14
ATOM     14  N   UNL     1       0.559   3.252  -2.208  1.00  0.00    -0.343 N 
ATOM     15  H   UNL     1      -0.157   3.683  -1.623  1.00  0.00     0.346 HD
ATOM     16  H   UNL     1       0.164   2.730  -2.990  1.00  0.00     0.346 HD
BRANCH  14  17
ATOM     17  C   UNL     1       1.311   2.287  -1.385  1.00  0.00     0.185 C 
ATOM     18  C   UNL     1      -0.010   0.326  -2.337  1.00  0.00     0.014 C 
ATOM     19  C   UNL     1       0.420   1.053  -1.057  1.00  0.00     0.047 C 
ATOM     20  C   UNL     1      -0.776   1.449  -0.146  1.00  0.00    -0.006 C 
ATOM     21  C   UNL     1       1.822   2.878  -0.056  1.00  0.00     0.065 C 
ATOM     22  C   UNL     1      -0.278   2.146   1.135  1.00  0.00     0.004 C 
ATOM     23  C   UNL     1      -1.650   0.251   0.236  1.00  0.00     0.008 C 
ATOM     24  C   UNL     1       0.682   3.301   0.864  1.00  0.00     0.006 C 
ENDBRANCH  14  17
ENDBRANCH  13  14
ENDBRANCH   8  13
ENDBRANCH   4   7
ENDBRANCH   2   3
ENDBRANCH   1   2
BRANCH   1  25
ATOM     25  C   UNL     1       6.463   6.439  -0.568  1.00  0.00     0.023 C 
BRANCH  25  26
ATOM     26  C   UNL     1       6.448   6.145   0.927  1.00  0.00     0.116 C 
BRANCH  26  27
ATOM     27  N   UNL     1       6.241   4.738   1.242  1.00  0.00    -0.352 N 
ATOM     28  C   UNL     1       6.880   3.977   2.193  1.00  0.00     0.251 C 
ATOM     29  H   UNL     1       5.557   4.273   0.708  1.00  0.00     0.163 HD
ATOM     30  O   UNL     1       6.670   2.772   2.280  1.00  0.00    -0.269 OA
BRANCH  28  31
ATOM     31  C   UNL     1       7.860   4.629   3.084  1.00  0.00     0.039 A 
ATOM     32  C   UNL     1       9.149   4.100   3.179  1.00  0.00     0.014 A 
ATOM     33  C   UNL     1       7.522   5.805   3.759  1.00  0.00     0.014 A 
ATOM     34  C   UNL     1      10.127   4.799   3.889  1.00  0.00     0.010 A 
ATOM     35  C   UNL     1       8.514   6.535   4.401  1.00  0.00     0.010 A 
ATOM     36  C   UNL     1       9.828   6.043   4.467  1.00  0.00    -0.014 A 
BRANCH  36  37
ATOM     37  C   UNL     1      10.867   6.859   5.143  1.00  0.00     0.031 A 
ATOM     38  C   UNL     1      10.740   7.164   6.609  1.00  0.00     0.074 A 
ATOM     39  C   UNL     1      11.868   7.402   4.423  1.00  0.00     0.049 A 
ATOM     40  N   UNL     1      11.470   7.953   7.354  1.00  0.00    -0.248 NA
ATOM     41  C   UNL     1       9.627   6.519   7.324  1.00  0.00     0.031 C 
ATOM     42  C   UNL     1      12.083   7.216   2.987  1.00  0.00     0.029 A 
ATOM     43  N   UNL     1      12.887   8.239   4.805  1.00  0.00    -0.354 N 
ATOM     44  C   UNL     1      10.889   7.922   8.615  1.00  0.00     0.074 A 
ATOM     45  C   UNL     1       9.723   7.071   8.524  1.00  0.00     0.031 C 
ATOM     46  C   UNL     1      13.175   7.903   2.613  1.00  0.00     0.029 A 
ATOM     47  C   UNL     1      13.711   8.611   3.771  1.00  0.00     0.049 A 
ATOM     48  H   UNL     1      13.015   8.544   5.732  1.00  0.00     0.167 HD
ATOM     49  C   UNL     1      11.297   8.535   9.751  1.00  0.00     0.031 A 
ATOM     50  C   UNL     1      14.773   9.440   3.754  1.00  0.00     0.031 A 
ATOM     51  C   UNL     1      12.467   9.363   9.848  1.00  0.00     0.049 A 
ATOM     52  C   UNL     1      15.204  10.111   5.028  1.00  0.00     0.074 A 
ATOM     53  C   UNL     1      12.999   9.975  10.969  1.00  0.00     0.029 A 
ATOM     54  N   UNL     1      13.288   9.695   8.782  1.00  0.00    -0.354 N 
ATOM     55  N   UNL     1      14.680  10.022   6.226  1.00  0.00    -0.248 NA
ATOM     56  C   UNL     1      16.379  10.991   4.948  1.00  0.00     0.031 C 
ATOM     57  C   UNL     1      14.119  10.714  10.573  1.00  0.00     0.029 A 
ATOM     58  C   UNL     1      14.312  10.520   9.215  1.00  0.00     0.049 A 
ATOM     59  H   UNL     1      13.162   9.389   7.854  1.00  0.00     0.167 HD
ATOM     60  C   UNL     1      15.476  10.810   7.047  1.00  0.00     0.074 A 
ATOM     61  C   UNL     1      16.525  11.360   6.213  1.00  0.00     0.031 C 
ATOM     62  C   UNL     1      15.351  11.053   8.373  1.00  0.00     0.031 A 
BRANCH  49  63
ATOM     63  C   UNL     1      10.460   8.332  10.982  1.00  0.00    -0.014 A 
ATOM     64  C   UNL     1      10.428   7.095  11.644  1.00  0.00     0.009 A 
ATOM     65  C   UNL     1       9.717   9.402  11.504  1.00  0.00     0.009 A 
ATOM     66  C   UNL     1       9.637   6.922  12.782  1.00  0.00     0.001 A 
ATOM     67  C   UNL     1       8.951   9.235  12.659  1.00  0.00     0.001 A 
ATOM     68  C   UNL     1       8.904   7.993  13.291  1.00  0.00     0.000 A 
ENDBRANCH  49  63
BRANCH  50  69
ATOM     69  C   UNL     1      15.512   9.676   2.487  1.00  0.00    -0.014 A 
ATOM     70  C   UNL     1      16.795   9.137   2.304  1.00  0.00     0.009 A 
ATOM     71  C   UNL     1      14.945  10.443   1.458  1.00  0.00     0.009 A 
ATOM     72  C   UNL     1      17.505   9.383   1.126  1.00  0.00     0.001 A 
ATOM     73  C   UNL     1      15.646  10.665   0.271  1.00  0.00     0.001 A 
ATOM     74  C   UNL     1      16.928  10.143   0.109  1.00  0.00     0.000 A 
ENDBRANCH  50  69
BRANCH  62  75
ATOM     75  C   UNL     1      16.394  11.920   9.018  1.00  0.00    -0.014 A 
ATOM     76  C   UNL     1      16.411  13.309   8.820  1.00  0.00     0.009 A 
ATOM     77  C   UNL     1      17.338  11.341   9.880  1.00  0.00     0.009 A 
ATOM     78  C   UNL     1      17.370  14.098   9.456  1.00  0.00     0.001 A 
ATOM     79  C   UNL     1      18.279  12.137  10.534  1.00  0.00     0.001 A 
ATOM     80  C   UNL     1      18.299  13.513  10.316  1.00  0.00     0.000 A 
ENDBRANCH  62  75
ENDBRANCH  36  37
ENDBRANCH  28  31
ENDBRANCH  26  27
ENDBRANCH  25  26
ENDBRANCH   1  25
TORSDOF 14
