REMARK SMILES C[C@@H]([C@H]1CC=CS1)n1nccc1NC(=O)CC1(CC(=O)NCCCCNC(=O)c2ccc(-c3c4nc(c(-c5ccccc5)c5ccc([nH]5)c(-c5ccccc5)c5nc(c(-c6ccccc6)c6ccc3[nH]6)C=C5)C=C4)cc2)CCCCC1
REMARK SMILES IDX 19 1 20 2 21 3 18 5 17 6 77 7 81 8 78 9 80 10 79 11 16 12
REMARK SMILES IDX 14 13 13 14 15 16 12 17 8 18 9 19 10 20 11 21 2 22 1 23 3 24
REMARK SMILES IDX 4 25 7 26 5 27 6 28 22 29 23 30 24 31 25 32 26 33 27 34
REMARK SMILES IDX 28 36 29 37 30 38 76 39 31 40 75 41 32 42 33 43 34 44 69 45
REMARK SMILES IDX 35 46 74 47 68 48 70 49 36 50 73 51 67 52 66 53 37 55 59 56
REMARK SMILES IDX 44 57 58 58 45 59 48 60 57 61 71 62 46 63 47 64 56 66 72 67
REMARK SMILES IDX 49 68 38 69 39 70 43 71 40 72 42 73 41 74 60 75 61 76 65 77
REMARK SMILES IDX 62 78 64 79 63 80 50 81 51 82 55 83 52 84 54 85 53 86
REMARK H PARENT 21 4 13 15 26 35 70 54 48 65
REMARK Flexibility Score: inf
ROOT
ATOM      1  C   UNL     1       2.463   8.461  -1.405  1.00  0.00     0.220 C 
ATOM      2  O   UNL     1       1.949   8.319  -0.293  1.00  0.00    -0.275 OA
ATOM      3  N   UNL     1       2.695   9.730  -1.828  1.00  0.00    -0.356 N 
ATOM      4  H   UNL     1       2.398  10.428  -1.201  1.00  0.00     0.163 HD
ENDROOT
BRANCH   1   5
ATOM      5  C   UNL     1       2.838   7.233  -2.226  1.00  0.00     0.107 C 
BRANCH   5   6
ATOM      6  C   UNL     1       1.881   6.741  -3.357  1.00  0.00    -0.012 C 
ATOM      7  C   UNL     1       2.225   5.260  -3.671  1.00  0.00     0.008 C 
ATOM      8  C   UNL     1       2.088   7.472  -4.710  1.00  0.00     0.008 C 
ATOM      9  C   UNL     1       3.581   5.010  -4.340  1.00  0.00     0.001 C 
ATOM     10  C   UNL     1       3.467   7.300  -5.340  1.00  0.00     0.001 C 
ATOM     11  C   UNL     1       3.736   5.831  -5.615  1.00  0.00     0.000 C 
BRANCH   6  12
ATOM     12  C   UNL     1       0.370   6.953  -2.987  1.00  0.00     0.108 C 
BRANCH  12  13
ATOM     13  C   UNL     1      -0.269   6.183  -1.847  1.00  0.00     0.226 C 
ATOM     14  N   UNL     1      -0.663   4.808  -1.951  1.00  0.00    -0.311 N 
ATOM     15  H   UNL     1      -1.028   4.391  -1.137  1.00  0.00     0.171 HD
ATOM     16  O   UNL     1      -0.505   6.679  -0.756  1.00  0.00    -0.275 OA
BRANCH  14  17
ATOM     17  C   UNL     1      -0.583   4.011  -3.069  1.00  0.00     0.131 A 
ATOM     18  N   UNL     1      -0.107   2.714  -3.137  1.00  0.00    -0.246 N 
ATOM     19  N   UNL     1       0.104   2.337  -4.423  1.00  0.00    -0.179 NA
ATOM     20  C   UNL     1      -0.473   3.294  -5.149  1.00  0.00     0.137 A 
ATOM     21  C   UNL     1      -0.960   4.344  -4.351  1.00  0.00     0.068 A 
BRANCH  18  22
ATOM     22  C   UNL     1       0.009   1.720  -2.068  1.00  0.00     0.120 C 
ATOM     23  C   UNL     1       0.114   0.290  -2.641  1.00  0.00     0.034 C 
BRANCH  22  24
ATOM     24  C   UNL     1       1.120   1.899  -1.004  1.00  0.00     0.079 C 
ATOM     25  C   UNL     1       2.574   1.783  -1.488  1.00  0.00     0.045 C 
ATOM     26  S   UNL     1       1.063   3.412   0.035  1.00  0.00    -0.128 SA
ATOM     27  C   UNL     1       3.428   2.582  -0.548  1.00  0.00    -0.019 C 
ATOM     28  C   UNL     1       2.777   3.434   0.248  1.00  0.00     0.037 C 
ENDBRANCH  22  24
ENDBRANCH  18  22
ENDBRANCH  14  17
ENDBRANCH  12  13
ENDBRANCH   6  12
ENDBRANCH   5   6
ENDBRANCH   1   5
BRANCH   3  29
ATOM     29  C   UNL     1       3.303  10.235  -3.043  1.00  0.00     0.116 C 
BRANCH  29  30
ATOM     30  C   UNL     1       2.255  10.790  -4.017  1.00  0.00     0.023 C 
BRANCH  30  31
ATOM     31  C   UNL     1       1.924  12.278  -3.919  1.00  0.00     0.023 C 
BRANCH  31  32
ATOM     32  C   UNL     1       3.054  13.211  -4.324  1.00  0.00     0.116 C 
BRANCH  32  33
ATOM     33  N   UNL     1       3.487  13.049  -5.713  1.00  0.00    -0.352 N 
ATOM     34  C   UNL     1       4.679  13.501  -6.268  1.00  0.00     0.251 C 
ATOM     35  H   UNL     1       2.871  12.572  -6.315  1.00  0.00     0.163 HD
ATOM     36  O   UNL     1       4.824  13.668  -7.455  1.00  0.00    -0.269 OA
BRANCH  34  37
ATOM     37  C   UNL     1       5.782  13.738  -5.321  1.00  0.00     0.039 A 
ATOM     38  C   UNL     1       6.372  14.995  -5.188  1.00  0.00     0.014 A 
ATOM     39  C   UNL     1       6.055  12.701  -4.435  1.00  0.00     0.014 A 
ATOM     40  C   UNL     1       7.173  15.233  -4.073  1.00  0.00     0.010 A 
ATOM     41  C   UNL     1       6.713  12.991  -3.266  1.00  0.00     0.010 A 
ATOM     42  C   UNL     1       7.310  14.238  -3.089  1.00  0.00    -0.014 A 
BRANCH  42  43
ATOM     43  C   UNL     1       7.994  14.525  -1.828  1.00  0.00     0.031 A 
ATOM     44  C   UNL     1       7.606  15.790  -1.135  1.00  0.00     0.074 A 
ATOM     45  C   UNL     1       8.804  13.640  -1.207  1.00  0.00     0.049 A 
ATOM     46  N   UNL     1       8.338  16.839  -0.955  1.00  0.00    -0.248 NA
ATOM     47  C   UNL     1       6.222  15.945  -0.658  1.00  0.00     0.031 C 
ATOM     48  C   UNL     1       9.093  12.242  -1.555  1.00  0.00     0.029 A 
ATOM     49  N   UNL     1       9.478  13.796  -0.037  1.00  0.00    -0.354 N 
ATOM     50  C   UNL     1       7.578  17.733  -0.203  1.00  0.00     0.074 A 
ATOM     51  C   UNL     1       6.245  17.183  -0.155  1.00  0.00     0.031 C 
ATOM     52  C   UNL     1       9.664  11.618  -0.501  1.00  0.00     0.029 A 
ATOM     53  C   UNL     1       9.975  12.617   0.500  1.00  0.00     0.049 A 
ATOM     54  H   UNL     1       9.603  14.672   0.394  1.00  0.00     0.167 HD
ATOM     55  C   UNL     1       8.152  18.763   0.481  1.00  0.00     0.031 A 
ATOM     56  C   UNL     1      10.610  12.468   1.684  1.00  0.00     0.031 A 
ATOM     57  C   UNL     1       9.515  18.979   0.071  1.00  0.00     0.049 A 
ATOM     58  C   UNL     1      11.144  13.795   2.062  1.00  0.00     0.074 A 
ATOM     59  C   UNL     1      10.135  19.335  -1.109  1.00  0.00     0.029 A 
ATOM     60  N   UNL     1      10.499  18.441   0.866  1.00  0.00    -0.354 N 
ATOM     61  N   UNL     1      12.082  14.401   1.392  1.00  0.00    -0.248 NA
ATOM     62  C   UNL     1      10.332  14.646   2.913  1.00  0.00     0.031 C 
ATOM     63  C   UNL     1      11.317  18.538  -1.150  1.00  0.00     0.029 A 
ATOM     64  C   UNL     1      11.382  17.802   0.036  1.00  0.00     0.049 A 
ATOM     65  H   UNL     1      10.558  18.503   1.847  1.00  0.00     0.167 HD
ATOM     66  C   UNL     1      11.710  15.737   1.393  1.00  0.00     0.074 A 
ATOM     67  C   UNL     1      10.685  15.841   2.430  1.00  0.00     0.031 C 
ATOM     68  C   UNL     1      12.064  16.571   0.370  1.00  0.00     0.031 A 
BRANCH  55  69
ATOM     69  C   UNL     1       7.630  19.336   1.776  1.00  0.00    -0.014 A 
ATOM     70  C   UNL     1       8.305  20.429   2.354  1.00  0.00     0.009 A 
ATOM     71  C   UNL     1       6.693  18.672   2.587  1.00  0.00     0.009 A 
ATOM     72  C   UNL     1       8.114  20.781   3.696  1.00  0.00     0.001 A 
ATOM     73  C   UNL     1       6.471  19.046   3.917  1.00  0.00     0.001 A 
ATOM     74  C   UNL     1       7.205  20.081   4.481  1.00  0.00     0.000 A 
ENDBRANCH  55  69
BRANCH  56  75
ATOM     75  C   UNL     1      10.553  11.328   2.617  1.00  0.00    -0.014 A 
ATOM     76  C   UNL     1      11.538  11.151   3.599  1.00  0.00     0.009 A 
ATOM     77  C   UNL     1       9.373  10.568   2.721  1.00  0.00     0.009 A 
ATOM     78  C   UNL     1      11.327  10.278   4.675  1.00  0.00     0.001 A 
ATOM     79  C   UNL     1       9.163   9.697   3.796  1.00  0.00     0.001 A 
ATOM     80  C   UNL     1      10.134   9.566   4.782  1.00  0.00     0.000 A 
ENDBRANCH  56  75
BRANCH  68  81
ATOM     81  C   UNL     1      13.055  16.067  -0.651  1.00  0.00    -0.014 A 
ATOM     82  C   UNL     1      12.795  14.976  -1.500  1.00  0.00     0.009 A 
ATOM     83  C   UNL     1      14.205  16.834  -0.889  1.00  0.00     0.009 A 
ATOM     84  C   UNL     1      13.670  14.655  -2.543  1.00  0.00     0.001 A 
ATOM     85  C   UNL     1      15.068  16.526  -1.942  1.00  0.00     0.001 A 
ATOM     86  C   UNL     1      14.802  15.436  -2.768  1.00  0.00     0.000 A 
ENDBRANCH  68  81
ENDBRANCH  42  43
ENDBRANCH  34  37
ENDBRANCH  32  33
ENDBRANCH  31  32
ENDBRANCH  30  31
ENDBRANCH  29  30
ENDBRANCH   3  29
TORSDOF 17
