REMARK SMILES CN(CCOCC1CC1)c1nccnc1C(=O)NCCCCNC(=O)c1ccc(-c2c3nc(c(-c4ccccc4)c4ccc([nH]4)c(-c4ccccc4)c4nc(c(-c5ccccc5)c5ccc2[nH]5)C=C4)C=C3)cc1
REMARK SMILES IDX 16 1 17 2 18 3 15 5 10 6 11 7 12 8 14 9 13 10 2 11 1 12 3 13
REMARK SMILES IDX 4 14 5 15 6 16 7 17 8 18 9 19 19 20 20 21 21 22 22 23 23 24
REMARK SMILES IDX 24 25 25 27 26 28 27 29 73 30 28 31 72 32 29 33 30 34 31 35
REMARK SMILES IDX 66 36 32 37 71 38 65 39 67 40 33 41 70 42 64 43 63 44 34 46
REMARK SMILES IDX 56 47 41 48 55 49 42 50 45 51 54 52 68 53 43 54 44 55 53 57
REMARK SMILES IDX 69 58 46 59 35 60 36 61 40 62 37 63 39 64 38 65 57 66 58 67
REMARK SMILES IDX 62 68 59 69 61 70 60 71 47 72 48 73 52 74 49 75 51 76 50 77
REMARK H PARENT 18 4 23 26 67 45 45 56
REMARK Flexibility Score: inf
ROOT
ATOM      1  C   UNL     1      -1.712   0.082   3.740  1.00  0.00     0.273 C 
ATOM      2  O   UNL     1      -2.264  -0.094   4.859  1.00  0.00    -0.267 OA
ATOM      3  N   UNL     1      -2.819   0.124   2.832  1.00  0.00    -0.351 N 
ATOM      4  H   UNL     1      -3.487  -0.415   3.314  1.00  0.00     0.163 HD
ENDROOT
BRANCH   1   5
ATOM      5  C   UNL     1      -0.014   0.060   3.879  1.00  0.00     0.170 A 
ATOM      6  C   UNL     1       1.256   0.384   3.196  1.00  0.00     0.160 A 
ATOM      7  N   UNL     1       2.473   0.058   3.755  1.00  0.00    -0.235 NA
ATOM      8  C   UNL     1       2.514  -0.573   4.930  1.00  0.00     0.133 A 
ATOM      9  N   UNL     1       0.146  -0.571   5.107  1.00  0.00    -0.246 NA
ATOM     10  C   UNL     1       1.367  -0.874   5.598  1.00  0.00     0.132 A 
BRANCH   6  11
ATOM     11  N   UNL     1       1.537   0.928   1.957  1.00  0.00    -0.355 N 
ATOM     12  C   UNL     1       2.456   0.207   1.043  1.00  0.00     0.145 C 
BRANCH  11  13
ATOM     13  C   UNL     1       1.632   2.382   1.758  1.00  0.00     0.146 C 
BRANCH  13  14
ATOM     14  C   UNL     1       0.397   2.885   1.013  1.00  0.00     0.181 C 
BRANCH  14  15
ATOM     15  O   UNL     1      -0.072   1.833   0.132  1.00  0.00    -0.379 OA
BRANCH  15  16
ATOM     16  C   UNL     1      -0.775   0.852   0.917  1.00  0.00     0.163 C 
BRANCH  16  17
ATOM     17  C   UNL     1      -0.578  -0.606   0.521  1.00  0.00     0.015 C 
ATOM     18  C   UNL     1       0.222  -1.788   1.072  1.00  0.00     0.006 C 
ATOM     19  C   UNL     1      -1.226  -1.795   1.319  1.00  0.00     0.006 C 
ENDBRANCH  16  17
ENDBRANCH  15  16
ENDBRANCH  14  15
ENDBRANCH  13  14
ENDBRANCH  11  13
ENDBRANCH   6  11
ENDBRANCH   1   5
BRANCH   3  20
ATOM     20  C   UNL     1      -3.613   0.512   1.528  1.00  0.00     0.116 C 
BRANCH  20  21
ATOM     21  C   UNL     1      -3.581  -0.244   0.136  1.00  0.00     0.023 C 
BRANCH  21  22
ATOM     22  C   UNL     1      -3.825   0.531  -1.201  1.00  0.00     0.023 C 
BRANCH  22  23
ATOM     23  C   UNL     1      -3.164   1.900  -1.448  1.00  0.00     0.116 C 
BRANCH  23  24
ATOM     24  N   UNL     1      -2.035   1.939  -2.388  1.00  0.00    -0.352 N 
ATOM     25  C   UNL     1      -1.878   2.644  -3.569  1.00  0.00     0.251 C 
ATOM     26  H   UNL     1      -1.268   1.375  -2.138  1.00  0.00     0.163 HD
ATOM     27  O   UNL     1      -0.815   2.601  -4.199  1.00  0.00    -0.269 OA
BRANCH  25  28
ATOM     28  C   UNL     1      -3.003   3.422  -4.133  1.00  0.00     0.039 A 
ATOM     29  C   UNL     1      -3.410   3.188  -5.450  1.00  0.00     0.014 A 
ATOM     30  C   UNL     1      -3.709   4.327  -3.341  1.00  0.00     0.014 A 
ATOM     31  C   UNL     1      -4.620   3.722  -5.907  1.00  0.00     0.010 A 
ATOM     32  C   UNL     1      -4.958   4.777  -3.760  1.00  0.00     0.010 A 
ATOM     33  C   UNL     1      -5.448   4.447  -5.034  1.00  0.00    -0.014 A 
BRANCH  33  34
ATOM     34  C   UNL     1      -6.847   4.804  -5.402  1.00  0.00     0.031 A 
ATOM     35  C   UNL     1      -7.292   6.240  -5.432  1.00  0.00     0.074 A 
ATOM     36  C   UNL     1      -7.750   3.824  -5.616  1.00  0.00     0.049 A 
ATOM     37  N   UNL     1      -8.486   6.731  -5.657  1.00  0.00    -0.248 NA
ATOM     38  C   UNL     1      -6.269   7.258  -5.144  1.00  0.00     0.031 C 
ATOM     39  C   UNL     1      -7.475   2.385  -5.563  1.00  0.00     0.029 A 
ATOM     40  N   UNL     1      -9.091   3.888  -5.915  1.00  0.00    -0.354 N 
ATOM     41  C   UNL     1      -8.360   8.107  -5.522  1.00  0.00     0.074 A 
ATOM     42  C   UNL     1      -6.989   8.370  -5.140  1.00  0.00     0.031 C 
ATOM     43  C   UNL     1      -8.597   1.708  -5.857  1.00  0.00     0.029 A 
ATOM     44  C   UNL     1      -9.684   2.657  -6.072  1.00  0.00     0.049 A 
ATOM     45  H   UNL     1      -9.581   4.737  -6.009  1.00  0.00     0.167 HD
ATOM     46  C   UNL     1      -9.291   9.071  -5.721  1.00  0.00     0.031 A 
ATOM     47  C   UNL     1     -10.959   2.324  -6.353  1.00  0.00     0.031 A 
ATOM     48  C   UNL     1     -10.654   8.817  -6.108  1.00  0.00     0.049 A 
ATOM     49  C   UNL     1     -11.979   3.412  -6.550  1.00  0.00     0.074 A 
ATOM     50  C   UNL     1     -11.654   9.732  -6.388  1.00  0.00     0.029 A 
ATOM     51  N   UNL     1     -11.210   7.557  -6.263  1.00  0.00    -0.354 N 
ATOM     52  N   UNL     1     -11.822   4.712  -6.496  1.00  0.00    -0.248 NA
ATOM     53  C   UNL     1     -13.352   2.984  -6.858  1.00  0.00     0.031 C 
ATOM     54  C   UNL     1     -12.830   9.025  -6.659  1.00  0.00     0.029 A 
ATOM     55  C   UNL     1     -12.546   7.670  -6.609  1.00  0.00     0.049 A 
ATOM     56  H   UNL     1     -10.726   6.707  -6.144  1.00  0.00     0.167 HD
ATOM     57  C   UNL     1     -13.065   5.256  -6.793  1.00  0.00     0.074 A 
ATOM     58  C   UNL     1     -13.961   4.147  -7.043  1.00  0.00     0.031 C 
ATOM     59  C   UNL     1     -13.429   6.560  -6.855  1.00  0.00     0.031 A 
BRANCH  46  60
ATOM     60  C   UNL     1      -8.861  10.498  -5.519  1.00  0.00    -0.014 A 
ATOM     61  C   UNL     1      -7.962  11.119  -6.401  1.00  0.00     0.009 A 
ATOM     62  C   UNL     1      -9.387  11.244  -4.452  1.00  0.00     0.009 A 
ATOM     63  C   UNL     1      -7.566  12.441  -6.195  1.00  0.00     0.001 A 
ATOM     64  C   UNL     1      -9.015  12.576  -4.267  1.00  0.00     0.001 A 
ATOM     65  C   UNL     1      -8.096  13.170  -5.131  1.00  0.00     0.000 A 
ENDBRANCH  46  60
BRANCH  47  66
ATOM     66  C   UNL     1     -11.350   0.894  -6.482  1.00  0.00    -0.014 A 
ATOM     67  C   UNL     1     -11.707   0.364  -7.732  1.00  0.00     0.009 A 
ATOM     68  C   UNL     1     -11.389   0.056  -5.357  1.00  0.00     0.009 A 
ATOM     69  C   UNL     1     -12.123  -0.965  -7.848  1.00  0.00     0.001 A 
ATOM     70  C   UNL     1     -11.776  -1.281  -5.480  1.00  0.00     0.001 A 
ATOM     71  C   UNL     1     -12.153  -1.787  -6.723  1.00  0.00     0.000 A 
ENDBRANCH  47  66
BRANCH  59  72
ATOM     72  C   UNL     1     -14.850   6.863  -7.245  1.00  0.00    -0.014 A 
ATOM     73  C   UNL     1     -15.919   6.607  -6.372  1.00  0.00     0.009 A 
ATOM     74  C   UNL     1     -15.116   7.454  -8.490  1.00  0.00     0.009 A 
ATOM     75  C   UNL     1     -17.229   6.906  -6.753  1.00  0.00     0.001 A 
ATOM     76  C   UNL     1     -16.422   7.782  -8.855  1.00  0.00     0.001 A 
ATOM     77  C   UNL     1     -17.478   7.499  -7.991  1.00  0.00     0.000 A 
ENDBRANCH  59  72
ENDBRANCH  33  34
ENDBRANCH  25  28
ENDBRANCH  23  24
ENDBRANCH  22  23
ENDBRANCH  21  22
ENDBRANCH  20  21
ENDBRANCH   3  20
TORSDOF 17
