REMARK SMILES O=C(C[N@@H+]1CC[N@H+](Cc2cc(F)ccc2Cl)[C@H]2CS(=O)(=O)C[C@H]21)NCCCCNC(=O)c1ccc(-c2c3nc(c(-c4ccccc4)c4ccc([nH]4)c(-c4ccccc4)c4nc(c(-c5ccccc5)c5ccc2[nH]5)C=C4)C=C3)cc1
REMARK SMILES IDX 26 1 25 2 24 3 1 4 2 5 3 7 4 8 5 9 23 10 6 12 17 13 22 14
REMARK SMILES IDX 7 15 18 16 19 17 20 19 21 20 8 21 9 22 10 23 15 24 11 25
REMARK SMILES IDX 14 26 16 27 12 28 13 29 27 30 28 31 29 32 30 33 31 35 32 36
REMARK SMILES IDX 33 37 79 38 34 39 78 40 35 41 36 42 37 43 72 44 38 45 77 46
REMARK SMILES IDX 71 47 73 48 39 49 76 50 70 51 69 52 40 54 62 55 47 56 61 57
REMARK SMILES IDX 48 58 51 59 60 60 74 61 49 62 50 63 59 65 75 66 52 67 41 68
REMARK SMILES IDX 42 69 46 70 43 71 45 72 44 73 63 74 64 75 68 76 65 77 67 78
REMARK SMILES IDX 66 79 53 80 54 81 58 82 55 83 57 84 56 85
REMARK H PARENT 24 6 4 11 7 18 29 34 73 53 51 64
REMARK Flexibility Score: inf
ROOT
ATOM      1  C   UNL     1       2.444   2.662   2.045  1.00  0.00     0.023 C 
ENDROOT
BRANCH   1   2
ATOM      2  C   UNL     1       2.071   2.311   0.603  1.00  0.00     0.116 C 
BRANCH   2   3
ATOM      3  N   UNL     1       2.772   1.136   0.137  1.00  0.00    -0.351 N 
ATOM      4  O   UNL     1       0.934  -0.244  -0.053  1.00  0.00    -0.269 OA
ATOM      5  C   UNL     1       2.146  -0.066  -0.118  1.00  0.00     0.275 C 
ATOM      6  H   UNL     1       3.744   1.197  -0.004  1.00  0.00     0.163 HD
BRANCH   5   7
ATOM      7  C   UNL     1       3.132  -1.200  -0.391  1.00  0.00     0.364 C 
BRANCH   7   8
ATOM      8  N   UNL     1       3.995  -0.886  -1.567  1.00  0.00    -0.314 N 
ATOM      9  C   UNL     1       3.332  -1.338  -2.812  1.00  0.00     0.325 C 
ATOM     10  C   UNL     1       5.297  -1.577  -1.443  1.00  0.00     0.259 C 
ATOM     11  H   UNL     1       4.145   0.123  -1.599  1.00  0.00     0.349 HD
ATOM     12  C   UNL     1       3.236  -2.878  -2.971  1.00  0.00     0.325 C 
ATOM     13  C   UNL     1       5.208  -3.133  -1.455  1.00  0.00     0.259 C 
ATOM     14  C   UNL     1       6.304  -1.191  -2.530  1.00  0.00     0.208 C 
ATOM     15  N   UNL     1       4.395  -3.696  -2.552  1.00  0.00    -0.318 N 
ATOM     16  C   UNL     1       6.671  -3.618  -1.484  1.00  0.00     0.208 C 
ATOM     17  S   UNL     1       7.630  -2.343  -2.279  1.00  0.00     0.162 S 
ATOM     18  H   UNL     1       5.039  -3.654  -3.342  1.00  0.00     0.349 HD
ATOM     19  O   UNL     1       8.532  -1.775  -1.297  1.00  0.00    -0.228 OA
ATOM     20  O   UNL     1       8.097  -2.814  -3.567  1.00  0.00    -0.228 OA
BRANCH  15  21
ATOM     21  C   UNL     1       4.042  -5.133  -2.378  1.00  0.00     0.301 C 
BRANCH  21  22
ATOM     22  C   UNL     1       3.132  -5.472  -1.203  1.00  0.00     0.028 A 
ATOM     23  C   UNL     1       1.740  -5.316  -1.351  1.00  0.00     0.050 A 
ATOM     24  C   UNL     1       3.604  -5.903   0.052  1.00  0.00     0.050 A 
ATOM     25  C   UNL     1       0.879  -5.461  -0.267  1.00  0.00     0.123 A 
ATOM     26  C   UNL     1       2.724  -6.068   1.134  1.00  0.00     0.024 A 
ATOM     27  Cl  UNL     1       5.269  -6.260   0.343  1.00  0.00    -0.084 Cl
ATOM     28  F   UNL     1      -0.429  -5.232  -0.431  1.00  0.00    -0.207 F 
ATOM     29  C   UNL     1       1.362  -5.821   0.981  1.00  0.00     0.041 A 
ENDBRANCH  21  22
ENDBRANCH  15  21
ENDBRANCH   7   8
ENDBRANCH   5   7
ENDBRANCH   2   3
ENDBRANCH   1   2
BRANCH   1  30
ATOM     30  C   UNL     1       3.929   2.954   2.280  1.00  0.00     0.023 C 
BRANCH  30  31
ATOM     31  C   UNL     1       4.527   4.057   1.415  1.00  0.00     0.116 C 
BRANCH  31  32
ATOM     32  N   UNL     1       3.922   5.358   1.653  1.00  0.00    -0.352 N 
ATOM     33  C   UNL     1       4.520   6.569   1.908  1.00  0.00     0.251 C 
ATOM     34  H   UNL     1       2.938   5.373   1.627  1.00  0.00     0.163 HD
ATOM     35  O   UNL     1       3.832   7.537   2.219  1.00  0.00    -0.269 OA
BRANCH  33  36
ATOM     36  C   UNL     1       5.993   6.708   1.844  1.00  0.00     0.039 A 
ATOM     37  C   UNL     1       6.645   7.425   2.852  1.00  0.00     0.014 A 
ATOM     38  C   UNL     1       6.733   6.143   0.803  1.00  0.00     0.014 A 
ATOM     39  C   UNL     1       8.040   7.511   2.855  1.00  0.00     0.010 A 
ATOM     40  C   UNL     1       8.126   6.162   0.849  1.00  0.00     0.010 A 
ATOM     41  C   UNL     1       8.796   6.845   1.877  1.00  0.00    -0.014 A 
BRANCH  41  42
ATOM     42  C   UNL     1      10.282   6.837   1.924  1.00  0.00     0.031 A 
ATOM     43  C   UNL     1      11.085   7.457   0.812  1.00  0.00     0.074 A 
ATOM     44  C   UNL     1      10.914   6.216   2.940  1.00  0.00     0.049 A 
ATOM     45  N   UNL     1      12.385   7.501   0.658  1.00  0.00    -0.248 NA
ATOM     46  C   UNL     1      10.329   8.093  -0.279  1.00  0.00     0.031 C 
ATOM     47  C   UNL     1      10.258   5.545   4.065  1.00  0.00     0.029 A 
ATOM     48  N   UNL     1      12.254   6.043   3.188  1.00  0.00    -0.354 N 
ATOM     49  C   UNL     1      12.600   8.150  -0.552  1.00  0.00     0.074 A 
ATOM     50  C   UNL     1      11.299   8.439  -1.113  1.00  0.00     0.031 C 
ATOM     51  C   UNL     1      11.195   5.064   4.897  1.00  0.00     0.029 A 
ATOM     52  C   UNL     1      12.515   5.346   4.343  1.00  0.00     0.049 A 
ATOM     53  H   UNL     1      12.960   6.386   2.594  1.00  0.00     0.167 HD
ATOM     54  C   UNL     1      13.774   8.490  -1.137  1.00  0.00     0.031 A 
ATOM     55  C   UNL     1      13.685   4.966   4.893  1.00  0.00     0.031 A 
ATOM     56  C   UNL     1      15.070   8.207  -0.578  1.00  0.00     0.049 A 
ATOM     57  C   UNL     1      14.973   5.327   4.205  1.00  0.00     0.074 A 
ATOM     58  C   UNL     1      16.315   8.564  -1.068  1.00  0.00     0.029 A 
ATOM     59  N   UNL     1      15.290   7.491   0.588  1.00  0.00    -0.354 N 
ATOM     60  N   UNL     1      15.159   6.008   3.101  1.00  0.00    -0.248 NA
ATOM     61  C   UNL     1      16.214   4.873   4.849  1.00  0.00     0.031 C 
ATOM     62  C   UNL     1      17.289   8.008  -0.233  1.00  0.00     0.029 A 
ATOM     63  C   UNL     1      16.651   7.367   0.816  1.00  0.00     0.049 A 
ATOM     64  H   UNL     1      14.584   7.125   1.168  1.00  0.00     0.167 HD
ATOM     65  C   UNL     1      16.536   6.093   2.936  1.00  0.00     0.074 A 
ATOM     66  C   UNL     1      17.136   5.409   4.062  1.00  0.00     0.031 C 
ATOM     67  C   UNL     1      17.239   6.686   1.941  1.00  0.00     0.031 A 
BRANCH  54  68
ATOM     68  C   UNL     1      13.712   9.197  -2.464  1.00  0.00    -0.014 A 
ATOM     69  C   UNL     1      13.235  10.514  -2.569  1.00  0.00     0.009 A 
ATOM     70  C   UNL     1      14.181   8.553  -3.619  1.00  0.00     0.009 A 
ATOM     71  C   UNL     1      13.194  11.155  -3.809  1.00  0.00     0.001 A 
ATOM     72  C   UNL     1      14.170   9.208  -4.852  1.00  0.00     0.001 A 
ATOM     73  C   UNL     1      13.667  10.504  -4.948  1.00  0.00     0.000 A 
ENDBRANCH  54  68
BRANCH  55  74
ATOM     74  C   UNL     1      13.700   4.206   6.172  1.00  0.00    -0.014 A 
ATOM     75  C   UNL     1      14.202   4.794   7.344  1.00  0.00     0.009 A 
ATOM     76  C   UNL     1      13.235   2.883   6.225  1.00  0.00     0.009 A 
ATOM     77  C   UNL     1      14.268   4.062   8.532  1.00  0.00     0.001 A 
ATOM     78  C   UNL     1      13.270   2.165   7.422  1.00  0.00     0.001 A 
ATOM     79  C   UNL     1      13.798   2.751   8.572  1.00  0.00     0.000 A 
ENDBRANCH  55  74
BRANCH  67  80
ATOM     80  C   UNL     1      18.739   6.663   2.046  1.00  0.00    -0.014 A 
ATOM     81  C   UNL     1      19.470   5.478   1.872  1.00  0.00     0.009 A 
ATOM     82  C   UNL     1      19.434   7.860   2.286  1.00  0.00     0.009 A 
ATOM     83  C   UNL     1      20.863   5.486   1.972  1.00  0.00     0.001 A 
ATOM     84  C   UNL     1      20.828   7.871   2.352  1.00  0.00     0.001 A 
ATOM     85  C   UNL     1      21.540   6.683   2.206  1.00  0.00     0.000 A 
ENDBRANCH  67  80
ENDBRANCH  41  42
ENDBRANCH  33  36
ENDBRANCH  31  32
ENDBRANCH  30  31
ENDBRANCH   1  30
TORSDOF 14
