REMARK SMILES Cn1c(C(=O)N2CCC[C@@H](C(=O)NCCCCNC(=O)c3ccc(-c4c5nc(c(-c6ccccc6)c6ccc([nH]6)c(-c6ccccc6)c6nc(c(-c7ccccc7)c7ccc4[nH]7)C=C6)C=C5)cc3)C2)cc2sccc21
REMARK SMILES IDX 15 1 14 2 13 3 11 4 12 5 10 7 6 8 7 9 69 10 8 11 9 12 4 13
REMARK SMILES IDX 5 14 3 15 1 16 2 17 75 18 70 19 71 20 74 21 72 22 73 23
REMARK SMILES IDX 16 24 17 25 18 26 19 27 20 29 21 30 22 31 68 32 23 33 67 34
REMARK SMILES IDX 24 35 25 36 26 37 61 38 27 39 66 40 60 41 62 42 28 43 65 44
REMARK SMILES IDX 59 45 58 46 29 48 51 49 36 50 50 51 37 52 40 53 49 54 63 55
REMARK SMILES IDX 38 56 39 57 48 59 64 60 41 61 30 62 31 63 35 64 32 65 34 66
REMARK SMILES IDX 33 67 52 68 53 69 57 70 54 71 56 72 55 73 42 74 43 75 47 76
REMARK SMILES IDX 44 77 46 78 45 79
REMARK H PARENT 13 6 18 28 62 47 40 58
REMARK Flexibility Score: inf
ROOT
ATOM      1  C   UNL     1      -3.265   3.372  -3.131  1.00  0.00     0.023 C 
ENDROOT
BRANCH   1   2
ATOM      2  C   UNL     1      -2.576   4.514  -3.884  1.00  0.00     0.116 C 
BRANCH   2   3
ATOM      3  N   UNL     1      -2.639   5.788  -3.188  1.00  0.00    -0.356 N 
ATOM      4  C   UNL     1      -1.844   6.440  -2.303  1.00  0.00     0.224 C 
ATOM      5  O   UNL     1      -2.232   7.577  -1.998  1.00  0.00    -0.275 OA
ATOM      6  H   UNL     1      -3.450   6.299  -3.412  1.00  0.00     0.163 HD
BRANCH   4   7
ATOM      7  C   UNL     1      -0.576   5.884  -1.643  1.00  0.00     0.098 C 
ATOM      8  N   UNL     1       1.185   4.126  -1.523  1.00  0.00    -0.337 N 
ATOM      9  C   UNL     1       2.271   5.093  -1.559  1.00  0.00     0.120 C 
ATOM     10  C   UNL     1      -0.061   4.546  -2.147  1.00  0.00     0.133 C 
ATOM     11  C   UNL     1       1.836   6.464  -1.065  1.00  0.00     0.022 C 
ATOM     12  C   UNL     1       0.546   6.939  -1.736  1.00  0.00     0.017 C 
BRANCH   8  13
ATOM     13  C   UNL     1       1.457   2.826  -1.088  1.00  0.00     0.270 C 
ATOM     14  O   UNL     1       2.300   2.627  -0.215  1.00  0.00    -0.267 OA
BRANCH  13  15
ATOM     15  C   UNL     1       0.776   1.713  -1.757  1.00  0.00     0.108 A 
ATOM     16  C   UNL     1       0.999   0.035   0.130  1.00  0.00     0.150 C 
ATOM     17  N   UNL     1       0.624   0.451  -1.201  1.00  0.00    -0.339 N 
ATOM     18  C   UNL     1       0.113  -0.406  -2.153  1.00  0.00     0.059 A 
ATOM     19  C   UNL     1       0.307   1.643  -3.065  1.00  0.00     0.053 A 
ATOM     20  C   UNL     1      -0.123   0.309  -3.285  1.00  0.00     0.053 A 
ATOM     21  C   UNL     1      -0.198  -1.789  -2.288  1.00  0.00     0.038 A 
ATOM     22  S   UNL     1      -0.793  -0.650  -4.559  1.00  0.00    -0.142 S 
ATOM     23  C   UNL     1      -0.677  -2.043  -3.557  1.00  0.00     0.068 A 
ENDBRANCH  13  15
ENDBRANCH   8  13
ENDBRANCH   4   7
ENDBRANCH   2   3
ENDBRANCH   1   2
BRANCH   1  24
ATOM     24  C   UNL     1      -4.774   3.232  -3.374  1.00  0.00     0.023 C 
BRANCH  24  25
ATOM     25  C   UNL     1      -5.182   2.909  -4.809  1.00  0.00     0.116 C 
BRANCH  25  26
ATOM     26  N   UNL     1      -4.609   1.661  -5.337  1.00  0.00    -0.352 N 
ATOM     27  C   UNL     1      -4.584   1.224  -6.661  1.00  0.00     0.251 C 
ATOM     28  H   UNL     1      -4.193   1.062  -4.676  1.00  0.00     0.163 HD
ATOM     29  O   UNL     1      -4.465   0.051  -6.957  1.00  0.00    -0.269 OA
BRANCH  27  30
ATOM     30  C   UNL     1      -4.650   2.258  -7.708  1.00  0.00     0.039 A 
ATOM     31  C   UNL     1      -5.434   2.174  -8.862  1.00  0.00     0.014 A 
ATOM     32  C   UNL     1      -3.932   3.404  -7.416  1.00  0.00     0.014 A 
ATOM     33  C   UNL     1      -5.519   3.299  -9.684  1.00  0.00     0.010 A 
ATOM     34  C   UNL     1      -4.290   4.564  -8.020  1.00  0.00     0.010 A 
ATOM     35  C   UNL     1      -4.933   4.493  -9.243  1.00  0.00    -0.014 A 
BRANCH  35  36
ATOM     36  C   UNL     1      -4.951   5.742  -9.981  1.00  0.00     0.031 A 
ATOM     37  C   UNL     1      -6.295   6.312 -10.228  1.00  0.00     0.074 A 
ATOM     38  C   UNL     1      -3.819   6.470 -10.131  1.00  0.00     0.049 A 
ATOM     39  N   UNL     1      -6.883   6.461 -11.366  1.00  0.00    -0.248 NA
ATOM     40  C   UNL     1      -7.137   6.650  -9.069  1.00  0.00     0.031 C 
ATOM     41  C   UNL     1      -2.463   6.200  -9.617  1.00  0.00     0.029 A 
ATOM     42  N   UNL     1      -3.677   7.706 -10.666  1.00  0.00    -0.354 N 
ATOM     43  C   UNL     1      -8.092   7.091 -11.093  1.00  0.00     0.074 A 
ATOM     44  C   UNL     1      -8.274   7.013  -9.665  1.00  0.00     0.031 C 
ATOM     45  C   UNL     1      -1.729   7.335  -9.644  1.00  0.00     0.029 A 
ATOM     46  C   UNL     1      -2.489   8.350 -10.347  1.00  0.00     0.049 A 
ATOM     47  H   UNL     1      -4.365   8.118 -11.237  1.00  0.00     0.167 HD
ATOM     48  C   UNL     1      -8.726   7.844 -12.033  1.00  0.00     0.031 A 
ATOM     49  C   UNL     1      -2.172   9.639 -10.623  1.00  0.00     0.031 A 
ATOM     50  C   UNL     1      -8.153   7.654 -13.342  1.00  0.00     0.049 A 
ATOM     51  C   UNL     1      -3.076  10.075 -11.716  1.00  0.00     0.074 A 
ATOM     52  C   UNL     1      -7.993   6.571 -14.184  1.00  0.00     0.029 A 
ATOM     53  N   UNL     1      -7.243   8.595 -13.769  1.00  0.00    -0.354 N 
ATOM     54  N   UNL     1      -3.046   9.551 -12.910  1.00  0.00    -0.248 NA
ATOM     55  C   UNL     1      -4.332  10.708 -11.344  1.00  0.00     0.031 C 
ATOM     56  C   UNL     1      -6.674   6.716 -14.712  1.00  0.00     0.029 A 
ATOM     57  C   UNL     1      -6.143   7.916 -14.232  1.00  0.00     0.049 A 
ATOM     58  H   UNL     1      -7.359   9.573 -13.746  1.00  0.00     0.167 HD
ATOM     59  C   UNL     1      -4.380   9.392 -13.263  1.00  0.00     0.074 A 
ATOM     60  C   UNL     1      -5.124  10.204 -12.296  1.00  0.00     0.031 C 
ATOM     61  C   UNL     1      -4.782   8.391 -14.103  1.00  0.00     0.031 A 
BRANCH  48  62
ATOM     62  C   UNL     1      -9.583   9.039 -11.713  1.00  0.00    -0.014 A 
ATOM     63  C   UNL     1     -10.285   9.666 -12.756  1.00  0.00     0.009 A 
ATOM     64  C   UNL     1      -9.509   9.733 -10.489  1.00  0.00     0.009 A 
ATOM     65  C   UNL     1     -10.826  10.948 -12.601  1.00  0.00     0.001 A 
ATOM     66  C   UNL     1     -10.083  10.995 -10.319  1.00  0.00     0.001 A 
ATOM     67  C   UNL     1     -10.717  11.615 -11.385  1.00  0.00     0.000 A 
ENDBRANCH  48  62
BRANCH  49  68
ATOM     68  C   UNL     1      -1.399  10.583  -9.785  1.00  0.00    -0.014 A 
ATOM     69  C   UNL     1      -0.858  11.761 -10.320  1.00  0.00     0.009 A 
ATOM     70  C   UNL     1      -1.423  10.455  -8.382  1.00  0.00     0.009 A 
ATOM     71  C   UNL     1      -0.389  12.785  -9.481  1.00  0.00     0.001 A 
ATOM     72  C   UNL     1      -0.958  11.476  -7.546  1.00  0.00     0.001 A 
ATOM     73  C   UNL     1      -0.452  12.648  -8.096  1.00  0.00     0.000 A 
ENDBRANCH  49  68
BRANCH  61  74
ATOM     74  C   UNL     1      -3.711   7.542 -14.756  1.00  0.00    -0.014 A 
ATOM     75  C   UNL     1      -2.830   6.720 -14.027  1.00  0.00     0.009 A 
ATOM     76  C   UNL     1      -3.701   7.436 -16.153  1.00  0.00     0.009 A 
ATOM     77  C   UNL     1      -1.954   5.842 -14.675  1.00  0.00     0.001 A 
ATOM     78  C   UNL     1      -2.838   6.547 -16.801  1.00  0.00     0.001 A 
ATOM     79  C   UNL     1      -1.962   5.754 -16.064  1.00  0.00     0.000 A 
ENDBRANCH  61  74
ENDBRANCH  35  36
ENDBRANCH  27  30
ENDBRANCH  25  26
ENDBRANCH  24  25
ENDBRANCH   1  24
TORSDOF 13
