REMARK SMILES C[C@@H]1[C@@H](C(=O)NCCCCNC(=O)c2ccc(-c3c4nc(c(-c5ccccc5)c5ccc([nH]5)c(-c5ccccc5)c5nc(c(-c6ccccc6)c6ccc3[nH]6)C=C5)C=C4)cc2)CCN1C(=O)CN1C(=O)CNC1=O
REMARK SMILES IDX 8 1 7 2 6 3 4 4 5 5 3 7 1 8 2 9 64 10 62 11 63 12 65 13
REMARK SMILES IDX 66 14 67 15 68 16 69 17 73 18 70 19 71 20 72 21 74 22 9 24
REMARK SMILES IDX 10 25 11 26 12 27 13 29 14 30 15 31 61 32 16 33 60 34 17 35
REMARK SMILES IDX 18 36 19 37 54 38 20 39 59 40 53 41 55 42 21 43 58 44 52 45
REMARK SMILES IDX 51 46 22 48 44 49 29 50 43 51 30 52 33 53 42 54 56 55 31 56
REMARK SMILES IDX 32 57 41 59 57 60 34 61 23 62 24 63 28 64 25 65 27 66 26 67
REMARK SMILES IDX 45 68 46 69 50 70 47 71 49 72 48 73 35 74 36 75 40 76 37 77
REMARK SMILES IDX 39 78 38 79
REMARK H PARENT 6 6 72 23 11 28 55 47 33 58
REMARK Flexibility Score: inf
ROOT
ATOM      1  C   UNL     1      -2.860   4.405  -1.059  1.00  0.00     0.023 C 
ENDROOT
BRANCH   1   2
ATOM      2  C   UNL     1      -2.453   2.992  -0.652  1.00  0.00     0.116 C 
BRANCH   2   3
ATOM      3  N   UNL     1      -1.548   2.386  -1.603  1.00  0.00    -0.356 N 
ATOM      4  C   UNL     1      -0.432   1.638  -1.389  1.00  0.00     0.225 C 
ATOM      5  O   UNL     1       0.359   1.560  -2.334  1.00  0.00    -0.275 OA
ATOM      6  H   UNL     1      -1.774   2.538  -2.549  1.00  0.00     0.163 HD
BRANCH   4   7
ATOM      7  C   UNL     1      -0.083   1.093  -0.002  1.00  0.00     0.102 C 
ATOM      8  C   UNL     1       1.940  -0.069   0.993  1.00  0.00     0.032 C 
ATOM      9  C   UNL     1       0.897  -0.103  -0.126  1.00  0.00     0.094 C 
ATOM     10  N   UNL     1       0.038  -1.298  -0.021  1.00  0.00    -0.338 N 
ATOM     11  C   UNL     1      -1.204   0.495   0.856  1.00  0.00     0.037 C 
ATOM     12  C   UNL     1      -1.291  -0.954   0.426  1.00  0.00     0.121 C 
BRANCH  10  13
ATOM     13  C   UNL     1       0.246  -2.565  -0.547  1.00  0.00     0.243 C 
ATOM     14  O   UNL     1      -0.621  -3.441  -0.496  1.00  0.00    -0.273 OA
BRANCH  13  15
ATOM     15  C   UNL     1       1.559  -2.820  -1.273  1.00  0.00     0.230 C 
BRANCH  15  16
ATOM     16  N   UNL     1       1.532  -2.603  -2.705  1.00  0.00    -0.253 N 
ATOM     17  C   UNL     1       2.523  -3.064  -3.527  1.00  0.00     0.250 C 
ATOM     18  C   UNL     1       0.757  -1.700  -3.371  1.00  0.00     0.325 C 
ATOM     19  O   UNL     1       3.401  -3.863  -3.230  1.00  0.00    -0.272 OA
ATOM     20  C   UNL     1       2.402  -2.376  -4.875  1.00  0.00     0.218 C 
ATOM     21  N   UNL     1       1.271  -1.534  -4.637  1.00  0.00    -0.329 N 
ATOM     22  O   UNL     1      -0.238  -1.123  -2.980  1.00  0.00    -0.248 OA
ATOM     23  H   UNL     1       0.902  -0.909  -5.301  1.00  0.00     0.165 HD
ENDBRANCH  15  16
ENDBRANCH  13  15
ENDBRANCH  10  13
ENDBRANCH   4   7
ENDBRANCH   2   3
ENDBRANCH   1   2
BRANCH   1  24
ATOM     24  C   UNL     1      -3.678   4.507  -2.348  1.00  0.00     0.023 C 
BRANCH  24  25
ATOM     25  C   UNL     1      -4.942   3.655  -2.394  1.00  0.00     0.116 C 
BRANCH  25  26
ATOM     26  N   UNL     1      -5.873   3.961  -1.318  1.00  0.00    -0.352 N 
ATOM     27  C   UNL     1      -7.165   4.426  -1.369  1.00  0.00     0.251 C 
ATOM     28  H   UNL     1      -5.522   3.812  -0.410  1.00  0.00     0.163 HD
ATOM     29  O   UNL     1      -7.734   4.765  -0.335  1.00  0.00    -0.269 OA
BRANCH  27  30
ATOM     30  C   UNL     1      -7.865   4.547  -2.665  1.00  0.00     0.039 A 
ATOM     31  C   UNL     1      -8.609   5.702  -2.926  1.00  0.00     0.014 A 
ATOM     32  C   UNL     1      -7.798   3.530  -3.619  1.00  0.00     0.014 A 
ATOM     33  C   UNL     1      -9.220   5.868  -4.171  1.00  0.00     0.010 A 
ATOM     34  C   UNL     1      -8.333   3.734  -4.888  1.00  0.00     0.010 A 
ATOM     35  C   UNL     1      -9.054   4.902  -5.177  1.00  0.00    -0.014 A 
BRANCH  35  36
ATOM     36  C   UNL     1      -9.632   5.086  -6.533  1.00  0.00     0.031 A 
ATOM     37  C   UNL     1     -10.667   4.124  -7.049  1.00  0.00     0.074 A 
ATOM     38  C   UNL     1      -9.179   6.075  -7.328  1.00  0.00     0.049 A 
ATOM     39  N   UNL     1     -11.233   4.072  -8.228  1.00  0.00    -0.248 NA
ATOM     40  C   UNL     1     -11.102   3.062  -6.127  1.00  0.00     0.031 C 
ATOM     41  C   UNL     1      -8.152   7.055  -6.966  1.00  0.00     0.029 A 
ATOM     42  N   UNL     1      -9.522   6.414  -8.613  1.00  0.00    -0.354 N 
ATOM     43  C   UNL     1     -12.070   2.963  -8.196  1.00  0.00     0.074 A 
ATOM     44  C   UNL     1     -11.898   2.341  -6.902  1.00  0.00     0.031 C 
ATOM     45  C   UNL     1      -7.971   7.901  -7.993  1.00  0.00     0.029 A 
ATOM     46  C   UNL     1      -8.834   7.500  -9.099  1.00  0.00     0.049 A 
ATOM     47  H   UNL     1     -10.197   5.926  -9.138  1.00  0.00     0.167 HD
ATOM     48  C   UNL     1     -12.922   2.513  -9.148  1.00  0.00     0.031 A 
ATOM     49  C   UNL     1      -8.889   8.104 -10.301  1.00  0.00     0.031 A 
ATOM     50  C   UNL     1     -13.105   3.137 -10.431  1.00  0.00     0.049 A 
ATOM     51  C   UNL     1      -9.834   7.580 -11.346  1.00  0.00     0.074 A 
ATOM     52  C   UNL     1     -13.981   2.787 -11.444  1.00  0.00     0.029 A 
ATOM     53  N   UNL     1     -12.397   4.243 -10.877  1.00  0.00    -0.354 N 
ATOM     54  N   UNL     1     -10.663   6.567 -11.277  1.00  0.00    -0.248 NA
ATOM     55  C   UNL     1      -9.860   8.294 -12.630  1.00  0.00     0.031 C 
ATOM     56  C   UNL     1     -13.770   3.652 -12.522  1.00  0.00     0.029 A 
ATOM     57  C   UNL     1     -12.804   4.577 -12.158  1.00  0.00     0.049 A 
ATOM     58  H   UNL     1     -11.708   4.719 -10.361  1.00  0.00     0.167 HD
ATOM     59  C   UNL     1     -11.333   6.543 -12.494  1.00  0.00     0.074 A 
ATOM     60  C   UNL     1     -10.822   7.649 -13.276  1.00  0.00     0.031 C 
ATOM     61  C   UNL     1     -12.290   5.684 -12.923  1.00  0.00     0.031 A 
BRANCH  48  62
ATOM     62  C   UNL     1     -13.716   1.275  -8.832  1.00  0.00    -0.014 A 
ATOM     63  C   UNL     1     -14.734   1.290  -7.864  1.00  0.00     0.009 A 
ATOM     64  C   UNL     1     -13.457   0.083  -9.525  1.00  0.00     0.009 A 
ATOM     65  C   UNL     1     -15.444   0.126  -7.566  1.00  0.00     0.001 A 
ATOM     66  C   UNL     1     -14.191  -1.072  -9.247  1.00  0.00     0.001 A 
ATOM     67  C   UNL     1     -15.175  -1.053  -8.260  1.00  0.00     0.000 A 
ENDBRANCH  48  62
BRANCH  49  68
ATOM     68  C   UNL     1      -8.039   9.292 -10.577  1.00  0.00    -0.014 A 
ATOM     69  C   UNL     1      -8.617  10.566 -10.693  1.00  0.00     0.009 A 
ATOM     70  C   UNL     1      -6.651   9.161 -10.734  1.00  0.00     0.009 A 
ATOM     71  C   UNL     1      -7.827  11.679 -10.987  1.00  0.00     0.001 A 
ATOM     72  C   UNL     1      -5.859  10.280 -10.999  1.00  0.00     0.001 A 
ATOM     73  C   UNL     1      -6.448  11.536 -11.135  1.00  0.00     0.000 A 
ENDBRANCH  49  68
BRANCH  61  74
ATOM     74  C   UNL     1     -12.882   5.935 -14.281  1.00  0.00    -0.014 A 
ATOM     75  C   UNL     1     -12.155   5.689 -15.456  1.00  0.00     0.009 A 
ATOM     76  C   UNL     1     -14.207   6.388 -14.383  1.00  0.00     0.009 A 
ATOM     77  C   UNL     1     -12.732   5.927 -16.705  1.00  0.00     0.001 A 
ATOM     78  C   UNL     1     -14.791   6.596 -15.633  1.00  0.00     0.001 A 
ATOM     79  C   UNL     1     -14.050   6.374 -16.792  1.00  0.00     0.000 A 
ENDBRANCH  61  74
ENDBRANCH  35  36
ENDBRANCH  27  30
ENDBRANCH  25  26
ENDBRANCH  24  25
ENDBRANCH   1  24
TORSDOF 14
