REMARK SMILES Cc1nsc(N[C@H](C)c2cccc(Br)c2)c1C(=O)NCCCCNC(=O)c1ccc(-c2c3nc(c(-c4ccccc4)c4ccc([nH]4)c(-c4ccccc4)c4nc(c(-c5ccccc5)c5ccc2[nH]5)C=C4)C=C3)cc1
REMARK SMILES IDX 21 1 20 2 19 3 17 4 18 5 16 7 1 8 2 9 3 10 4 11 5 12 6 13
REMARK SMILES IDX 7 15 8 16 9 17 10 18 15 19 11 20 13 21 12 22 14 23 22 24
REMARK SMILES IDX 23 25 24 26 25 27 26 29 27 30 28 31 74 32 29 33 73 34 30 35
REMARK SMILES IDX 31 36 32 37 67 38 33 39 72 40 66 41 68 42 34 43 71 44 65 45
REMARK SMILES IDX 64 46 35 48 57 49 42 50 56 51 43 52 46 53 55 54 69 55 44 56
REMARK SMILES IDX 45 57 54 59 70 60 47 61 36 62 37 63 41 64 38 65 40 66 39 67
REMARK SMILES IDX 58 68 59 69 63 70 60 71 62 72 61 73 48 74 49 75 53 76 50 77
REMARK SMILES IDX 52 78 51 79
REMARK H PARENT 19 6 6 14 24 28 68 47 46 58
REMARK Flexibility Score: inf
ROOT
ATOM      1  C   UNL     1       2.285  -4.969  10.152  1.00  0.00     0.023 C 
ENDROOT
BRANCH   1   2
ATOM      2  C   UNL     1       1.456  -5.926   9.290  1.00  0.00     0.116 C 
BRANCH   2   3
ATOM      3  N   UNL     1       0.170  -5.449   8.829  1.00  0.00    -0.352 N 
ATOM      4  C   UNL     1      -0.483  -5.599   7.618  1.00  0.00     0.256 C 
ATOM      5  O   UNL     1      -1.609  -5.094   7.564  1.00  0.00    -0.269 OA
ATOM      6  H   UNL     1      -0.329  -4.923   9.495  1.00  0.00     0.163 HD
BRANCH   4   7
ATOM      7  C   UNL     1       0.125  -6.235   6.436  1.00  0.00     0.097 A 
ATOM      8  C   UNL     1       1.451  -8.354   7.370  1.00  0.00     0.069 C 
ATOM      9  C   UNL     1       1.017  -7.384   6.325  1.00  0.00     0.066 A 
ATOM     10  N   UNL     1       1.499  -7.642   5.110  1.00  0.00    -0.195 NA
ATOM     11  S   UNL     1       0.798  -6.644   4.024  1.00  0.00    -0.018 S 
ATOM     12  C   UNL     1      -0.232  -5.826   5.136  1.00  0.00     0.123 A 
BRANCH  12  13
ATOM     13  N   UNL     1      -1.204  -4.933   4.772  1.00  0.00    -0.368 N 
ATOM     14  H   UNL     1      -1.670  -4.451   5.493  1.00  0.00     0.162 HD
BRANCH  13  15
ATOM     15  C   UNL     1      -1.603  -4.640   3.397  1.00  0.00     0.107 C 
ATOM     16  C   UNL     1      -1.255  -3.182   3.088  1.00  0.00     0.036 C 
BRANCH  15  17
ATOM     17  C   UNL     1      -3.062  -5.039   3.194  1.00  0.00    -0.025 A 
ATOM     18  C   UNL     1      -3.379  -6.411   3.137  1.00  0.00     0.006 A 
ATOM     19  C   UNL     1      -4.111  -4.117   3.049  1.00  0.00     0.021 A 
ATOM     20  C   UNL     1      -4.691  -6.848   2.934  1.00  0.00     0.002 A 
ATOM     21  C   UNL     1      -5.423  -4.560   2.846  1.00  0.00     0.018 A 
ATOM     22  C   UNL     1      -5.717  -5.920   2.787  1.00  0.00     0.016 A 
ATOM     23  Br  UNL     1      -6.818  -3.297   2.650  1.00  0.00    -0.051 Br
ENDBRANCH  15  17
ENDBRANCH  13  15
ENDBRANCH  12  13
ENDBRANCH   4   7
ENDBRANCH   2   3
ENDBRANCH   1   2
BRANCH   1  24
ATOM     24  C   UNL     1       1.727  -4.494  11.496  1.00  0.00     0.023 C 
BRANCH  24  25
ATOM     25  C   UNL     1       1.244  -5.580  12.443  1.00  0.00     0.116 C 
BRANCH  25  26
ATOM     26  N   UNL     1       2.278  -6.510  12.897  1.00  0.00    -0.352 N 
ATOM     27  C   UNL     1       2.138  -7.527  13.829  1.00  0.00     0.251 C 
ATOM     28  H   UNL     1       3.171  -6.401  12.497  1.00  0.00     0.163 HD
ATOM     29  O   UNL     1       3.117  -8.034  14.370  1.00  0.00    -0.269 OA
BRANCH  27  30
ATOM     30  C   UNL     1       0.779  -7.988  14.172  1.00  0.00     0.039 A 
ATOM     31  C   UNL     1       0.391  -8.224  15.494  1.00  0.00     0.014 A 
ATOM     32  C   UNL     1      -0.137  -8.114  13.134  1.00  0.00     0.014 A 
ATOM     33  C   UNL     1      -0.955  -8.477  15.766  1.00  0.00     0.010 A 
ATOM     34  C   UNL     1      -1.477  -8.194  13.417  1.00  0.00     0.010 A 
ATOM     35  C   UNL     1      -1.894  -8.427  14.723  1.00  0.00    -0.014 A 
BRANCH  35  36
ATOM     36  C   UNL     1      -3.330  -8.502  14.991  1.00  0.00     0.031 A 
ATOM     37  C   UNL     1      -3.835  -7.524  15.990  1.00  0.00     0.074 A 
ATOM     38  C   UNL     1      -4.189  -9.225  14.239  1.00  0.00     0.049 A 
ATOM     39  N   UNL     1      -4.297  -7.776  17.169  1.00  0.00    -0.248 NA
ATOM     40  C   UNL     1      -3.710  -6.087  15.693  1.00  0.00     0.031 C 
ATOM     41  C   UNL     1      -3.887  -9.992  13.022  1.00  0.00     0.029 A 
ATOM     42  N   UNL     1      -5.547  -9.331  14.329  1.00  0.00    -0.354 N 
ATOM     43  C   UNL     1      -4.722  -6.554  17.683  1.00  0.00     0.074 A 
ATOM     44  C   UNL     1      -4.174  -5.540  16.820  1.00  0.00     0.031 C 
ATOM     45  C   UNL     1      -5.031 -10.266  12.360  1.00  0.00     0.029 A 
ATOM     46  C   UNL     1      -6.147  -9.879  13.201  1.00  0.00     0.049 A 
ATOM     47  H   UNL     1      -6.056  -9.045  15.121  1.00  0.00     0.167 HD
ATOM     48  C   UNL     1      -5.725  -6.494  18.604  1.00  0.00     0.031 A 
ATOM     49  C   UNL     1      -7.469 -10.031  12.964  1.00  0.00     0.031 A 
ATOM     50  C   UNL     1      -6.043  -7.804  19.112  1.00  0.00     0.049 A 
ATOM     51  C   UNL     1      -8.160 -10.019  14.267  1.00  0.00     0.074 A 
ATOM     52  C   UNL     1      -5.460  -8.729  19.947  1.00  0.00     0.029 A 
ATOM     53  N   UNL     1      -7.010  -8.455  18.390  1.00  0.00    -0.354 N 
ATOM     54  N   UNL     1      -8.015 -10.960  15.153  1.00  0.00    -0.248 NA
ATOM     55  C   UNL     1      -8.777  -8.792  14.752  1.00  0.00     0.031 C 
ATOM     56  C   UNL     1      -5.939 -10.002  19.512  1.00  0.00     0.029 A 
ATOM     57  C   UNL     1      -6.830  -9.810  18.456  1.00  0.00     0.049 A 
ATOM     58  H   UNL     1      -7.734  -8.009  17.893  1.00  0.00     0.167 HD
ATOM     59  C   UNL     1      -8.085 -10.298  16.363  1.00  0.00     0.074 A 
ATOM     60  C   UNL     1      -8.747  -9.034  16.066  1.00  0.00     0.031 C 
ATOM     61  C   UNL     1      -7.316 -10.694  17.418  1.00  0.00     0.031 A 
BRANCH  48  62
ATOM     62  C   UNL     1      -6.755  -5.386  18.677  1.00  0.00    -0.014 A 
ATOM     63  C   UNL     1      -7.750  -5.464  19.672  1.00  0.00     0.009 A 
ATOM     64  C   UNL     1      -6.976  -4.458  17.642  1.00  0.00     0.009 A 
ATOM     65  C   UNL     1      -8.930  -4.713  19.593  1.00  0.00     0.001 A 
ATOM     66  C   UNL     1      -8.137  -3.679  17.579  1.00  0.00     0.001 A 
ATOM     67  C   UNL     1      -9.127  -3.827  18.540  1.00  0.00     0.000 A 
ENDBRANCH  48  62
BRANCH  49  68
ATOM     68  C   UNL     1      -8.206 -10.083  11.689  1.00  0.00    -0.014 A 
ATOM     69  C   UNL     1      -9.454 -10.718  11.605  1.00  0.00     0.009 A 
ATOM     70  C   UNL     1      -7.808  -9.261  10.620  1.00  0.00     0.009 A 
ATOM     71  C   UNL     1     -10.301 -10.492  10.514  1.00  0.00     0.001 A 
ATOM     72  C   UNL     1      -8.655  -9.034   9.530  1.00  0.00     0.001 A 
ATOM     73  C   UNL     1      -9.910  -9.635   9.487  1.00  0.00     0.000 A 
ENDBRANCH  49  68
BRANCH  61  74
ATOM     74  C   UNL     1      -6.768 -12.095  17.380  1.00  0.00    -0.014 A 
ATOM     75  C   UNL     1      -5.844 -12.543  16.421  1.00  0.00     0.009 A 
ATOM     76  C   UNL     1      -7.151 -12.975  18.402  1.00  0.00     0.009 A 
ATOM     77  C   UNL     1      -5.345 -13.848  16.467  1.00  0.00     0.001 A 
ATOM     78  C   UNL     1      -6.636 -14.270  18.461  1.00  0.00     0.001 A 
ATOM     79  C   UNL     1      -5.739 -14.710  17.489  1.00  0.00     0.000 A 
ENDBRANCH  61  74
ENDBRANCH  35  36
ENDBRANCH  27  30
ENDBRANCH  25  26
ENDBRANCH  24  25
ENDBRANCH   1  24
TORSDOF 14
