REMARK SMILES Cc1c(C(=O)NCCCCNC(=O)c2ccc(-c3c4nc(c(-c5ccccc5)c5ccc([nH]5)c(-c5ccccc5)c5nc(c(-c6ccccc6)c6ccc3[nH]6)C=C5)C=C4)cc2)cccc1-n1c(C)cc(/C=C2/C(=O)NC(=S)N=C2O)c1C
REMARK SMILES IDX 8 1 7 2 6 3 4 4 5 5 3 7 1 8 2 9 65 10 62 11 64 12 63 13
REMARK SMILES IDX 66 14 67 15 81 16 68 17 69 18 70 19 82 20 71 21 72 22 73 23
REMARK SMILES IDX 79 24 74 25 75 26 78 27 76 28 77 30 80 31 9 33 10 34 11 35
REMARK SMILES IDX 12 36 13 38 14 39 15 40 61 41 16 42 60 43 17 44 18 45 19 46
REMARK SMILES IDX 54 47 20 48 59 49 53 50 55 51 21 52 58 53 52 54 51 55 22 57
REMARK SMILES IDX 44 58 29 59 43 60 30 61 33 62 42 63 56 64 31 65 32 66 41 68
REMARK SMILES IDX 57 69 34 70 23 71 24 72 28 73 25 74 27 75 26 76 45 77 46 78
REMARK SMILES IDX 50 79 47 80 49 81 48 82 35 83 36 84 40 85 37 86 39 87 38 88
REMARK H PARENT 6 6 75 29 80 32 11 37 55 56 33 67
REMARK Flexibility Score: inf
ROOT
ATOM      1  C   UNL     1       4.115  -1.769   1.481  1.00  0.00     0.023 C 
ENDROOT
BRANCH   1   2
ATOM      2  C   UNL     1       3.493  -2.336   0.188  1.00  0.00     0.116 C 
BRANCH   2   3
ATOM      3  N   UNL     1       2.162  -2.856   0.419  1.00  0.00    -0.352 N 
ATOM      4  C   UNL     1       0.869  -2.424   0.319  1.00  0.00     0.251 C 
ATOM      5  O   UNL     1       0.051  -3.313   0.601  1.00  0.00    -0.269 OA
ATOM      6  H   UNL     1       2.199  -3.786   0.741  1.00  0.00     0.163 HD
BRANCH   4   7
ATOM      7  C   UNL     1       0.315  -1.075  -0.088  1.00  0.00     0.044 A 
ATOM      8  C   UNL     1       2.296   0.489   0.391  1.00  0.00     0.047 C 
ATOM      9  C   UNL     1       0.898   0.212  -0.054  1.00  0.00    -0.014 A 
ATOM     10  C   UNL     1       0.083   1.334  -0.384  1.00  0.00     0.049 A 
ATOM     11  C   UNL     1      -1.066  -1.147  -0.429  1.00  0.00     0.014 A 
ATOM     12  C   UNL     1      -1.273   1.228  -0.695  1.00  0.00     0.027 A 
ATOM     13  C   UNL     1      -1.850  -0.026  -0.716  1.00  0.00     0.003 A 
BRANCH  10  14
ATOM     14  N   UNL     1       0.592   2.650  -0.256  1.00  0.00    -0.318 N 
ATOM     15  C   UNL     1       1.348   3.309  -1.208  1.00  0.00     0.020 A 
ATOM     16  C   UNL     1       0.632   3.365   0.941  1.00  0.00     0.027 A 
ATOM     17  C   UNL     1       1.721   2.712  -2.520  1.00  0.00     0.065 C 
ATOM     18  C   UNL     1       1.682   4.538  -0.679  1.00  0.00     0.031 A 
ATOM     19  C   UNL     1       1.219   4.590   0.665  1.00  0.00    -0.003 A 
ATOM     20  C   UNL     1       0.160   2.743   2.217  1.00  0.00     0.065 C 
BRANCH  19  21
ATOM     21  C   UNL     1       1.539   5.665   1.550  1.00  0.00     0.029 C 
ATOM     22  C   UNL     1       0.899   6.193   2.610  1.00  0.00     0.102 C 
ATOM     23  C   UNL     1       1.652   7.224   3.372  1.00  0.00     0.262 C 
ATOM     24  C   UNL     1      -0.399   5.867   3.199  1.00  0.00     0.226 C 
ATOM     25  O   UNL     1       2.647   7.806   2.955  1.00  0.00    -0.269 OA
ATOM     26  N   UNL     1       1.163   7.452   4.630  1.00  0.00    -0.297 N 
ATOM     27  N   UNL     1      -0.807   6.171   4.377  1.00  0.00    -0.184 NA
ATOM     28  C   UNL     1       0.028   6.906   5.176  1.00  0.00     0.203 C 
ATOM     29  H   UNL     1       1.677   8.068   5.200  1.00  0.00     0.172 HD
ATOM     30  S   UNL     1      -0.291   7.231   6.789  1.00  0.00    -0.038 S 
BRANCH  24  31
ATOM     31  O   UNL     1      -1.276   5.249   2.406  1.00  0.00    -0.493 OA
ATOM     32  H   UNL     1      -1.030   5.005   1.536  1.00  0.00     0.295 HD
ENDBRANCH  24  31
ENDBRANCH  19  21
ENDBRANCH  10  14
ENDBRANCH   4   7
ENDBRANCH   2   3
ENDBRANCH   1   2
BRANCH   1  33
ATOM     33  C   UNL     1       5.050  -2.709   2.238  1.00  0.00     0.023 C 
BRANCH  33  34
ATOM     34  C   UNL     1       6.352  -2.956   1.500  1.00  0.00     0.116 C 
BRANCH  34  35
ATOM     35  N   UNL     1       7.443  -2.041   1.798  1.00  0.00    -0.352 N 
ATOM     36  C   UNL     1       8.640  -1.860   1.115  1.00  0.00     0.251 C 
ATOM     37  H   UNL     1       7.316  -1.471   2.591  1.00  0.00     0.163 HD
ATOM     38  O   UNL     1       9.495  -1.117   1.570  1.00  0.00    -0.269 OA
BRANCH  36  39
ATOM     39  C   UNL     1       8.818  -2.455  -0.241  1.00  0.00     0.039 A 
ATOM     40  C   UNL     1       9.416  -1.664  -1.229  1.00  0.00     0.014 A 
ATOM     41  C   UNL     1       8.202  -3.648  -0.599  1.00  0.00     0.014 A 
ATOM     42  C   UNL     1       9.142  -1.923  -2.571  1.00  0.00     0.010 A 
ATOM     43  C   UNL     1       7.805  -3.823  -1.907  1.00  0.00     0.010 A 
ATOM     44  C   UNL     1       8.226  -2.924  -2.887  1.00  0.00    -0.014 A 
BRANCH  44  45
ATOM     45  C   UNL     1       7.597  -3.068  -4.193  1.00  0.00     0.031 A 
ATOM     46  C   UNL     1       7.990  -4.178  -5.079  1.00  0.00     0.074 A 
ATOM     47  C   UNL     1       6.605  -2.229  -4.561  1.00  0.00     0.049 A 
ATOM     48  N   UNL     1       7.812  -4.182  -6.355  1.00  0.00    -0.248 NA
ATOM     49  C   UNL     1       8.672  -5.369  -4.586  1.00  0.00     0.031 C 
ATOM     50  C   UNL     1       5.700  -2.350  -5.701  1.00  0.00     0.029 A 
ATOM     51  N   UNL     1       6.377  -0.943  -4.077  1.00  0.00    -0.354 N 
ATOM     52  C   UNL     1       8.103  -5.444  -6.811  1.00  0.00     0.074 A 
ATOM     53  C   UNL     1       8.690  -6.129  -5.684  1.00  0.00     0.031 C 
ATOM     54  C   UNL     1       5.219  -1.133  -6.001  1.00  0.00     0.029 A 
ATOM     55  C   UNL     1       5.908  -0.171  -5.158  1.00  0.00     0.049 A 
ATOM     56  H   UNL     1       6.517  -0.632  -3.153  1.00  0.00     0.167 HD
ATOM     57  C   UNL     1       7.717  -5.806  -8.066  1.00  0.00     0.031 A 
ATOM     58  C   UNL     1       6.655   0.879  -5.612  1.00  0.00     0.031 A 
ATOM     59  C   UNL     1       7.128  -4.687  -8.802  1.00  0.00     0.049 A 
ATOM     60  C   UNL     1       7.211   0.689  -7.012  1.00  0.00     0.074 A 
ATOM     61  C   UNL     1       5.836  -4.304  -9.121  1.00  0.00     0.029 A 
ATOM     62  N   UNL     1       7.929  -3.589  -9.069  1.00  0.00    -0.354 N 
ATOM     63  N   UNL     1       7.038  -0.379  -7.742  1.00  0.00    -0.248 NA
ATOM     64  C   UNL     1       8.094   1.663  -7.659  1.00  0.00     0.031 C 
ATOM     65  C   UNL     1       5.873  -2.946  -9.560  1.00  0.00     0.029 A 
ATOM     66  C   UNL     1       7.188  -2.519  -9.527  1.00  0.00     0.049 A 
ATOM     67  H   UNL     1       8.906  -3.574  -8.947  1.00  0.00     0.167 HD
ATOM     68  C   UNL     1       7.786  -0.276  -8.884  1.00  0.00     0.074 A 
ATOM     69  C   UNL     1       8.426   1.023  -8.792  1.00  0.00     0.031 C 
ATOM     70  C   UNL     1       7.872  -1.271  -9.812  1.00  0.00     0.031 A 
BRANCH  57  71
ATOM     71  C   UNL     1       7.692  -7.233  -8.550  1.00  0.00    -0.014 A 
ATOM     72  C   UNL     1       6.790  -7.606  -9.561  1.00  0.00     0.009 A 
ATOM     73  C   UNL     1       8.495  -8.264  -8.031  1.00  0.00     0.009 A 
ATOM     74  C   UNL     1       6.636  -8.941  -9.963  1.00  0.00     0.001 A 
ATOM     75  C   UNL     1       8.318  -9.605  -8.395  1.00  0.00     0.001 A 
ATOM     76  C   UNL     1       7.380  -9.945  -9.358  1.00  0.00     0.000 A 
ENDBRANCH  57  71
BRANCH  58  77
ATOM     77  C   UNL     1       7.348   1.603  -4.505  1.00  0.00    -0.014 A 
ATOM     78  C   UNL     1       6.550   2.232  -3.525  1.00  0.00     0.009 A 
ATOM     79  C   UNL     1       8.694   1.350  -4.208  1.00  0.00     0.009 A 
ATOM     80  C   UNL     1       7.043   2.462  -2.238  1.00  0.00     0.001 A 
ATOM     81  C   UNL     1       9.190   1.605  -2.924  1.00  0.00     0.001 A 
ATOM     82  C   UNL     1       8.355   2.115  -1.930  1.00  0.00     0.000 A 
ENDBRANCH  58  77
BRANCH  70  83
ATOM     83  C   UNL     1       8.657  -1.133 -11.082  1.00  0.00    -0.014 A 
ATOM     84  C   UNL     1       8.567   0.012 -11.886  1.00  0.00     0.009 A 
ATOM     85  C   UNL     1       9.414  -2.214 -11.576  1.00  0.00     0.009 A 
ATOM     86  C   UNL     1       9.249   0.092 -13.106  1.00  0.00     0.001 A 
ATOM     87  C   UNL     1      10.077  -2.145 -12.803  1.00  0.00     0.001 A 
ATOM     88  C   UNL     1      10.002  -0.986 -13.564  1.00  0.00     0.000 A 
ENDBRANCH  70  83
ENDBRANCH  44  45
ENDBRANCH  36  39
ENDBRANCH  34  35
ENDBRANCH  33  34
ENDBRANCH   1  33
TORSDOF 14
