REMARK SMILES Cc1cc(C(=O)NCCCCNC(=O)c2ccc(-c3c4nc(c(-c5ccccc5)c5ccc([nH]5)c(-c5ccccc5)c5nc(c(-c6ccccc6)c6ccc3[nH]6)C=C5)C=C4)cc2)c([N+](=O)[O-])cc1[N+](=O)[O-]
REMARK SMILES IDX 10 1 9 2 8 3 7 4 5 5 6 6 4 8 1 9 2 10 3 11 68 12 67 13 63 14
REMARK SMILES IDX 69 15 70 16 71 17 64 18 65 19 66 20 11 21 12 22 13 23 14 25
REMARK SMILES IDX 15 26 16 27 62 28 17 29 61 30 18 31 19 32 20 33 55 34 21 35
REMARK SMILES IDX 60 36 54 37 56 38 22 39 59 40 53 41 52 42 23 44 45 45 30 46
REMARK SMILES IDX 44 47 31 48 34 49 43 50 57 51 32 52 33 53 42 55 58 56 35 57
REMARK SMILES IDX 24 58 25 59 29 60 26 61 28 62 27 63 46 64 47 65 51 66 48 67
REMARK SMILES IDX 50 68 49 69 36 70 37 71 41 72 38 73 40 74 39 75
REMARK H PARENT 7 7 12 24 56 43 34 54
REMARK Flexibility Score: inf
ROOT
ATOM      1  C   UNL     1      -5.715  -2.271  -1.986  1.00  0.00     0.023 C 
ENDROOT
BRANCH   1   2
ATOM      2  C   UNL     1      -4.949  -1.165  -1.260  1.00  0.00     0.023 C 
BRANCH   2   3
ATOM      3  C   UNL     1      -4.245  -1.599   0.035  1.00  0.00     0.116 C 
BRANCH   3   4
ATOM      4  N   UNL     1      -3.024  -2.320  -0.272  1.00  0.00    -0.352 N 
ATOM      5  C   UNL     1      -1.704  -2.025  -0.446  1.00  0.00     0.258 C 
ATOM      6  O   UNL     1      -1.015  -2.991  -0.794  1.00  0.00    -0.269 OA
ATOM      7  H   UNL     1      -3.194  -3.283  -0.387  1.00  0.00     0.163 HD
BRANCH   5   8
ATOM      8  C   UNL     1      -0.987  -0.731  -0.203  1.00  0.00     0.118 A 
ATOM      9  C   UNL     1       2.786  -0.181   0.189  1.00  0.00     0.052 C 
ATOM     10  C   UNL     1       1.325   0.178   0.149  1.00  0.00     0.028 A 
ATOM     11  C   UNL     1       0.409  -0.894   0.010  1.00  0.00     0.031 A 
ATOM     12  C   UNL     1       0.806   1.477   0.200  1.00  0.00     0.279 A 
ATOM     13  C   UNL     1      -0.563   1.685   0.010  1.00  0.00     0.172 A 
ATOM     14  C   UNL     1      -1.422   0.591  -0.234  1.00  0.00     0.289 A 
BRANCH  12  15
ATOM     15  N   UNL     1       1.644   2.668   0.388  1.00  0.00     0.063 N 
ATOM     16  O   UNL     1       1.262   3.715  -0.155  1.00  0.00    -0.258 OA
ATOM     17  O   UNL     1       2.646   2.569   1.105  1.00  0.00    -0.258 OA
ENDBRANCH  12  15
BRANCH  14  18
ATOM     18  N   UNL     1      -2.693   0.995  -0.760  1.00  0.00     0.063 N 
ATOM     19  O   UNL     1      -2.802   0.989  -1.991  1.00  0.00    -0.258 OA
ATOM     20  O   UNL     1      -3.515   1.454   0.043  1.00  0.00    -0.258 OA
ENDBRANCH  14  18
ENDBRANCH   5   8
ENDBRANCH   3   4
ENDBRANCH   2   3
ENDBRANCH   1   2
BRANCH   1  21
ATOM     21  C   UNL     1      -7.073  -2.553  -1.370  1.00  0.00     0.116 C 
BRANCH  21  22
ATOM     22  N   UNL     1      -8.151  -1.688  -1.835  1.00  0.00    -0.352 N 
ATOM     23  C   UNL     1      -9.450  -1.557  -1.356  1.00  0.00     0.251 C 
ATOM     24  H   UNL     1      -7.926  -1.113  -2.602  1.00  0.00     0.163 HD
ATOM     25  O   UNL     1     -10.241  -0.824  -1.911  1.00  0.00    -0.269 OA
BRANCH  23  26
ATOM     26  C   UNL     1      -9.811  -2.198  -0.060  1.00  0.00     0.039 A 
ATOM     27  C   UNL     1     -10.472  -1.403   0.883  1.00  0.00     0.014 A 
ATOM     28  C   UNL     1      -9.252  -3.410   0.322  1.00  0.00     0.014 A 
ATOM     29  C   UNL     1     -10.288  -1.665   2.236  1.00  0.00     0.010 A 
ATOM     30  C   UNL     1      -8.943  -3.590   1.654  1.00  0.00     0.010 A 
ATOM     31  C   UNL     1      -9.389  -2.664   2.601  1.00  0.00    -0.014 A 
BRANCH  31  32
ATOM     32  C   UNL     1      -8.731  -2.703   3.903  1.00  0.00     0.031 A 
ATOM     33  C   UNL     1      -9.026  -3.791   4.857  1.00  0.00     0.074 A 
ATOM     34  C   UNL     1      -7.777  -1.786   4.195  1.00  0.00     0.049 A 
ATOM     35  N   UNL     1      -8.862  -3.707   6.135  1.00  0.00    -0.248 NA
ATOM     36  C   UNL     1      -9.599  -5.064   4.436  1.00  0.00     0.031 C 
ATOM     37  C   UNL     1      -6.835  -1.820   5.312  1.00  0.00     0.029 A 
ATOM     38  N   UNL     1      -7.604  -0.507   3.658  1.00  0.00    -0.354 N 
ATOM     39  C   UNL     1      -8.974  -4.981   6.644  1.00  0.00     0.074 A 
ATOM     40  C   UNL     1      -9.552  -5.759   5.575  1.00  0.00     0.031 C 
ATOM     41  C   UNL     1      -6.435  -0.564   5.574  1.00  0.00     0.029 A 
ATOM     42  C   UNL     1      -7.224   0.317   4.729  1.00  0.00     0.049 A 
ATOM     43  H   UNL     1      -7.725  -0.238   2.718  1.00  0.00     0.167 HD
ATOM     44  C   UNL     1      -8.407  -5.273   7.850  1.00  0.00     0.031 A 
ATOM     45  C   UNL     1      -7.970   1.371   5.172  1.00  0.00     0.031 A 
ATOM     46  C   UNL     1      -7.901  -4.071   8.514  1.00  0.00     0.049 A 
ATOM     47  C   UNL     1      -8.363   1.248   6.632  1.00  0.00     0.074 A 
ATOM     48  C   UNL     1      -6.628  -3.551   8.688  1.00  0.00     0.029 A 
ATOM     49  N   UNL     1      -8.789  -3.059   8.862  1.00  0.00    -0.354 N 
ATOM     50  N   UNL     1      -8.290   0.137   7.311  1.00  0.00    -0.248 NA
ATOM     51  C   UNL     1      -8.930   2.341   7.421  1.00  0.00     0.031 C 
ATOM     52  C   UNL     1      -6.760  -2.187   9.059  1.00  0.00     0.029 A 
ATOM     53  C   UNL     1      -8.108  -1.891   9.141  1.00  0.00     0.049 A 
ATOM     54  H   UNL     1      -9.767  -3.162   8.904  1.00  0.00     0.167 HD
ATOM     55  C   UNL     1      -8.779   0.334   8.575  1.00  0.00     0.074 A 
ATOM     56  C   UNL     1      -9.161   1.733   8.599  1.00  0.00     0.031 C 
ATOM     57  C   UNL     1      -8.841  -0.680   9.487  1.00  0.00     0.031 A 
BRANCH  44  58
ATOM     58  C   UNL     1      -8.034  -6.679   8.281  1.00  0.00    -0.014 A 
ATOM     59  C   UNL     1      -7.019  -6.862   9.240  1.00  0.00     0.009 A 
ATOM     60  C   UNL     1      -8.566  -7.859   7.735  1.00  0.00     0.009 A 
ATOM     61  C   UNL     1      -6.502  -8.129   9.552  1.00  0.00     0.001 A 
ATOM     62  C   UNL     1      -8.039  -9.128   8.020  1.00  0.00     0.001 A 
ATOM     63  C   UNL     1      -6.994  -9.261   8.919  1.00  0.00     0.000 A 
ENDBRANCH  44  58
BRANCH  45  64
ATOM     64  C   UNL     1      -8.818   2.015   4.133  1.00  0.00    -0.014 A 
ATOM     65  C   UNL     1      -8.182   2.721   3.093  1.00  0.00     0.009 A 
ATOM     66  C   UNL     1     -10.160   1.645   3.968  1.00  0.00     0.009 A 
ATOM     67  C   UNL     1      -8.837   2.954   1.880  1.00  0.00     0.001 A 
ATOM     68  C   UNL     1     -10.815   1.888   2.753  1.00  0.00     0.001 A 
ATOM     69  C   UNL     1     -10.144   2.510   1.700  1.00  0.00     0.000 A 
ENDBRANCH  45  64
BRANCH  57  70
ATOM     70  C   UNL     1      -9.545  -0.631  10.819  1.00  0.00    -0.014 A 
ATOM     71  C   UNL     1     -10.630   0.206  11.106  1.00  0.00     0.009 A 
ATOM     72  C   UNL     1      -9.197  -1.582  11.805  1.00  0.00     0.009 A 
ATOM     73  C   UNL     1     -11.307   0.123  12.332  1.00  0.00     0.001 A 
ATOM     74  C   UNL     1      -9.896  -1.698  13.008  1.00  0.00     0.001 A 
ATOM     75  C   UNL     1     -10.948  -0.834  13.276  1.00  0.00     0.000 A 
ENDBRANCH  57  70
ENDBRANCH  31  32
ENDBRANCH  23  26
ENDBRANCH  21  22
ENDBRANCH   1  21
TORSDOF 13
