REMARK SMILES O=C(C[C@]1(C(=O)NC2CCCCC2)CC(c2ccc([N+](=O)[O-])cc2)=NO1)NCCCCNC(=O)c1ccc(-c2c3nc(c(-c4ccccc4)c4ccc([nH]4)c(-c4ccccc4)c4nc(c(-c5ccccc5)c5ccc2[nH]5)C=C4)C=C3)cc1
REMARK SMILES IDX 29 1 28 2 27 3 1 4 2 5 3 7 4 8 14 9 26 10 15 11 25 12 5 13
REMARK SMILES IDX 6 14 7 15 8 17 9 18 13 19 10 20 12 21 11 22 16 23 17 24
REMARK SMILES IDX 24 25 18 26 23 27 19 28 20 29 21 30 22 31 30 32 31 33 32 34
REMARK SMILES IDX 33 35 34 37 35 38 36 39 82 40 37 41 81 42 38 43 39 44 40 45
REMARK SMILES IDX 75 46 41 47 80 48 74 49 76 50 42 51 79 52 73 53 72 54 43 56
REMARK SMILES IDX 65 57 50 58 64 59 51 60 54 61 63 62 77 63 52 64 53 65 62 67
REMARK SMILES IDX 78 68 55 69 44 70 45 71 49 72 46 73 48 74 47 75 66 76 67 77
REMARK SMILES IDX 71 78 68 79 70 80 69 81 56 82 57 83 61 84 58 85 60 86 59 87
REMARK H PARENT 27 6 7 16 32 36 76 55 54 66
REMARK Flexibility Score: inf
ROOT
ATOM      1  C   UNL     1       7.892   2.863   3.702  1.00  0.00     0.023 C 
ENDROOT
BRANCH   1   2
ATOM      2  C   UNL     1       6.683   1.962   3.468  1.00  0.00     0.116 C 
BRANCH   2   3
ATOM      3  N   UNL     1       5.989   2.224   2.223  1.00  0.00    -0.356 N 
ATOM      4  O   UNL     1       7.417   1.039   0.908  1.00  0.00    -0.275 OA
ATOM      5  C   UNL     1       6.356   1.651   1.036  1.00  0.00     0.224 C 
ATOM      6  H   UNL     1       5.220   2.839   2.232  1.00  0.00     0.163 HD
BRANCH   5   7
ATOM      7  C   UNL     1       5.417   1.806  -0.158  1.00  0.00     0.162 C 
BRANCH   7   8
ATOM      8  C   UNL     1       3.900   2.056   0.032  1.00  0.00     0.229 C 
ATOM      9  C   UNL     1       3.495   3.462  -0.433  1.00  0.00     0.123 C 
ATOM     10  O   UNL     1       3.479   2.013   1.399  1.00  0.00    -0.378 OA
ATOM     11  C   UNL     1       3.402   4.123   0.890  1.00  0.00     0.092 C 
ATOM     12  N   UNL     1       3.431   3.329   1.910  1.00  0.00    -0.089 NA
BRANCH   8  13
ATOM     13  C   UNL     1       3.095   1.019  -0.788  1.00  0.00     0.268 C 
ATOM     14  O   UNL     1       2.752   1.276  -1.949  1.00  0.00    -0.270 OA
ATOM     15  N   UNL     1       2.798  -0.233  -0.339  1.00  0.00    -0.350 N 
ATOM     16  H   UNL     1       2.421  -0.820  -1.034  1.00  0.00     0.163 HD
BRANCH  15  17
ATOM     17  C   UNL     1       2.927  -0.886   0.972  1.00  0.00     0.082 C 
ATOM     18  C   UNL     1       2.229  -2.259   0.927  1.00  0.00     0.025 C 
ATOM     19  C   UNL     1       4.387  -1.064   1.387  1.00  0.00     0.025 C 
ATOM     20  C   UNL     1       2.419  -3.065   2.212  1.00  0.00     0.002 C 
ATOM     21  C   UNL     1       4.563  -1.860   2.672  1.00  0.00     0.002 C 
ATOM     22  C   UNL     1       3.892  -3.218   2.571  1.00  0.00     0.000 C 
ENDBRANCH  15  17
ENDBRANCH   8  13
BRANCH  11  23
ATOM     23  C   UNL     1       3.313   5.581   1.020  1.00  0.00    -0.000 A 
ATOM     24  C   UNL     1       4.136   6.211   1.956  1.00  0.00     0.017 A 
ATOM     25  C   UNL     1       2.396   6.317   0.266  1.00  0.00     0.017 A 
ATOM     26  C   UNL     1       4.046   7.588   2.151  1.00  0.00     0.086 A 
ATOM     27  C   UNL     1       2.280   7.695   0.477  1.00  0.00     0.086 A 
ATOM     28  C   UNL     1       3.099   8.322   1.426  1.00  0.00     0.269 A 
BRANCH  28  29
ATOM     29  N   UNL     1       2.943   9.756   1.692  1.00  0.00     0.062 N 
ATOM     30  O   UNL     1       3.495  10.206   2.703  1.00  0.00    -0.258 OA
ATOM     31  O   UNL     1       2.256  10.414   0.900  1.00  0.00    -0.258 OA
ENDBRANCH  28  29
ENDBRANCH  11  23
ENDBRANCH   7   8
ENDBRANCH   5   7
ENDBRANCH   2   3
ENDBRANCH   1   2
BRANCH   1  32
ATOM     32  C   UNL     1       7.602   4.363   3.646  1.00  0.00     0.023 C 
BRANCH  32  33
ATOM     33  C   UNL     1       6.533   4.868   4.611  1.00  0.00     0.116 C 
BRANCH  33  34
ATOM     34  N   UNL     1       6.922   4.781   6.006  1.00  0.00    -0.352 N 
ATOM     35  C   UNL     1       6.913   5.757   6.975  1.00  0.00     0.251 C 
ATOM     36  H   UNL     1       7.236   3.896   6.302  1.00  0.00     0.163 HD
ATOM     37  O   UNL     1       7.396   5.527   8.082  1.00  0.00    -0.269 OA
BRANCH  35  38
ATOM     38  C   UNL     1       6.359   7.101   6.687  1.00  0.00     0.039 A 
ATOM     39  C   UNL     1       7.094   8.227   7.069  1.00  0.00     0.014 A 
ATOM     40  C   UNL     1       5.123   7.261   6.056  1.00  0.00     0.014 A 
ATOM     41  C   UNL     1       6.628   9.508   6.752  1.00  0.00     0.010 A 
ATOM     42  C   UNL     1       4.694   8.537   5.686  1.00  0.00     0.010 A 
ATOM     43  C   UNL     1       5.444   9.677   6.016  1.00  0.00    -0.014 A 
BRANCH  43  44
ATOM     44  C   UNL     1       4.996  11.028   5.568  1.00  0.00     0.031 A 
ATOM     45  C   UNL     1       3.657  11.578   5.991  1.00  0.00     0.074 A 
ATOM     46  C   UNL     1       5.758  11.740   4.711  1.00  0.00     0.049 A 
ATOM     47  N   UNL     1       3.081  12.709   5.662  1.00  0.00    -0.248 NA
ATOM     48  C   UNL     1       2.849  10.738   6.890  1.00  0.00     0.031 C 
ATOM     49  C   UNL     1       7.048  11.315   4.164  1.00  0.00     0.029 A 
ATOM     50  N   UNL     1       5.546  12.970   4.135  1.00  0.00    -0.354 N 
ATOM     51  C   UNL     1       1.842  12.702   6.290  1.00  0.00     0.074 A 
ATOM     52  C   UNL     1       1.727  11.436   6.981  1.00  0.00     0.031 C 
ATOM     53  C   UNL     1       7.521  12.274   3.352  1.00  0.00     0.029 A 
ATOM     54  C   UNL     1       6.551  13.363   3.283  1.00  0.00     0.049 A 
ATOM     55  H   UNL     1       4.749  13.519   4.315  1.00  0.00     0.167 HD
ATOM     56  C   UNL     1       0.891  13.668   6.315  1.00  0.00     0.031 A 
ATOM     57  C   UNL     1       6.679  14.466   2.521  1.00  0.00     0.031 A 
ATOM     58  C   UNL     1       0.994  14.929   5.627  1.00  0.00     0.049 A 
ATOM     59  C   UNL     1       5.603  15.517   2.548  1.00  0.00     0.074 A 
ATOM     60  C   UNL     1       0.111  15.995   5.647  1.00  0.00     0.029 A 
ATOM     61  N   UNL     1       2.035  15.288   4.787  1.00  0.00    -0.354 N 
ATOM     62  N   UNL     1       4.482  15.537   3.226  1.00  0.00    -0.248 NA
ATOM     63  C   UNL     1       5.822  16.709   1.714  1.00  0.00     0.031 C 
ATOM     64  C   UNL     1       0.591  16.977   4.774  1.00  0.00     0.029 A 
ATOM     65  C   UNL     1       1.806  16.551   4.264  1.00  0.00     0.049 A 
ATOM     66  H   UNL     1       2.821  14.729   4.589  1.00  0.00     0.167 HD
ATOM     67  C   UNL     1       3.877  16.750   2.924  1.00  0.00     0.074 A 
ATOM     68  C   UNL     1       4.764  17.448   2.018  1.00  0.00     0.031 C 
ATOM     69  C   UNL     1       2.692  17.241   3.362  1.00  0.00     0.031 A 
BRANCH  56  70
ATOM     70  C   UNL     1      -0.352  13.395   7.119  1.00  0.00    -0.014 A 
ATOM     71  C   UNL     1      -0.307  13.314   8.521  1.00  0.00     0.009 A 
ATOM     72  C   UNL     1      -1.590  13.255   6.473  1.00  0.00     0.009 A 
ATOM     73  C   UNL     1      -1.467  13.053   9.254  1.00  0.00     0.001 A 
ATOM     74  C   UNL     1      -2.754  13.028   7.211  1.00  0.00     0.001 A 
ATOM     75  C   UNL     1      -2.689  12.915   8.599  1.00  0.00     0.000 A 
ENDBRANCH  56  70
BRANCH  57  76
ATOM     76  C   UNL     1       7.887  14.648   1.672  1.00  0.00    -0.014 A 
ATOM     77  C   UNL     1       8.840  15.630   1.988  1.00  0.00     0.009 A 
ATOM     78  C   UNL     1       8.089  13.850   0.535  1.00  0.00     0.009 A 
ATOM     79  C   UNL     1       9.953  15.827   1.167  1.00  0.00     0.001 A 
ATOM     80  C   UNL     1       9.219  14.028  -0.266  1.00  0.00     0.001 A 
ATOM     81  C   UNL     1      10.144  15.023   0.044  1.00  0.00     0.000 A 
ENDBRANCH  57  76
BRANCH  69  82
ATOM     82  C   UNL     1       2.302  18.621   2.906  1.00  0.00    -0.014 A 
ATOM     83  C   UNL     1       1.924  18.876   1.578  1.00  0.00     0.009 A 
ATOM     84  C   UNL     1       2.275  19.675   3.833  1.00  0.00     0.009 A 
ATOM     85  C   UNL     1       1.562  20.166   1.183  1.00  0.00     0.001 A 
ATOM     86  C   UNL     1       1.880  20.955   3.443  1.00  0.00     0.001 A 
ATOM     87  C   UNL     1       1.534  21.202   2.115  1.00  0.00     0.000 A 
ENDBRANCH  69  82
ENDBRANCH  43  44
ENDBRANCH  35  38
ENDBRANCH  33  34
ENDBRANCH  32  33
ENDBRANCH   1  32
TORSDOF 16
