REMARK SMILES CCC[NH+]1CCN(c2cc(C(=O)NCCCCNC(=O)c3ccc(-c4c5nc(c(-c6ccccc6)c6ccc([nH]6)c(-c6ccccc6)c6nc(c(-c7ccccc7)c7ccc4[nH]7)C=C6)C=C5)cc3)c3cc(NC(=O)c4ccc(F)cc4)ccc3n2)CC1
REMARK SMILES IDX 15 1 14 2 13 3 11 4 12 5 10 7 8 8 9 9 85 10 84 11 69 12
REMARK SMILES IDX 83 13 70 14 82 15 71 16 7 17 4 18 5 19 87 20 6 22 86 23 3 24
REMARK SMILES IDX 2 25 1 26 72 27 73 28 74 30 75 31 76 32 81 33 77 34 80 35
REMARK SMILES IDX 78 36 79 37 16 38 17 39 18 40 19 41 20 43 21 44 22 45 68 46
REMARK SMILES IDX 23 47 67 48 24 49 25 50 26 51 61 52 27 53 66 54 60 55 62 56
REMARK SMILES IDX 28 57 65 58 59 59 58 60 29 62 51 63 36 64 50 65 37 66 40 67
REMARK SMILES IDX 49 68 63 69 38 70 39 71 48 73 64 74 41 75 30 76 31 77 35 78
REMARK SMILES IDX 32 79 34 80 33 81 52 82 53 83 57 84 54 85 56 86 55 87 42 88
REMARK SMILES IDX 43 89 47 90 44 91 46 92 45 93
REMARK H PARENT 13 6 4 21 72 29 18 42 62 61 40 72
REMARK Flexibility Score: inf
ROOT
ATOM      1  C   UNL     1      -7.173   1.912   9.437  1.00  0.00     0.023 C 
ENDROOT
BRANCH   1   2
ATOM      2  C   UNL     1      -5.782   2.495   9.192  1.00  0.00     0.116 C 
BRANCH   2   3
ATOM      3  N   UNL     1      -4.660   1.564   9.203  1.00  0.00    -0.352 N 
ATOM      4  C   UNL     1      -3.420   1.547   8.581  1.00  0.00     0.252 C 
ATOM      5  O   UNL     1      -2.673   0.617   8.903  1.00  0.00    -0.269 OA
ATOM      6  H   UNL     1      -4.816   0.778   9.775  1.00  0.00     0.163 HD
BRANCH   4   7
ATOM      7  C   UNL     1      -2.911   2.499   7.526  1.00  0.00     0.052 A 
ATOM      8  C   UNL     1      -1.441   2.730   5.600  1.00  0.00     0.130 A 
ATOM      9  C   UNL     1      -2.027   1.944   6.592  1.00  0.00     0.061 A 
ATOM     10  N   UNL     1      -1.754   4.031   5.468  1.00  0.00    -0.231 NA
ATOM     11  C   UNL     1      -2.569   4.600   6.367  1.00  0.00     0.074 A 
ATOM     12  C   UNL     1      -3.103   3.888   7.456  1.00  0.00     0.015 A 
ATOM     13  C   UNL     1      -2.860   5.958   6.253  1.00  0.00     0.031 A 
ATOM     14  C   UNL     1      -3.701   4.628   8.474  1.00  0.00     0.037 A 
ATOM     15  C   UNL     1      -3.534   6.662   7.262  1.00  0.00     0.028 A 
ATOM     16  C   UNL     1      -3.864   6.004   8.435  1.00  0.00     0.042 A 
BRANCH   8  17
ATOM     17  N   UNL     1      -0.529   2.166   4.733  1.00  0.00    -0.345 N 
ATOM     18  N   UNL     1       0.341   1.888   1.929  1.00  0.00    -0.332 N 
ATOM     19  C   UNL     1      -0.967   1.402   2.430  1.00  0.00     0.284 C 
ATOM     20  C   UNL     1       0.686   3.093   2.730  1.00  0.00     0.284 C 
ATOM     21  H   UNL     1       0.266   2.110   0.937  1.00  0.00     0.348 HD
ATOM     22  C   UNL     1      -0.976   1.031   3.929  1.00  0.00     0.179 C 
ATOM     23  C   UNL     1       0.645   2.921   4.271  1.00  0.00     0.179 C 
BRANCH  18  24
ATOM     24  C   UNL     1       1.404   0.869   2.013  1.00  0.00     0.262 C 
BRANCH  24  25
ATOM     25  C   UNL     1       1.164  -0.365   1.128  1.00  0.00     0.058 C 
ATOM     26  C   UNL     1       1.229  -0.049  -0.358  1.00  0.00     0.010 C 
ENDBRANCH  24  25
ENDBRANCH  18  24
ENDBRANCH   8  17
BRANCH  16  27
ATOM     27  N   UNL     1      -4.328   6.728   9.546  1.00  0.00    -0.322 N 
ATOM     28  C   UNL     1      -4.364   6.391  10.891  1.00  0.00     0.255 C 
ATOM     29  H   UNL     1      -4.686   7.621   9.336  1.00  0.00     0.170 HD
ATOM     30  O   UNL     1      -5.021   7.072  11.674  1.00  0.00    -0.269 OA
BRANCH  28  31
ATOM     31  C   UNL     1      -3.610   5.226  11.435  1.00  0.00     0.040 A 
ATOM     32  C   UNL     1      -4.304   4.323  12.249  1.00  0.00     0.017 A 
ATOM     33  C   UNL     1      -2.281   4.952  11.080  1.00  0.00     0.017 A 
ATOM     34  C   UNL     1      -3.718   3.108  12.615  1.00  0.00     0.040 A 
ATOM     35  C   UNL     1      -1.706   3.724  11.428  1.00  0.00     0.040 A 
ATOM     36  C   UNL     1      -2.434   2.809  12.179  1.00  0.00     0.123 A 
ATOM     37  F   UNL     1      -1.901   1.618  12.480  1.00  0.00    -0.207 F 
ENDBRANCH  28  31
ENDBRANCH  16  27
ENDBRANCH   4   7
ENDBRANCH   2   3
ENDBRANCH   1   2
BRANCH   1  38
ATOM     38  C   UNL     1      -7.545   1.419  10.844  1.00  0.00     0.023 C 
BRANCH  38  39
ATOM     39  C   UNL     1      -7.457   2.341  12.070  1.00  0.00     0.116 C 
BRANCH  39  40
ATOM     40  N   UNL     1      -7.855   3.725  11.914  1.00  0.00    -0.352 N 
ATOM     41  C   UNL     1      -8.194   4.638  12.902  1.00  0.00     0.251 C 
ATOM     42  H   UNL     1      -7.889   4.060  10.989  1.00  0.00     0.163 HD
ATOM     43  O   UNL     1      -8.552   5.763  12.594  1.00  0.00    -0.269 OA
BRANCH  41  44
ATOM     44  C   UNL     1      -8.199   4.235  14.337  1.00  0.00     0.039 A 
ATOM     45  C   UNL     1      -9.349   4.501  15.087  1.00  0.00     0.014 A 
ATOM     46  C   UNL     1      -7.116   3.599  14.949  1.00  0.00     0.014 A 
ATOM     47  C   UNL     1      -9.455   4.028  16.399  1.00  0.00     0.010 A 
ATOM     48  C   UNL     1      -7.236   3.087  16.246  1.00  0.00     0.010 A 
ATOM     49  C   UNL     1      -8.422   3.264  16.970  1.00  0.00    -0.014 A 
BRANCH  49  50
ATOM     50  C   UNL     1      -8.647   2.556  18.260  1.00  0.00     0.031 A 
ATOM     51  C   UNL     1      -7.903   2.924  19.511  1.00  0.00     0.074 A 
ATOM     52  C   UNL     1      -9.523   1.531  18.284  1.00  0.00     0.049 A 
ATOM     53  N   UNL     1      -8.067   2.465  20.729  1.00  0.00    -0.248 NA
ATOM     54  C   UNL     1      -6.825   3.913  19.381  1.00  0.00     0.031 C 
ATOM     55  C   UNL     1     -10.250   1.018  17.120  1.00  0.00     0.029 A 
ATOM     56  N   UNL     1      -9.960   0.744  19.320  1.00  0.00    -0.354 N 
ATOM     57  C   UNL     1      -7.117   3.111  21.510  1.00  0.00     0.074 A 
ATOM     58  C   UNL     1      -6.347   3.954  20.617  1.00  0.00     0.031 C 
ATOM     59  C   UNL     1     -11.077   0.038  17.515  1.00  0.00     0.029 A 
ATOM     60  C   UNL     1     -10.923  -0.165  18.951  1.00  0.00     0.049 A 
ATOM     61  H   UNL     1      -9.618   0.824  20.240  1.00  0.00     0.167 HD
ATOM     62  C   UNL     1      -6.913   3.022  22.848  1.00  0.00     0.031 A 
ATOM     63  C   UNL     1     -11.620  -1.052  19.685  1.00  0.00     0.031 A 
ATOM     64  C   UNL     1      -7.669   2.170  23.731  1.00  0.00     0.049 A 
ATOM     65  C   UNL     1     -11.401  -1.109  21.169  1.00  0.00     0.074 A 
ATOM     66  C   UNL     1      -7.578   2.055  25.109  1.00  0.00     0.029 A 
ATOM     67  N   UNL     1      -8.646   1.275  23.322  1.00  0.00    -0.354 N 
ATOM     68  N   UNL     1     -10.576  -0.410  21.910  1.00  0.00    -0.248 NA
ATOM     69  C   UNL     1     -12.229  -2.061  21.922  1.00  0.00     0.031 C 
ATOM     70  C   UNL     1      -8.463   1.053  25.525  1.00  0.00     0.029 A 
ATOM     71  C   UNL     1      -9.148   0.586  24.415  1.00  0.00     0.049 A 
ATOM     72  H   UNL     1      -8.940   1.147  22.391  1.00  0.00     0.167 HD
ATOM     73  C   UNL     1     -10.801  -0.819  23.217  1.00  0.00     0.074 A 
ATOM     74  C   UNL     1     -11.857  -1.810  23.169  1.00  0.00     0.031 C 
ATOM     75  C   UNL     1     -10.188  -0.410  24.355  1.00  0.00     0.031 A 
BRANCH  62  76
ATOM     76  C   UNL     1      -5.814   3.866  23.435  1.00  0.00    -0.014 A 
ATOM     77  C   UNL     1      -5.923   5.266  23.496  1.00  0.00     0.009 A 
ATOM     78  C   UNL     1      -4.663   3.255  23.959  1.00  0.00     0.009 A 
ATOM     79  C   UNL     1      -4.884   6.036  24.024  1.00  0.00     0.001 A 
ATOM     80  C   UNL     1      -3.639   4.026  24.513  1.00  0.00     0.001 A 
ATOM     81  C   UNL     1      -3.744   5.416  24.534  1.00  0.00     0.000 A 
ENDBRANCH  62  76
BRANCH  63  82
ATOM     82  C   UNL     1     -12.627  -1.927  19.027  1.00  0.00    -0.014 A 
ATOM     83  C   UNL     1     -13.999  -1.720  19.234  1.00  0.00     0.009 A 
ATOM     84  C   UNL     1     -12.219  -2.969  18.180  1.00  0.00     0.009 A 
ATOM     85  C   UNL     1     -14.941  -2.553  18.625  1.00  0.00     0.001 A 
ATOM     86  C   UNL     1     -13.163  -3.781  17.548  1.00  0.00     0.001 A 
ATOM     87  C   UNL     1     -14.523  -3.578  17.778  1.00  0.00     0.000 A 
ENDBRANCH  63  82
BRANCH  75  88
ATOM     88  C   UNL     1     -10.665  -1.021  25.644  1.00  0.00    -0.014 A 
ATOM     89  C   UNL     1     -10.403  -2.365  25.957  1.00  0.00     0.009 A 
ATOM     90  C   UNL     1     -11.377  -0.236  26.564  1.00  0.00     0.009 A 
ATOM     91  C   UNL     1     -10.884  -2.920  27.145  1.00  0.00     0.001 A 
ATOM     92  C   UNL     1     -11.829  -0.785  27.765  1.00  0.00     0.001 A 
ATOM     93  C   UNL     1     -11.593  -2.130  28.049  1.00  0.00     0.000 A 
ENDBRANCH  75  88
ENDBRANCH  49  50
ENDBRANCH  41  44
ENDBRANCH  39  40
ENDBRANCH  38  39
ENDBRANCH   1  38
TORSDOF 16
