REMARK SMILES [NH3+]Cc1ccc(C(=O)N2[C@@H](C(=O)NCCCCNC(=O)c3ccc(-c4c5nc(c(-c6ccccc6)c6ccc([nH]6)c(-c6ccccc6)c6nc(c(-c7ccccc7)c7ccc4[nH]7)C=C6)C=C5)cc3)C[C@H]3CCCC[C@@H]32)o1
REMARK SMILES IDX 14 1 13 2 11 3 12 4 10 6 9 7 75 8 69 9 70 10 74 11 71 12
REMARK SMILES IDX 73 13 72 14 7 15 8 16 6 17 3 18 4 19 76 20 5 21 2 22 1 23
REMARK SMILES IDX 15 27 16 28 17 29 18 30 19 31 20 33 21 34 22 35 68 36 23 37
REMARK SMILES IDX 67 38 24 39 25 40 26 41 61 42 27 43 66 44 60 45 62 46 28 47
REMARK SMILES IDX 65 48 59 49 58 50 29 52 51 53 36 54 50 55 37 56 40 57 49 58
REMARK SMILES IDX 63 59 38 60 39 61 48 63 64 64 41 65 30 66 31 67 35 68 32 69
REMARK SMILES IDX 34 70 33 71 52 72 53 73 57 74 54 75 56 76 55 77 42 78 43 79
REMARK SMILES IDX 47 80 44 81 46 82 45 83
REMARK H PARENT 13 5 1 24 1 25 1 26 18 32 62 51 40 62
REMARK Flexibility Score: inf
ROOT
ATOM      1  C   UNL     1      -1.331   5.055   6.949  1.00  0.00     0.116 C 
ENDROOT
BRANCH   1   2
ATOM      2  N   UNL     1      -0.539   3.934   7.416  1.00  0.00    -0.354 N 
ATOM      3  C   UNL     1       0.712   3.530   7.038  1.00  0.00     0.242 C 
ATOM      4  O   UNL     1       1.190   2.550   7.610  1.00  0.00    -0.273 OA
ATOM      5  H   UNL     1      -0.965   3.381   8.110  1.00  0.00     0.163 HD
BRANCH   3   6
ATOM      6  C   UNL     1       1.488   4.346   5.978  1.00  0.00     0.175 C 
ATOM      7  N   UNL     1       2.702   3.638   5.513  1.00  0.00    -0.321 N 
ATOM      8  C   UNL     1       3.880   4.233   6.120  1.00  0.00     0.089 C 
ATOM      9  C   UNL     1       2.026   5.629   6.654  1.00  0.00     0.041 C 
ATOM     10  C   UNL     1       3.461   5.705   6.157  1.00  0.00     0.014 C 
ATOM     11  C   UNL     1       5.231   4.126   5.412  1.00  0.00     0.025 C 
ATOM     12  C   UNL     1       4.436   6.543   6.963  1.00  0.00     0.006 C 
ATOM     13  C   UNL     1       6.275   4.986   6.137  1.00  0.00     0.002 C 
ATOM     14  C   UNL     1       5.827   6.439   6.331  1.00  0.00     0.000 C 
BRANCH   7  15
ATOM     15  C   UNL     1       2.741   2.439   4.808  1.00  0.00     0.290 C 
ATOM     16  O   UNL     1       3.704   1.681   4.923  1.00  0.00    -0.265 OA
BRANCH  15  17
ATOM     17  C   UNL     1       1.672   2.160   3.860  1.00  0.00     0.192 A 
ATOM     18  C   UNL     1       0.529   0.826   2.515  1.00  0.00     0.159 A 
ATOM     19  C   UNL     1       0.099   2.106   2.243  1.00  0.00     0.052 A 
ATOM     20  O   UNL     1       1.474   0.851   3.495  1.00  0.00    -0.450 OA
ATOM     21  C   UNL     1       0.847   2.961   3.088  1.00  0.00     0.057 A 
BRANCH  18  22
ATOM     22  C   UNL     1       0.217  -0.501   1.926  1.00  0.00     0.335 C 
BRANCH  22  23
ATOM     23  N   UNL     1       1.036  -0.744   0.740  1.00  0.00    -0.351 N 
ATOM     24  H   UNL     1       0.807  -1.659   0.350  1.00  0.00     0.344 HD
ATOM     25  H   UNL     1       2.023  -0.721   0.997  1.00  0.00     0.344 HD
ATOM     26  H   UNL     1       0.850  -0.022   0.044  1.00  0.00     0.344 HD
ENDBRANCH  22  23
ENDBRANCH  18  22
ENDBRANCH  15  17
ENDBRANCH   7  15
ENDBRANCH   3   6
ENDBRANCH   1   2
BRANCH   1  27
ATOM     27  C   UNL     1      -2.696   4.608   6.430  1.00  0.00     0.023 C 
BRANCH  27  28
ATOM     28  C   UNL     1      -3.657   4.052   7.491  1.00  0.00     0.023 C 
BRANCH  28  29
ATOM     29  C   UNL     1      -3.998   4.991   8.651  1.00  0.00     0.116 C 
BRANCH  29  30
ATOM     30  N   UNL     1      -4.577   6.247   8.209  1.00  0.00    -0.352 N 
ATOM     31  C   UNL     1      -5.554   7.017   8.788  1.00  0.00     0.251 C 
ATOM     32  H   UNL     1      -4.213   6.601   7.366  1.00  0.00     0.163 HD
ATOM     33  O   UNL     1      -5.981   8.000   8.187  1.00  0.00    -0.269 OA
BRANCH  31  34
ATOM     34  C   UNL     1      -6.124   6.670  10.110  1.00  0.00     0.039 A 
ATOM     35  C   UNL     1      -7.514   6.734  10.266  1.00  0.00     0.014 A 
ATOM     36  C   UNL     1      -5.314   6.350  11.204  1.00  0.00     0.014 A 
ATOM     37  C   UNL     1      -8.097   6.426  11.497  1.00  0.00     0.010 A 
ATOM     38  C   UNL     1      -5.898   6.026  12.431  1.00  0.00     0.010 A 
ATOM     39  C   UNL     1      -7.293   6.056  12.584  1.00  0.00    -0.014 A 
BRANCH  39  40
ATOM     40  C   UNL     1      -7.903   5.670  13.877  1.00  0.00     0.031 A 
ATOM     41  C   UNL     1      -7.919   6.623  15.035  1.00  0.00     0.074 A 
ATOM     42  C   UNL     1      -8.410   4.431  14.023  1.00  0.00     0.049 A 
ATOM     43  N   UNL     1      -8.321   6.416  16.264  1.00  0.00    -0.248 NA
ATOM     44  C   UNL     1      -7.409   7.979  14.783  1.00  0.00     0.031 C 
ATOM     45  C   UNL     1      -8.446   3.403  12.982  1.00  0.00     0.029 A 
ATOM     46  N   UNL     1      -8.981   3.828  15.113  1.00  0.00    -0.354 N 
ATOM     47  C   UNL     1      -8.086   7.603  16.942  1.00  0.00     0.074 A 
ATOM     48  C   UNL     1      -7.517   8.531  15.985  1.00  0.00     0.031 C 
ATOM     49  C   UNL     1      -9.011   2.293  13.485  1.00  0.00     0.029 A 
ATOM     50  C   UNL     1      -9.360   2.529  14.883  1.00  0.00     0.049 A 
ATOM     51  H   UNL     1      -9.108   4.282  15.977  1.00  0.00     0.167 HD
ATOM     52  C   UNL     1      -8.314   7.894  18.244  1.00  0.00     0.031 A 
ATOM     53  C   UNL     1      -9.914   1.624  15.709  1.00  0.00     0.031 A 
ATOM     54  C   UNL     1      -8.898   6.994  19.200  1.00  0.00     0.049 A 
ATOM     55  C   UNL     1     -10.201   1.987  17.134  1.00  0.00     0.074 A 
ATOM     56  C   UNL     1      -9.171   7.213  20.541  1.00  0.00     0.029 A 
ATOM     57  N   UNL     1      -9.311   5.704  18.914  1.00  0.00    -0.354 N 
ATOM     58  N   UNL     1      -9.961   3.111  17.761  1.00  0.00    -0.248 NA
ATOM     59  C   UNL     1     -10.834   0.951  17.965  1.00  0.00     0.031 C 
ATOM     60  C   UNL     1      -9.750   6.051  21.066  1.00  0.00     0.029 A 
ATOM     61  C   UNL     1      -9.839   5.115  20.050  1.00  0.00     0.049 A 
ATOM     62  H   UNL     1      -9.239   5.269  18.034  1.00  0.00     0.167 HD
ATOM     63  C   UNL     1     -10.407   2.919  19.060  1.00  0.00     0.074 A 
ATOM     64  C   UNL     1     -10.943   1.574  19.130  1.00  0.00     0.031 C 
ATOM     65  C   UNL     1     -10.370   3.780  20.104  1.00  0.00     0.031 A 
BRANCH  52  66
ATOM     66  C   UNL     1      -7.904   9.254  18.715  1.00  0.00    -0.014 A 
ATOM     67  C   UNL     1      -8.780  10.343  18.609  1.00  0.00     0.009 A 
ATOM     68  C   UNL     1      -6.638   9.442  19.290  1.00  0.00     0.009 A 
ATOM     69  C   UNL     1      -8.388  11.605  19.058  1.00  0.00     0.001 A 
ATOM     70  C   UNL     1      -6.251  10.704  19.741  1.00  0.00     0.001 A 
ATOM     71  C   UNL     1      -7.125  11.785  19.623  1.00  0.00     0.000 A 
ENDBRANCH  52  66
BRANCH  53  72
ATOM     72  C   UNL     1     -10.225   0.268  15.203  1.00  0.00    -0.014 A 
ATOM     73  C   UNL     1     -11.498  -0.020  14.690  1.00  0.00     0.009 A 
ATOM     74  C   UNL     1      -9.246  -0.735  15.222  1.00  0.00     0.009 A 
ATOM     75  C   UNL     1     -11.787  -1.298  14.209  1.00  0.00     0.001 A 
ATOM     76  C   UNL     1      -9.538  -2.010  14.737  1.00  0.00     0.001 A 
ATOM     77  C   UNL     1     -10.807  -2.291  14.232  1.00  0.00     0.000 A 
ENDBRANCH  53  72
BRANCH  65  78
ATOM     78  C   UNL     1     -10.925   3.289  21.404  1.00  0.00    -0.014 A 
ATOM     79  C   UNL     1     -10.105   2.597  22.308  1.00  0.00     0.009 A 
ATOM     80  C   UNL     1     -12.266   3.529  21.735  1.00  0.00     0.009 A 
ATOM     81  C   UNL     1     -10.626   2.138  23.519  1.00  0.00     0.001 A 
ATOM     82  C   UNL     1     -12.783   3.071  22.948  1.00  0.00     0.001 A 
ATOM     83  C   UNL     1     -11.964   2.374  23.837  1.00  0.00     0.000 A 
ENDBRANCH  65  78
ENDBRANCH  39  40
ENDBRANCH  31  34
ENDBRANCH  29  30
ENDBRANCH  28  29
ENDBRANCH  27  28
ENDBRANCH   1  27
TORSDOF 15
