REMARK SMILES COc1cc2ccccc2cc1C(=O)Nc1cc(C(=O)NCCCCNC(=O)c2ccc(-c3c4nc(c(-c5ccccc5)c5ccc([nH]5)c(-c5ccccc5)c5nc(c(-c6ccccc6)c6ccc3[nH]6)C=C5)C=C4)cc2)ccc1C
REMARK SMILES IDX 23 1 22 2 21 3 19 4 20 5 18 7 16 8 17 9 79 10 78 11 80 12
REMARK SMILES IDX 77 13 15 14 13 15 14 16 12 18 3 19 4 20 5 21 11 22 6 23
REMARK SMILES IDX 10 24 7 25 9 26 8 27 2 28 1 29 24 30 25 31 26 32 27 33 28 35
REMARK SMILES IDX 29 36 30 37 76 38 31 39 75 40 32 41 33 42 34 43 69 44 35 45
REMARK SMILES IDX 74 46 68 47 70 48 36 49 73 50 67 51 66 52 37 54 59 55 44 56
REMARK SMILES IDX 58 57 45 58 48 59 57 60 71 61 46 62 47 63 56 65 72 66 49 67
REMARK SMILES IDX 38 68 39 69 43 70 40 71 42 72 41 73 60 74 61 75 65 76 62 77
REMARK SMILES IDX 64 78 63 79 50 80 51 81 55 82 52 83 54 84 53 85
REMARK H PARENT 21 6 15 17 26 34 70 53 48 64
REMARK Flexibility Score: inf
ROOT
ATOM      1  C   UNL     1       1.629   3.801  -3.970  1.00  0.00     0.023 C 
ENDROOT
BRANCH   1   2
ATOM      2  C   UNL     1       0.498   3.697  -2.937  1.00  0.00     0.116 C 
BRANCH   2   3
ATOM      3  N   UNL     1      -0.554   2.800  -3.385  1.00  0.00    -0.352 N 
ATOM      4  C   UNL     1      -0.702   1.435  -3.422  1.00  0.00     0.251 C 
ATOM      5  O   UNL     1      -1.739   1.019  -3.946  1.00  0.00    -0.269 OA
ATOM      6  H   UNL     1      -1.336   3.279  -3.743  1.00  0.00     0.163 HD
BRANCH   4   7
ATOM      7  C   UNL     1       0.251   0.447  -2.827  1.00  0.00     0.041 A 
ATOM      8  C   UNL     1       2.083  -0.127  -1.338  1.00  0.00     0.045 A 
ATOM      9  C   UNL     1       1.436   0.783  -2.181  1.00  0.00     0.040 A 
ATOM     10  C   UNL     1       1.745  -1.487  -1.363  1.00  0.00    -0.027 A 
ATOM     11  C   UNL     1       0.598  -1.855  -2.083  1.00  0.00     0.006 A 
ATOM     12  C   UNL     1       2.397  -2.513  -0.481  1.00  0.00     0.046 C 
ATOM     13  C   UNL     1      -0.161  -0.894  -2.767  1.00  0.00     0.014 A 
BRANCH   8  14
ATOM     14  N   UNL     1       2.927   0.378  -0.330  1.00  0.00    -0.322 N 
ATOM     15  C   UNL     1       2.671   1.409   0.575  1.00  0.00     0.259 C 
ATOM     16  O   UNL     1       3.601   1.800   1.285  1.00  0.00    -0.269 OA
ATOM     17  H   UNL     1       3.810  -0.051  -0.254  1.00  0.00     0.170 HD
BRANCH  15  18
ATOM     18  C   UNL     1       1.314   2.039   0.763  1.00  0.00     0.082 A 
ATOM     19  C   UNL     1       0.098   1.459   0.401  1.00  0.00     0.132 A 
ATOM     20  C   UNL     1      -1.037   2.236   0.176  1.00  0.00     0.056 A 
ATOM     21  C   UNL     1      -1.106   3.498   0.741  1.00  0.00    -0.015 A 
ATOM     22  C   UNL     1       1.213   3.250   1.450  1.00  0.00     0.026 A 
ATOM     23  C   UNL     1      -2.260   4.287   0.631  1.00  0.00     0.009 A 
ATOM     24  C   UNL     1      -0.035   3.903   1.556  1.00  0.00    -0.017 A 
ATOM     25  C   UNL     1      -2.447   5.359   1.493  1.00  0.00     0.001 A 
ATOM     26  C   UNL     1      -0.288   4.907   2.487  1.00  0.00     0.009 A 
ATOM     27  C   UNL     1      -1.505   5.598   2.486  1.00  0.00     0.001 A 
BRANCH  19  28
ATOM     28  O   UNL     1      -0.130   0.107   0.386  1.00  0.00    -0.496 OA
ATOM     29  C   UNL     1       0.150  -0.452   1.673  1.00  0.00     0.278 C 
ENDBRANCH  19  28
ENDBRANCH  15  18
ENDBRANCH   8  14
ENDBRANCH   4   7
ENDBRANCH   2   3
ENDBRANCH   1   2
BRANCH   1  30
ATOM     30  C   UNL     1       1.224   4.588  -5.219  1.00  0.00     0.023 C 
BRANCH  30  31
ATOM     31  C   UNL     1       1.139   6.086  -4.964  1.00  0.00     0.116 C 
BRANCH  31  32
ATOM     32  N   UNL     1       2.374   6.812  -5.215  1.00  0.00    -0.352 N 
ATOM     33  C   UNL     1       2.685   8.147  -4.999  1.00  0.00     0.251 C 
ATOM     34  H   UNL     1       3.103   6.273  -5.598  1.00  0.00     0.163 HD
ATOM     35  O   UNL     1       3.742   8.590  -5.407  1.00  0.00    -0.269 OA
BRANCH  33  36
ATOM     36  C   UNL     1       1.823   8.982  -4.116  1.00  0.00     0.039 A 
ATOM     37  C   UNL     1       2.487   9.838  -3.225  1.00  0.00     0.014 A 
ATOM     38  C   UNL     1       0.469   8.722  -3.946  1.00  0.00     0.014 A 
ATOM     39  C   UNL     1       1.887  10.153  -2.014  1.00  0.00     0.010 A 
ATOM     40  C   UNL     1      -0.081   8.919  -2.702  1.00  0.00     0.010 A 
ATOM     41  C   UNL     1       0.668   9.560  -1.715  1.00  0.00    -0.014 A 
BRANCH  41  42
ATOM     42  C   UNL     1       0.104   9.508  -0.383  1.00  0.00     0.031 A 
ATOM     43  C   UNL     1      -1.080  10.332  -0.094  1.00  0.00     0.074 A 
ATOM     44  C   UNL     1       0.599   8.627   0.511  1.00  0.00     0.049 A 
ATOM     45  N   UNL     1      -1.694  10.346   1.031  1.00  0.00    -0.248 NA
ATOM     46  C   UNL     1      -1.651  11.260  -1.068  1.00  0.00     0.031 C 
ATOM     47  C   UNL     1       0.010   8.241   1.782  1.00  0.00     0.029 A 
ATOM     48  N   UNL     1       1.867   8.044   0.530  1.00  0.00    -0.354 N 
ATOM     49  C   UNL     1      -2.804  11.136   0.911  1.00  0.00     0.074 A 
ATOM     50  C   UNL     1      -2.726  11.703  -0.410  1.00  0.00     0.031 C 
ATOM     51  C   UNL     1       0.954   7.697   2.562  1.00  0.00     0.029 A 
ATOM     52  C   UNL     1       2.217   7.866   1.880  1.00  0.00     0.049 A 
ATOM     53  H   UNL     1       2.412   7.804  -0.254  1.00  0.00     0.167 HD
ATOM     54  C   UNL     1      -3.679  11.159   1.950  1.00  0.00     0.031 A 
ATOM     55  C   UNL     1       3.251   8.553   2.445  1.00  0.00     0.031 A 
ATOM     56  C   UNL     1      -3.038  10.636   3.163  1.00  0.00     0.049 A 
ATOM     57  C   UNL     1       2.723   9.457   3.542  1.00  0.00     0.074 A 
ATOM     58  C   UNL     1      -3.123   9.450   3.871  1.00  0.00     0.029 A 
ATOM     59  N   UNL     1      -1.880  11.280   3.616  1.00  0.00    -0.354 N 
ATOM     60  N   UNL     1       1.566  10.076   3.496  1.00  0.00    -0.248 NA
ATOM     61  C   UNL     1       3.371   9.550   4.846  1.00  0.00     0.031 C 
ATOM     62  C   UNL     1      -1.944   9.341   4.671  1.00  0.00     0.029 A 
ATOM     63  C   UNL     1      -1.167  10.477   4.483  1.00  0.00     0.049 A 
ATOM     64  H   UNL     1      -1.610  12.189   3.351  1.00  0.00     0.167 HD
ATOM     65  C   UNL     1       1.253  10.505   4.761  1.00  0.00     0.074 A 
ATOM     66  C   UNL     1       2.439  10.208   5.554  1.00  0.00     0.031 C 
ATOM     67  C   UNL     1       0.031  10.971   5.158  1.00  0.00     0.031 A 
BRANCH  54  68
ATOM     68  C   UNL     1      -5.140  11.516   1.812  1.00  0.00    -0.014 A 
ATOM     69  C   UNL     1      -6.033  11.229   2.859  1.00  0.00     0.009 A 
ATOM     70  C   UNL     1      -5.728  12.029   0.638  1.00  0.00     0.009 A 
ATOM     71  C   UNL     1      -7.419  11.431   2.732  1.00  0.00     0.001 A 
ATOM     72  C   UNL     1      -7.106  12.247   0.507  1.00  0.00     0.001 A 
ATOM     73  C   UNL     1      -7.955  11.941   1.556  1.00  0.00     0.000 A 
ENDBRANCH  54  68
BRANCH  55  74
ATOM     74  C   UNL     1       4.350   8.822   1.479  1.00  0.00    -0.014 A 
ATOM     75  C   UNL     1       5.024   7.700   0.942  1.00  0.00     0.009 A 
ATOM     76  C   UNL     1       4.429  10.038   0.790  1.00  0.00     0.009 A 
ATOM     77  C   UNL     1       5.611   7.752  -0.326  1.00  0.00     0.001 A 
ATOM     78  C   UNL     1       5.047  10.091  -0.468  1.00  0.00     0.001 A 
ATOM     79  C   UNL     1       5.590   8.941  -1.045  1.00  0.00     0.000 A 
ENDBRANCH  55  74
BRANCH  67  80
ATOM     80  C   UNL     1      -0.149  11.904   6.333  1.00  0.00    -0.014 A 
ATOM     81  C   UNL     1       0.905  12.618   6.921  1.00  0.00     0.009 A 
ATOM     82  C   UNL     1      -1.454  12.245   6.753  1.00  0.00     0.009 A 
ATOM     83  C   UNL     1       0.676  13.581   7.909  1.00  0.00     0.001 A 
ATOM     84  C   UNL     1      -1.690  13.242   7.701  1.00  0.00     0.001 A 
ATOM     85  C   UNL     1      -0.621  13.902   8.288  1.00  0.00     0.000 A 
ENDBRANCH  67  80
ENDBRANCH  41  42
ENDBRANCH  33  36
ENDBRANCH  31  32
ENDBRANCH  30  31
ENDBRANCH   1  30
TORSDOF 14
