REMARK SMILES Cc1ccc(Cn2c(C)c(C[NH2+]Cc3ccco3)c(C(=O)NCCCCNC(=O)c3ccc(-c4c5nc(c(-c6ccccc6)c6ccc([nH]6)c(-c6ccccc6)c6nc(c(-c7ccccc7)c7ccc4[nH]7)C=C6)C=C5)cc3)c2C)cc1
REMARK SMILES IDX 23 1 22 2 20 3 21 4 19 6 7 7 8 8 78 9 9 10 10 11 79 12 6 13
REMARK SMILES IDX 5 14 1 15 2 16 3 17 81 18 4 19 80 20 11 21 12 22 13 25 14 26
REMARK SMILES IDX 15 27 18 28 16 29 17 30 24 31 25 32 26 33 27 34 28 35 29 37
REMARK SMILES IDX 30 38 31 39 77 40 32 41 76 42 33 43 34 44 35 45 70 46 36 47
REMARK SMILES IDX 75 48 69 49 71 50 37 51 74 52 68 53 67 54 38 56 60 57 45 58
REMARK SMILES IDX 59 59 46 60 49 61 58 62 72 63 47 64 48 65 57 67 73 68 50 69
REMARK SMILES IDX 39 70 40 71 44 72 41 73 43 74 42 75 61 76 62 77 66 78 63 79
REMARK SMILES IDX 65 80 64 81 51 82 52 83 56 84 53 85 55 86 54 87
REMARK H PARENT 22 5 12 23 12 24 27 36 71 55 49 66
REMARK Flexibility Score: inf
ROOT
ATOM      1  C   UNL     1      -2.736  -4.934  -1.641  1.00  0.00     0.116 C 
ENDROOT
BRANCH   1   2
ATOM      2  N   UNL     1      -3.851  -4.820  -2.553  1.00  0.00    -0.352 N 
ATOM      3  C   UNL     1      -4.638  -3.773  -2.959  1.00  0.00     0.253 C 
ATOM      4  O   UNL     1      -5.473  -4.076  -3.815  1.00  0.00    -0.269 OA
ATOM      5  H   UNL     1      -4.098  -5.676  -2.973  1.00  0.00     0.163 HD
BRANCH   3   6
ATOM      6  C   UNL     1      -4.488  -2.380  -2.496  1.00  0.00     0.069 A 
ATOM      7  N   UNL     1      -3.973  -0.475  -1.398  1.00  0.00    -0.343 N 
ATOM      8  C   UNL     1      -4.757  -0.093  -2.470  1.00  0.00     0.025 A 
ATOM      9  C   UNL     1      -4.134  -1.851  -1.250  1.00  0.00     0.028 A 
ATOM     10  C   UNL     1      -5.306   1.276  -2.704  1.00  0.00     0.065 C 
ATOM     11  C   UNL     1      -5.010  -1.235  -3.225  1.00  0.00     0.040 A 
ATOM     12  C   UNL     1      -4.083  -2.496   0.088  1.00  0.00     0.065 C 
BRANCH   7  13
ATOM     13  C   UNL     1      -3.371   0.432  -0.408  1.00  0.00     0.157 C 
BRANCH  13  14
ATOM     14  C   UNL     1      -1.855   0.427  -0.349  1.00  0.00    -0.028 A 
ATOM     15  C   UNL     1       2.449   0.557   0.208  1.00  0.00     0.044 C 
ATOM     16  C   UNL     1       0.963   0.528   0.010  1.00  0.00    -0.051 A 
ATOM     17  C   UNL     1       0.258  -0.662   0.183  1.00  0.00     0.004 A 
ATOM     18  C   UNL     1       0.252   1.671  -0.359  1.00  0.00     0.004 A 
ATOM     19  C   UNL     1      -1.127  -0.709   0.012  1.00  0.00     0.006 A 
ATOM     20  C   UNL     1      -1.139   1.622  -0.534  1.00  0.00     0.006 A 
ENDBRANCH  13  14
ENDBRANCH   7  13
BRANCH  11  21
ATOM     21  C   UNL     1      -5.836  -1.282  -4.492  1.00  0.00     0.300 C 
BRANCH  21  22
ATOM     22  N   UNL     1      -7.218  -1.547  -4.087  1.00  0.00    -0.336 N 
ATOM     23  H   UNL     1      -7.533  -0.784  -3.489  1.00  0.00     0.346 HD
ATOM     24  H   UNL     1      -7.225  -2.442  -3.598  1.00  0.00     0.346 HD
BRANCH  22  25
ATOM     25  C   UNL     1      -8.134  -1.661  -5.221  1.00  0.00     0.337 C 
BRANCH  25  26
ATOM     26  C   UNL     1      -8.079  -2.994  -5.882  1.00  0.00     0.157 A 
ATOM     27  C   UNL     1      -7.729  -3.417  -7.147  1.00  0.00     0.052 A 
ATOM     28  O   UNL     1      -8.450  -4.066  -5.120  1.00  0.00    -0.463 OA
ATOM     29  C   UNL     1      -7.869  -4.826  -7.151  1.00  0.00     0.042 A 
ATOM     30  C   UNL     1      -8.301  -5.172  -5.893  1.00  0.00     0.195 A 
ENDBRANCH  25  26
ENDBRANCH  22  25
ENDBRANCH  21  22
ENDBRANCH  11  21
ENDBRANCH   3   6
ENDBRANCH   1   2
BRANCH   1  31
ATOM     31  C   UNL     1      -3.179  -5.521  -0.288  1.00  0.00     0.023 C 
BRANCH  31  32
ATOM     32  C   UNL     1      -3.441  -7.025  -0.246  1.00  0.00     0.023 C 
BRANCH  32  33
ATOM     33  C   UNL     1      -2.176  -7.857  -0.340  1.00  0.00     0.116 C 
BRANCH  33  34
ATOM     34  N   UNL     1      -1.524  -8.177   0.921  1.00  0.00    -0.352 N 
ATOM     35  C   UNL     1      -0.275  -8.747   1.143  1.00  0.00     0.251 C 
ATOM     36  H   UNL     1      -2.040  -7.960   1.731  1.00  0.00     0.163 HD
ATOM     37  O   UNL     1       0.069  -9.027   2.278  1.00  0.00    -0.269 OA
BRANCH  35  38
ATOM     38  C   UNL     1       0.699  -8.874   0.018  1.00  0.00     0.039 A 
ATOM     39  C   UNL     1       2.044  -8.584   0.282  1.00  0.00     0.014 A 
ATOM     40  C   UNL     1       0.282  -9.030  -1.298  1.00  0.00     0.014 A 
ATOM     41  C   UNL     1       2.870  -8.158  -0.757  1.00  0.00     0.010 A 
ATOM     42  C   UNL     1       1.043  -8.479  -2.305  1.00  0.00     0.010 A 
ATOM     43  C   UNL     1       2.311  -7.975  -2.018  1.00  0.00    -0.014 A 
BRANCH  43  44
ATOM     44  C   UNL     1       2.897  -7.143  -3.058  1.00  0.00     0.031 A 
ATOM     45  C   UNL     1       3.509  -7.746  -4.253  1.00  0.00     0.074 A 
ATOM     46  C   UNL     1       2.760  -5.801  -2.978  1.00  0.00     0.049 A 
ATOM     47  N   UNL     1       4.426  -7.176  -4.961  1.00  0.00    -0.248 NA
ATOM     48  C   UNL     1       3.138  -9.072  -4.734  1.00  0.00     0.031 C 
ATOM     49  C   UNL     1       2.974  -4.813  -4.032  1.00  0.00     0.029 A 
ATOM     50  N   UNL     1       2.539  -5.028  -1.854  1.00  0.00    -0.354 N 
ATOM     51  C   UNL     1       4.534  -7.896  -6.127  1.00  0.00     0.074 A 
ATOM     52  C   UNL     1       3.780  -9.109  -5.905  1.00  0.00     0.031 C 
ATOM     53  C   UNL     1       3.103  -3.598  -3.470  1.00  0.00     0.029 A 
ATOM     54  C   UNL     1       3.150  -3.786  -2.028  1.00  0.00     0.049 A 
ATOM     55  H   UNL     1       2.033  -5.309  -1.058  1.00  0.00     0.167 HD
ATOM     56  C   UNL     1       5.102  -7.333  -7.229  1.00  0.00     0.031 A 
ATOM     57  C   UNL     1       4.199  -3.406  -1.236  1.00  0.00     0.031 A 
ATOM     58  C   UNL     1       5.542  -5.963  -6.983  1.00  0.00     0.049 A 
ATOM     59  C   UNL     1       5.500  -3.236  -1.988  1.00  0.00     0.074 A 
ATOM     60  C   UNL     1       4.966  -4.734  -7.266  1.00  0.00     0.029 A 
ATOM     61  N   UNL     1       6.560  -5.718  -6.068  1.00  0.00    -0.354 N 
ATOM     62  N   UNL     1       5.728  -3.721  -3.177  1.00  0.00    -0.248 NA
ATOM     63  C   UNL     1       6.661  -2.540  -1.440  1.00  0.00     0.031 C 
ATOM     64  C   UNL     1       5.596  -3.756  -6.454  1.00  0.00     0.029 A 
ATOM     65  C   UNL     1       6.575  -4.384  -5.704  1.00  0.00     0.049 A 
ATOM     66  H   UNL     1       7.184  -6.399  -5.728  1.00  0.00     0.167 HD
ATOM     67  C   UNL     1       7.017  -3.446  -3.547  1.00  0.00     0.074 A 
ATOM     68  C   UNL     1       7.554  -2.683  -2.435  1.00  0.00     0.031 C 
ATOM     69  C   UNL     1       7.539  -3.890  -4.728  1.00  0.00     0.031 A 
BRANCH  56  70
ATOM     70  C   UNL     1       4.927  -7.939  -8.598  1.00  0.00    -0.014 A 
ATOM     71  C   UNL     1       4.740  -7.108  -9.716  1.00  0.00     0.009 A 
ATOM     72  C   UNL     1       4.883  -9.324  -8.835  1.00  0.00     0.009 A 
ATOM     73  C   UNL     1       4.415  -7.627 -10.976  1.00  0.00     0.001 A 
ATOM     74  C   UNL     1       4.514  -9.849 -10.081  1.00  0.00     0.001 A 
ATOM     75  C   UNL     1       4.268  -8.997 -11.150  1.00  0.00     0.000 A 
ENDBRANCH  56  70
BRANCH  57  76
ATOM     76  C   UNL     1       4.103  -3.917   0.162  1.00  0.00    -0.014 A 
ATOM     77  C   UNL     1       3.104  -3.371   0.988  1.00  0.00     0.009 A 
ATOM     78  C   UNL     1       4.660  -5.151   0.519  1.00  0.00     0.009 A 
ATOM     79  C   UNL     1       2.548  -4.112   2.033  1.00  0.00     0.001 A 
ATOM     80  C   UNL     1       4.123  -5.879   1.589  1.00  0.00     0.001 A 
ATOM     81  C   UNL     1       3.034  -5.385   2.308  1.00  0.00     0.000 A 
ENDBRANCH  57  76
BRANCH  69  82
ATOM     82  C   UNL     1       8.995  -3.840  -5.117  1.00  0.00    -0.014 A 
ATOM     83  C   UNL     1      10.053  -3.750  -4.203  1.00  0.00     0.009 A 
ATOM     84  C   UNL     1       9.346  -4.016  -6.474  1.00  0.00     0.009 A 
ATOM     85  C   UNL     1      11.389  -3.774  -4.627  1.00  0.00     0.001 A 
ATOM     86  C   UNL     1      10.675  -4.091  -6.896  1.00  0.00     0.001 A 
ATOM     87  C   UNL     1      11.700  -3.953  -5.971  1.00  0.00     0.000 A 
ENDBRANCH  69  82
ENDBRANCH  43  44
ENDBRANCH  35  38
ENDBRANCH  33  34
ENDBRANCH  32  33
ENDBRANCH  31  32
ENDBRANCH   1  31
TORSDOF 17
