REMARK SMILES CS(=O)(=O)CC[C@H](NC(=O)Cc1ccn[nH]1)C(=O)NCCCCNC(=O)c1ccc(-c2c3nc(c(-c4ccccc4)c4ccc([nH]4)c(-c4ccccc4)c4nc(c(-c5ccccc5)c5ccc2[nH]5)C=C4)C=C3)cc1
REMARK SMILES IDX 21 1 20 2 19 3 17 4 18 5 7 7 6 8 5 9 2 10 1 11 3 12 4 13
REMARK SMILES IDX 8 14 9 15 10 17 11 18 12 19 13 20 16 21 14 22 15 23 22 25
REMARK SMILES IDX 23 26 24 27 25 28 26 30 27 31 28 32 74 33 29 34 73 35 30 36
REMARK SMILES IDX 31 37 32 38 67 39 33 40 72 41 66 42 68 43 34 44 71 45 65 46
REMARK SMILES IDX 64 47 35 49 57 50 42 51 56 52 43 53 46 54 55 55 69 56 44 57
REMARK SMILES IDX 45 58 54 60 70 61 47 62 36 63 37 64 41 65 38 66 40 67 39 68
REMARK SMILES IDX 58 69 59 70 63 71 60 72 62 73 61 74 48 75 49 76 53 77 50 78
REMARK SMILES IDX 52 79 51 80
REMARK H PARENT 19 6 8 16 16 24 24 29 68 48 46 59
REMARK Flexibility Score: inf
ROOT
ATOM      1  C   UNL     1       1.086   5.196   4.258  1.00  0.00     0.023 C 
ENDROOT
BRANCH   1   2
ATOM      2  C   UNL     1       2.062   4.022   4.184  1.00  0.00     0.116 C 
BRANCH   2   3
ATOM      3  N   UNL     1       1.472   2.775   4.639  1.00  0.00    -0.354 N 
ATOM      4  C   UNL     1       0.954   1.746   3.912  1.00  0.00     0.242 C 
ATOM      5  O   UNL     1       0.468   0.787   4.519  1.00  0.00    -0.273 OA
ATOM      6  H   UNL     1       1.442   2.656   5.615  1.00  0.00     0.163 HD
BRANCH   4   7
ATOM      7  C   UNL     1       1.029   1.738   2.373  1.00  0.00     0.172 C 
BRANCH   7   8
ATOM      8  C   UNL     1       2.479   1.416   1.958  1.00  0.00     0.051 C 
BRANCH   8   9
ATOM      9  C   UNL     1       2.663   0.900   0.534  1.00  0.00     0.139 C 
BRANCH   9  10
ATOM     10  S   UNL     1       2.389   2.107  -0.754  1.00  0.00     0.147 S 
ATOM     11  C   UNL     1       0.744   1.752  -1.330  1.00  0.00     0.158 C 
ATOM     12  O   UNL     1       3.300   1.804  -1.837  1.00  0.00    -0.229 OA
ATOM     13  O   UNL     1       2.383   3.426  -0.142  1.00  0.00    -0.229 OA
ENDBRANCH   9  10
ENDBRANCH   8   9
ENDBRANCH   7   8
BRANCH   7  14
ATOM     14  N   UNL     1       0.518   2.983   1.809  1.00  0.00    -0.344 N 
ATOM     15  C   UNL     1      -0.764   3.462   1.822  1.00  0.00     0.226 C 
ATOM     16  H   UNL     1       1.183   3.554   1.359  1.00  0.00     0.164 HD
ATOM     17  O   UNL     1      -1.049   4.381   1.052  1.00  0.00    -0.275 OA
BRANCH  15  18
ATOM     18  C   UNL     1      -1.776   2.942   2.834  1.00  0.00     0.155 C 
BRANCH  18  19
ATOM     19  C   UNL     1      -2.326   1.625   2.433  1.00  0.00     0.044 A 
ATOM     20  C   UNL     1      -3.103   1.251   1.359  1.00  0.00     0.045 A 
ATOM     21  N   UNL     1      -2.145   0.488   3.179  1.00  0.00    -0.282 N 
ATOM     22  C   UNL     1      -3.314  -0.126   1.534  1.00  0.00     0.135 A 
ATOM     23  N   UNL     1      -2.712  -0.597   2.627  1.00  0.00    -0.184 NA
ATOM     24  H   UNL     1      -1.652   0.470   4.031  1.00  0.00     0.190 HD
ENDBRANCH  18  19
ENDBRANCH  15  18
ENDBRANCH   7  14
ENDBRANCH   4   7
ENDBRANCH   2   3
ENDBRANCH   1   2
BRANCH   1  25
ATOM     25  C   UNL     1       0.555   5.497   5.655  1.00  0.00     0.023 C 
BRANCH  25  26
ATOM     26  C   UNL     1       1.633   5.637   6.716  1.00  0.00     0.116 C 
BRANCH  26  27
ATOM     27  N   UNL     1       2.654   6.610   6.359  1.00  0.00    -0.352 N 
ATOM     28  C   UNL     1       3.233   7.571   7.149  1.00  0.00     0.251 C 
ATOM     29  H   UNL     1       2.971   6.575   5.428  1.00  0.00     0.163 HD
ATOM     30  O   UNL     1       3.994   8.403   6.670  1.00  0.00    -0.269 OA
BRANCH  28  31
ATOM     31  C   UNL     1       2.890   7.607   8.581  1.00  0.00     0.039 A 
ATOM     32  C   UNL     1       2.475   8.814   9.144  1.00  0.00     0.014 A 
ATOM     33  C   UNL     1       2.910   6.432   9.338  1.00  0.00     0.014 A 
ATOM     34  C   UNL     1       2.016   8.829  10.459  1.00  0.00     0.010 A 
ATOM     35  C   UNL     1       2.366   6.433  10.614  1.00  0.00     0.010 A 
ATOM     36  C   UNL     1       1.921   7.633  11.190  1.00  0.00    -0.014 A 
BRANCH  36  37
ATOM     37  C   UNL     1       1.369   7.615  12.565  1.00  0.00     0.031 A 
ATOM     38  C   UNL     1       2.240   7.193  13.714  1.00  0.00     0.074 A 
ATOM     39  C   UNL     1       0.073   7.919  12.768  1.00  0.00     0.049 A 
ATOM     40  N   UNL     1       1.931   7.063  14.979  1.00  0.00    -0.248 NA
ATOM     41  C   UNL     1       3.635   6.842  13.398  1.00  0.00     0.031 C 
ATOM     42  C   UNL     1      -0.884   8.303  11.727  1.00  0.00     0.029 A 
ATOM     43  N   UNL     1      -0.664   7.951  13.924  1.00  0.00    -0.354 N 
ATOM     44  C   UNL     1       3.084   6.602  15.601  1.00  0.00     0.074 A 
ATOM     45  C   UNL     1       4.079   6.415  14.569  1.00  0.00     0.031 C 
ATOM     46  C   UNL     1      -2.070   8.567  12.297  1.00  0.00     0.029 A 
ATOM     47  C   UNL     1      -1.971   8.329  13.733  1.00  0.00     0.049 A 
ATOM     48  H   UNL     1      -0.292   7.726  14.807  1.00  0.00     0.167 HD
ATOM     49  C   UNL     1       3.304   6.378  16.918  1.00  0.00     0.031 A 
ATOM     50  C   UNL     1      -2.977   8.464  14.617  1.00  0.00     0.031 A 
ATOM     51  C   UNL     1       2.315   6.573  17.942  1.00  0.00     0.049 A 
ATOM     52  C   UNL     1      -2.713   8.188  16.071  1.00  0.00     0.074 A 
ATOM     53  C   UNL     1       2.451   6.426  19.311  1.00  0.00     0.029 A 
ATOM     54  N   UNL     1       1.003   6.955  17.708  1.00  0.00    -0.354 N 
ATOM     55  N   UNL     1      -1.598   7.821  16.654  1.00  0.00    -0.248 NA
ATOM     56  C   UNL     1      -3.847   8.356  16.990  1.00  0.00     0.031 C 
ATOM     57  C   UNL     1       1.206   6.664  19.901  1.00  0.00     0.029 A 
ATOM     58  C   UNL     1       0.311   7.022  18.905  1.00  0.00     0.049 A 
ATOM     59  H   UNL     1       0.620   7.150  16.822  1.00  0.00     0.167 HD
ATOM     60  C   UNL     1      -1.887   7.744  18.010  1.00  0.00     0.074 A 
ATOM     61  C   UNL     1      -3.278   8.119  18.163  1.00  0.00     0.031 C 
ATOM     62  C   UNL     1      -1.074   7.396  19.038  1.00  0.00     0.031 A 
BRANCH  49  63
ATOM     63  C   UNL     1       4.669   5.888  17.316  1.00  0.00    -0.014 A 
ATOM     64  C   UNL     1       5.800   6.714  17.212  1.00  0.00     0.009 A 
ATOM     65  C   UNL     1       4.823   4.590  17.826  1.00  0.00     0.009 A 
ATOM     66  C   UNL     1       7.062   6.236  17.569  1.00  0.00     0.001 A 
ATOM     67  C   UNL     1       6.081   4.126  18.215  1.00  0.00     0.001 A 
ATOM     68  C   UNL     1       7.201   4.945  18.076  1.00  0.00     0.000 A 
ENDBRANCH  49  63
BRANCH  50  69
ATOM     69  C   UNL     1      -4.322   8.898  14.157  1.00  0.00    -0.014 A 
ATOM     70  C   UNL     1      -4.819  10.164  14.504  1.00  0.00     0.009 A 
ATOM     71  C   UNL     1      -5.121   8.049  13.375  1.00  0.00     0.009 A 
ATOM     72  C   UNL     1      -6.098  10.558  14.103  1.00  0.00     0.001 A 
ATOM     73  C   UNL     1      -6.386   8.457  12.950  1.00  0.00     0.001 A 
ATOM     74  C   UNL     1      -6.878   9.707  13.323  1.00  0.00     0.000 A 
ENDBRANCH  50  69
BRANCH  62  75
ATOM     75  C   UNL     1      -1.658   7.442  20.422  1.00  0.00    -0.014 A 
ATOM     76  C   UNL     1      -2.605   6.499  20.849  1.00  0.00     0.009 A 
ATOM     77  C   UNL     1      -1.218   8.422  21.326  1.00  0.00     0.009 A 
ATOM     78  C   UNL     1      -3.126   6.559  22.143  1.00  0.00     0.001 A 
ATOM     79  C   UNL     1      -1.716   8.460  22.629  1.00  0.00     0.001 A 
ATOM     80  C   UNL     1      -2.677   7.535  23.033  1.00  0.00     0.000 A 
ENDBRANCH  62  75
ENDBRANCH  36  37
ENDBRANCH  28  31
ENDBRANCH  26  27
ENDBRANCH  25  26
ENDBRANCH   1  25
TORSDOF 17
