REMARK SMILES O=C(NCCCCNC(=O)c1cc(-c2ccc(C(F)(F)F)cc2)cc([N+](=O)[O-])c1)c1ccc(-c2c3nc(c(-c4ccccc4)c4ccc([nH]4)c(-c4ccccc4)c4nc(c(-c5ccccc5)c5ccc2[nH]5)C=C4)C=C3)cc1
REMARK SMILES IDX 5 1 4 2 3 3 1 4 2 5 30 7 31 8 77 9 32 10 76 11 33 12 34 13
REMARK SMILES IDX 35 14 70 15 36 16 75 17 69 18 71 19 37 20 74 21 68 22 67 23
REMARK SMILES IDX 38 25 60 26 45 27 59 28 46 29 49 30 58 31 72 32 47 33 48 34
REMARK SMILES IDX 57 36 73 37 50 38 39 39 40 40 44 41 41 42 43 43 42 44 61 45
REMARK SMILES IDX 62 46 66 47 63 48 65 49 64 50 51 51 52 52 56 53 53 54 55 55
REMARK SMILES IDX 54 56 6 57 7 58 8 59 9 60 10 62 11 63 12 64 29 65 13 66
REMARK SMILES IDX 25 67 24 68 14 69 15 70 23 71 16 72 22 73 17 74 18 75 19 76
REMARK SMILES IDX 20 77 21 78 26 79 27 80 28 81
REMARK H PARENT 3 6 71 24 49 35 8 61
REMARK Flexibility Score: inf
ROOT
ATOM      1  C   UNL     1       4.916   1.650  -1.978  1.00  0.00     0.023 C 
ENDROOT
BRANCH   1   2
ATOM      2  C   UNL     1       4.571   1.101  -0.602  1.00  0.00     0.116 C 
BRANCH   2   3
ATOM      3  N   UNL     1       3.136   1.008  -0.370  1.00  0.00    -0.352 N 
ATOM      4  O   UNL     1       1.155  -0.030  -0.039  1.00  0.00    -0.269 OA
ATOM      5  C   UNL     1       2.382  -0.097  -0.058  1.00  0.00     0.251 C 
ATOM      6  H   UNL     1       2.638   1.854  -0.446  1.00  0.00     0.163 HD
BRANCH   5   7
ATOM      7  C   UNL     1       3.059  -1.377   0.228  1.00  0.00     0.039 A 
ATOM      8  C   UNL     1       4.174  -1.407   1.067  1.00  0.00     0.014 A 
ATOM      9  C   UNL     1       2.596  -2.551  -0.373  1.00  0.00     0.014 A 
ATOM     10  C   UNL     1       4.925  -2.570   1.169  1.00  0.00     0.010 A 
ATOM     11  C   UNL     1       3.292  -3.747  -0.178  1.00  0.00     0.010 A 
ATOM     12  C   UNL     1       4.479  -3.759   0.571  1.00  0.00    -0.014 A 
BRANCH  12  13
ATOM     13  C   UNL     1       5.231  -5.013   0.824  1.00  0.00     0.031 A 
ATOM     14  C   UNL     1       5.901  -5.770  -0.288  1.00  0.00     0.074 A 
ATOM     15  C   UNL     1       5.331  -5.446   2.096  1.00  0.00     0.049 A 
ATOM     16  N   UNL     1       6.620  -6.864  -0.217  1.00  0.00    -0.248 NA
ATOM     17  C   UNL     1       5.744  -5.244  -1.652  1.00  0.00     0.031 C 
ATOM     18  C   UNL     1       4.718  -4.794   3.259  1.00  0.00     0.029 A 
ATOM     19  N   UNL     1       6.000  -6.515   2.632  1.00  0.00    -0.354 N 
ATOM     20  C   UNL     1       6.985  -7.165  -1.523  1.00  0.00     0.074 A 
ATOM     21  C   UNL     1       6.389  -6.154  -2.370  1.00  0.00     0.031 C 
ATOM     22  C   UNL     1       5.088  -5.441   4.372  1.00  0.00     0.029 A 
ATOM     23  C   UNL     1       5.894  -6.596   3.999  1.00  0.00     0.049 A 
ATOM     24  H   UNL     1       6.508  -7.161   2.090  1.00  0.00     0.167 HD
ATOM     25  C   UNL     1       7.751  -8.190  -1.971  1.00  0.00     0.031 A 
ATOM     26  C   UNL     1       6.370  -7.511   4.861  1.00  0.00     0.031 A 
ATOM     27  C   UNL     1       8.335  -9.198  -1.122  1.00  0.00     0.049 A 
ATOM     28  C   UNL     1       7.172  -8.660   4.328  1.00  0.00     0.074 A 
ATOM     29  C   UNL     1       9.148 -10.260  -1.479  1.00  0.00     0.029 A 
ATOM     30  N   UNL     1       8.162  -9.274   0.252  1.00  0.00    -0.354 N 
ATOM     31  N   UNL     1       7.538  -8.908   3.094  1.00  0.00    -0.248 NA
ATOM     32  C   UNL     1       7.625  -9.655   5.308  1.00  0.00     0.031 C 
ATOM     33  C   UNL     1       9.416 -11.013  -0.331  1.00  0.00     0.029 A 
ATOM     34  C   UNL     1       8.827 -10.382   0.752  1.00  0.00     0.049 A 
ATOM     35  H   UNL     1       7.644  -8.635   0.792  1.00  0.00     0.167 HD
ATOM     36  C   UNL     1       8.282 -10.078   3.151  1.00  0.00     0.074 A 
ATOM     37  C   UNL     1       8.336 -10.472   4.545  1.00  0.00     0.031 C 
ATOM     38  C   UNL     1       8.864 -10.767   2.140  1.00  0.00     0.031 A 
BRANCH  25  39
ATOM     39  C   UNL     1       7.981  -8.297  -3.455  1.00  0.00    -0.014 A 
ATOM     40  C   UNL     1       8.807  -7.388  -4.135  1.00  0.00     0.009 A 
ATOM     41  C   UNL     1       7.412  -9.361  -4.172  1.00  0.00     0.009 A 
ATOM     42  C   UNL     1       9.035  -7.528  -5.507  1.00  0.00     0.001 A 
ATOM     43  C   UNL     1       7.663  -9.515  -5.537  1.00  0.00     0.001 A 
ATOM     44  C   UNL     1       8.468  -8.594  -6.205  1.00  0.00     0.000 A 
ENDBRANCH  25  39
BRANCH  26  45
ATOM     45  C   UNL     1       6.073  -7.388   6.312  1.00  0.00    -0.014 A 
ATOM     46  C   UNL     1       7.095  -7.119   7.233  1.00  0.00     0.009 A 
ATOM     47  C   UNL     1       4.758  -7.539   6.781  1.00  0.00     0.009 A 
ATOM     48  C   UNL     1       6.810  -7.032   8.598  1.00  0.00     0.001 A 
ATOM     49  C   UNL     1       4.470  -7.415   8.141  1.00  0.00     0.001 A 
ATOM     50  C   UNL     1       5.498  -7.174   9.049  1.00  0.00     0.000 A 
ENDBRANCH  26  45
BRANCH  38  51
ATOM     51  C   UNL     1       9.636 -12.000   2.515  1.00  0.00    -0.014 A 
ATOM     52  C   UNL     1       8.985 -13.162   2.959  1.00  0.00     0.009 A 
ATOM     53  C   UNL     1      11.035 -12.003   2.409  1.00  0.00     0.009 A 
ATOM     54  C   UNL     1       9.724 -14.288   3.328  1.00  0.00     0.001 A 
ATOM     55  C   UNL     1      11.769 -13.140   2.746  1.00  0.00     0.001 A 
ATOM     56  C   UNL     1      11.114 -14.277   3.217  1.00  0.00     0.000 A 
ENDBRANCH  38  51
ENDBRANCH  12  13
ENDBRANCH   5   7
ENDBRANCH   2   3
ENDBRANCH   1   2
BRANCH   1  57
ATOM     57  C   UNL     1       4.436   3.073  -2.237  1.00  0.00     0.023 C 
BRANCH  57  58
ATOM     58  C   UNL     1       4.836   4.087  -1.173  1.00  0.00     0.116 C 
BRANCH  58  59
ATOM     59  N   UNL     1       6.279   4.208  -1.029  1.00  0.00    -0.352 N 
ATOM     60  C   UNL     1       7.068   5.325  -1.123  1.00  0.00     0.251 C 
ATOM     61  H   UNL     1       6.756   3.369  -0.837  1.00  0.00     0.163 HD
ATOM     62  O   UNL     1       8.293   5.222  -1.136  1.00  0.00    -0.269 OA
BRANCH  60  63
ATOM     63  C   UNL     1       6.444   6.659  -1.220  1.00  0.00     0.047 A 
ATOM     64  C   UNL     1       6.940   7.574  -2.156  1.00  0.00     0.023 A 
ATOM     65  C   UNL     1       5.407   7.020  -0.355  1.00  0.00     0.099 A 
ATOM     66  C   UNL     1       6.367   8.850  -2.272  1.00  0.00    -0.011 A 
ATOM     67  C   UNL     1       4.780   8.253  -0.525  1.00  0.00     0.270 A 
ATOM     68  C   UNL     1       5.246   9.162  -1.481  1.00  0.00     0.094 A 
BRANCH  66  69
ATOM     69  C   UNL     1       6.986   9.887  -3.103  1.00  0.00    -0.018 A 
ATOM     70  C   UNL     1       7.116   9.772  -4.492  1.00  0.00     0.009 A 
ATOM     71  C   UNL     1       7.487  11.041  -2.478  1.00  0.00     0.009 A 
ATOM     72  C   UNL     1       7.722  10.794  -5.235  1.00  0.00     0.014 A 
ATOM     73  C   UNL     1       8.092  12.058  -3.214  1.00  0.00     0.014 A 
ATOM     74  C   UNL     1       8.214  11.947  -4.603  1.00  0.00     0.056 A 
BRANCH  74  75
ATOM     75  C   UNL     1       8.867  13.046  -5.405  1.00  0.00     0.416 C 
ATOM     76  F   UNL     1       9.977  12.619  -6.067  1.00  0.00    -0.166 F 
ATOM     77  F   UNL     1       8.038  13.561  -6.354  1.00  0.00    -0.166 F 
ATOM     78  F   UNL     1       9.269  14.105  -4.648  1.00  0.00    -0.166 F 
ENDBRANCH  74  75
ENDBRANCH  66  69
BRANCH  67  79
ATOM     79  N   UNL     1       3.625   8.596   0.311  1.00  0.00     0.062 N 
ATOM     80  O   UNL     1       3.131   9.723   0.177  1.00  0.00    -0.258 OA
ATOM     81  O   UNL     1       3.206   7.728   1.090  1.00  0.00    -0.258 OA
ENDBRANCH  67  79
ENDBRANCH  60  63
ENDBRANCH  58  59
ENDBRANCH  57  58
ENDBRANCH   1  57
TORSDOF 14
