REMARK SMILES CC(C)OCCS(=O)(=O)N[C@@H]1COC[C@@H]1C(=O)NCCCCNC(=O)c1ccc(-c2c3nc(c(-c4ccccc4)c4ccc([nH]4)c(-c4ccccc4)c4nc(c(-c5ccccc5)c5ccc2[nH]5)C=C4)C=C3)cc1
REMARK SMILES IDX 16 1 17 2 18 3 15 5 11 6 12 7 13 8 14 9 10 10 7 12 8 13 9 14
REMARK SMILES IDX 6 15 5 16 4 17 2 18 1 19 3 20 19 21 20 22 21 23 22 24 23 25
REMARK SMILES IDX 24 26 25 28 26 29 27 30 73 31 28 32 72 33 29 34 30 35 31 36
REMARK SMILES IDX 66 37 32 38 71 39 65 40 67 41 33 42 70 43 64 44 63 45 34 47
REMARK SMILES IDX 56 48 41 49 55 50 42 51 45 52 54 53 68 54 43 55 44 56 53 58
REMARK SMILES IDX 69 59 46 60 35 61 36 62 40 63 37 64 39 65 38 66 57 67 58 68
REMARK SMILES IDX 62 69 59 70 61 71 60 72 47 73 48 74 52 75 49 76 51 77 50 78
REMARK H PARENT 18 4 10 11 23 27 67 46 45 57
REMARK Flexibility Score: inf
ROOT
ATOM      1  C   UNL     1       1.482  -2.641   3.367  1.00  0.00     0.227 C 
ATOM      2  O   UNL     1       2.261  -2.581   4.331  1.00  0.00    -0.275 OA
ATOM      3  N   UNL     1       0.190  -2.920   3.704  1.00  0.00    -0.356 N 
ATOM      4  H   UNL     1       0.101  -3.292   4.612  1.00  0.00     0.163 HD
ENDROOT
BRANCH   1   5
ATOM      5  C   UNL     1       2.091  -2.472   1.967  1.00  0.00     0.124 C 
ATOM      6  C   UNL     1       1.904  -1.225   1.075  1.00  0.00     0.110 C 
ATOM      7  C   UNL     1       0.793  -1.750   0.159  1.00  0.00     0.181 C 
ATOM      8  O   UNL     1       0.877  -3.177   0.048  1.00  0.00    -0.379 OA
ATOM      9  C   UNL     1       1.726  -3.657   1.084  1.00  0.00     0.175 C 
BRANCH   6  10
ATOM     10  N   UNL     1       1.689   0.093   1.856  1.00  0.00    -0.209 NA
ATOM     11  H   UNL     1       0.715   0.073   2.158  1.00  0.00     0.141 HD
BRANCH  10  12
ATOM     12  S   UNL     1       1.938   1.676   1.224  1.00  0.00     0.214 S 
ATOM     13  O   UNL     1       1.840   1.633  -0.209  1.00  0.00    -0.212 OA
ATOM     14  O   UNL     1       3.211   2.026   1.845  1.00  0.00    -0.212 OA
BRANCH  12  15
ATOM     15  C   UNL     1       0.733   2.918   1.926  1.00  0.00     0.182 C 
BRANCH  15  16
ATOM     16  C   UNL     1      -0.754   3.105   1.533  1.00  0.00     0.178 C 
BRANCH  16  17
ATOM     17  O   UNL     1      -1.786   2.190   1.921  1.00  0.00    -0.378 OA
BRANCH  17  18
ATOM     18  C   UNL     1      -1.464   0.829   1.714  1.00  0.00     0.112 C 
ATOM     19  C   UNL     1      -1.019   0.682   0.251  1.00  0.00     0.038 C 
ATOM     20  C   UNL     1      -0.694   0.484   2.997  1.00  0.00     0.038 C 
ENDBRANCH  17  18
ENDBRANCH  16  17
ENDBRANCH  15  16
ENDBRANCH  12  15
ENDBRANCH  10  12
ENDBRANCH   6  10
ENDBRANCH   1   5
BRANCH   3  21
ATOM     21  C   UNL     1      -1.086  -2.788   3.013  1.00  0.00     0.116 C 
BRANCH  21  22
ATOM     22  C   UNL     1      -2.308  -3.446   3.659  1.00  0.00     0.023 C 
BRANCH  22  23
ATOM     23  C   UNL     1      -2.588  -3.173   5.145  1.00  0.00     0.023 C 
BRANCH  23  24
ATOM     24  C   UNL     1      -2.593  -1.727   5.649  1.00  0.00     0.116 C 
BRANCH  24  25
ATOM     25  N   UNL     1      -3.707  -0.914   5.179  1.00  0.00    -0.352 N 
ATOM     26  C   UNL     1      -4.772  -0.361   5.861  1.00  0.00     0.251 C 
ATOM     27  H   UNL     1      -3.699  -0.728   4.212  1.00  0.00     0.163 HD
ATOM     28  O   UNL     1      -5.649   0.235   5.239  1.00  0.00    -0.269 OA
BRANCH  26  29
ATOM     29  C   UNL     1      -4.906  -0.507   7.331  1.00  0.00     0.039 A 
ATOM     30  C   UNL     1      -6.144  -0.885   7.861  1.00  0.00     0.014 A 
ATOM     31  C   UNL     1      -3.834  -0.267   8.192  1.00  0.00     0.014 A 
ATOM     32  C   UNL     1      -6.275  -1.130   9.233  1.00  0.00     0.010 A 
ATOM     33  C   UNL     1      -3.943  -0.589   9.546  1.00  0.00     0.010 A 
ATOM     34  C   UNL     1      -5.159  -1.042  10.082  1.00  0.00    -0.014 A 
BRANCH  34  35
ATOM     35  C   UNL     1      -5.237  -1.454  11.513  1.00  0.00     0.031 A 
ATOM     36  C   UNL     1      -4.956  -0.466  12.615  1.00  0.00     0.074 A 
ATOM     37  C   UNL     1      -5.484  -2.744  11.824  1.00  0.00     0.049 A 
ATOM     38  N   UNL     1      -4.908  -0.664  13.909  1.00  0.00    -0.248 NA
ATOM     39  C   UNL     1      -4.666   0.920  12.212  1.00  0.00     0.031 C 
ATOM     40  C   UNL     1      -5.729  -3.820  10.858  1.00  0.00     0.029 A 
ATOM     41  N   UNL     1      -5.558  -3.377  13.042  1.00  0.00    -0.354 N 
ATOM     42  C   UNL     1      -4.559   0.559  14.469  1.00  0.00     0.074 A 
ATOM     43  C   UNL     1      -4.370   1.485  13.374  1.00  0.00     0.031 C 
ATOM     44  C   UNL     1      -5.949  -4.967  11.520  1.00  0.00     0.029 A 
ATOM     45  C   UNL     1      -5.813  -4.726  12.953  1.00  0.00     0.049 A 
ATOM     46  H   UNL     1      -5.440  -2.908  13.900  1.00  0.00     0.167 HD
ATOM     47  C   UNL     1      -4.420   0.886  15.776  1.00  0.00     0.031 A 
ATOM     48  C   UNL     1      -5.912  -5.669  13.910  1.00  0.00     0.031 A 
ATOM     49  C   UNL     1      -4.630  -0.025  16.870  1.00  0.00     0.049 A 
ATOM     50  C   UNL     1      -5.742  -5.274  15.353  1.00  0.00     0.074 A 
ATOM     51  C   UNL     1      -4.595   0.241  18.229  1.00  0.00     0.029 A 
ATOM     52  N   UNL     1      -4.903  -1.376  16.734  1.00  0.00    -0.354 N 
ATOM     53  N   UNL     1      -5.510  -4.090  15.866  1.00  0.00    -0.248 NA
ATOM     54  C   UNL     1      -5.860  -6.348  16.352  1.00  0.00     0.031 C 
ATOM     55  C   UNL     1      -4.777  -0.962  18.915  1.00  0.00     0.029 A 
ATOM     56  C   UNL     1      -5.000  -1.964  17.985  1.00  0.00     0.049 A 
ATOM     57  H   UNL     1      -5.013  -1.848  15.877  1.00  0.00     0.167 HD
ATOM     58  C   UNL     1      -5.490  -4.272  17.243  1.00  0.00     0.074 A 
ATOM     59  C   UNL     1      -5.754  -5.673  17.488  1.00  0.00     0.031 C 
ATOM     60  C   UNL     1      -5.271  -3.357  18.219  1.00  0.00     0.031 A 
BRANCH  47  61
ATOM     61  C   UNL     1      -4.008   2.294  16.112  1.00  0.00    -0.014 A 
ATOM     62  C   UNL     1      -4.884   3.376  15.938  1.00  0.00     0.009 A 
ATOM     63  C   UNL     1      -2.749   2.526  16.692  1.00  0.00     0.009 A 
ATOM     64  C   UNL     1      -4.500   4.665  16.314  1.00  0.00     0.001 A 
ATOM     65  C   UNL     1      -2.380   3.811  17.094  1.00  0.00     0.001 A 
ATOM     66  C   UNL     1      -3.252   4.880  16.900  1.00  0.00     0.000 A 
ENDBRANCH  47  61
BRANCH  48  67
ATOM     67  C   UNL     1      -6.172  -7.091  13.551  1.00  0.00    -0.014 A 
ATOM     68  C   UNL     1      -7.371  -7.718  13.926  1.00  0.00     0.009 A 
ATOM     69  C   UNL     1      -5.198  -7.846  12.879  1.00  0.00     0.009 A 
ATOM     70  C   UNL     1      -7.569  -9.079  13.677  1.00  0.00     0.001 A 
ATOM     71  C   UNL     1      -5.414  -9.197  12.598  1.00  0.00     0.001 A 
ATOM     72  C   UNL     1      -6.591  -9.816  13.012  1.00  0.00     0.000 A 
ENDBRANCH  48  67
BRANCH  60  73
ATOM     73  C   UNL     1      -5.356  -3.830  19.644  1.00  0.00    -0.014 A 
ATOM     74  C   UNL     1      -4.380  -4.673  20.197  1.00  0.00     0.009 A 
ATOM     75  C   UNL     1      -6.412  -3.389  20.457  1.00  0.00     0.009 A 
ATOM     76  C   UNL     1      -4.481  -5.094  21.526  1.00  0.00     0.001 A 
ATOM     77  C   UNL     1      -6.491  -3.782  21.794  1.00  0.00     0.001 A 
ATOM     78  C   UNL     1      -5.532  -4.643  22.324  1.00  0.00     0.000 A 
ENDBRANCH  60  73
ENDBRANCH  34  35
ENDBRANCH  26  29
ENDBRANCH  24  25
ENDBRANCH  23  24
ENDBRANCH  22  23
ENDBRANCH  21  22
ENDBRANCH   3  21
TORSDOF 17
