REMARK SMILES CC(C)(C)OC(=O)N1CCC[C@H]1C(=O)N[C@@H](Cc1ccccc1)C(=O)NCCCCNC(=O)c1ccc(-c2c3nc(c(-c4ccccc4)c4ccc([nH]4)c(-c4ccccc4)c4nc(c(-c5ccccc5)c5ccc2[nH]5)C=C4)C=C3)cc1
REMARK SMILES IDX 27 1 26 2 24 3 25 4 16 6 15 7 13 8 14 9 12 11 8 12 9 13
REMARK SMILES IDX 10 14 11 15 6 16 7 17 5 18 2 19 1 20 3 21 4 22 17 23 18 24
REMARK SMILES IDX 19 25 23 26 20 27 22 28 21 29 28 30 29 31 30 32 31 33 32 34
REMARK SMILES IDX 33 36 34 37 35 38 81 39 36 40 80 41 37 42 38 43 39 44 74 45
REMARK SMILES IDX 40 46 79 47 73 48 75 49 41 50 78 51 72 52 71 53 42 55 64 56
REMARK SMILES IDX 49 57 63 58 50 59 53 60 62 61 76 62 51 63 52 64 61 66 77 67
REMARK SMILES IDX 54 68 43 69 44 70 48 71 45 72 47 73 46 74 65 75 66 76 70 77
REMARK SMILES IDX 67 78 69 79 68 80 55 81 56 82 60 83 57 84 59 85 58 86
REMARK H PARENT 26 5 15 10 31 35 75 54 53 65
REMARK Flexibility Score: inf
ROOT
ATOM      1  C   UNL     1      -0.370   5.925  -5.775  1.00  0.00     0.116 C 
ENDROOT
BRANCH   1   2
ATOM      2  N   UNL     1       0.259   4.858  -5.032  1.00  0.00    -0.354 N 
ATOM      3  C   UNL     1      -0.048   4.312  -3.827  1.00  0.00     0.242 C 
ATOM      4  O   UNL     1       0.537   3.259  -3.559  1.00  0.00    -0.273 OA
ATOM      5  H   UNL     1       1.042   4.459  -5.474  1.00  0.00     0.163 HD
BRANCH   3   6
ATOM      6  C   UNL     1      -1.084   4.901  -2.850  1.00  0.00     0.175 C 
BRANCH   6   7
ATOM      7  N   UNL     1      -0.800   6.292  -2.529  1.00  0.00    -0.342 N 
ATOM      8  C   UNL     1      -0.071   6.824  -1.507  1.00  0.00     0.243 C 
ATOM      9  O   UNL     1       0.114   8.046  -1.596  1.00  0.00    -0.273 OA
ATOM     10  H   UNL     1      -1.195   6.950  -3.145  1.00  0.00     0.164 HD
BRANCH   8  11
ATOM     11  C   UNL     1       0.308   6.044  -0.199  1.00  0.00     0.178 C 
ATOM     12  N   UNL     1       0.980   4.744  -0.323  1.00  0.00    -0.296 N 
ATOM     13  C   UNL     1       2.397   4.877  -0.067  1.00  0.00     0.124 C 
ATOM     14  C   UNL     1       2.414   5.912   1.045  1.00  0.00     0.024 C 
ATOM     15  C   UNL     1       1.305   6.882   0.641  1.00  0.00     0.037 C 
BRANCH  12  16
ATOM     16  C   UNL     1       0.319   3.541  -0.158  1.00  0.00     0.410 C 
ATOM     17  O   UNL     1      -0.849   3.478   0.202  1.00  0.00    -0.224 OA
BRANCH  16  18
ATOM     18  O   UNL     1       1.089   2.486  -0.524  1.00  0.00    -0.444 OA
BRANCH  18  19
ATOM     19  C   UNL     1       0.603   1.119  -0.674  1.00  0.00     0.106 C 
ATOM     20  C   UNL     1       1.230   0.294   0.452  1.00  0.00     0.056 C 
ATOM     21  C   UNL     1       1.153   0.608  -2.015  1.00  0.00     0.056 C 
ATOM     22  C   UNL     1      -0.920   0.929  -0.681  1.00  0.00     0.056 C 
ENDBRANCH  18  19
ENDBRANCH  16  18
ENDBRANCH  12  16
ENDBRANCH   8  11
ENDBRANCH   6   7
BRANCH   6  23
ATOM     23  C   UNL     1      -2.564   4.573  -3.115  1.00  0.00     0.070 C 
BRANCH  23  24
ATOM     24  C   UNL     1      -3.127   4.809  -4.490  1.00  0.00    -0.045 A 
ATOM     25  C   UNL     1      -3.728   6.029  -4.826  1.00  0.00     0.004 A 
ATOM     26  C   UNL     1      -3.071   3.789  -5.454  1.00  0.00     0.004 A 
ATOM     27  C   UNL     1      -4.230   6.236  -6.112  1.00  0.00     0.000 A 
ATOM     28  C   UNL     1      -3.574   3.999  -6.739  1.00  0.00     0.000 A 
ATOM     29  C   UNL     1      -4.145   5.226  -7.071  1.00  0.00     0.000 A 
ENDBRANCH  23  24
ENDBRANCH   6  23
ENDBRANCH   3   6
ENDBRANCH   1   2
BRANCH   1  30
ATOM     30  C   UNL     1       0.614   6.697  -6.642  1.00  0.00     0.023 C 
BRANCH  30  31
ATOM     31  C   UNL     1       1.243   5.886  -7.778  1.00  0.00     0.023 C 
BRANCH  31  32
ATOM     32  C   UNL     1       0.274   5.086  -8.645  1.00  0.00     0.116 C 
BRANCH  32  33
ATOM     33  N   UNL     1      -0.815   5.883  -9.191  1.00  0.00    -0.352 N 
ATOM     34  C   UNL     1      -1.277   5.950 -10.483  1.00  0.00     0.251 C 
ATOM     35  H   UNL     1      -1.288   6.454  -8.543  1.00  0.00     0.163 HD
ATOM     36  O   UNL     1      -2.165   6.735 -10.794  1.00  0.00    -0.269 OA
BRANCH  34  37
ATOM     37  C   UNL     1      -0.665   5.082 -11.507  1.00  0.00     0.039 A 
ATOM     38  C   UNL     1      -0.140   5.666 -12.662  1.00  0.00     0.014 A 
ATOM     39  C   UNL     1      -0.563   3.704 -11.295  1.00  0.00     0.014 A 
ATOM     40  C   UNL     1       0.560   4.875 -13.573  1.00  0.00     0.010 A 
ATOM     41  C   UNL     1       0.193   2.931 -12.170  1.00  0.00     0.010 A 
ATOM     42  C   UNL     1       0.768   3.510 -13.312  1.00  0.00    -0.014 A 
BRANCH  42  43
ATOM     43  C   UNL     1       1.605   2.678 -14.213  1.00  0.00     0.031 A 
ATOM     44  C   UNL     1       0.994   1.539 -14.977  1.00  0.00     0.074 A 
ATOM     45  C   UNL     1       2.930   2.909 -14.290  1.00  0.00     0.049 A 
ATOM     46  N   UNL     1       1.571   0.680 -15.780  1.00  0.00    -0.248 NA
ATOM     47  C   UNL     1      -0.450   1.319 -14.798  1.00  0.00     0.031 C 
ATOM     48  C   UNL     1       3.654   3.953 -13.563  1.00  0.00     0.029 A 
ATOM     49  N   UNL     1       3.906   2.272 -15.015  1.00  0.00    -0.354 N 
ATOM     50  C   UNL     1       0.566  -0.187 -16.188  1.00  0.00     0.074 A 
ATOM     51  C   UNL     1      -0.644   0.216 -15.506  1.00  0.00     0.031 C 
ATOM     52  C   UNL     1       4.953   3.904 -13.900  1.00  0.00     0.029 A 
ATOM     53  C   UNL     1       5.160   2.805 -14.837  1.00  0.00     0.049 A 
ATOM     54  H   UNL     1       3.725   1.507 -15.607  1.00  0.00     0.167 HD
ATOM     55  C   UNL     1       0.638  -1.215 -17.066  1.00  0.00     0.031 A 
ATOM     56  C   UNL     1       6.345   2.447 -15.367  1.00  0.00     0.031 A 
ATOM     57  C   UNL     1       1.840  -1.614 -17.749  1.00  0.00     0.049 A 
ATOM     58  C   UNL     1       6.402   1.296 -16.331  1.00  0.00     0.074 A 
ATOM     59  C   UNL     1       2.002  -2.604 -18.702  1.00  0.00     0.029 A 
ATOM     60  N   UNL     1       3.088  -1.045 -17.546  1.00  0.00    -0.354 N 
ATOM     61  N   UNL     1       5.427   0.534 -16.767  1.00  0.00    -0.248 NA
ATOM     62  C   UNL     1       7.721   0.963 -16.887  1.00  0.00     0.031 C 
ATOM     63  C   UNL     1       3.358  -2.668 -19.039  1.00  0.00     0.029 A 
ATOM     64  C   UNL     1       4.030  -1.680 -18.337  1.00  0.00     0.049 A 
ATOM     65  H   UNL     1       3.276  -0.299 -16.931  1.00  0.00     0.167 HD
ATOM     66  C   UNL     1       6.010  -0.348 -17.667  1.00  0.00     0.074 A 
ATOM     67  C   UNL     1       7.419  -0.018 -17.726  1.00  0.00     0.031 C 
ATOM     68  C   UNL     1       5.429  -1.343 -18.382  1.00  0.00     0.031 A 
BRANCH  55  69
ATOM     69  C   UNL     1      -0.625  -1.986 -17.330  1.00  0.00    -0.014 A 
ATOM     70  C   UNL     1      -1.695  -1.410 -18.035  1.00  0.00     0.009 A 
ATOM     71  C   UNL     1      -0.741  -3.312 -16.887  1.00  0.00     0.009 A 
ATOM     72  C   UNL     1      -2.869  -2.133 -18.255  1.00  0.00     0.001 A 
ATOM     73  C   UNL     1      -1.904  -4.043 -17.135  1.00  0.00     0.001 A 
ATOM     74  C   UNL     1      -2.971  -3.450 -17.808  1.00  0.00     0.000 A 
ENDBRANCH  55  69
BRANCH  56  75
ATOM     75  C   UNL     1       7.576   3.201 -15.014  1.00  0.00    -0.014 A 
ATOM     76  C   UNL     1       8.192   4.037 -15.959  1.00  0.00     0.009 A 
ATOM     77  C   UNL     1       8.142   3.090 -13.735  1.00  0.00     0.009 A 
ATOM     78  C   UNL     1       9.364   4.725 -15.637  1.00  0.00     0.001 A 
ATOM     79  C   UNL     1       9.298   3.801 -13.408  1.00  0.00     0.001 A 
ATOM     80  C   UNL     1       9.913   4.611 -14.361  1.00  0.00     0.000 A 
ENDBRANCH  56  75
BRANCH  68  81
ATOM     81  C   UNL     1       6.312  -2.124 -19.314  1.00  0.00    -0.014 A 
ATOM     82  C   UNL     1       7.252  -3.046 -18.827  1.00  0.00     0.009 A 
ATOM     83  C   UNL     1       6.170  -1.965 -20.701  1.00  0.00     0.009 A 
ATOM     84  C   UNL     1       8.054  -3.769 -19.712  1.00  0.00     0.001 A 
ATOM     85  C   UNL     1       6.953  -2.710 -21.584  1.00  0.00     0.001 A 
ATOM     86  C   UNL     1       7.900  -3.604 -21.089  1.00  0.00     0.000 A 
ENDBRANCH  68  81
ENDBRANCH  42  43
ENDBRANCH  34  37
ENDBRANCH  32  33
ENDBRANCH  31  32
ENDBRANCH  30  31
ENDBRANCH   1  30
TORSDOF 18
