REMARK SMILES C=C[C@@H]1[C@@H](O)C[C@@H]2[C@@]3(CC[C@@]4(C)[C@@H]([C@H](C)CCC=C(C)C)CC[C@@]24C)C[C@@]13CCC(=O)NCCCCNC(=O)c1ccc(-c2c3nc(c(-c4ccccc4)c4ccc([nH]4)c(-c4ccccc4)c4nc(c(-c5ccccc5)c5ccc2[nH]5)C=C4)C=C3)cc1
REMARK SMILES IDX 30 1 31 2 32 3 29 5 28 6 27 7 3 8 4 9 6 10 8 11 26 12 7 13
REMARK SMILES IDX 9 14 24 15 10 16 11 17 23 18 25 19 12 20 13 21 22 22 2 23
REMARK SMILES IDX 1 24 5 25 14 27 15 28 16 29 17 30 18 31 19 32 20 33 21 34
REMARK SMILES IDX 33 35 34 36 35 37 36 38 37 39 38 40 39 42 40 43 41 44 87 45
REMARK SMILES IDX 42 46 86 47 43 48 44 49 45 50 80 51 46 52 85 53 79 54 81 55
REMARK SMILES IDX 47 56 84 57 78 58 77 59 48 61 70 62 55 63 69 64 56 65 59 66
REMARK SMILES IDX 68 67 82 68 57 69 58 70 67 72 83 73 60 74 49 75 50 76 54 77
REMARK SMILES IDX 51 78 53 79 52 80 71 81 72 82 76 83 73 84 75 85 74 86 61 87
REMARK SMILES IDX 62 88 66 89 63 90 65 91 64 92
REMARK H PARENT 32 4 5 26 37 41 81 60 59 71
REMARK Flexibility Score: inf
ROOT
ATOM      1  C   UNL     1      -3.619   7.247   3.359  1.00  0.00     0.220 C 
ATOM      2  O   UNL     1      -2.857   8.161   3.053  1.00  0.00    -0.275 OA
ATOM      3  N   UNL     1      -3.337   5.980   2.949  1.00  0.00    -0.356 N 
ATOM      4  H   UNL     1      -2.709   5.915   2.193  1.00  0.00     0.163 HD
ENDROOT
BRANCH   1   5
ATOM      5  C   UNL     1      -4.827   7.452   4.218  1.00  0.00     0.100 C 
BRANCH   5   6
ATOM      6  C   UNL     1      -6.065   6.789   3.631  1.00  0.00     0.018 C 
BRANCH   6   7
ATOM      7  C   UNL     1      -5.911   5.302   3.234  1.00  0.00    -0.014 C 
ATOM      8  C   UNL     1      -5.642   4.110   4.757  1.00  0.00     0.047 C 
ATOM      9  C   UNL     1      -4.067   2.921   4.671  1.00  0.00     0.122 C 
ATOM     10  C   UNL     1      -3.067   2.724   2.973  1.00  0.00     0.037 C 
ATOM     11  C   UNL     1      -5.062   5.024   1.551  1.00  0.00    -0.019 C 
ATOM     12  C   UNL     1      -6.603   4.915   1.914  1.00  0.00     0.016 C 
ATOM     13  C   UNL     1      -3.579   3.802   1.430  1.00  0.00     0.005 C 
ATOM     14  C   UNL     1      -4.842   6.082   0.465  1.00  0.00     0.008 C 
ATOM     15  C   UNL     1      -3.495   3.251  -0.047  1.00  0.00    -0.023 C 
ATOM     16  C   UNL     1      -4.279   5.589  -0.881  1.00  0.00     0.008 C 
ATOM     17  C   UNL     1      -3.199   4.472  -1.016  1.00  0.00    -0.024 C 
ATOM     18  C   UNL     1      -2.231   2.401  -0.214  1.00  0.00     0.008 C 
ATOM     19  C   UNL     1      -4.755   2.493  -0.520  1.00  0.00     0.012 C 
ATOM     20  C   UNL     1      -3.290   4.036  -2.529  1.00  0.00     0.012 C 
ATOM     21  C   UNL     1      -1.644   4.774  -0.809  1.00  0.00    -0.002 C 
ATOM     22  C   UNL     1      -1.078   3.404  -0.310  1.00  0.00     0.005 C 
BRANCH   8  23
ATOM     23  C   UNL     1      -5.628   4.830   6.118  1.00  0.00    -0.028 C 
ATOM     24  C   UNL     1      -6.604   5.593   6.627  1.00  0.00     0.004 C 
ENDBRANCH   8  23
BRANCH   9  25
ATOM     25  O   UNL     1      -4.301   1.672   5.316  1.00  0.00    -0.392 OA
ATOM     26  H   UNL     1      -4.942   1.157   4.801  1.00  0.00     0.210 HD
ENDBRANCH   9  25
BRANCH  21  27
ATOM     27  C   UNL     1      -1.121   5.964   0.060  1.00  0.00    -0.010 C 
ATOM     28  C   UNL     1      -1.663   7.328  -0.374  1.00  0.00     0.008 C 
BRANCH  27  29
ATOM     29  C   UNL     1       0.428   6.054   0.138  1.00  0.00     0.008 C 
BRANCH  29  30
ATOM     30  C   UNL     1       0.918   6.801   1.405  1.00  0.00     0.027 C 
BRANCH  30  31
ATOM     31  C   UNL     1       0.860   5.978   2.672  1.00  0.00    -0.028 C 
ATOM     32  C   UNL     1       1.363   6.355   3.866  1.00  0.00    -0.080 C 
ATOM     33  C   UNL     1       1.247   5.477   5.084  1.00  0.00     0.039 C 
ATOM     34  C   UNL     1       2.068   7.665   4.105  1.00  0.00     0.039 C 
ENDBRANCH  30  31
ENDBRANCH  29  30
ENDBRANCH  27  29
ENDBRANCH  21  27
ENDBRANCH   6   7
ENDBRANCH   5   6
ENDBRANCH   1   5
BRANCH   3  35
ATOM     35  C   UNL     1      -3.844   4.661   3.479  1.00  0.00     0.116 C 
BRANCH  35  36
ATOM     36  C   UNL     1      -5.111   3.116   2.811  1.00  0.00     0.023 C 
BRANCH  36  37
ATOM     37  C   UNL     1      -5.336   1.371   2.882  1.00  0.00     0.023 C 
BRANCH  37  38
ATOM     38  C   UNL     1      -4.405   0.251   2.309  1.00  0.00     0.116 C 
BRANCH  38  39
ATOM     39  N   UNL     1      -5.020  -1.065   2.290  1.00  0.00    -0.352 N 
ATOM     40  C   UNL     1      -4.749  -2.187   1.543  1.00  0.00     0.251 C 
ATOM     41  H   UNL     1      -5.763  -1.173   2.926  1.00  0.00     0.163 HD
ATOM     42  O   UNL     1      -5.303  -3.238   1.868  1.00  0.00    -0.269 OA
BRANCH  40  43
ATOM     43  C   UNL     1      -3.865  -2.209   0.340  1.00  0.00     0.039 A 
ATOM     44  C   UNL     1      -4.298  -3.011  -0.728  1.00  0.00     0.014 A 
ATOM     45  C   UNL     1      -2.601  -1.617   0.256  1.00  0.00     0.014 A 
ATOM     46  C   UNL     1      -3.492  -3.222  -1.853  1.00  0.00     0.010 A 
ATOM     47  C   UNL     1      -1.802  -1.801  -0.896  1.00  0.00     0.010 A 
ATOM     48  C   UNL     1      -2.228  -2.623  -1.955  1.00  0.00    -0.014 A 
BRANCH  48  49
ATOM     49  C   UNL     1      -1.376  -2.922  -3.150  1.00  0.00     0.031 A 
ATOM     50  C   UNL     1      -0.133  -3.772  -3.027  1.00  0.00     0.074 A 
ATOM     51  C   UNL     1      -1.750  -2.492  -4.374  1.00  0.00     0.049 A 
ATOM     52  N   UNL     1       0.648  -4.237  -3.974  1.00  0.00    -0.248 NA
ATOM     53  C   UNL     1       0.293  -4.140  -1.670  1.00  0.00     0.031 C 
ATOM     54  C   UNL     1      -2.912  -1.649  -4.655  1.00  0.00     0.029 A 
ATOM     55  N   UNL     1      -1.203  -2.725  -5.616  1.00  0.00    -0.354 N 
ATOM     56  C   UNL     1       1.657  -4.943  -3.327  1.00  0.00     0.074 A 
ATOM     57  C   UNL     1       1.412  -4.811  -1.907  1.00  0.00     0.031 C 
ATOM     58  C   UNL     1      -3.014  -1.466  -5.983  1.00  0.00     0.029 A 
ATOM     59  C   UNL     1      -1.915  -2.161  -6.650  1.00  0.00     0.049 A 
ATOM     60  H   UNL     1      -0.380  -3.248  -5.752  1.00  0.00     0.167 HD
ATOM     61  C   UNL     1       2.684  -5.652  -3.859  1.00  0.00     0.031 A 
ATOM     62  C   UNL     1      -1.720  -2.204  -7.983  1.00  0.00     0.031 A 
ATOM     63  C   UNL     1       2.929  -5.813  -5.268  1.00  0.00     0.049 A 
ATOM     64  C   UNL     1      -0.574  -3.002  -8.547  1.00  0.00     0.074 A 
ATOM     65  C   UNL     1       3.911  -6.567  -5.891  1.00  0.00     0.029 A 
ATOM     66  N   UNL     1       2.191  -5.212  -6.273  1.00  0.00    -0.354 N 
ATOM     67  N   UNL     1       0.314  -3.731  -7.918  1.00  0.00    -0.248 NA
ATOM     68  C   UNL     1      -0.417  -2.995 -10.011  1.00  0.00     0.031 C 
ATOM     69  C   UNL     1       3.796  -6.384  -7.273  1.00  0.00     0.029 A 
ATOM     70  C   UNL     1       2.711  -5.556  -7.510  1.00  0.00     0.049 A 
ATOM     71  H   UNL     1       1.412  -4.627  -6.130  1.00  0.00     0.167 HD
ATOM     72  C   UNL     1       1.116  -4.288  -8.908  1.00  0.00     0.074 A 
ATOM     73  C   UNL     1       0.597  -3.831 -10.179  1.00  0.00     0.031 C 
ATOM     74  C   UNL     1       2.188  -5.105  -8.772  1.00  0.00     0.031 A 
BRANCH  61  75
ATOM     75  C   UNL     1       3.640  -6.321  -2.908  1.00  0.00    -0.014 A 
ATOM     76  C   UNL     1       3.267  -7.469  -2.192  1.00  0.00     0.009 A 
ATOM     77  C   UNL     1       4.954  -5.842  -2.787  1.00  0.00     0.009 A 
ATOM     78  C   UNL     1       4.183  -8.106  -1.351  1.00  0.00     0.001 A 
ATOM     79  C   UNL     1       5.875  -6.496  -1.966  1.00  0.00     0.001 A 
ATOM     80  C   UNL     1       5.486  -7.623  -1.243  1.00  0.00     0.000 A 
ENDBRANCH  61  75
BRANCH  62  81
ATOM     81  C   UNL     1      -2.639  -1.477  -8.901  1.00  0.00    -0.014 A 
ATOM     82  C   UNL     1      -3.504  -2.178  -9.756  1.00  0.00     0.009 A 
ATOM     83  C   UNL     1      -2.622  -0.074  -8.958  1.00  0.00     0.009 A 
ATOM     84  C   UNL     1      -4.307  -1.492 -10.671  1.00  0.00     0.001 A 
ATOM     85  C   UNL     1      -3.448   0.610  -9.852  1.00  0.00     0.001 A 
ATOM     86  C   UNL     1      -4.280  -0.099 -10.716  1.00  0.00     0.000 A 
ENDBRANCH  62  81
BRANCH  74  87
ATOM     87  C   UNL     1       2.858  -5.584 -10.029  1.00  0.00    -0.014 A 
ATOM     88  C   UNL     1       3.643  -4.722 -10.809  1.00  0.00     0.009 A 
ATOM     89  C   UNL     1       2.734  -6.928 -10.416  1.00  0.00     0.009 A 
ATOM     90  C   UNL     1       4.266  -5.189 -11.969  1.00  0.00     0.001 A 
ATOM     91  C   UNL     1       3.379  -7.398 -11.561  1.00  0.00     0.001 A 
ATOM     92  C   UNL     1       4.137  -6.527 -12.341  1.00  0.00     0.000 A 
ENDBRANCH  74  87
ENDBRANCH  48  49
ENDBRANCH  40  43
ENDBRANCH  38  39
ENDBRANCH  37  38
ENDBRANCH  36  37
ENDBRANCH  35  36
ENDBRANCH   3  35
TORSDOF 19
