REMARK SMILES C[C@H]1[NH2+]CC[C@@H]1C(=O)N[C@@H](CC(=O)NCCCCNC(=O)c1ccc(-c2c3nc(c(-c4ccccc4)c4ccc([nH]4)c(-c4ccccc4)c4nc(c(-c5ccccc5)c5ccc2[nH]5)C=C4)C=C3)cc1)c1cccs1
REMARK SMILES IDX 16 1 15 2 14 3 12 4 13 5 11 7 10 8 9 9 7 10 8 11 6 13 1 14
REMARK SMILES IDX 2 15 3 16 4 17 5 20 70 21 71 22 74 23 72 24 73 25 17 26
REMARK SMILES IDX 18 27 19 28 20 29 21 31 22 32 23 33 69 34 24 35 68 36 25 37
REMARK SMILES IDX 26 38 27 39 62 40 28 41 67 42 61 43 63 44 29 45 66 46 60 47
REMARK SMILES IDX 59 48 30 50 52 51 37 52 51 53 38 54 41 55 50 56 64 57 39 58
REMARK SMILES IDX 40 59 49 61 65 62 42 63 31 64 32 65 36 66 33 67 35 68 34 69
REMARK SMILES IDX 53 70 54 71 58 72 55 73 57 74 56 75 43 76 44 77 48 78 45 79
REMARK SMILES IDX 47 80 46 81
REMARK H PARENT 14 6 9 12 3 18 3 19 19 30 63 49 41 60
REMARK Flexibility Score: inf
ROOT
ATOM      1  C   UNL     1      -2.086   2.097  -4.633  1.00  0.00     0.023 C 
ENDROOT
BRANCH   1   2
ATOM      2  C   UNL     1      -1.929   3.480  -3.996  1.00  0.00     0.116 C 
BRANCH   2   3
ATOM      3  N   UNL     1      -3.211   4.029  -3.592  1.00  0.00    -0.356 N 
ATOM      4  C   UNL     1      -3.720   4.261  -2.351  1.00  0.00     0.222 C 
ATOM      5  O   UNL     1      -4.836   4.781  -2.277  1.00  0.00    -0.275 OA
ATOM      6  H   UNL     1      -3.808   4.271  -4.336  1.00  0.00     0.163 HD
BRANCH   4   7
ATOM      7  C   UNL     1      -2.931   3.943  -1.094  1.00  0.00     0.130 C 
BRANCH   7   8
ATOM      8  C   UNL     1      -2.938   2.488  -0.597  1.00  0.00     0.131 C 
BRANCH   8   9
ATOM      9  N   UNL     1      -2.062   1.637  -1.380  1.00  0.00    -0.348 N 
ATOM     10  C   UNL     1      -0.809   1.160  -1.241  1.00  0.00     0.229 C 
ATOM     11  O   UNL     1      -0.193   0.970  -2.294  1.00  0.00    -0.275 OA
ATOM     12  H   UNL     1      -2.486   1.334  -2.216  1.00  0.00     0.164 HD
BRANCH  10  13
ATOM     13  C   UNL     1      -0.179   0.907   0.121  1.00  0.00     0.142 C 
ATOM     14  C   UNL     1       2.099   0.050   0.907  1.00  0.00     0.076 C 
ATOM     15  C   UNL     1       0.916  -0.176  -0.034  1.00  0.00     0.192 C 
ATOM     16  N   UNL     1       0.270  -1.473   0.279  1.00  0.00    -0.343 N 
ATOM     17  C   UNL     1      -1.101  -1.205   0.703  1.00  0.00     0.261 C 
ATOM     18  H   UNL     1       0.779  -1.941   1.028  1.00  0.00     0.346 HD
ATOM     19  H   UNL     1       0.275  -2.077  -0.543  1.00  0.00     0.346 HD
ATOM     20  C   UNL     1      -1.108   0.246   1.131  1.00  0.00     0.081 C 
ENDBRANCH  10  13
ENDBRANCH   8   9
BRANCH   8  21
ATOM     21  C   UNL     1      -4.303   1.830  -0.575  1.00  0.00     0.027 A 
ATOM     22  C   UNL     1      -5.117   1.594   0.518  1.00  0.00     0.017 A 
ATOM     23  S   UNL     1      -5.018   1.188  -2.009  1.00  0.00    -0.147 S 
ATOM     24  C   UNL     1      -6.306   0.882   0.177  1.00  0.00     0.012 A 
ATOM     25  C   UNL     1      -6.376   0.603  -1.167  1.00  0.00     0.065 A 
ENDBRANCH   8  21
ENDBRANCH   7   8
ENDBRANCH   4   7
ENDBRANCH   2   3
ENDBRANCH   1   2
BRANCH   1  26
ATOM     26  C   UNL     1      -2.631   2.078  -6.050  1.00  0.00     0.023 C 
BRANCH  26  27
ATOM     27  C   UNL     1      -1.766   2.803  -7.058  1.00  0.00     0.116 C 
BRANCH  27  28
ATOM     28  N   UNL     1      -0.394   2.317  -7.113  1.00  0.00    -0.352 N 
ATOM     29  C   UNL     1       0.397   2.136  -8.226  1.00  0.00     0.251 C 
ATOM     30  H   UNL     1       0.018   2.090  -6.248  1.00  0.00     0.163 HD
ATOM     31  O   UNL     1       1.507   1.643  -8.146  1.00  0.00    -0.269 OA
BRANCH  29  32
ATOM     32  C   UNL     1      -0.162   2.521  -9.538  1.00  0.00     0.039 A 
ATOM     33  C   UNL     1      -0.138   1.594 -10.581  1.00  0.00     0.014 A 
ATOM     34  C   UNL     1      -0.791   3.757  -9.692  1.00  0.00     0.014 A 
ATOM     35  C   UNL     1      -0.806   1.889 -11.768  1.00  0.00     0.010 A 
ATOM     36  C   UNL     1      -1.548   3.999 -10.826  1.00  0.00     0.010 A 
ATOM     37  C   UNL     1      -1.543   3.079 -11.885  1.00  0.00    -0.014 A 
BRANCH  37  38
ATOM     38  C   UNL     1      -2.267   3.427 -13.130  1.00  0.00     0.031 A 
ATOM     39  C   UNL     1      -1.861   4.661 -13.889  1.00  0.00     0.074 A 
ATOM     40  C   UNL     1      -3.316   2.687 -13.536  1.00  0.00     0.049 A 
ATOM     41  N   UNL     1      -2.417   5.207 -14.939  1.00  0.00    -0.248 NA
ATOM     42  C   UNL     1      -0.699   5.406 -13.371  1.00  0.00     0.031 C 
ATOM     43  C   UNL     1      -3.834   1.496 -12.860  1.00  0.00     0.029 A 
ATOM     44  N   UNL     1      -4.140   2.837 -14.622  1.00  0.00    -0.354 N 
ATOM     45  C   UNL     1      -1.696   6.369 -15.181  1.00  0.00     0.074 A 
ATOM     46  C   UNL     1      -0.706   6.485 -14.136  1.00  0.00     0.031 C 
ATOM     47  C   UNL     1      -4.865   1.003 -13.568  1.00  0.00     0.029 A 
ATOM     48  C   UNL     1      -5.102   1.862 -14.723  1.00  0.00     0.049 A 
ATOM     49  H   UNL     1      -4.050   3.574 -15.268  1.00  0.00     0.167 HD
ATOM     50  C   UNL     1      -1.824   7.248 -16.201  1.00  0.00     0.031 A 
ATOM     51  C   UNL     1      -6.063   1.684 -15.648  1.00  0.00     0.031 A 
ATOM     52  C   UNL     1      -2.779   7.107 -17.264  1.00  0.00     0.049 A 
ATOM     53  C   UNL     1      -6.166   2.658 -16.789  1.00  0.00     0.074 A 
ATOM     54  C   UNL     1      -2.955   7.907 -18.378  1.00  0.00     0.029 A 
ATOM     55  N   UNL     1      -3.709   6.083 -17.349  1.00  0.00    -0.354 N 
ATOM     56  N   UNL     1      -5.442   3.723 -17.035  1.00  0.00    -0.248 NA
ATOM     57  C   UNL     1      -7.209   2.394 -17.790  1.00  0.00     0.031 C 
ATOM     58  C   UNL     1      -4.016   7.382 -19.124  1.00  0.00     0.029 A 
ATOM     59  C   UNL     1      -4.467   6.232 -18.496  1.00  0.00     0.049 A 
ATOM     60  H   UNL     1      -3.815   5.358 -16.691  1.00  0.00     0.167 HD
ATOM     61  C   UNL     1      -5.919   4.237 -18.233  1.00  0.00     0.074 A 
ATOM     62  C   UNL     1      -6.986   3.359 -18.670  1.00  0.00     0.031 C 
ATOM     63  C   UNL     1      -5.511   5.335 -18.915  1.00  0.00     0.031 A 
BRANCH  50  64
ATOM     64  C   UNL     1      -0.895   8.429 -16.211  1.00  0.00    -0.014 A 
ATOM     65  C   UNL     1       0.477   8.271 -16.468  1.00  0.00     0.009 A 
ATOM     66  C   UNL     1      -1.398   9.716 -15.970  1.00  0.00     0.009 A 
ATOM     67  C   UNL     1       1.333   9.373 -16.440  1.00  0.00     0.001 A 
ATOM     68  C   UNL     1      -0.543  10.821 -15.974  1.00  0.00     0.001 A 
ATOM     69  C   UNL     1       0.822  10.647 -16.198  1.00  0.00     0.000 A 
ENDBRANCH  50  64
BRANCH  51  70
ATOM     70  C   UNL     1      -6.981   0.518 -15.562  1.00  0.00    -0.014 A 
ATOM     71  C   UNL     1      -6.866  -0.542 -16.475  1.00  0.00     0.009 A 
ATOM     72  C   UNL     1      -7.984   0.464 -14.583  1.00  0.00     0.009 A 
ATOM     73  C   UNL     1      -7.757  -1.617 -16.429  1.00  0.00     0.001 A 
ATOM     74  C   UNL     1      -8.857  -0.625 -14.523  1.00  0.00     0.001 A 
ATOM     75  C   UNL     1      -8.750  -1.658 -15.452  1.00  0.00     0.000 A 
ENDBRANCH  51  70
BRANCH  63  76
ATOM     76  C   UNL     1      -6.185   5.618 -20.225  1.00  0.00    -0.014 A 
ATOM     77  C   UNL     1      -7.492   6.124 -20.279  1.00  0.00     0.009 A 
ATOM     78  C   UNL     1      -5.478   5.419 -21.421  1.00  0.00     0.009 A 
ATOM     79  C   UNL     1      -8.089   6.396 -21.511  1.00  0.00     0.001 A 
ATOM     80  C   UNL     1      -6.068   5.717 -22.649  1.00  0.00     0.001 A 
ATOM     81  C   UNL     1      -7.376   6.197 -22.693  1.00  0.00     0.000 A 
ENDBRANCH  63  76
ENDBRANCH  37  38
ENDBRANCH  29  32
ENDBRANCH  27  28
ENDBRANCH  26  27
ENDBRANCH   1  26
TORSDOF 15
