REMARK SMILES Cn1cc([C@@H]2CC(NCCCCNC(=O)c3ccc(-c4c5nc(c(-c6ccccc6)c6ccc([nH]6)c(-c6ccccc6)c6nc(c(-c7ccccc7)c7ccc4[nH]7)C=C6)C=C5)cc3)=[NH+]c3c2sc(C(=O)[O-])c3-c2ccc(Cl)cc2)cn1
REMARK SMILES IDX 11 1 10 2 9 3 8 4 5 5 6 6 66 7 7 8 65 9 67 10 64 11 72 12
REMARK SMILES IDX 68 13 4 16 1 17 2 18 3 19 81 20 80 21 73 22 74 23 79 24
REMARK SMILES IDX 75 25 78 26 76 27 77 28 69 29 70 30 71 31 12 32 13 33 14 34
REMARK SMILES IDX 15 36 16 37 17 38 63 39 18 40 62 41 19 42 20 43 21 44 56 45
REMARK SMILES IDX 22 46 61 47 55 48 57 49 23 50 60 51 54 52 53 53 24 55 46 56
REMARK SMILES IDX 31 57 45 58 32 59 35 60 44 61 58 62 33 63 34 64 43 66 59 67
REMARK SMILES IDX 36 68 25 69 26 70 30 71 27 72 29 73 28 74 47 75 48 76 52 77
REMARK SMILES IDX 49 78 51 79 50 80 37 81 38 82 42 83 39 84 41 85 40 86
REMARK H PARENT 8 14 64 15 13 35 57 54 35 65
REMARK Flexibility Score: inf
ROOT
ATOM      1  C   UNL     1       2.043  -6.729  -3.756  1.00  0.00     0.025 C 
ENDROOT
BRANCH   1   2
ATOM      2  C   UNL     1       2.246  -6.891  -2.243  1.00  0.00     0.048 C 
BRANCH   2   3
ATOM      3  C   UNL     1       3.418  -6.121  -1.629  1.00  0.00     0.233 C 
BRANCH   3   4
ATOM      4  N   UNL     1       3.238  -4.683  -1.751  1.00  0.00    -0.278 N 
ATOM      5  C   UNL     1       2.646  -1.384   0.149  1.00  0.00     0.079 C 
ATOM      6  C   UNL     1       2.946  -2.344  -1.013  1.00  0.00     0.142 C 
ATOM      7  C   UNL     1       2.663  -2.110   1.449  1.00  0.00     0.061 A 
ATOM      8  C   UNL     1       3.045  -3.836  -0.673  1.00  0.00     0.248 C 
ATOM      9  C   UNL     1       2.821  -3.455   1.593  1.00  0.00     0.147 A 
ATOM     10  S   UNL     1       2.490  -1.343   2.956  1.00  0.00    -0.133 S 
ATOM     11  N   UNL     1       2.993  -4.336   0.527  1.00  0.00    -0.243 N 
ATOM     12  C   UNL     1       2.789  -3.905   2.951  1.00  0.00     0.049 A 
ATOM     13  C   UNL     1       2.583  -2.838   3.824  1.00  0.00     0.062 A 
ATOM     14  H   UNL     1       3.254  -4.288  -2.652  1.00  0.00     0.304 HD
ATOM     15  H   UNL     1       3.073  -5.305   0.678  1.00  0.00     0.312 HD
BRANCH   5  16
ATOM     16  C   UNL     1       1.362  -0.626  -0.046  1.00  0.00    -0.001 A 
ATOM     17  C   UNL     1      -2.188  -0.005  -0.136  1.00  0.00     0.173 C 
ATOM     18  N   UNL     1      -0.747  -0.018  -0.173  1.00  0.00    -0.276 N 
ATOM     19  C   UNL     1       0.067  -1.108  -0.086  1.00  0.00     0.112 A 
ATOM     20  N   UNL     1      -0.075   1.143  -0.266  1.00  0.00    -0.182 NA
ATOM     21  C   UNL     1       1.203   0.776  -0.161  1.00  0.00     0.139 A 
ENDBRANCH   5  16
BRANCH  12  22
ATOM     22  C   UNL     1       2.985  -5.288   3.374  1.00  0.00    -0.012 A 
ATOM     23  C   UNL     1       1.966  -6.010   4.007  1.00  0.00     0.010 A 
ATOM     24  C   UNL     1       4.213  -5.914   3.114  1.00  0.00     0.010 A 
ATOM     25  C   UNL     1       2.194  -7.324   4.426  1.00  0.00     0.021 A 
ATOM     26  C   UNL     1       4.436  -7.231   3.520  1.00  0.00     0.021 A 
ATOM     27  C   UNL     1       3.430  -7.925   4.187  1.00  0.00     0.041 A 
ATOM     28  Cl  UNL     1       3.716  -9.535   4.722  1.00  0.00    -0.084 Cl
ENDBRANCH  12  22
BRANCH  13  29
ATOM     29  C   UNL     1       2.460  -2.748   5.265  1.00  0.00     0.082 C 
ATOM     30  O   UNL     1       2.134  -1.776   5.939  1.00  0.00    -0.544 OA
ATOM     31  O   UNL     1       2.753  -3.900   5.902  1.00  0.00    -0.544 OA
ENDBRANCH  13  29
ENDBRANCH   3   4
ENDBRANCH   2   3
ENDBRANCH   1   2
BRANCH   1  32
ATOM     32  C   UNL     1       3.232  -7.141  -4.614  1.00  0.00     0.116 C 
BRANCH  32  33
ATOM     33  N   UNL     1       3.533  -8.570  -4.548  1.00  0.00    -0.352 N 
ATOM     34  C   UNL     1       4.571  -9.241  -5.171  1.00  0.00     0.251 C 
ATOM     35  H   UNL     1       2.929  -9.118  -3.997  1.00  0.00     0.163 HD
ATOM     36  O   UNL     1       4.514 -10.446  -5.383  1.00  0.00    -0.269 OA
BRANCH  34  37
ATOM     37  C   UNL     1       5.761  -8.471  -5.575  1.00  0.00     0.039 A 
ATOM     38  C   UNL     1       6.377  -8.666  -6.814  1.00  0.00     0.014 A 
ATOM     39  C   UNL     1       6.229  -7.502  -4.693  1.00  0.00     0.014 A 
ATOM     40  C   UNL     1       7.409  -7.809  -7.193  1.00  0.00     0.010 A 
ATOM     41  C   UNL     1       7.134  -6.567  -5.127  1.00  0.00     0.010 A 
ATOM     42  C   UNL     1       7.765  -6.740  -6.354  1.00  0.00    -0.014 A 
BRANCH  42  43
ATOM     43  C   UNL     1       8.703  -5.713  -6.804  1.00  0.00     0.031 A 
ATOM     44  C   UNL     1       8.355  -5.086  -8.109  1.00  0.00     0.074 A 
ATOM     45  C   UNL     1       9.671  -5.193  -6.016  1.00  0.00     0.049 A 
ATOM     46  N   UNL     1       9.009  -5.165  -9.219  1.00  0.00    -0.248 NA
ATOM     47  C   UNL     1       7.062  -4.389  -8.225  1.00  0.00     0.031 C 
ATOM     48  C   UNL     1       9.935  -5.480  -4.599  1.00  0.00     0.029 A 
ATOM     49  N   UNL     1      10.556  -4.192  -6.284  1.00  0.00    -0.354 N 
ATOM     50  C   UNL     1       8.327  -4.356 -10.123  1.00  0.00     0.074 A 
ATOM     51  C   UNL     1       7.054  -4.056  -9.518  1.00  0.00     0.031 C 
ATOM     52  C   UNL     1      10.725  -4.516  -4.078  1.00  0.00     0.029 A 
ATOM     53  C   UNL     1      11.174  -3.659  -5.157  1.00  0.00     0.049 A 
ATOM     54  H   UNL     1      10.742  -3.873  -7.196  1.00  0.00     0.167 HD
ATOM     55  C   UNL     1       8.971  -3.773 -11.173  1.00  0.00     0.031 A 
ATOM     56  C   UNL     1      11.996  -2.583  -5.104  1.00  0.00     0.031 A 
ATOM     57  C   UNL     1      10.258  -4.377 -11.406  1.00  0.00     0.049 A 
ATOM     58  C   UNL     1      12.507  -2.351  -6.470  1.00  0.00     0.074 A 
ATOM     59  C   UNL     1      10.708  -5.643 -11.720  1.00  0.00     0.029 A 
ATOM     60  N   UNL     1      11.347  -3.693 -10.922  1.00  0.00    -0.354 N 
ATOM     61  N   UNL     1      13.314  -3.167  -7.081  1.00  0.00    -0.248 NA
ATOM     62  C   UNL     1      11.796  -1.417  -7.325  1.00  0.00     0.031 C 
ATOM     63  C   UNL     1      11.923  -5.795 -10.986  1.00  0.00     0.029 A 
ATOM     64  C   UNL     1      12.187  -4.594 -10.324  1.00  0.00     0.049 A 
ATOM     65  H   UNL     1      11.498  -2.723 -10.994  1.00  0.00     0.167 HD
ATOM     66  C   UNL     1      12.877  -3.170  -8.396  1.00  0.00     0.074 A 
ATOM     67  C   UNL     1      12.037  -1.979  -8.513  1.00  0.00     0.031 C 
ATOM     68  C   UNL     1      13.007  -4.286  -9.172  1.00  0.00     0.031 A 
BRANCH  55  69
ATOM     69  C   UNL     1       8.655  -2.379 -11.668  1.00  0.00    -0.014 A 
ATOM     70  C   UNL     1       9.382  -1.871 -12.762  1.00  0.00     0.009 A 
ATOM     71  C   UNL     1       7.903  -1.448 -10.927  1.00  0.00     0.009 A 
ATOM     72  C   UNL     1       9.418  -0.499 -13.040  1.00  0.00     0.001 A 
ATOM     73  C   UNL     1       7.903  -0.083 -11.228  1.00  0.00     0.001 A 
ATOM     74  C   UNL     1       8.686   0.396 -12.267  1.00  0.00     0.000 A 
ENDBRANCH  55  69
BRANCH  56  75
ATOM     75  C   UNL     1      12.213  -1.613  -4.013  1.00  0.00    -0.014 A 
ATOM     76  C   UNL     1      13.378  -0.832  -3.964  1.00  0.00     0.009 A 
ATOM     77  C   UNL     1      11.142  -1.250  -3.176  1.00  0.00     0.009 A 
ATOM     78  C   UNL     1      13.452   0.299  -3.139  1.00  0.00     0.001 A 
ATOM     79  C   UNL     1      11.216  -0.121  -2.353  1.00  0.00     0.001 A 
ATOM     80  C   UNL     1      12.366   0.663  -2.346  1.00  0.00     0.000 A 
ENDBRANCH  56  75
BRANCH  68  81
ATOM     81  C   UNL     1      13.901  -5.393  -8.664  1.00  0.00    -0.014 A 
ATOM     82  C   UNL     1      13.672  -6.090  -7.464  1.00  0.00     0.009 A 
ATOM     83  C   UNL     1      14.941  -5.830  -9.497  1.00  0.00     0.009 A 
ATOM     84  C   UNL     1      14.484  -7.170  -7.096  1.00  0.00     0.001 A 
ATOM     85  C   UNL     1      15.737  -6.921  -9.141  1.00  0.00     0.001 A 
ATOM     86  C   UNL     1      15.513  -7.587  -7.938  1.00  0.00     0.000 A 
ENDBRANCH  68  81
ENDBRANCH  42  43
ENDBRANCH  34  37
ENDBRANCH  32  33
ENDBRANCH   1  32
TORSDOF 13
