REMARK SMILES CCCCc1[nH]ncc1C(=O)NCCCCNC(=O)c1ccc(-c2c3nc(c(-c4ccccc4)c4ccc([nH]4)c(-c4ccccc4)c4nc(c(-c5ccccc5)c5ccc2[nH]5)C=C4)C=C3)cc1
REMARK SMILES IDX 14 1 13 2 12 3 10 4 11 5 9 7 5 8 6 9 7 10 8 12 4 13 3 14
REMARK SMILES IDX 2 15 1 16 15 17 16 18 17 19 18 20 19 22 20 23 21 24 67 25
REMARK SMILES IDX 22 26 66 27 23 28 24 29 25 30 60 31 26 32 65 33 59 34 61 35
REMARK SMILES IDX 27 36 64 37 58 38 57 39 28 41 50 42 35 43 49 44 36 45 39 46
REMARK SMILES IDX 48 47 62 48 37 49 38 50 47 52 63 53 40 54 29 55 30 56 34 57
REMARK SMILES IDX 31 58 33 59 32 60 51 61 52 62 56 63 53 64 55 65 54 66 41 67
REMARK SMILES IDX 42 68 46 69 43 70 45 71 44 72
REMARK H PARENT 12 6 6 11 17 21 61 40 39 51
REMARK Flexibility Score: inf
ROOT
ATOM      1  C   UNL     1       1.645  -1.405  -5.008  1.00  0.00     0.023 C 
ENDROOT
BRANCH   1   2
ATOM      2  C   UNL     1       0.836  -0.141  -5.305  1.00  0.00     0.116 C 
BRANCH   2   3
ATOM      3  N   UNL     1      -0.460  -0.474  -5.833  1.00  0.00    -0.352 N 
ATOM      4  C   UNL     1      -1.707  -0.572  -5.283  1.00  0.00     0.254 C 
ATOM      5  O   UNL     1      -2.598  -0.831  -6.099  1.00  0.00    -0.269 OA
ATOM      6  H   UNL     1      -0.446  -0.676  -6.797  1.00  0.00     0.163 HD
BRANCH   4   7
ATOM      7  C   UNL     1      -2.056  -0.365  -3.876  1.00  0.00     0.080 A 
ATOM      8  C   UNL     1      -1.411  -0.342  -2.637  1.00  0.00     0.048 A 
ATOM      9  N   UNL     1      -2.403  -0.159  -1.701  1.00  0.00    -0.282 N 
ATOM     10  N   UNL     1      -3.629  -0.046  -2.205  1.00  0.00    -0.183 NA
ATOM     11  H   UNL     1      -2.220  -0.115  -0.735  1.00  0.00     0.190 HD
ATOM     12  C   UNL     1      -3.428  -0.184  -3.511  1.00  0.00     0.149 A 
BRANCH   8  13
ATOM     13  C   UNL     1      -0.027  -0.533  -2.116  1.00  0.00     0.056 C 
BRANCH  13  14
ATOM     14  C   UNL     1       0.681   0.787  -1.774  1.00  0.00     0.006 C 
BRANCH  14  15
ATOM     15  C   UNL     1       0.418   1.319  -0.361  1.00  0.00    -0.003 C 
ATOM     16  C   UNL     1       0.959   0.413   0.736  1.00  0.00     0.004 C 
ENDBRANCH  14  15
ENDBRANCH  13  14
ENDBRANCH   8  13
ENDBRANCH   4   7
ENDBRANCH   2   3
ENDBRANCH   1   2
BRANCH   1  17
ATOM     17  C   UNL     1       2.467  -1.935  -6.181  1.00  0.00     0.023 C 
BRANCH  17  18
ATOM     18  C   UNL     1       3.597  -1.016  -6.630  1.00  0.00     0.116 C 
BRANCH  18  19
ATOM     19  N   UNL     1       4.545  -0.683  -5.574  1.00  0.00    -0.352 N 
ATOM     20  C   UNL     1       5.875  -0.358  -5.704  1.00  0.00     0.251 C 
ATOM     21  H   UNL     1       4.190  -0.691  -4.656  1.00  0.00     0.163 HD
ATOM     22  O   UNL     1       6.576  -0.165  -4.716  1.00  0.00    -0.269 OA
BRANCH  20  23
ATOM     23  C   UNL     1       6.458  -0.305  -7.057  1.00  0.00     0.039 A 
ATOM     24  C   UNL     1       7.581  -1.086  -7.337  1.00  0.00     0.014 A 
ATOM     25  C   UNL     1       5.836   0.438  -8.063  1.00  0.00     0.014 A 
ATOM     26  C   UNL     1       8.030  -1.191  -8.653  1.00  0.00     0.010 A 
ATOM     27  C   UNL     1       6.238   0.273  -9.382  1.00  0.00     0.010 A 
ATOM     28  C   UNL     1       7.332  -0.551  -9.690  1.00  0.00    -0.014 A 
BRANCH  28  29
ATOM     29  C   UNL     1       7.717  -0.738 -11.109  1.00  0.00     0.031 A 
ATOM     30  C   UNL     1       8.198   0.433 -11.917  1.00  0.00     0.074 A 
ATOM     31  C   UNL     1       7.557  -1.943 -11.691  1.00  0.00     0.049 A 
ATOM     32  N   UNL     1       8.504   0.488 -13.188  1.00  0.00    -0.248 NA
ATOM     33  C   UNL     1       8.325   1.718 -11.210  1.00  0.00     0.031 C 
ATOM     34  C   UNL     1       7.054  -3.149 -11.027  1.00  0.00     0.029 A 
ATOM     35  N   UNL     1       7.795  -2.349 -12.979  1.00  0.00    -0.354 N 
ATOM     36  C   UNL     1       8.836   1.812 -13.437  1.00  0.00     0.074 A 
ATOM     37  C   UNL     1       8.649   2.537 -12.199  1.00  0.00     0.031 C 
ATOM     38  C   UNL     1       7.051  -4.165 -11.905  1.00  0.00     0.029 A 
ATOM     39  C   UNL     1       7.514  -3.676 -13.199  1.00  0.00     0.049 A 
ATOM     40  H   UNL     1       8.136  -1.747 -13.680  1.00  0.00     0.167 HD
ATOM     41  C   UNL     1       9.279   2.374 -14.586  1.00  0.00     0.031 A 
ATOM     42  C   UNL     1       7.617  -4.415 -14.320  1.00  0.00     0.031 A 
ATOM     43  C   UNL     1       9.485   1.651 -15.812  1.00  0.00     0.049 A 
ATOM     44  C   UNL     1       8.113  -3.769 -15.583  1.00  0.00     0.074 A 
ATOM     45  C   UNL     1       9.985   2.119 -17.014  1.00  0.00     0.029 A 
ATOM     46  N   UNL     1       9.204   0.306 -15.988  1.00  0.00    -0.354 N 
ATOM     47  N   UNL     1       8.481  -2.528 -15.786  1.00  0.00    -0.248 NA
ATOM     48  C   UNL     1       8.216  -4.631 -16.769  1.00  0.00     0.031 C 
ATOM     49  C   UNL     1       9.971   1.062 -17.931  1.00  0.00     0.029 A 
ATOM     50  C   UNL     1       9.505  -0.071 -17.285  1.00  0.00     0.049 A 
ATOM     51  H   UNL     1       8.843  -0.292 -15.294  1.00  0.00     0.167 HD
ATOM     52  C   UNL     1       8.884  -2.465 -17.113  1.00  0.00     0.074 A 
ATOM     53  C   UNL     1       8.726  -3.796 -17.663  1.00  0.00     0.031 C 
ATOM     54  C   UNL     1       9.344  -1.401 -17.813  1.00  0.00     0.031 A 
BRANCH  41  55
ATOM     55  C   UNL     1       9.570   3.847 -14.562  1.00  0.00    -0.014 A 
ATOM     56  C   UNL     1      10.680   4.354 -13.867  1.00  0.00     0.009 A 
ATOM     57  C   UNL     1       8.737   4.737 -15.257  1.00  0.00     0.009 A 
ATOM     58  C   UNL     1      10.927   5.728 -13.836  1.00  0.00     0.001 A 
ATOM     59  C   UNL     1       9.003   6.107 -15.247  1.00  0.00     0.001 A 
ATOM     60  C   UNL     1      10.091   6.602 -14.529  1.00  0.00     0.000 A 
ENDBRANCH  41  55
BRANCH  42  61
ATOM     61  C   UNL     1       7.269  -5.858 -14.295  1.00  0.00    -0.014 A 
ATOM     62  C   UNL     1       8.280  -6.830 -14.358  1.00  0.00     0.009 A 
ATOM     63  C   UNL     1       5.931  -6.273 -14.212  1.00  0.00     0.009 A 
ATOM     64  C   UNL     1       7.956  -8.188 -14.364  1.00  0.00     0.001 A 
ATOM     65  C   UNL     1       5.612  -7.633 -14.193  1.00  0.00     0.001 A 
ATOM     66  C   UNL     1       6.623  -8.588 -14.278  1.00  0.00     0.000 A 
ENDBRANCH  42  61
BRANCH  54  67
ATOM     67  C   UNL     1       9.742  -1.640 -19.241  1.00  0.00    -0.014 A 
ATOM     68  C   UNL     1       8.777  -1.818 -20.244  1.00  0.00     0.009 A 
ATOM     69  C   UNL     1      11.101  -1.642 -19.591  1.00  0.00     0.009 A 
ATOM     70  C   UNL     1       9.168  -2.022 -21.568  1.00  0.00     0.001 A 
ATOM     71  C   UNL     1      11.488  -1.821 -20.919  1.00  0.00     0.001 A 
ATOM     72  C   UNL     1      10.522  -2.018 -21.905  1.00  0.00     0.000 A 
ENDBRANCH  54  67
ENDBRANCH  28  29
ENDBRANCH  20  23
ENDBRANCH  18  19
ENDBRANCH  17  18
ENDBRANCH   1  17
TORSDOF 14
