REMARK SMILES Cc1ccc(S(=O)(=O)N2CCN(C(=O)[C@H]3CCCC[C@H]3C(=O)NCCCCNC(=O)c3ccc(-c4c5nc(c(-c6ccccc6)c6ccc([nH]6)c(-c6ccccc6)c6nc(c(-c7ccccc7)c7ccc4[nH]7)C=C6)C=C5)cc3)CC2)cc1C
REMARK SMILES IDX 25 1 24 2 23 3 21 4 22 5 20 7 15 8 16 9 17 10 19 11 18 12
REMARK SMILES IDX 13 13 9 14 10 15 80 16 11 17 79 18 12 19 14 20 6 21 7 22
REMARK SMILES IDX 8 23 5 24 1 25 2 26 3 27 82 28 4 29 81 30 83 31 26 32 27 33
REMARK SMILES IDX 28 34 29 35 30 37 31 38 32 39 78 40 33 41 77 42 34 43 35 44
REMARK SMILES IDX 36 45 71 46 37 47 76 48 70 49 72 50 38 51 75 52 69 53 68 54
REMARK SMILES IDX 39 56 61 57 46 58 60 59 47 60 50 61 59 62 73 63 48 64 49 65
REMARK SMILES IDX 58 67 74 68 51 69 40 70 41 71 45 72 42 73 44 74 43 75 62 76
REMARK SMILES IDX 63 77 67 78 64 79 66 80 65 81 52 82 53 83 57 84 54 85 56 86
REMARK SMILES IDX 55 87
REMARK H PARENT 23 6 28 36 72 55 50 66
REMARK Flexibility Score: inf
ROOT
ATOM      1  C   UNL     1      -5.201   7.597   2.991  1.00  0.00     0.023 C 
ENDROOT
BRANCH   1   2
ATOM      2  C   UNL     1      -5.026   7.497   1.479  1.00  0.00     0.116 C 
BRANCH   2   3
ATOM      3  N   UNL     1      -3.919   6.642   1.114  1.00  0.00    -0.356 N 
ATOM      4  C   UNL     1      -3.873   5.486   0.398  1.00  0.00     0.223 C 
ATOM      5  O   UNL     1      -2.788   4.896   0.363  1.00  0.00    -0.275 OA
ATOM      6  H   UNL     1      -3.043   6.950   1.442  1.00  0.00     0.163 HD
BRANCH   4   7
ATOM      7  C   UNL     1      -5.064   4.926  -0.395  1.00  0.00     0.091 C 
ATOM      8  C   UNL     1      -6.072   4.024   0.377  1.00  0.00     0.091 C 
ATOM      9  C   UNL     1      -7.285   3.638  -0.481  1.00  0.00     0.014 C 
ATOM     10  C   UNL     1      -7.880   4.814  -1.241  1.00  0.00     0.001 C 
ATOM     11  C   UNL     1      -5.659   5.958  -1.371  1.00  0.00     0.014 C 
ATOM     12  C   UNL     1      -6.838   5.418  -2.167  1.00  0.00     0.001 C 
BRANCH   8  13
ATOM     13  C   UNL     1      -6.377   4.429   1.819  1.00  0.00     0.226 C 
ATOM     14  N   UNL     1      -9.676   4.875   4.317  1.00  0.00    -0.194 NA
ATOM     15  C   UNL     1      -9.389   6.031   3.464  1.00  0.00     0.124 C 
ATOM     16  C   UNL     1      -9.594   3.581   3.620  1.00  0.00     0.124 C 
ATOM     17  C   UNL     1      -8.006   5.867   2.841  1.00  0.00     0.136 C 
ATOM     18  C   UNL     1      -8.234   3.397   2.931  1.00  0.00     0.136 C 
ATOM     19  N   UNL     1      -7.714   4.574   2.211  1.00  0.00    -0.340 N 
ATOM     20  O   UNL     1      -5.479   4.512   2.657  1.00  0.00    -0.275 OA
BRANCH  14  21
ATOM     21  S   UNL     1      -9.984   5.027   5.955  1.00  0.00     0.243 S 
ATOM     22  O   UNL     1     -10.573   3.783   6.413  1.00  0.00    -0.207 OA
ATOM     23  O   UNL     1     -10.659   6.291   6.142  1.00  0.00    -0.207 OA
BRANCH  21  24
ATOM     24  C   UNL     1      -8.419   5.170   6.797  1.00  0.00     0.082 A 
ATOM     25  C   UNL     1      -4.712   5.432   9.006  1.00  0.00     0.044 C 
ATOM     26  C   UNL     1      -6.020   5.378   8.264  1.00  0.00    -0.048 A 
ATOM     27  C   UNL     1      -6.022   4.925   6.936  1.00  0.00     0.005 A 
ATOM     28  C   UNL     1      -7.241   5.739   8.865  1.00  0.00    -0.047 A 
ATOM     29  C   UNL     1      -7.212   4.816   6.212  1.00  0.00     0.022 A 
ATOM     30  C   UNL     1      -8.431   5.644   8.116  1.00  0.00     0.025 A 
ATOM     31  C   UNL     1      -7.341   6.227  10.286  1.00  0.00     0.044 C 
ENDBRANCH  21  24
ENDBRANCH  14  21
ENDBRANCH   8  13
ENDBRANCH   4   7
ENDBRANCH   2   3
ENDBRANCH   1   2
BRANCH   1  32
ATOM     32  C   UNL     1      -4.322   8.605   3.702  1.00  0.00     0.023 C 
BRANCH  32  33
ATOM     33  C   UNL     1      -4.614  10.047   3.328  1.00  0.00     0.116 C 
BRANCH  33  34
ATOM     34  N   UNL     1      -6.019  10.429   3.472  1.00  0.00    -0.352 N 
ATOM     35  C   UNL     1      -6.586  11.446   4.204  1.00  0.00     0.251 C 
ATOM     36  H   UNL     1      -6.656   9.872   2.968  1.00  0.00     0.163 HD
ATOM     37  O   UNL     1      -7.804  11.549   4.290  1.00  0.00    -0.269 OA
BRANCH  35  38
ATOM     38  C   UNL     1      -5.703  12.397   4.903  1.00  0.00     0.039 A 
ATOM     39  C   UNL     1      -5.952  12.721   6.238  1.00  0.00     0.014 A 
ATOM     40  C   UNL     1      -4.580  12.899   4.247  1.00  0.00     0.014 A 
ATOM     41  C   UNL     1      -5.011  13.473   6.944  1.00  0.00     0.010 A 
ATOM     42  C   UNL     1      -3.589  13.526   4.982  1.00  0.00     0.010 A 
ATOM     43  C   UNL     1      -3.799  13.836   6.334  1.00  0.00    -0.014 A 
BRANCH  43  44
ATOM     44  C   UNL     1      -2.739  14.581   7.053  1.00  0.00     0.031 A 
ATOM     45  C   UNL     1      -2.281  15.907   6.507  1.00  0.00     0.074 A 
ATOM     46  C   UNL     1      -2.118  14.028   8.112  1.00  0.00     0.049 A 
ATOM     47  N   UNL     1      -1.257  16.640   6.861  1.00  0.00    -0.248 NA
ATOM     48  C   UNL     1      -3.043  16.453   5.369  1.00  0.00     0.031 C 
ATOM     49  C   UNL     1      -2.421  12.719   8.696  1.00  0.00     0.029 A 
ATOM     50  N   UNL     1      -1.084  14.501   8.879  1.00  0.00    -0.354 N 
ATOM     51  C   UNL     1      -1.226  17.696   5.959  1.00  0.00     0.074 A 
ATOM     52  C   UNL     1      -2.290  17.479   5.007  1.00  0.00     0.031 C 
ATOM     53  C   UNL     1      -1.613  12.509   9.749  1.00  0.00     0.029 A 
ATOM     54  C   UNL     1      -0.713  13.648   9.890  1.00  0.00     0.049 A 
ATOM     55  H   UNL     1      -0.648  15.369   8.720  1.00  0.00     0.167 HD
ATOM     56  C   UNL     1      -0.406  18.773   5.942  1.00  0.00     0.031 A 
ATOM     57  C   UNL     1       0.245  13.776  10.826  1.00  0.00     0.031 A 
ATOM     58  C   UNL     1       0.608  19.019   6.927  1.00  0.00     0.049 A 
ATOM     59  C   UNL     1       1.087  15.021  10.841  1.00  0.00     0.074 A 
ATOM     60  C   UNL     1       1.456  20.105   7.043  1.00  0.00     0.029 A 
ATOM     61  N   UNL     1       0.888  18.173   7.989  1.00  0.00    -0.354 N 
ATOM     62  N   UNL     1       1.079  16.032  10.005  1.00  0.00    -0.248 NA
ATOM     63  C   UNL     1       2.054  15.153  11.939  1.00  0.00     0.031 C 
ATOM     64  C   UNL     1       2.260  19.910   8.171  1.00  0.00     0.029 A 
ATOM     65  C   UNL     1       1.885  18.719   8.774  1.00  0.00     0.049 A 
ATOM     66  H   UNL     1       0.442  17.311   8.158  1.00  0.00     0.167 HD
ATOM     67  C   UNL     1       2.017  16.932  10.492  1.00  0.00     0.074 A 
ATOM     68  C   UNL     1       2.564  16.354  11.703  1.00  0.00     0.031 C 
ATOM     69  C   UNL     1       2.396  18.129   9.983  1.00  0.00     0.031 A 
BRANCH  56  70
ATOM     70  C   UNL     1      -0.602  19.766   4.832  1.00  0.00    -0.014 A 
ATOM     71  C   UNL     1      -1.747  20.579   4.784  1.00  0.00     0.009 A 
ATOM     72  C   UNL     1       0.362  19.889   3.821  1.00  0.00     0.009 A 
ATOM     73  C   UNL     1      -1.943  21.462   3.721  1.00  0.00     0.001 A 
ATOM     74  C   UNL     1       0.178  20.796   2.776  1.00  0.00     0.001 A 
ATOM     75  C   UNL     1      -0.980  21.572   2.720  1.00  0.00     0.000 A 
ENDBRANCH  56  70
BRANCH  57  76
ATOM     76  C   UNL     1       0.433  12.719  11.853  1.00  0.00    -0.014 A 
ATOM     77  C   UNL     1       0.019  12.937  13.176  1.00  0.00     0.009 A 
ATOM     78  C   UNL     1       1.029  11.493  11.521  1.00  0.00     0.009 A 
ATOM     79  C   UNL     1       0.225  11.961  14.154  1.00  0.00     0.001 A 
ATOM     80  C   UNL     1       1.210  10.508  12.496  1.00  0.00     0.001 A 
ATOM     81  C   UNL     1       0.818  10.746  13.812  1.00  0.00     0.000 A 
ENDBRANCH  57  76
BRANCH  69  82
ATOM     82  C   UNL     1       3.413  18.911  10.760  1.00  0.00    -0.014 A 
ATOM     83  C   UNL     1       4.768  18.551  10.751  1.00  0.00     0.009 A 
ATOM     84  C   UNL     1       3.009  20.051  11.472  1.00  0.00     0.009 A 
ATOM     85  C   UNL     1       5.699  19.305  11.467  1.00  0.00     0.001 A 
ATOM     86  C   UNL     1       3.946  20.816  12.167  1.00  0.00     0.001 A 
ATOM     87  C   UNL     1       5.288  20.438  12.170  1.00  0.00     0.000 A 
ENDBRANCH  69  82
ENDBRANCH  43  44
ENDBRANCH  35  38
ENDBRANCH  33  34
ENDBRANCH  32  33
ENDBRANCH   1  32
TORSDOF 14
