REMARK SMILES C[C@H](NS(=O)(=O)c1ccc(-c2cc(-c3ccccc3)c3cc([N+](=O)[O-])ccc3n2)cc1)C(=O)NCCCCNC(=O)c1ccc(-c2c3nc(c(-c4ccccc4)c4ccc([nH]4)c(-c4ccccc4)c4nc(c(-c5ccccc5)c5ccc2[nH]5)C=C4)C=C3)cc1
REMARK SMILES IDX 35 1 34 2 32 3 33 4 2 6 1 7 3 8 4 10 5 11 6 12 7 13 8 14
REMARK SMILES IDX 31 15 9 16 30 17 10 18 11 19 12 20 29 21 13 22 28 23 20 24
REMARK SMILES IDX 27 25 21 26 26 27 22 28 14 29 15 30 19 31 16 32 18 33 17 34
REMARK SMILES IDX 23 35 24 36 25 37 36 38 37 39 38 40 39 41 40 42 41 44 42 45
REMARK SMILES IDX 43 46 89 47 44 48 88 49 45 50 46 51 47 52 82 53 48 54 87 55
REMARK SMILES IDX 81 56 83 57 49 58 86 59 80 60 79 61 50 63 72 64 57 65 71 66
REMARK SMILES IDX 58 67 61 68 70 69 84 70 59 71 60 72 69 74 85 75 62 76 51 77
REMARK SMILES IDX 52 78 56 79 53 80 55 81 54 82 73 83 74 84 78 85 75 86 77 87
REMARK SMILES IDX 76 88 63 89 64 90 68 91 65 92 67 93 66 94
REMARK H PARENT 34 5 3 9 39 43 83 62 61 73
REMARK Flexibility Score: inf
ROOT
ATOM      1  C   UNL     1      -0.697  -1.934  -1.353  1.00  0.00     0.116 C 
ENDROOT
BRANCH   1   2
ATOM      2  N   UNL     1      -1.095  -0.584  -1.010  1.00  0.00    -0.355 N 
ATOM      3  C   UNL     1      -0.313   0.480  -0.673  1.00  0.00     0.237 C 
ATOM      4  O   UNL     1      -0.878   1.479  -0.219  1.00  0.00    -0.273 OA
ATOM      5  H   UNL     1      -2.064  -0.411  -1.021  1.00  0.00     0.163 HD
BRANCH   3   6
ATOM      6  C   UNL     1       1.212   0.458  -0.885  1.00  0.00     0.155 C 
ATOM      7  C   UNL     1       1.513   0.314  -2.370  1.00  0.00     0.036 C 
BRANCH   6   8
ATOM      8  N   UNL     1       1.851  -0.536  -0.007  1.00  0.00    -0.199 NA
ATOM      9  H   UNL     1       1.364  -1.415  -0.182  1.00  0.00     0.142 HD
BRANCH   8  10
ATOM     10  S   UNL     1       3.489  -0.908  -0.050  1.00  0.00     0.241 S 
ATOM     11  O   UNL     1       3.719  -1.766   1.082  1.00  0.00    -0.207 OA
ATOM     12  O   UNL     1       3.813  -1.332  -1.400  1.00  0.00    -0.207 OA
BRANCH  10  13
ATOM     13  C   UNL     1       4.325   0.634   0.258  1.00  0.00     0.082 A 
ATOM     14  C   UNL     1       4.508   1.076   1.572  1.00  0.00     0.022 A 
ATOM     15  C   UNL     1       4.786   1.408  -0.807  1.00  0.00     0.022 A 
ATOM     16  C   UNL     1       4.938   2.390   1.807  1.00  0.00     0.012 A 
ATOM     17  C   UNL     1       5.232   2.713  -0.567  1.00  0.00     0.012 A 
ATOM     18  C   UNL     1       5.159   3.273   0.732  1.00  0.00     0.000 A 
BRANCH  18  19
ATOM     19  C   UNL     1       4.646   4.688   0.855  1.00  0.00     0.072 A 
ATOM     20  C   UNL     1       5.131   5.732   0.069  1.00  0.00     0.038 A 
ATOM     21  N   UNL     1       3.301   4.578   1.019  1.00  0.00    -0.248 NA
ATOM     22  C   UNL     1       4.261   6.236  -0.899  1.00  0.00    -0.007 A 
ATOM     23  C   UNL     1       2.585   4.744  -0.091  1.00  0.00     0.072 A 
ATOM     24  C   UNL     1       3.127   5.444  -1.165  1.00  0.00     0.015 A 
ATOM     25  C   UNL     1       1.367   4.105  -0.258  1.00  0.00     0.036 A 
ATOM     26  C   UNL     1       2.588   5.281  -2.459  1.00  0.00     0.096 A 
ATOM     27  C   UNL     1       0.808   3.952  -1.533  1.00  0.00     0.088 A 
ATOM     28  C   UNL     1       1.480   4.464  -2.641  1.00  0.00     0.270 A 
BRANCH  22  29
ATOM     29  C   UNL     1       4.370   7.524  -1.616  1.00  0.00    -0.018 A 
ATOM     30  C   UNL     1       3.180   8.290  -1.744  1.00  0.00     0.009 A 
ATOM     31  C   UNL     1       5.514   8.003  -2.252  1.00  0.00     0.009 A 
ATOM     32  C   UNL     1       3.093   9.402  -2.573  1.00  0.00     0.001 A 
ATOM     33  C   UNL     1       5.436   9.146  -3.066  1.00  0.00     0.001 A 
ATOM     34  C   UNL     1       4.225   9.822  -3.249  1.00  0.00     0.000 A 
ENDBRANCH  22  29
BRANCH  28  35
ATOM     35  N   UNL     1       1.101   4.050  -3.994  1.00  0.00     0.062 N 
ATOM     36  O   UNL     1       1.890   4.309  -4.915  1.00  0.00    -0.258 OA
ATOM     37  O   UNL     1       0.047   3.414  -4.127  1.00  0.00    -0.258 OA
ENDBRANCH  28  35
ENDBRANCH  18  19
ENDBRANCH  10  13
ENDBRANCH   8  10
ENDBRANCH   6   8
ENDBRANCH   3   6
ENDBRANCH   1   2
BRANCH   1  38
ATOM     38  C   UNL     1      -1.204  -2.925  -0.310  1.00  0.00     0.023 C 
BRANCH  38  39
ATOM     39  C   UNL     1      -2.720  -3.132  -0.313  1.00  0.00     0.023 C 
BRANCH  39  40
ATOM     40  C   UNL     1      -3.316  -3.546  -1.655  1.00  0.00     0.116 C 
BRANCH  40  41
ATOM     41  N   UNL     1      -2.674  -4.723  -2.221  1.00  0.00    -0.352 N 
ATOM     42  C   UNL     1      -3.241  -5.874  -2.708  1.00  0.00     0.251 C 
ATOM     43  H   UNL     1      -1.690  -4.689  -2.260  1.00  0.00     0.163 HD
ATOM     44  O   UNL     1      -2.541  -6.830  -3.022  1.00  0.00    -0.269 OA
BRANCH  42  45
ATOM     45  C   UNL     1      -4.709  -5.965  -2.822  1.00  0.00     0.039 A 
ATOM     46  C   UNL     1      -5.358  -7.087  -2.302  1.00  0.00     0.014 A 
ATOM     47  C   UNL     1      -5.440  -4.933  -3.416  1.00  0.00     0.014 A 
ATOM     48  C   UNL     1      -6.752  -7.140  -2.313  1.00  0.00     0.010 A 
ATOM     49  C   UNL     1      -6.829  -4.954  -3.359  1.00  0.00     0.010 A 
ATOM     50  C   UNL     1      -7.498  -6.058  -2.807  1.00  0.00    -0.014 A 
BRANCH  50  51
ATOM     51  C   UNL     1      -8.980  -6.057  -2.751  1.00  0.00     0.031 A 
ATOM     52  C   UNL     1      -9.782  -6.042  -4.022  1.00  0.00     0.074 A 
ATOM     53  C   UNL     1      -9.602  -6.003  -1.558  1.00  0.00     0.049 A 
ATOM     54  N   UNL     1     -11.080  -5.979  -4.178  1.00  0.00    -0.248 NA
ATOM     55  C   UNL     1      -9.025  -6.074  -5.285  1.00  0.00     0.031 C 
ATOM     56  C   UNL     1      -8.936  -5.970  -0.253  1.00  0.00     0.029 A 
ATOM     57  N   UNL     1     -10.938  -5.959  -1.249  1.00  0.00    -0.354 N 
ATOM     58  C   UNL     1     -11.293  -5.946  -5.550  1.00  0.00     0.074 A 
ATOM     59  C   UNL     1      -9.991  -5.943  -6.181  1.00  0.00     0.031 C 
ATOM     60  C   UNL     1      -9.867  -5.940   0.714  1.00  0.00     0.029 A 
ATOM     61  C   UNL     1     -11.190  -5.912   0.101  1.00  0.00     0.049 A 
ATOM     62  H   UNL     1     -11.649  -5.962  -1.930  1.00  0.00     0.167 HD
ATOM     63  C   UNL     1     -12.466  -5.938  -6.226  1.00  0.00     0.031 A 
ATOM     64  C   UNL     1     -12.357  -5.848   0.769  1.00  0.00     0.031 A 
ATOM     65  C   UNL     1     -13.760  -5.954  -5.598  1.00  0.00     0.049 A 
ATOM     66  C   UNL     1     -13.646  -5.832  -0.004  1.00  0.00     0.074 A 
ATOM     67  C   UNL     1     -15.007  -6.006  -6.196  1.00  0.00     0.029 A 
ATOM     68  N   UNL     1     -13.972  -5.915  -4.229  1.00  0.00    -0.354 N 
ATOM     69  N   UNL     1     -13.831  -5.871  -1.302  1.00  0.00    -0.248 NA
ATOM     70  C   UNL     1     -14.887  -5.776   0.781  1.00  0.00     0.031 C 
ATOM     71  C   UNL     1     -15.975  -5.951  -5.188  1.00  0.00     0.029 A 
ATOM     72  C   UNL     1     -15.330  -5.920  -3.962  1.00  0.00     0.049 A 
ATOM     73  H   UNL     1     -13.262  -5.889  -3.548  1.00  0.00     0.167 HD
ATOM     74  C   UNL     1     -15.207  -5.872  -1.487  1.00  0.00     0.074 A 
ATOM     75  C   UNL     1     -15.808  -5.846  -0.169  1.00  0.00     0.031 C 
ATOM     76  C   UNL     1     -15.911  -5.894  -2.645  1.00  0.00     0.031 A 
BRANCH  63  77
ATOM     77  C   UNL     1     -12.398  -5.906  -7.728  1.00  0.00    -0.014 A 
ATOM     78  C   UNL     1     -11.948  -7.017  -8.459  1.00  0.00     0.009 A 
ATOM     79  C   UNL     1     -12.815  -4.760  -8.422  1.00  0.00     0.009 A 
ATOM     80  C   UNL     1     -11.881  -6.967  -9.853  1.00  0.00     0.001 A 
ATOM     81  C   UNL     1     -12.775  -4.724  -9.817  1.00  0.00     0.001 A 
ATOM     82  C   UNL     1     -12.299  -5.823 -10.530  1.00  0.00     0.000 A 
ENDBRANCH  63  77
BRANCH  64  83
ATOM     83  C   UNL     1     -12.364  -5.813   2.255  1.00  0.00    -0.014 A 
ATOM     84  C   UNL     1     -12.812  -6.922   2.990  1.00  0.00     0.009 A 
ATOM     85  C   UNL     1     -11.930  -4.672   2.947  1.00  0.00     0.009 A 
ATOM     86  C   UNL     1     -12.852  -6.878   4.385  1.00  0.00     0.001 A 
ATOM     87  C   UNL     1     -11.944  -4.641   4.343  1.00  0.00     0.001 A 
ATOM     88  C   UNL     1     -12.414  -5.740   5.060  1.00  0.00     0.000 A 
ENDBRANCH  64  83
BRANCH  76  89
ATOM     89  C   UNL     1     -17.409  -5.927  -2.538  1.00  0.00    -0.014 A 
ATOM     90  C   UNL     1     -18.137  -4.795  -2.139  1.00  0.00     0.009 A 
ATOM     91  C   UNL     1     -18.103  -7.098  -2.881  1.00  0.00     0.009 A 
ATOM     92  C   UNL     1     -19.529  -4.846  -2.057  1.00  0.00     0.001 A 
ATOM     93  C   UNL     1     -19.496  -7.137  -2.826  1.00  0.00     0.001 A 
ATOM     94  C   UNL     1     -20.208  -6.014  -2.405  1.00  0.00     0.000 A 
ENDBRANCH  76  89
ENDBRANCH  50  51
ENDBRANCH  42  45
ENDBRANCH  40  41
ENDBRANCH  39  40
ENDBRANCH  38  39
ENDBRANCH   1  38
TORSDOF 17
