REMARK SMILES CN(c1ccc(C(=O)NCCCCNC(=O)c2ccc(-c3c4nc(c(-c5ccccc5)c5ccc([nH]5)c(-c5ccccc5)c5nc(c(-c6ccccc6)c6ccc3[nH]6)C=C5)C=C4)cc2)cc1[N+](=O)[O-])C1CC1
REMARK SMILES IDX 11 1 10 2 9 3 7 4 8 5 6 7 3 8 4 9 66 10 5 11 65 12 2 13 1 14
REMARK SMILES IDX 70 15 71 16 72 17 67 18 68 19 69 20 12 21 13 22 14 23 15 24
REMARK SMILES IDX 16 26 17 27 18 28 64 29 19 30 63 31 20 32 21 33 22 34 57 35
REMARK SMILES IDX 23 36 62 37 56 38 58 39 24 40 61 41 55 42 54 43 25 45 47 46
REMARK SMILES IDX 32 47 46 48 33 49 36 50 45 51 59 52 34 53 35 54 44 56 60 57
REMARK SMILES IDX 37 58 26 59 27 60 31 61 28 62 30 63 29 64 48 65 49 66 53 67
REMARK SMILES IDX 50 68 52 69 51 70 38 71 39 72 43 73 40 74 42 75 41 76
REMARK H PARENT 9 6 14 25 58 44 36 55
REMARK Flexibility Score: inf
ROOT
ATOM      1  C   UNL     1      -5.288   1.618  -3.666  1.00  0.00     0.023 C 
ENDROOT
BRANCH   1   2
ATOM      2  C   UNL     1      -3.978   1.949  -4.383  1.00  0.00     0.116 C 
BRANCH   2   3
ATOM      3  N   UNL     1      -3.656   3.355  -4.228  1.00  0.00    -0.352 N 
ATOM      4  C   UNL     1      -2.780   4.003  -3.397  1.00  0.00     0.251 C 
ATOM      5  O   UNL     1      -2.672   5.223  -3.504  1.00  0.00    -0.269 OA
ATOM      6  H   UNL     1      -4.157   3.952  -4.829  1.00  0.00     0.163 HD
BRANCH   4   7
ATOM      7  C   UNL     1      -1.919   3.287  -2.418  1.00  0.00     0.046 A 
ATOM      8  C   UNL     1      -0.117   2.032  -0.593  1.00  0.00     0.116 A 
ATOM      9  C   UNL     1       0.228   3.208  -1.279  1.00  0.00     0.034 A 
ATOM     10  C   UNL     1      -1.399   1.523  -0.837  1.00  0.00     0.293 A 
ATOM     11  C   UNL     1      -0.651   3.827  -2.174  1.00  0.00     0.016 A 
ATOM     12  C   UNL     1      -2.306   2.151  -1.712  1.00  0.00     0.101 A 
BRANCH   8  13
ATOM     13  N   UNL     1       0.847   1.474   0.252  1.00  0.00    -0.366 N 
ATOM     14  C   UNL     1       1.319   0.120  -0.012  1.00  0.00     0.144 C 
BRANCH  13  15
ATOM     15  C   UNL     1       1.048   2.001   1.611  1.00  0.00     0.082 C 
ATOM     16  C   UNL     1       2.260   2.846   1.900  1.00  0.00     0.027 C 
ATOM     17  C   UNL     1       0.890   3.443   2.011  1.00  0.00     0.027 C 
ENDBRANCH  13  15
ENDBRANCH   8  13
BRANCH  10  18
ATOM     18  N   UNL     1      -1.852   0.294  -0.215  1.00  0.00     0.065 N 
ATOM     19  O   UNL     1      -2.237  -0.602  -0.982  1.00  0.00    -0.258 OA
ATOM     20  O   UNL     1      -1.868   0.232   1.021  1.00  0.00    -0.258 OA
ENDBRANCH  10  18
ENDBRANCH   4   7
ENDBRANCH   2   3
ENDBRANCH   1   2
BRANCH   1  21
ATOM     21  C   UNL     1      -6.543   2.082  -4.410  1.00  0.00     0.023 C 
BRANCH  21  22
ATOM     22  C   UNL     1      -6.774   1.411  -5.760  1.00  0.00     0.116 C 
BRANCH  22  23
ATOM     23  N   UNL     1      -6.888  -0.036  -5.671  1.00  0.00    -0.352 N 
ATOM     24  C   UNL     1      -7.661  -0.878  -6.436  1.00  0.00     0.251 C 
ATOM     25  H   UNL     1      -6.343  -0.468  -4.974  1.00  0.00     0.163 HD
ATOM     26  O   UNL     1      -7.729  -2.073  -6.184  1.00  0.00    -0.269 OA
BRANCH  24  27
ATOM     27  C   UNL     1      -8.451  -0.304  -7.543  1.00  0.00     0.039 A 
ATOM     28  C   UNL     1      -9.828  -0.533  -7.573  1.00  0.00     0.014 A 
ATOM     29  C   UNL     1      -7.841   0.510  -8.501  1.00  0.00     0.014 A 
ATOM     30  C   UNL     1     -10.612   0.129  -8.518  1.00  0.00     0.010 A 
ATOM     31  C   UNL     1      -8.630   1.211  -9.406  1.00  0.00     0.010 A 
ATOM     32  C   UNL     1     -10.024   1.042  -9.408  1.00  0.00    -0.014 A 
BRANCH  32  33
ATOM     33  C   UNL     1     -10.851   1.866 -10.321  1.00  0.00     0.031 A 
ATOM     34  C   UNL     1     -10.753   1.679 -11.807  1.00  0.00     0.074 A 
ATOM     35  C   UNL     1     -11.631   2.838  -9.809  1.00  0.00     0.049 A 
ATOM     36  N   UNL     1     -11.318   2.371 -12.763  1.00  0.00    -0.248 NA
ATOM     37  C   UNL     1      -9.894   0.582 -12.282  1.00  0.00     0.031 C 
ATOM     38  C   UNL     1     -11.790   3.139  -8.383  1.00  0.00     0.029 A 
ATOM     39  N   UNL     1     -12.429   3.764 -10.433  1.00  0.00    -0.354 N 
ATOM     40  C   UNL     1     -10.879   1.801 -13.950  1.00  0.00     0.074 A 
ATOM     41  C   UNL     1      -9.968   0.733 -13.597  1.00  0.00     0.031 C 
ATOM     42  C   UNL     1     -12.644   4.165  -8.243  1.00  0.00     0.029 A 
ATOM     43  C   UNL     1     -13.060   4.622  -9.565  1.00  0.00     0.049 A 
ATOM     44  H   UNL     1     -12.539   3.809 -11.410  1.00  0.00     0.167 HD
ATOM     45  C   UNL     1     -11.219   2.126 -15.219  1.00  0.00     0.031 A 
ATOM     46  C   UNL     1     -13.868   5.670  -9.807  1.00  0.00     0.031 A 
ATOM     47  C   UNL     1     -12.128   3.182 -15.572  1.00  0.00     0.049 A 
ATOM     48  C   UNL     1     -14.190   6.037 -11.229  1.00  0.00     0.074 A 
ATOM     49  C   UNL     1     -12.565   3.559 -16.830  1.00  0.00     0.029 A 
ATOM     50  N   UNL     1     -12.738   4.032 -14.664  1.00  0.00    -0.354 N 
ATOM     51  N   UNL     1     -13.806   5.454 -12.338  1.00  0.00    -0.248 NA
ATOM     52  C   UNL     1     -15.056   7.207 -11.430  1.00  0.00     0.031 C 
ATOM     53  C   UNL     1     -13.410   4.664 -16.686  1.00  0.00     0.029 A 
ATOM     54  C   UNL     1     -13.530   4.947 -15.335  1.00  0.00     0.049 A 
ATOM     55  H   UNL     1     -12.625   3.992 -13.687  1.00  0.00     0.167 HD
ATOM     56  C   UNL     1     -14.400   6.173 -13.366  1.00  0.00     0.074 A 
ATOM     57  C   UNL     1     -15.183   7.224 -12.749  1.00  0.00     0.031 C 
ATOM     58  C   UNL     1     -14.302   5.984 -14.704  1.00  0.00     0.031 A 
BRANCH  45  59
ATOM     59  C   UNL     1     -10.605   1.320 -16.328  1.00  0.00    -0.014 A 
ATOM     60  C   UNL     1     -11.029   0.006 -16.581  1.00  0.00     0.009 A 
ATOM     61  C   UNL     1      -9.636   1.897 -17.161  1.00  0.00     0.009 A 
ATOM     62  C   UNL     1     -10.476  -0.723 -17.635  1.00  0.00     0.001 A 
ATOM     63  C   UNL     1      -9.101   1.173 -18.229  1.00  0.00     0.001 A 
ATOM     64  C   UNL     1      -9.517  -0.137 -18.461  1.00  0.00     0.000 A 
ENDBRANCH  45  59
BRANCH  46  65
ATOM     65  C   UNL     1     -14.427   6.465  -8.683  1.00  0.00    -0.014 A 
ATOM     66  C   UNL     1     -15.795   6.400  -8.379  1.00  0.00     0.009 A 
ATOM     67  C   UNL     1     -13.603   7.315  -7.929  1.00  0.00     0.009 A 
ATOM     68  C   UNL     1     -16.333   7.194  -7.363  1.00  0.00     0.001 A 
ATOM     69  C   UNL     1     -14.139   8.088  -6.897  1.00  0.00     0.001 A 
ATOM     70  C   UNL     1     -15.504   8.035  -6.622  1.00  0.00     0.000 A 
ENDBRANCH  46  65
BRANCH  58  71
ATOM     71  C   UNL     1     -15.078   6.918 -15.585  1.00  0.00    -0.014 A 
ATOM     72  C   UNL     1     -14.646   8.236 -15.799  1.00  0.00     0.009 A 
ATOM     73  C   UNL     1     -16.230   6.460 -16.244  1.00  0.00     0.009 A 
ATOM     74  C   UNL     1     -15.369   9.086 -16.637  1.00  0.00     0.001 A 
ATOM     75  C   UNL     1     -16.936   7.306 -17.099  1.00  0.00     0.001 A 
ATOM     76  C   UNL     1     -16.510   8.619 -17.289  1.00  0.00     0.000 A 
ENDBRANCH  58  71
ENDBRANCH  32  33
ENDBRANCH  24  27
ENDBRANCH  22  23
ENDBRANCH  21  22
ENDBRANCH   1  21
TORSDOF 14
