REMARK SMILES CC(C)CCc1cc2c(cc1Cl)C=C(C(=O)NCCCCNC(=O)c1ccc(-c3c4nc(c(-c5ccccc5)c5ccc([nH]5)c(-c5ccccc5)c5nc(c(-c6ccccc6)c6ccc3[nH]6)C=C5)C=C4)cc1)[C@@H](C(F)(F)F)O2
REMARK SMILES IDX 19 1 18 2 17 3 15 4 16 5 14 7 6 8 7 9 11 10 8 11 10 12 12 13
REMARK SMILES IDX 9 14 78 15 13 16 73 17 5 18 4 19 2 20 1 21 3 22 74 23 75 24
REMARK SMILES IDX 76 25 77 26 20 27 21 28 22 29 23 30 24 32 25 33 26 34 72 35
REMARK SMILES IDX 27 36 71 37 28 38 29 39 30 40 65 41 31 42 70 43 64 44 66 45
REMARK SMILES IDX 32 46 69 47 63 48 62 49 33 51 55 52 40 53 54 54 41 55 44 56
REMARK SMILES IDX 53 57 67 58 42 59 43 60 52 62 68 63 45 64 34 65 35 66 39 67
REMARK SMILES IDX 36 68 38 69 37 70 56 71 57 72 61 73 58 74 60 75 59 76 46 77
REMARK SMILES IDX 47 78 51 79 48 80 50 81 49 82
REMARK H PARENT 17 6 22 31 66 50 44 61
REMARK Flexibility Score: inf
ROOT
ATOM      1  C   UNL     1      -2.171   8.416   6.715  1.00  0.00     0.023 C 
ENDROOT
BRANCH   1   2
ATOM      2  C   UNL     1      -0.708   8.055   6.469  1.00  0.00     0.116 C 
BRANCH   2   3
ATOM      3  N   UNL     1      -0.276   6.927   7.275  1.00  0.00    -0.352 N 
ATOM      4  C   UNL     1      -0.115   5.593   7.099  1.00  0.00     0.251 C 
ATOM      5  O   UNL     1       0.299   4.979   8.087  1.00  0.00    -0.270 OA
ATOM      6  H   UNL     1      -0.038   7.203   8.190  1.00  0.00     0.163 HD
BRANCH   4   7
ATOM      7  C   UNL     1      -0.403   4.851   5.836  1.00  0.00     0.067 C 
ATOM      8  C   UNL     1      -1.198   1.249   2.371  1.00  0.00    -0.026 A 
ATOM      9  C   UNL     1      -1.493   2.619   2.467  1.00  0.00     0.052 A 
ATOM     10  C   UNL     1      -0.617   0.623   3.488  1.00  0.00     0.045 A 
ATOM     11  C   UNL     1      -1.165   3.345   3.609  1.00  0.00     0.128 A 
ATOM     12  C   UNL     1      -0.313   1.355   4.647  1.00  0.00     0.032 A 
ATOM     13  Cl  UNL     1      -0.257  -1.067   3.517  1.00  0.00    -0.084 Cl
ATOM     14  C   UNL     1      -0.581   2.723   4.708  1.00  0.00     0.019 A 
ATOM     15  O   UNL     1      -1.483   4.672   3.598  1.00  0.00    -0.475 OA
ATOM     16  C   UNL     1      -0.314   3.508   5.908  1.00  0.00     0.025 C 
ATOM     17  C   UNL     1      -0.741   5.507   4.527  1.00  0.00     0.314 C 
BRANCH   8  18
ATOM     18  C   UNL     1      -1.544   0.523   1.087  1.00  0.00     0.037 C 
BRANCH  18  19
ATOM     19  C   UNL     1      -0.977   1.173  -0.189  1.00  0.00     0.008 C 
BRANCH  19  20
ATOM     20  C   UNL     1       0.559   1.298  -0.233  1.00  0.00    -0.017 C 
ATOM     21  C   UNL     1       1.246  -0.068  -0.261  1.00  0.00     0.007 C 
ATOM     22  C   UNL     1       0.979   2.115  -1.457  1.00  0.00     0.007 C 
ENDBRANCH  19  20
ENDBRANCH  18  19
ENDBRANCH   8  18
BRANCH  17  23
ATOM     23  C   UNL     1       0.502   6.087   3.822  1.00  0.00     0.429 C 
ATOM     24  F   UNL     1       0.130   6.939   2.834  1.00  0.00    -0.167 F 
ATOM     25  F   UNL     1       1.288   6.799   4.665  1.00  0.00    -0.167 F 
ATOM     26  F   UNL     1       1.282   5.135   3.266  1.00  0.00    -0.167 F 
ENDBRANCH  17  23
ENDBRANCH   4   7
ENDBRANCH   2   3
ENDBRANCH   1   2
BRANCH   1  27
ATOM     27  C   UNL     1      -2.396   9.378   7.885  1.00  0.00     0.023 C 
BRANCH  27  28
ATOM     28  C   UNL     1      -1.627  10.694   7.807  1.00  0.00     0.116 C 
BRANCH  28  29
ATOM     29  N   UNL     1      -1.824  11.441   6.572  1.00  0.00    -0.352 N 
ATOM     30  C   UNL     1      -1.626  12.790   6.365  1.00  0.00     0.251 C 
ATOM     31  H   UNL     1      -2.135  10.922   5.795  1.00  0.00     0.163 HD
ATOM     32  O   UNL     1      -1.903  13.313   5.293  1.00  0.00    -0.269 OA
BRANCH  30  33
ATOM     33  C   UNL     1      -1.129  13.605   7.492  1.00  0.00     0.039 A 
ATOM     34  C   UNL     1       0.004  13.201   8.198  1.00  0.00     0.014 A 
ATOM     35  C   UNL     1      -1.869  14.714   7.910  1.00  0.00     0.014 A 
ATOM     36  C   UNL     1       0.280  13.780   9.428  1.00  0.00     0.010 A 
ATOM     37  C   UNL     1      -1.534  15.354   9.107  1.00  0.00     0.010 A 
ATOM     38  C   UNL     1      -0.498  14.850   9.908  1.00  0.00    -0.014 A 
BRANCH  38  39
ATOM     39  C   UNL     1      -0.212  15.391  11.261  1.00  0.00     0.031 A 
ATOM     40  C   UNL     1      -1.208  15.242  12.382  1.00  0.00     0.074 A 
ATOM     41  C   UNL     1       0.999  15.928  11.505  1.00  0.00     0.049 A 
ATOM     42  N   UNL     1      -1.072  15.555  13.647  1.00  0.00    -0.248 NA
ATOM     43  C   UNL     1      -2.523  14.671  12.047  1.00  0.00     0.031 C 
ATOM     44  C   UNL     1       2.052  16.112  10.505  1.00  0.00     0.029 A 
ATOM     45  N   UNL     1       1.567  16.368  12.674  1.00  0.00    -0.354 N 
ATOM     46  C   UNL     1      -2.283  15.240  14.250  1.00  0.00     0.074 A 
ATOM     47  C   UNL     1      -3.153  14.733  13.213  1.00  0.00     0.031 C 
ATOM     48  C   UNL     1       3.163  16.546  11.116  1.00  0.00     0.029 A 
ATOM     49  C   UNL     1       2.884  16.730  12.536  1.00  0.00     0.049 A 
ATOM     50  H   UNL     1       1.078  16.419  13.527  1.00  0.00     0.167 HD
ATOM     51  C   UNL     1      -2.635  15.354  15.553  1.00  0.00     0.031 A 
ATOM     52  C   UNL     1       3.778  17.156  13.449  1.00  0.00     0.031 A 
ATOM     53  C   UNL     1      -1.766  15.843  16.590  1.00  0.00     0.049 A 
ATOM     54  C   UNL     1       3.359  17.284  14.883  1.00  0.00     0.074 A 
ATOM     55  C   UNL     1      -2.036  15.987  17.940  1.00  0.00     0.029 A 
ATOM     56  N   UNL     1      -0.459  16.262  16.395  1.00  0.00    -0.354 N 
ATOM     57  N   UNL     1       2.208  16.982  15.434  1.00  0.00    -0.248 NA
ATOM     58  C   UNL     1       4.359  17.812  15.822  1.00  0.00     0.031 C 
ATOM     59  C   UNL     1      -0.907  16.535  18.555  1.00  0.00     0.029 A 
ATOM     60  C   UNL     1       0.085  16.678  17.598  1.00  0.00     0.049 A 
ATOM     61  H   UNL     1       0.012  16.262  15.531  1.00  0.00     0.167 HD
ATOM     62  C   UNL     1       2.346  17.276  16.783  1.00  0.00     0.074 A 
ATOM     63  C   UNL     1       3.700  17.757  16.972  1.00  0.00     0.031 C 
ATOM     64  C   UNL     1       1.429  17.162  17.773  1.00  0.00     0.031 A 
BRANCH  51  65
ATOM     65  C   UNL     1      -4.032  14.955  15.944  1.00  0.00    -0.014 A 
ATOM     66  C   UNL     1      -4.955  15.941  16.328  1.00  0.00     0.009 A 
ATOM     67  C   UNL     1      -4.409  13.606  16.017  1.00  0.00     0.009 A 
ATOM     68  C   UNL     1      -6.224  15.584  16.787  1.00  0.00     0.001 A 
ATOM     69  C   UNL     1      -5.689  13.253  16.453  1.00  0.00     0.001 A 
ATOM     70  C   UNL     1      -6.592  14.241  16.845  1.00  0.00     0.000 A 
ENDBRANCH  51  65
BRANCH  52  71
ATOM     71  C   UNL     1       5.164  17.466  13.017  1.00  0.00    -0.014 A 
ATOM     72  C   UNL     1       5.423  18.576  12.196  1.00  0.00     0.009 A 
ATOM     73  C   UNL     1       6.226  16.621  13.370  1.00  0.00     0.009 A 
ATOM     74  C   UNL     1       6.711  18.817  11.715  1.00  0.00     0.001 A 
ATOM     75  C   UNL     1       7.519  16.881  12.911  1.00  0.00     0.001 A 
ATOM     76  C   UNL     1       7.758  17.972  12.076  1.00  0.00     0.000 A 
ENDBRANCH  52  71
BRANCH  64  77
ATOM     77  C   UNL     1       1.850  17.556  19.160  1.00  0.00    -0.014 A 
ATOM     78  C   UNL     1       2.020  16.569  20.144  1.00  0.00     0.009 A 
ATOM     79  C   UNL     1       1.994  18.905  19.515  1.00  0.00     0.009 A 
ATOM     80  C   UNL     1       2.320  16.925  21.459  1.00  0.00     0.001 A 
ATOM     81  C   UNL     1       2.319  19.258  20.826  1.00  0.00     0.001 A 
ATOM     82  C   UNL     1       2.474  18.269  21.798  1.00  0.00     0.000 A 
ENDBRANCH  64  77
ENDBRANCH  38  39
ENDBRANCH  30  33
ENDBRANCH  28  29
ENDBRANCH  27  28
ENDBRANCH   1  27
TORSDOF 15
