REMARK SMILES CCc1cc(OC(F)(F)F)cc2c1O[C@H](C(F)(F)F)C(C(=O)NCCCCNC(=O)c1ccc(-c3c4nc(c(-c5ccccc5)c5ccc([nH]5)c(-c5ccccc5)c5nc(c(-c6ccccc6)c6ccc3[nH]6)C=C5)C=C4)cc1)=C2
REMARK SMILES IDX 25 1 24 2 23 3 21 4 22 5 20 7 3 8 4 9 13 10 5 11 12 12 14 13
REMARK SMILES IDX 11 14 79 15 15 16 2 17 1 18 6 19 7 20 8 21 9 22 10 23 16 24
REMARK SMILES IDX 17 25 18 26 19 27 26 28 27 29 28 30 29 31 30 33 31 34 32 35
REMARK SMILES IDX 78 36 33 37 77 38 34 39 35 40 36 41 71 42 37 43 76 44 70 45
REMARK SMILES IDX 72 46 38 47 75 48 69 49 68 50 39 52 61 53 46 54 60 55 47 56
REMARK SMILES IDX 50 57 59 58 73 59 48 60 49 61 58 63 74 64 51 65 40 66 41 67
REMARK SMILES IDX 45 68 42 69 44 70 43 71 62 72 63 73 67 74 64 75 66 76 65 77
REMARK SMILES IDX 52 78 53 79 57 80 54 81 56 82 55 83
REMARK H PARENT 23 6 28 32 72 51 50 62
REMARK Flexibility Score: inf
ROOT
ATOM      1  C   UNL     1       0.462   9.349  -1.669  1.00  0.00     0.023 C 
ENDROOT
BRANCH   1   2
ATOM      2  C   UNL     1       1.071   9.006  -0.308  1.00  0.00     0.116 C 
BRANCH   2   3
ATOM      3  N   UNL     1       0.033   8.703   0.655  1.00  0.00    -0.352 N 
ATOM      4  C   UNL     1      -0.588   7.548   1.003  1.00  0.00     0.251 C 
ATOM      5  O   UNL     1      -1.419   7.611   1.910  1.00  0.00    -0.270 OA
ATOM      6  H   UNL     1      -0.284   9.489   1.155  1.00  0.00     0.163 HD
BRANCH   4   7
ATOM      7  C   UNL     1      -0.247   6.213   0.423  1.00  0.00     0.067 C 
ATOM      8  C   UNL     1       0.975   2.262  -0.377  1.00  0.00    -0.002 A 
ATOM      9  C   UNL     1       1.650   2.003  -1.586  1.00  0.00     0.054 A 
ATOM     10  C   UNL     1       0.565   3.580  -0.107  1.00  0.00     0.131 A 
ATOM     11  C   UNL     1       1.899   3.024  -2.507  1.00  0.00     0.130 A 
ATOM     12  C   UNL     1       0.788   4.601  -1.033  1.00  0.00     0.021 A 
ATOM     13  O   UNL     1       0.004   3.831   1.121  1.00  0.00    -0.475 OA
ATOM     14  C   UNL     1       1.455   4.317  -2.228  1.00  0.00     0.058 A 
ATOM     15  C   UNL     1       0.417   5.973  -0.714  1.00  0.00     0.025 C 
ATOM     16  C   UNL     1      -0.778   5.051   1.247  1.00  0.00     0.314 C 
BRANCH   8  17
ATOM     17  C   UNL     1       0.665   1.179   0.638  1.00  0.00     0.036 C 
ATOM     18  C   UNL     1       1.052  -0.249   0.272  1.00  0.00     0.009 C 
ENDBRANCH   8  17
BRANCH  11  19
ATOM     19  O   UNL     1       2.562   2.910  -3.695  1.00  0.00    -0.406 OA
BRANCH  19  20
ATOM     20  C   UNL     1       3.042   1.631  -4.072  1.00  0.00     0.573 C 
ATOM     21  F   UNL     1       3.936   1.163  -3.175  1.00  0.00    -0.132 F 
ATOM     22  F   UNL     1       2.028   0.751  -4.202  1.00  0.00    -0.132 F 
ATOM     23  F   UNL     1       3.664   1.739  -5.267  1.00  0.00    -0.132 F 
ENDBRANCH  19  20
ENDBRANCH  11  19
BRANCH  16  24
ATOM     24  C   UNL     1      -2.265   4.748   0.963  1.00  0.00     0.429 C 
ATOM     25  F   UNL     1      -2.418   3.974  -0.142  1.00  0.00    -0.167 F 
ATOM     26  F   UNL     1      -2.826   4.074   1.997  1.00  0.00    -0.167 F 
ATOM     27  F   UNL     1      -3.014   5.853   0.757  1.00  0.00    -0.167 F 
ENDBRANCH  16  24
ENDBRANCH   4   7
ENDBRANCH   2   3
ENDBRANCH   1   2
BRANCH   1  28
ATOM     28  C   UNL     1      -0.006  10.802  -1.794  1.00  0.00     0.023 C 
BRANCH  28  29
ATOM     29  C   UNL     1       1.103  11.842  -1.670  1.00  0.00     0.116 C 
BRANCH  29  30
ATOM     30  N   UNL     1       2.180  11.652  -2.628  1.00  0.00    -0.352 N 
ATOM     31  C   UNL     1       3.019  12.593  -3.174  1.00  0.00     0.251 C 
ATOM     32  H   UNL     1       2.327  10.725  -2.926  1.00  0.00     0.163 HD
ATOM     33  O   UNL     1       3.811  12.281  -4.052  1.00  0.00    -0.269 OA
BRANCH  31  34
ATOM     34  C   UNL     1       2.923  13.996  -2.722  1.00  0.00     0.039 A 
ATOM     35  C   UNL     1       2.861  15.003  -3.687  1.00  0.00     0.014 A 
ATOM     36  C   UNL     1       2.872  14.315  -1.363  1.00  0.00     0.014 A 
ATOM     37  C   UNL     1       2.687  16.328  -3.288  1.00  0.00     0.010 A 
ATOM     38  C   UNL     1       2.625  15.627  -0.970  1.00  0.00     0.010 A 
ATOM     39  C   UNL     1       2.534  16.646  -1.928  1.00  0.00    -0.014 A 
BRANCH  39  40
ATOM     40  C   UNL     1       2.271  18.042  -1.503  1.00  0.00     0.031 A 
ATOM     41  C   UNL     1       3.277  18.787  -0.672  1.00  0.00     0.074 A 
ATOM     42  C   UNL     1       1.103  18.625  -1.835  1.00  0.00     0.049 A 
ATOM     43  N   UNL     1       3.227  20.017  -0.224  1.00  0.00    -0.248 NA
ATOM     44  C   UNL     1       4.487  18.051  -0.270  1.00  0.00     0.031 C 
ATOM     45  C   UNL     1       0.022  17.988  -2.591  1.00  0.00     0.029 A 
ATOM     46  N   UNL     1       0.633  19.889  -1.584  1.00  0.00    -0.354 N 
ATOM     47  C   UNL     1       4.388  20.196   0.517  1.00  0.00     0.074 A 
ATOM     48  C   UNL     1       5.096  18.934   0.507  1.00  0.00     0.031 C 
ATOM     49  C   UNL     1      -0.967  18.877  -2.777  1.00  0.00     0.029 A 
ATOM     50  C   UNL     1      -0.605  20.133  -2.127  1.00  0.00     0.049 A 
ATOM     51  H   UNL     1       1.134  20.558  -1.064  1.00  0.00     0.167 HD
ATOM     52  C   UNL     1       4.838  21.316   1.131  1.00  0.00     0.031 A 
ATOM     53  C   UNL     1      -1.361  21.246  -2.112  1.00  0.00     0.031 A 
ATOM     54  C   UNL     1       4.137  22.572   1.134  1.00  0.00     0.049 A 
ATOM     55  C   UNL     1      -0.837  22.478  -1.428  1.00  0.00     0.074 A 
ATOM     56  C   UNL     1       4.535  23.780   1.679  1.00  0.00     0.029 A 
ATOM     57  N   UNL     1       2.890  22.780   0.566  1.00  0.00    -0.354 N 
ATOM     58  N   UNL     1       0.301  22.654  -0.802  1.00  0.00    -0.248 NA
ATOM     59  C   UNL     1      -1.697  23.669  -1.467  1.00  0.00     0.031 C 
ATOM     60  C   UNL     1       3.506  24.708   1.483  1.00  0.00     0.029 A 
ATOM     61  C   UNL     1       2.493  24.092   0.766  1.00  0.00     0.049 A 
ATOM     62  H   UNL     1       2.364  22.097   0.091  1.00  0.00     0.167 HD
ATOM     63  C   UNL     1       0.307  23.983  -0.398  1.00  0.00     0.074 A 
ATOM     64  C   UNL     1      -0.932  24.569  -0.865  1.00  0.00     0.031 C 
ATOM     65  C   UNL     1       1.256  24.658   0.296  1.00  0.00     0.031 A 
BRANCH  52  66
ATOM     66  C   UNL     1       6.153  21.227   1.854  1.00  0.00    -0.014 A 
ATOM     67  C   UNL     1       7.361  21.084   1.151  1.00  0.00     0.009 A 
ATOM     68  C   UNL     1       6.190  21.316   3.254  1.00  0.00     0.009 A 
ATOM     69  C   UNL     1       8.574  20.995   1.837  1.00  0.00     0.001 A 
ATOM     70  C   UNL     1       7.407  21.257   3.936  1.00  0.00     0.001 A 
ATOM     71  C   UNL     1       8.596  21.086   3.228  1.00  0.00     0.000 A 
ENDBRANCH  52  66
BRANCH  53  72
ATOM     72  C   UNL     1      -2.680  21.260  -2.796  1.00  0.00    -0.014 A 
ATOM     73  C   UNL     1      -2.862  21.996  -3.977  1.00  0.00     0.009 A 
ATOM     74  C   UNL     1      -3.765  20.540  -2.272  1.00  0.00     0.009 A 
ATOM     75  C   UNL     1      -4.110  22.035  -4.602  1.00  0.00     0.001 A 
ATOM     76  C   UNL     1      -5.004  20.558  -2.915  1.00  0.00     0.001 A 
ATOM     77  C   UNL     1      -5.178  21.313  -4.074  1.00  0.00     0.000 A 
ENDBRANCH  53  72
BRANCH  65  78
ATOM     78  C   UNL     1       1.003  26.116   0.560  1.00  0.00    -0.014 A 
ATOM     79  C   UNL     1       0.031  26.534   1.483  1.00  0.00     0.009 A 
ATOM     80  C   UNL     1       1.772  27.084  -0.105  1.00  0.00     0.009 A 
ATOM     81  C   UNL     1      -0.191  27.895   1.704  1.00  0.00     0.001 A 
ATOM     82  C   UNL     1       1.568  28.442   0.141  1.00  0.00     0.001 A 
ATOM     83  C   UNL     1       0.580  28.846   1.037  1.00  0.00     0.000 A 
ENDBRANCH  65  78
ENDBRANCH  39  40
ENDBRANCH  31  34
ENDBRANCH  29  30
ENDBRANCH  28  29
ENDBRANCH   1  28
TORSDOF 15
