REMARK SMILES COCc1nc2ccccc2n1CC(=O)NCCCCNC(=O)c1ccc(-c2c3nc(c(-c4ccccc4)c4ccc([nH]4)c(-c4ccccc4)c4nc(c(-c5ccccc5)c5ccc2[nH]5)C=C4)C=C3)cc1
REMARK SMILES IDX 18 1 17 2 16 3 14 4 15 5 13 7 12 8 4 9 5 10 6 11 11 12 7 13
REMARK SMILES IDX 10 14 8 15 9 16 3 17 2 18 1 19 19 20 20 21 21 22 22 23 23 25
REMARK SMILES IDX 24 26 25 27 71 28 26 29 70 30 27 31 28 32 29 33 64 34 30 35
REMARK SMILES IDX 69 36 63 37 65 38 31 39 68 40 62 41 61 42 32 44 54 45 39 46
REMARK SMILES IDX 53 47 40 48 43 49 52 50 66 51 41 52 42 53 51 55 67 56 44 57
REMARK SMILES IDX 33 58 34 59 38 60 35 61 37 62 36 63 55 64 56 65 60 66 57 67
REMARK SMILES IDX 59 68 58 69 45 70 46 71 50 72 47 73 49 74 48 75
REMARK H PARENT 16 6 21 24 65 43 43 54
REMARK Flexibility Score: inf
ROOT
ATOM      1  C   UNL     1       3.659   3.957   1.410  1.00  0.00     0.023 C 
ENDROOT
BRANCH   1   2
ATOM      2  C   UNL     1       3.441   4.998   0.315  1.00  0.00     0.116 C 
BRANCH   2   3
ATOM      3  N   UNL     1       3.532   4.419  -1.011  1.00  0.00    -0.355 N 
ATOM      4  C   UNL     1       2.547   4.247  -1.936  1.00  0.00     0.240 C 
ATOM      5  O   UNL     1       2.845   3.714  -3.010  1.00  0.00    -0.273 OA
ATOM      6  H   UNL     1       4.427   4.107  -1.278  1.00  0.00     0.163 HD
BRANCH   4   7
ATOM      7  C   UNL     1       1.135   4.726  -1.671  1.00  0.00     0.223 C 
BRANCH   7   8
ATOM      8  N   UNL     1       0.481   4.048  -0.563  1.00  0.00    -0.316 N 
ATOM      9  C   UNL     1       0.289   2.683  -0.430  1.00  0.00     0.136 A 
ATOM     10  N   UNL     1      -0.275   2.420   0.735  1.00  0.00    -0.231 NA
ATOM     11  C   UNL     1      -0.433   3.616   1.374  1.00  0.00     0.089 A 
ATOM     12  C   UNL     1       0.001   4.666   0.576  1.00  0.00     0.069 A 
ATOM     13  C   UNL     1      -0.918   3.875   2.664  1.00  0.00     0.030 A 
ATOM     14  C   UNL     1      -0.043   6.001   1.009  1.00  0.00     0.028 A 
ATOM     15  C   UNL     1      -0.927   5.194   3.129  1.00  0.00     0.002 A 
ATOM     16  C   UNL     1      -0.496   6.239   2.312  1.00  0.00     0.002 A 
BRANCH   9  17
ATOM     17  C   UNL     1       0.747   1.679  -1.450  1.00  0.00     0.235 C 
BRANCH  17  18
ATOM     18  O   UNL     1       0.242   0.375  -1.147  1.00  0.00    -0.377 OA
ATOM     19  C   UNL     1       0.961  -0.271  -0.102  1.00  0.00     0.195 C 
ENDBRANCH  17  18
ENDBRANCH   9  17
ENDBRANCH   7   8
ENDBRANCH   4   7
ENDBRANCH   2   3
ENDBRANCH   1   2
BRANCH   1  20
ATOM     20  C   UNL     1       5.098   3.432   1.496  1.00  0.00     0.023 C 
BRANCH  20  21
ATOM     21  C   UNL     1       6.168   4.527   1.470  1.00  0.00     0.116 C 
BRANCH  21  22
ATOM     22  N   UNL     1       6.019   5.515   2.520  1.00  0.00    -0.352 N 
ATOM     23  C   UNL     1       6.471   5.618   3.805  1.00  0.00     0.251 C 
ATOM     24  H   UNL     1       5.469   6.284   2.246  1.00  0.00     0.163 HD
ATOM     25  O   UNL     1       6.260   6.690   4.378  1.00  0.00    -0.269 OA
BRANCH  23  26
ATOM     26  C   UNL     1       7.105   4.512   4.567  1.00  0.00     0.039 A 
ATOM     27  C   UNL     1       7.477   3.280   4.031  1.00  0.00     0.014 A 
ATOM     28  C   UNL     1       7.244   4.717   5.953  1.00  0.00     0.014 A 
ATOM     29  C   UNL     1       7.827   2.232   4.862  1.00  0.00     0.010 A 
ATOM     30  C   UNL     1       7.625   3.680   6.791  1.00  0.00     0.010 A 
ATOM     31  C   UNL     1       7.846   2.422   6.242  1.00  0.00    -0.014 A 
BRANCH  31  32
ATOM     32  C   UNL     1       8.167   1.260   7.055  1.00  0.00     0.031 A 
ATOM     33  C   UNL     1       9.528   0.706   6.833  1.00  0.00     0.074 A 
ATOM     34  C   UNL     1       7.313   0.769   7.971  1.00  0.00     0.049 A 
ATOM     35  N   UNL     1       9.860  -0.482   6.443  1.00  0.00    -0.248 NA
ATOM     36  C   UNL     1      10.659   1.642   6.946  1.00  0.00     0.031 C 
ATOM     37  C   UNL     1       6.078   1.388   8.462  1.00  0.00     0.029 A 
ATOM     38  N   UNL     1       7.440  -0.338   8.754  1.00  0.00    -0.354 N 
ATOM     39  C   UNL     1      11.253  -0.496   6.415  1.00  0.00     0.074 A 
ATOM     40  C   UNL     1      11.683   0.866   6.596  1.00  0.00     0.031 C 
ATOM     41  C   UNL     1       5.718   0.794   9.621  1.00  0.00     0.029 A 
ATOM     42  C   UNL     1       6.603  -0.333   9.859  1.00  0.00     0.049 A 
ATOM     43  H   UNL     1       8.066  -1.071   8.554  1.00  0.00     0.167 HD
ATOM     44  C   UNL     1      11.965  -1.655   6.463  1.00  0.00     0.031 A 
ATOM     45  C   UNL     1       6.696  -1.142  10.939  1.00  0.00     0.031 A 
ATOM     46  C   UNL     1      11.162  -2.793   6.118  1.00  0.00     0.049 A 
ATOM     47  C   UNL     1       7.498  -2.324  10.555  1.00  0.00     0.074 A 
ATOM     48  C   UNL     1      10.563  -3.262   4.970  1.00  0.00     0.029 A 
ATOM     49  N   UNL     1      10.598  -3.473   7.168  1.00  0.00    -0.354 N 
ATOM     50  N   UNL     1       7.107  -3.215   9.690  1.00  0.00    -0.248 NA
ATOM     51  C   UNL     1       8.919  -2.337  10.864  1.00  0.00     0.031 C 
ATOM     52  C   UNL     1       9.387  -3.935   5.409  1.00  0.00     0.029 A 
ATOM     53  C   UNL     1       9.344  -3.885   6.805  1.00  0.00     0.049 A 
ATOM     54  H   UNL     1      11.025  -3.637   8.039  1.00  0.00     0.167 HD
ATOM     55  C   UNL     1       8.266  -3.605   9.038  1.00  0.00     0.074 A 
ATOM     56  C   UNL     1       9.352  -3.153   9.900  1.00  0.00     0.031 C 
ATOM     57  C   UNL     1       8.235  -4.002   7.732  1.00  0.00     0.031 A 
BRANCH  44  58
ATOM     58  C   UNL     1      13.262  -1.798   7.227  1.00  0.00    -0.014 A 
ATOM     59  C   UNL     1      13.728  -0.838   8.146  1.00  0.00     0.009 A 
ATOM     60  C   UNL     1      13.902  -3.051   7.252  1.00  0.00     0.009 A 
ATOM     61  C   UNL     1      14.755  -1.111   9.053  1.00  0.00     0.001 A 
ATOM     62  C   UNL     1      14.905  -3.342   8.186  1.00  0.00     0.001 A 
ATOM     63  C   UNL     1      15.327  -2.373   9.091  1.00  0.00     0.000 A 
ENDBRANCH  44  58
BRANCH  45  64
ATOM     64  C   UNL     1       6.477  -0.761  12.351  1.00  0.00    -0.014 A 
ATOM     65  C   UNL     1       6.764   0.550  12.776  1.00  0.00     0.009 A 
ATOM     66  C   UNL     1       6.263  -1.738  13.334  1.00  0.00     0.009 A 
ATOM     67  C   UNL     1       6.874   0.867  14.132  1.00  0.00     0.001 A 
ATOM     68  C   UNL     1       6.375  -1.420  14.694  1.00  0.00     0.001 A 
ATOM     69  C   UNL     1       6.695  -0.123  15.091  1.00  0.00     0.000 A 
ENDBRANCH  45  64
BRANCH  57  70
ATOM     70  C   UNL     1       6.896  -4.341   7.122  1.00  0.00    -0.014 A 
ATOM     71  C   UNL     1       6.753  -5.597   6.511  1.00  0.00     0.009 A 
ATOM     72  C   UNL     1       5.856  -3.408   6.980  1.00  0.00     0.009 A 
ATOM     73  C   UNL     1       5.617  -5.906   5.762  1.00  0.00     0.001 A 
ATOM     74  C   UNL     1       4.704  -3.728   6.252  1.00  0.00     0.001 A 
ATOM     75  C   UNL     1       4.592  -4.971   5.633  1.00  0.00     0.000 A 
ENDBRANCH  57  70
ENDBRANCH  31  32
ENDBRANCH  23  26
ENDBRANCH  21  22
ENDBRANCH  20  21
ENDBRANCH   1  20
TORSDOF 14
