REMARK SMILES O=C(NCCCCNC(=O)c1ccc(-c2c3nc(c(-c4ccccc4)c4ccc([nH]4)c(-c4ccccc4)c4nc(c(-c5ccccc5)c5ccc2[nH]5)C=C4)C=C3)cc1)c1ccc(/C=C/c2ccnc(-c3cccc([N+](=O)[O-])c3)[n+]2[O-])cc1
REMARK SMILES IDX 4 1 3 2 1 3 2 4 59 6 60 7 82 8 61 9 81 10 62 11 63 12 64 13
REMARK SMILES IDX 65 14 66 15 79 16 67 17 69 18 80 19 68 20 70 21 71 22 78 23
REMARK SMILES IDX 72 24 74 25 73 26 75 27 76 28 77 29 5 30 6 31 7 32 8 33 9 34
REMARK SMILES IDX 10 36 11 37 12 38 58 39 13 40 57 41 14 42 15 43 16 44 51 45
REMARK SMILES IDX 17 46 56 47 50 48 52 49 18 50 55 51 49 52 48 53 19 55 41 56
REMARK SMILES IDX 26 57 40 58 27 59 30 60 39 61 53 62 28 63 29 64 38 66 54 67
REMARK SMILES IDX 31 68 20 69 21 70 25 71 22 72 24 73 23 74 42 75 43 76 47 77
REMARK SMILES IDX 44 78 46 79 45 80 32 81 33 82 37 83 34 84 36 85 35 86
REMARK H PARENT 3 5 8 35 52 54 30 65
REMARK Flexibility Score: inf
ROOT
ATOM      1  C   UNL     1       4.537   0.149  -1.304  1.00  0.00     0.116 C 
ENDROOT
BRANCH   1   2
ATOM      2  N   UNL     1       3.096   0.288  -1.157  1.00  0.00    -0.352 N 
ATOM      3  O   UNL     1       1.103   0.119  -0.096  1.00  0.00    -0.269 OA
ATOM      4  C   UNL     1       2.327   0.074  -0.039  1.00  0.00     0.251 C 
ATOM      5  H   UNL     1       2.609   0.573  -1.963  1.00  0.00     0.163 HD
BRANCH   4   6
ATOM      6  C   UNL     1       2.998  -0.239   1.236  1.00  0.00     0.039 A 
ATOM      7  C   UNL     1       3.912   0.660   1.790  1.00  0.00     0.014 A 
ATOM      8  C   UNL     1       2.744  -1.462   1.854  1.00  0.00     0.014 A 
ATOM      9  C   UNL     1       4.646   0.290   2.918  1.00  0.00     0.009 A 
ATOM     10  C   UNL     1       3.479  -1.824   2.985  1.00  0.00     0.009 A 
ATOM     11  C   UNL     1       4.465  -0.969   3.509  1.00  0.00    -0.025 A 
BRANCH  11  12
ATOM     12  C   UNL     1       5.252  -1.433   4.665  1.00  0.00     0.012 C 
ATOM     13  C   UNL     1       6.403  -0.886   5.088  1.00  0.00     0.053 C 
BRANCH  13  14
ATOM     14  C   UNL     1       7.143  -1.389   6.257  1.00  0.00     0.134 A 
ATOM     15  C   UNL     1       7.406  -0.505   7.304  1.00  0.00     0.100 A 
ATOM     16  N   UNL     1       7.595  -2.718   6.314  1.00  0.00    -0.228 N 
ATOM     17  C   UNL     1       8.082  -0.986   8.399  1.00  0.00     0.259 A 
ATOM     18  C   UNL     1       8.293  -3.116   7.458  1.00  0.00     0.333 A 
ATOM     19  O   UNL     1       7.381  -3.531   5.346  1.00  0.00    -0.710 OA
ATOM     20  N   UNL     1       8.514  -2.254   8.501  1.00  0.00    -0.049 NA
BRANCH  18  21
ATOM     21  C   UNL     1       8.853  -4.464   7.583  1.00  0.00     0.076 A 
ATOM     22  C   UNL     1       8.527  -5.275   8.685  1.00  0.00     0.017 A 
ATOM     23  C   UNL     1       9.764  -4.963   6.636  1.00  0.00     0.102 A 
ATOM     24  C   UNL     1       9.074  -6.553   8.833  1.00  0.00     0.008 A 
ATOM     25  C   UNL     1      10.325  -6.238   6.796  1.00  0.00     0.270 A 
ATOM     26  C   UNL     1       9.978  -7.040   7.890  1.00  0.00     0.085 A 
BRANCH  25  27
ATOM     27  N   UNL     1      11.306  -6.727   5.820  1.00  0.00     0.062 N 
ATOM     28  O   UNL     1      11.702  -7.896   5.937  1.00  0.00    -0.258 OA
ATOM     29  O   UNL     1      11.697  -5.937   4.949  1.00  0.00    -0.258 OA
ENDBRANCH  25  27
ENDBRANCH  18  21
ENDBRANCH  13  14
ENDBRANCH  11  12
ENDBRANCH   4   6
ENDBRANCH   1   2
BRANCH   1  30
ATOM     30  C   UNL     1       4.925  -0.833  -2.405  1.00  0.00     0.023 C 
BRANCH  30  31
ATOM     31  C   UNL     1       4.470  -0.451  -3.812  1.00  0.00     0.023 C 
BRANCH  31  32
ATOM     32  C   UNL     1       4.843   0.957  -4.264  1.00  0.00     0.116 C 
BRANCH  32  33
ATOM     33  N   UNL     1       6.278   1.200  -4.269  1.00  0.00    -0.352 N 
ATOM     34  C   UNL     1       7.072   1.714  -5.267  1.00  0.00     0.251 C 
ATOM     35  H   UNL     1       6.748   0.964  -3.437  1.00  0.00     0.163 HD
ATOM     36  O   UNL     1       8.290   1.756  -5.130  1.00  0.00    -0.269 OA
BRANCH  34  37
ATOM     37  C   UNL     1       6.457   2.178  -6.529  1.00  0.00     0.039 A 
ATOM     38  C   UNL     1       6.991   1.734  -7.741  1.00  0.00     0.014 A 
ATOM     39  C   UNL     1       5.341   3.018  -6.517  1.00  0.00     0.014 A 
ATOM     40  C   UNL     1       6.352   2.059  -8.939  1.00  0.00     0.010 A 
ATOM     41  C   UNL     1       4.666   3.284  -7.705  1.00  0.00     0.010 A 
ATOM     42  C   UNL     1       5.157   2.797  -8.926  1.00  0.00    -0.014 A 
BRANCH  42  43
ATOM     43  C   UNL     1       4.389   3.048 -10.172  1.00  0.00     0.031 A 
ATOM     44  C   UNL     1       4.199   4.450 -10.677  1.00  0.00     0.074 A 
ATOM     45  C   UNL     1       3.791   2.019 -10.803  1.00  0.00     0.049 A 
ATOM     46  N   UNL     1       3.484   4.873 -11.688  1.00  0.00    -0.248 NA
ATOM     47  C   UNL     1       4.883   5.520  -9.933  1.00  0.00     0.031 C 
ATOM     48  C   UNL     1       3.862   0.613 -10.396  1.00  0.00     0.029 A 
ATOM     49  N   UNL     1       2.991   2.000 -11.919  1.00  0.00    -0.354 N 
ATOM     50  C   UNL     1       3.613   6.255 -11.689  1.00  0.00     0.074 A 
ATOM     51  C   UNL     1       4.443   6.604 -10.556  1.00  0.00     0.031 C 
ATOM     52  C   UNL     1       3.155  -0.131 -11.261  1.00  0.00     0.029 A 
ATOM     53  C   UNL     1       2.548   0.745 -12.258  1.00  0.00     0.049 A 
ATOM     54  H   UNL     1       2.757   2.810 -12.428  1.00  0.00     0.167 HD
ATOM     55  C   UNL     1       3.100   7.154 -12.562  1.00  0.00     0.031 A 
ATOM     56  C   UNL     1       1.735   0.343 -13.253  1.00  0.00     0.031 A 
ATOM     57  C   UNL     1       2.289   6.812 -13.699  1.00  0.00     0.049 A 
ATOM     58  C   UNL     1       1.172   1.361 -14.203  1.00  0.00     0.074 A 
ATOM     59  C   UNL     1       1.775   7.649 -14.675  1.00  0.00     0.029 A 
ATOM     60  N   UNL     1       1.874   5.527 -14.013  1.00  0.00    -0.354 N 
ATOM     61  N   UNL     1       1.353   2.659 -14.224  1.00  0.00    -0.248 NA
ATOM     62  C   UNL     1       0.297   0.856 -15.271  1.00  0.00     0.031 C 
ATOM     63  C   UNL     1       1.014   6.875 -15.557  1.00  0.00     0.029 A 
ATOM     64  C   UNL     1       1.093   5.551 -15.156  1.00  0.00     0.049 A 
ATOM     65  H   UNL     1       2.101   4.718 -13.500  1.00  0.00     0.167 HD
ATOM     66  C   UNL     1       0.635   3.122 -15.318  1.00  0.00     0.074 A 
ATOM     67  C   UNL     1       0.026   1.966 -15.944  1.00  0.00     0.031 C 
ATOM     68  C   UNL     1       0.494   4.393 -15.765  1.00  0.00     0.031 A 
BRANCH  55  69
ATOM     69  C   UNL     1       3.402   8.604 -12.314  1.00  0.00    -0.014 A 
ATOM     70  C   UNL     1       4.686   9.127 -12.536  1.00  0.00     0.009 A 
ATOM     71  C   UNL     1       2.382   9.466 -11.883  1.00  0.00     0.009 A 
ATOM     72  C   UNL     1       4.951  10.477 -12.298  1.00  0.00     0.001 A 
ATOM     73  C   UNL     1       2.643  10.821 -11.670  1.00  0.00     0.001 A 
ATOM     74  C   UNL     1       3.929  11.323 -11.870  1.00  0.00     0.000 A 
ENDBRANCH  55  69
BRANCH  56  75
ATOM     75  C   UNL     1       1.412  -1.098 -13.412  1.00  0.00    -0.014 A 
ATOM     76  C   UNL     1       1.968  -1.835 -14.469  1.00  0.00     0.009 A 
ATOM     77  C   UNL     1       0.545  -1.741 -12.516  1.00  0.00     0.009 A 
ATOM     78  C   UNL     1       1.645  -3.183 -14.637  1.00  0.00     0.001 A 
ATOM     79  C   UNL     1       0.243  -3.095 -12.673  1.00  0.00     0.001 A 
ATOM     80  C   UNL     1       0.786  -3.813 -13.738  1.00  0.00     0.000 A 
ENDBRANCH  56  75
BRANCH  68  81
ATOM     81  C   UNL     1      -0.325   4.597 -17.007  1.00  0.00    -0.014 A 
ATOM     82  C   UNL     1      -1.726   4.512 -16.974  1.00  0.00     0.009 A 
ATOM     83  C   UNL     1       0.312   4.919 -18.215  1.00  0.00     0.009 A 
ATOM     84  C   UNL     1      -2.470   4.720 -18.137  1.00  0.00     0.001 A 
ATOM     85  C   UNL     1      -0.437   5.150 -19.369  1.00  0.00     0.001 A 
ATOM     86  C   UNL     1      -1.826   5.043 -19.331  1.00  0.00     0.000 A 
ENDBRANCH  68  81
ENDBRANCH  42  43
ENDBRANCH  34  37
ENDBRANCH  32  33
ENDBRANCH  31  32
ENDBRANCH  30  31
ENDBRANCH   1  30
TORSDOF 15
