REMARK SMILES O=C(NCCCCNC(=O)c1ccc(-c2c3nc(c(-c4ccccc4)c4ccc([nH]4)c(-c4ccccc4)c4nc(c(-c5ccccc5)c5ccc2[nH]5)C=C4)C=C3)cc1)C1=Cc2c(ccc(Cl)c2Cl)O[C@H]1C(F)(F)F
REMARK SMILES IDX 6 1 5 2 4 3 3 4 1 5 2 6 59 8 60 9 70 10 61 11 69 12 62 13
REMARK SMILES IDX 67 14 63 15 65 16 68 17 64 18 66 19 71 20 72 21 73 22 74 23
REMARK SMILES IDX 7 24 8 25 9 26 10 28 11 29 12 30 58 31 13 32 57 33 14 34
REMARK SMILES IDX 15 35 16 36 51 37 17 38 56 39 50 40 52 41 18 42 55 43 49 44
REMARK SMILES IDX 48 45 19 47 41 48 26 49 40 50 27 51 30 52 39 53 53 54 28 55
REMARK SMILES IDX 29 56 38 58 54 59 31 60 20 61 21 62 25 63 22 64 24 65 23 66
REMARK SMILES IDX 42 67 43 68 47 69 44 70 46 71 45 72 32 73 33 74 37 75 34 76
REMARK SMILES IDX 36 77 35 78
REMARK H PARENT 3 7 8 27 52 46 30 57
REMARK Flexibility Score: inf
ROOT
ATOM      1  C   UNL     1       3.814   2.892  -3.086  1.00  0.00     0.023 C 
ENDROOT
BRANCH   1   2
ATOM      2  C   UNL     1       4.160   1.426  -2.844  1.00  0.00     0.023 C 
BRANCH   2   3
ATOM      3  C   UNL     1       3.939   0.917  -1.425  1.00  0.00     0.116 C 
BRANCH   3   4
ATOM      4  N   UNL     1       2.567   0.584  -1.089  1.00  0.00    -0.352 N 
ATOM      5  O   UNL     1       0.905  -0.416   0.067  1.00  0.00    -0.270 OA
ATOM      6  C   UNL     1       2.104  -0.195  -0.058  1.00  0.00     0.251 C 
ATOM      7  H   UNL     1       1.877   0.968  -1.678  1.00  0.00     0.163 HD
BRANCH   6   8
ATOM      8  C   UNL     1       3.066  -0.794   0.907  1.00  0.00     0.067 C 
ATOM      9  C   UNL     1       3.564   0.070   1.806  1.00  0.00     0.027 C 
ATOM     10  C   UNL     1       3.862  -1.965   0.395  1.00  0.00     0.314 C 
ATOM     11  C   UNL     1       5.002   0.346   1.633  1.00  0.00     0.037 A 
ATOM     12  O   UNL     1       5.306  -1.785   0.482  1.00  0.00    -0.475 OA
ATOM     13  C   UNL     1       5.779  -0.575   0.916  1.00  0.00     0.129 A 
ATOM     14  C   UNL     1       5.548   1.596   1.990  1.00  0.00     0.070 A 
ATOM     15  C   UNL     1       7.076  -0.248   0.527  1.00  0.00     0.049 A 
ATOM     16  C   UNL     1       6.842   1.929   1.567  1.00  0.00     0.060 A 
ATOM     17  Cl  UNL     1       4.578   2.744   2.863  1.00  0.00    -0.082 Cl
ATOM     18  C   UNL     1       7.596   1.011   0.829  1.00  0.00     0.026 A 
ATOM     19  Cl  UNL     1       7.542   3.480   1.865  1.00  0.00    -0.083 Cl
BRANCH  10  20
ATOM     20  C   UNL     1       3.440  -3.281   1.084  1.00  0.00     0.429 C 
ATOM     21  F   UNL     1       2.542  -3.096   2.079  1.00  0.00    -0.167 F 
ATOM     22  F   UNL     1       2.879  -4.133   0.191  1.00  0.00    -0.167 F 
ATOM     23  F   UNL     1       4.497  -3.928   1.632  1.00  0.00    -0.167 F 
ENDBRANCH  10  20
ENDBRANCH   6   8
ENDBRANCH   3   4
ENDBRANCH   2   3
ENDBRANCH   1   2
BRANCH   1  24
ATOM     24  C   UNL     1       4.448   3.916  -2.145  1.00  0.00     0.116 C 
BRANCH  24  25
ATOM     25  N   UNL     1       5.898   3.834  -2.036  1.00  0.00    -0.352 N 
ATOM     26  C   UNL     1       6.846   4.842  -2.044  1.00  0.00     0.251 C 
ATOM     27  H   UNL     1       6.258   2.923  -1.942  1.00  0.00     0.163 HD
ATOM     28  O   UNL     1       8.028   4.567  -1.964  1.00  0.00    -0.269 OA
BRANCH  26  29
ATOM     29  C   UNL     1       6.417   6.250  -2.236  1.00  0.00     0.039 A 
ATOM     30  C   UNL     1       7.049   7.004  -3.230  1.00  0.00     0.014 A 
ATOM     31  C   UNL     1       5.352   6.794  -1.516  1.00  0.00     0.014 A 
ATOM     32  C   UNL     1       6.517   8.241  -3.603  1.00  0.00     0.010 A 
ATOM     33  C   UNL     1       4.779   7.992  -1.937  1.00  0.00     0.010 A 
ATOM     34  C   UNL     1       5.329   8.704  -3.015  1.00  0.00    -0.014 A 
BRANCH  34  35
ATOM     35  C   UNL     1       4.585   9.854  -3.591  1.00  0.00     0.031 A 
ATOM     36  C   UNL     1       4.357  11.109  -2.801  1.00  0.00     0.074 A 
ATOM     37  C   UNL     1       4.015   9.720  -4.806  1.00  0.00     0.049 A 
ATOM     38  N   UNL     1       3.670  12.175  -3.130  1.00  0.00    -0.248 NA
ATOM     39  C   UNL     1       4.957  11.166  -1.460  1.00  0.00     0.031 C 
ATOM     40  C   UNL     1       4.096   8.527  -5.654  1.00  0.00     0.029 A 
ATOM     41  N   UNL     1       3.238  10.589  -5.532  1.00  0.00    -0.354 N 
ATOM     42  C   UNL     1       3.740  13.022  -2.033  1.00  0.00     0.074 A 
ATOM     43  C   UNL     1       4.504  12.330  -1.016  1.00  0.00     0.031 C 
ATOM     44  C   UNL     1       3.416   8.748  -6.790  1.00  0.00     0.029 A 
ATOM     45  C   UNL     1       2.822  10.078  -6.738  1.00  0.00     0.049 A 
ATOM     46  H   UNL     1       3.002  11.492  -5.218  1.00  0.00     0.167 HD
ATOM     47  C   UNL     1       3.228  14.268  -1.888  1.00  0.00     0.031 A 
ATOM     48  C   UNL     1       2.040  10.612  -7.695  1.00  0.00     0.031 A 
ATOM     49  C   UNL     1       2.470  14.963  -2.895  1.00  0.00     0.049 A 
ATOM     50  C   UNL     1       1.485  11.993  -7.514  1.00  0.00     0.074 A 
ATOM     51  C   UNL     1       1.980  16.258  -2.866  1.00  0.00     0.029 A 
ATOM     52  N   UNL     1       2.083  14.417  -4.108  1.00  0.00    -0.354 N 
ATOM     53  N   UNL     1       1.634  12.814  -6.504  1.00  0.00    -0.248 NA
ATOM     54  C   UNL     1       0.656  12.522  -8.607  1.00  0.00     0.031 C 
ATOM     55  C   UNL     1       1.259  16.480  -4.045  1.00  0.00     0.029 A 
ATOM     56  C   UNL     1       1.334  15.337  -4.824  1.00  0.00     0.049 A 
ATOM     57  H   UNL     1       2.307  13.509  -4.417  1.00  0.00     0.167 HD
ATOM     58  C   UNL     1       0.927  13.959  -6.841  1.00  0.00     0.074 A 
ATOM     59  C   UNL     1       0.364  13.735  -8.157  1.00  0.00     0.031 C 
ATOM     60  C   UNL     1       0.761  15.095  -6.122  1.00  0.00     0.031 A 
BRANCH  47  61
ATOM     61  C   UNL     1       3.470  14.955  -0.575  1.00  0.00    -0.014 A 
ATOM     62  C   UNL     1       4.744  15.439  -0.236  1.00  0.00     0.009 A 
ATOM     63  C   UNL     1       2.412  15.131   0.329  1.00  0.00     0.009 A 
ATOM     64  C   UNL     1       4.961  16.048   1.001  1.00  0.00     0.001 A 
ATOM     65  C   UNL     1       2.627  15.762   1.555  1.00  0.00     0.001 A 
ATOM     66  C   UNL     1       3.903  16.210   1.895  1.00  0.00     0.000 A 
ENDBRANCH  47  61
BRANCH  48  67
ATOM     67  C   UNL     1       1.747   9.830  -8.922  1.00  0.00    -0.014 A 
ATOM     68  C   UNL     1       2.395  10.136 -10.127  1.00  0.00     0.009 A 
ATOM     69  C   UNL     1       0.837   8.762  -8.887  1.00  0.00     0.009 A 
ATOM     70  C   UNL     1       2.129   9.393 -11.279  1.00  0.00     0.001 A 
ATOM     71  C   UNL     1       0.588   8.009 -10.036  1.00  0.00     0.001 A 
ATOM     72  C   UNL     1       1.230   8.328 -11.231  1.00  0.00     0.000 A 
ENDBRANCH  48  67
BRANCH  60  73
ATOM     73  C   UNL     1      -0.065  16.182  -6.746  1.00  0.00    -0.014 A 
ATOM     74  C   UNL     1      -1.464  16.084  -6.798  1.00  0.00     0.009 A 
ATOM     75  C   UNL     1       0.559  17.329  -7.260  1.00  0.00     0.009 A 
ATOM     76  C   UNL     1      -2.221  17.105  -7.377  1.00  0.00     0.001 A 
ATOM     77  C   UNL     1      -0.202  18.357  -7.819  1.00  0.00     0.001 A 
ATOM     78  C   UNL     1      -1.590  18.241  -7.883  1.00  0.00     0.000 A 
ENDBRANCH  60  73
ENDBRANCH  34  35
ENDBRANCH  26  29
ENDBRANCH  24  25
ENDBRANCH   1  24
TORSDOF 12
