REMARK SMILES Cc1ccc(C(=O)NC2CC2)cc1NC(=O)[C@@H]1[C@@H](C(=O)NCCCCNC(=O)c2ccc(-c3c4nc(c(-c5ccccc5)c5ccc([nH]5)c(-c5ccccc5)c5nc(c(-c6ccccc6)c6ccc3[nH]6)C=C5)C=C4)cc2)[C@H]2C=C[C@@H]1C2
REMARK SMILES IDX 22 1 21 2 19 3 20 4 18 6 17 7 80 8 77 9 79 10 81 11 78 12
REMARK SMILES IDX 15 13 14 14 16 16 13 17 1 18 2 19 3 20 4 21 12 22 5 23 6 24
REMARK SMILES IDX 7 25 8 26 9 28 10 29 11 30 23 31 24 32 25 33 26 34 27 35
REMARK SMILES IDX 28 37 29 38 30 39 76 40 31 41 75 42 32 43 33 44 34 45 69 46
REMARK SMILES IDX 35 47 74 48 68 49 70 50 36 51 73 52 67 53 66 54 37 56 59 57
REMARK SMILES IDX 44 58 58 59 45 60 48 61 57 62 71 63 46 64 47 65 56 67 72 68
REMARK SMILES IDX 49 69 38 70 39 71 43 72 40 73 42 74 41 75 60 76 61 77 65 78
REMARK SMILES IDX 62 79 64 80 63 81 50 82 51 83 55 84 52 85 54 86 53 87
REMARK H PARENT 21 5 14 15 8 27 26 36 70 55 48 66
REMARK Flexibility Score: inf
ROOT
ATOM      1  C   UNL     1      -3.615   7.751   0.723  1.00  0.00     0.116 C 
ENDROOT
BRANCH   1   2
ATOM      2  N   UNL     1      -3.135   6.856  -0.312  1.00  0.00    -0.356 N 
ATOM      3  C   UNL     1      -2.204   5.875  -0.349  1.00  0.00     0.224 C 
ATOM      4  O   UNL     1      -2.012   5.384  -1.470  1.00  0.00    -0.275 OA
ATOM      5  H   UNL     1      -3.584   6.992  -1.177  1.00  0.00     0.163 HD
BRANCH   3   6
ATOM      6  C   UNL     1      -1.343   5.429   0.831  1.00  0.00     0.098 C 
ATOM      7  C   UNL     1      -0.969   3.897   0.632  1.00  0.00     0.099 C 
ATOM      8  C   UNL     1      -1.278   3.280   2.021  1.00  0.00     0.025 C 
ATOM      9  C   UNL     1      -1.923   5.410   2.261  1.00  0.00     0.025 C 
ATOM     10  C   UNL     1      -2.780   3.278   2.204  1.00  0.00    -0.027 C 
ATOM     11  C   UNL     1      -0.952   4.443   2.955  1.00  0.00     0.017 C 
ATOM     12  C   UNL     1      -3.169   4.556   2.320  1.00  0.00    -0.027 C 
BRANCH   7  13
ATOM     13  C   UNL     1       0.464   3.631   0.199  1.00  0.00     0.228 C 
ATOM     14  N   UNL     1       0.903   2.368  -0.117  1.00  0.00    -0.326 N 
ATOM     15  H   UNL     1       1.865   2.331  -0.326  1.00  0.00     0.169 HD
ATOM     16  O   UNL     1       1.306   4.535   0.198  1.00  0.00    -0.274 OA
BRANCH  14  17
ATOM     17  C   UNL     1       0.262   1.111  -0.203  1.00  0.00     0.044 A 
ATOM     18  C   UNL     1       2.491  -0.105   0.276  1.00  0.00     0.046 C 
ATOM     19  C   UNL     1       1.001  -0.060   0.057  1.00  0.00    -0.027 A 
ATOM     20  C   UNL     1       0.329  -1.294   0.091  1.00  0.00     0.006 A 
ATOM     21  C   UNL     1      -1.047  -1.371  -0.132  1.00  0.00     0.014 A 
ATOM     22  C   UNL     1      -1.092   0.982  -0.561  1.00  0.00     0.040 A 
ATOM     23  C   UNL     1      -1.784  -0.232  -0.476  1.00  0.00     0.041 A 
BRANCH  23  24
ATOM     24  C   UNL     1      -3.250  -0.432  -0.732  1.00  0.00     0.251 C 
ATOM     25  O   UNL     1      -3.700  -1.581  -0.717  1.00  0.00    -0.269 OA
ATOM     26  N   UNL     1      -4.157   0.584  -0.951  1.00  0.00    -0.349 N 
ATOM     27  H   UNL     1      -5.084   0.279  -1.075  1.00  0.00     0.164 HD
BRANCH  26  28
ATOM     28  C   UNL     1      -3.991   1.989  -1.030  1.00  0.00     0.082 C 
ATOM     29  C   UNL     1      -3.898   2.653  -2.376  1.00  0.00     0.027 C 
ATOM     30  C   UNL     1      -5.085   2.908  -1.496  1.00  0.00     0.027 C 
ENDBRANCH  26  28
ENDBRANCH  23  24
ENDBRANCH  14  17
ENDBRANCH   7  13
ENDBRANCH   3   6
ENDBRANCH   1   2
BRANCH   1  31
ATOM     31  C   UNL     1      -3.144   9.193   0.512  1.00  0.00     0.023 C 
BRANCH  31  32
ATOM     32  C   UNL     1      -3.661   9.863  -0.763  1.00  0.00     0.023 C 
BRANCH  32  33
ATOM     33  C   UNL     1      -5.160  10.139  -0.776  1.00  0.00     0.116 C 
BRANCH  33  34
ATOM     34  N   UNL     1      -5.563  11.344  -0.062  1.00  0.00    -0.352 N 
ATOM     35  C   UNL     1      -6.836  11.811   0.244  1.00  0.00     0.251 C 
ATOM     36  H   UNL     1      -4.823  11.913   0.249  1.00  0.00     0.163 HD
ATOM     37  O   UNL     1      -6.976  12.865   0.829  1.00  0.00    -0.269 OA
BRANCH  35  38
ATOM     38  C   UNL     1      -8.017  10.945  -0.023  1.00  0.00     0.039 A 
ATOM     39  C   UNL     1      -8.976  10.825   0.991  1.00  0.00     0.014 A 
ATOM     40  C   UNL     1      -8.079  10.118  -1.139  1.00  0.00     0.014 A 
ATOM     41  C   UNL     1      -9.808   9.708   1.015  1.00  0.00     0.010 A 
ATOM     42  C   UNL     1      -8.827   8.959  -1.069  1.00  0.00     0.010 A 
ATOM     43  C   UNL     1      -9.627   8.718   0.050  1.00  0.00    -0.014 A 
BRANCH  43  44
ATOM     44  C   UNL     1     -10.104   7.351   0.222  1.00  0.00     0.031 A 
ATOM     45  C   UNL     1     -11.294   6.871  -0.504  1.00  0.00     0.074 A 
ATOM     46  C   UNL     1      -9.408   6.506   1.017  1.00  0.00     0.049 A 
ATOM     47  N   UNL     1     -12.085   5.944  -0.078  1.00  0.00    -0.248 NA
ATOM     48  C   UNL     1     -11.712   7.451  -1.775  1.00  0.00     0.031 C 
ATOM     49  C   UNL     1      -9.589   5.063   1.146  1.00  0.00     0.029 A 
ATOM     50  N   UNL     1      -8.528   6.828   2.055  1.00  0.00    -0.354 N 
ATOM     51  C   UNL     1     -12.898   5.589  -1.132  1.00  0.00     0.074 A 
ATOM     52  C   UNL     1     -12.703   6.625  -2.122  1.00  0.00     0.031 C 
ATOM     53  C   UNL     1      -9.123   4.681   2.347  1.00  0.00     0.029 A 
ATOM     54  C   UNL     1      -8.772   5.893   3.072  1.00  0.00     0.049 A 
ATOM     55  H   UNL     1      -7.872   7.561   2.069  1.00  0.00     0.167 HD
ATOM     56  C   UNL     1     -13.517   4.373  -1.134  1.00  0.00     0.031 A 
ATOM     57  C   UNL     1      -9.235   6.232   4.311  1.00  0.00     0.031 A 
ATOM     58  C   UNL     1     -13.275   3.636   0.105  1.00  0.00     0.049 A 
ATOM     59  C   UNL     1     -10.532   5.536   4.670  1.00  0.00     0.074 A 
ATOM     60  C   UNL     1     -12.402   2.609   0.426  1.00  0.00     0.029 A 
ATOM     61  N   UNL     1     -13.768   4.127   1.308  1.00  0.00    -0.354 N 
ATOM     62  N   UNL     1     -11.322   4.980   3.795  1.00  0.00    -0.248 NA
ATOM     63  C   UNL     1     -11.078   5.482   6.026  1.00  0.00     0.031 C 
ATOM     64  C   UNL     1     -12.306   2.542   1.839  1.00  0.00     0.029 A 
ATOM     65  C   UNL     1     -13.142   3.507   2.372  1.00  0.00     0.049 A 
ATOM     66  H   UNL     1     -14.465   4.817   1.390  1.00  0.00     0.167 HD
ATOM     67  C   UNL     1     -12.443   4.509   4.425  1.00  0.00     0.074 A 
ATOM     68  C   UNL     1     -12.243   4.842   5.823  1.00  0.00     0.031 C 
ATOM     69  C   UNL     1     -13.450   3.896   3.740  1.00  0.00     0.031 A 
BRANCH  56  70
ATOM     70  C   UNL     1     -14.053   3.723  -2.392  1.00  0.00    -0.014 A 
ATOM     71  C   UNL     1     -14.066   2.318  -2.497  1.00  0.00     0.009 A 
ATOM     72  C   UNL     1     -14.491   4.422  -3.529  1.00  0.00     0.009 A 
ATOM     73  C   UNL     1     -14.379   1.661  -3.694  1.00  0.00     0.001 A 
ATOM     74  C   UNL     1     -14.768   3.775  -4.743  1.00  0.00     0.001 A 
ATOM     75  C   UNL     1     -14.696   2.392  -4.830  1.00  0.00     0.000 A 
ENDBRANCH  56  70
BRANCH  57  76
ATOM     76  C   UNL     1      -8.900   7.614   4.749  1.00  0.00    -0.014 A 
ATOM     77  C   UNL     1      -7.553   7.941   4.993  1.00  0.00     0.009 A 
ATOM     78  C   UNL     1      -9.826   8.656   4.595  1.00  0.00     0.009 A 
ATOM     79  C   UNL     1      -7.126   9.272   4.981  1.00  0.00     0.001 A 
ATOM     80  C   UNL     1      -9.395   9.989   4.594  1.00  0.00     0.001 A 
ATOM     81  C   UNL     1      -8.044  10.294   4.753  1.00  0.00     0.000 A 
ENDBRANCH  57  76
BRANCH  69  82
ATOM     82  C   UNL     1     -14.797   3.535   4.304  1.00  0.00    -0.014 A 
ATOM     83  C   UNL     1     -15.421   4.237   5.343  1.00  0.00     0.009 A 
ATOM     84  C   UNL     1     -15.552   2.524   3.670  1.00  0.00     0.009 A 
ATOM     85  C   UNL     1     -16.720   3.913   5.759  1.00  0.00     0.001 A 
ATOM     86  C   UNL     1     -16.860   2.226   4.055  1.00  0.00     0.001 A 
ATOM     87  C   UNL     1     -17.441   2.915   5.110  1.00  0.00     0.000 A 
ENDBRANCH  69  82
ENDBRANCH  43  44
ENDBRANCH  35  38
ENDBRANCH  33  34
ENDBRANCH  32  33
ENDBRANCH  31  32
ENDBRANCH   1  31
TORSDOF 15
