REMARK SMILES CCCc1nc2cc(C(=O)NCCCCNC(=O)c3ccc(-c4c5nc(c(-c6ccccc6)c6ccc([nH]6)c(-c6ccccc6)c6nc(c(-c7ccccc7)c7ccc4[nH]7)C=C6)C=C5)cc3)ccc2n1[C@H](CO)C(C)C
REMARK SMILES IDX 13 1 12 2 11 3 9 4 10 5 8 7 4 8 5 9 70 10 6 11 69 12 7 13
REMARK SMILES IDX 68 14 67 15 3 16 2 17 1 18 71 19 74 20 75 21 76 22 72 23
REMARK SMILES IDX 73 24 14 26 15 27 16 28 17 29 18 31 19 32 20 33 66 34 21 35
REMARK SMILES IDX 65 36 22 37 23 38 24 39 59 40 25 41 64 42 58 43 60 44 26 45
REMARK SMILES IDX 63 46 57 47 56 48 27 50 49 51 34 52 48 53 35 54 38 55 47 56
REMARK SMILES IDX 61 57 36 58 37 59 46 61 62 62 39 63 28 64 29 65 33 66 30 67
REMARK SMILES IDX 32 68 31 69 50 70 51 71 55 72 52 73 54 74 53 75 40 76 41 77
REMARK SMILES IDX 45 78 42 79 44 80 43 81
REMARK H PARENT 11 6 73 25 16 30 60 49 38 60
REMARK Flexibility Score: inf
ROOT
ATOM      1  C   UNL     1       0.291  -3.913   4.288  1.00  0.00     0.023 C 
ENDROOT
BRANCH   1   2
ATOM      2  C   UNL     1      -1.083  -3.241   4.374  1.00  0.00     0.116 C 
BRANCH   2   3
ATOM      3  N   UNL     1      -0.950  -1.844   4.722  1.00  0.00    -0.352 N 
ATOM      4  C   UNL     1      -0.991  -0.675   4.001  1.00  0.00     0.251 C 
ATOM      5  O   UNL     1      -0.856   0.360   4.638  1.00  0.00    -0.269 OA
ATOM      6  H   UNL     1      -0.796  -1.699   5.684  1.00  0.00     0.163 HD
BRANCH   4   7
ATOM      7  C   UNL     1      -1.223  -0.601   2.524  1.00  0.00     0.042 A 
ATOM      8  C   UNL     1      -2.260   1.586  -1.313  1.00  0.00     0.110 A 
ATOM      9  N   UNL     1      -2.082   1.941  -0.055  1.00  0.00    -0.233 NA
ATOM     10  N   UNL     1      -1.875   0.268  -1.535  1.00  0.00    -0.322 N 
ATOM     11  C   UNL     1      -1.769   0.820   0.628  1.00  0.00     0.090 A 
ATOM     12  C   UNL     1      -1.706  -0.266  -0.234  1.00  0.00     0.069 A 
ATOM     13  C   UNL     1      -1.555   0.661   2.007  1.00  0.00     0.044 A 
ATOM     14  C   UNL     1      -1.449  -1.545   0.277  1.00  0.00     0.029 A 
ATOM     15  C   UNL     1      -1.121  -1.668   1.636  1.00  0.00     0.016 A 
BRANCH   8  16
ATOM     16  C   UNL     1      -2.889   2.567  -2.235  1.00  0.00     0.075 C 
BRANCH  16  17
ATOM     17  C   UNL     1      -4.346   2.214  -2.554  1.00  0.00     0.005 C 
ATOM     18  C   UNL     1      -5.314   2.451  -1.404  1.00  0.00     0.004 C 
ENDBRANCH  16  17
ENDBRANCH   8  16
BRANCH  10  19
ATOM     19  C   UNL     1      -1.714  -0.567  -2.755  1.00  0.00     0.117 C 
BRANCH  19  20
ATOM     20  C   UNL     1      -1.643  -0.026  -4.262  1.00  0.00     0.008 C 
ATOM     21  C   UNL     1      -1.441  -1.214  -5.254  1.00  0.00     0.009 C 
ATOM     22  C   UNL     1      -2.844   0.700  -4.869  1.00  0.00     0.009 C 
ENDBRANCH  19  20
BRANCH  19  23
ATOM     23  C   UNL     1      -0.415  -1.452  -2.599  1.00  0.00     0.181 C 
BRANCH  23  24
ATOM     24  O   UNL     1      -0.680  -2.829  -2.887  1.00  0.00    -0.394 OA
ATOM     25  H   UNL     1      -1.344  -3.167  -2.265  1.00  0.00     0.210 HD
ENDBRANCH  23  24
ENDBRANCH  19  23
ENDBRANCH  10  19
ENDBRANCH   4   7
ENDBRANCH   2   3
ENDBRANCH   1   2
BRANCH   1  26
ATOM     26  C   UNL     1       0.827  -4.392   5.650  1.00  0.00     0.023 C 
BRANCH  26  27
ATOM     27  C   UNL     1      -0.106  -5.371   6.372  1.00  0.00     0.116 C 
BRANCH  27  28
ATOM     28  N   UNL     1      -0.454  -6.506   5.539  1.00  0.00    -0.352 N 
ATOM     29  C   UNL     1       0.003  -7.784   5.394  1.00  0.00     0.251 C 
ATOM     30  H   UNL     1      -1.202  -6.306   4.931  1.00  0.00     0.163 HD
ATOM     31  O   UNL     1      -0.603  -8.481   4.576  1.00  0.00    -0.269 OA
BRANCH  29  32
ATOM     32  C   UNL     1       1.162  -8.376   6.114  1.00  0.00     0.039 A 
ATOM     33  C   UNL     1       2.023  -7.690   6.968  1.00  0.00     0.014 A 
ATOM     34  C   UNL     1       1.426  -9.735   5.849  1.00  0.00     0.014 A 
ATOM     35  C   UNL     1       3.136  -8.327   7.507  1.00  0.00     0.010 A 
ATOM     36  C   UNL     1       2.540 -10.376   6.383  1.00  0.00     0.010 A 
ATOM     37  C   UNL     1       3.419  -9.657   7.184  1.00  0.00    -0.014 A 
BRANCH  37  38
ATOM     38  C   UNL     1       4.650 -10.222   7.730  1.00  0.00     0.031 A 
ATOM     39  C   UNL     1       4.792 -10.188   9.216  1.00  0.00     0.074 A 
ATOM     40  C   UNL     1       5.622 -10.770   6.976  1.00  0.00     0.049 A 
ATOM     41  N   UNL     1       5.692  -9.582   9.923  1.00  0.00    -0.248 NA
ATOM     42  C   UNL     1       3.759 -10.866  10.012  1.00  0.00     0.031 C 
ATOM     43  C   UNL     1       5.590 -11.154   5.563  1.00  0.00     0.029 A 
ATOM     44  N   UNL     1       6.857 -11.178   7.381  1.00  0.00    -0.354 N 
ATOM     45  C   UNL     1       5.412  -9.881  11.256  1.00  0.00     0.074 A 
ATOM     46  C   UNL     1       4.173 -10.619  11.256  1.00  0.00     0.031 C 
ATOM     47  C   UNL     1       6.659 -11.940   5.292  1.00  0.00     0.029 A 
ATOM     48  C   UNL     1       7.523 -11.965   6.458  1.00  0.00     0.049 A 
ATOM     49  H   UNL     1       7.242 -10.933   8.253  1.00  0.00     0.167 HD
ATOM     50  C   UNL     1       6.270  -9.600  12.277  1.00  0.00     0.031 A 
ATOM     51  C   UNL     1       8.680 -12.636   6.667  1.00  0.00     0.031 A 
ATOM     52  C   UNL     1       7.261  -8.632  11.906  1.00  0.00     0.049 A 
ATOM     53  C   UNL     1       9.376 -11.997   7.806  1.00  0.00     0.074 A 
ATOM     54  C   UNL     1       7.234  -7.292  11.577  1.00  0.00     0.029 A 
ATOM     55  N   UNL     1       8.499  -9.086  11.527  1.00  0.00    -0.354 N 
ATOM     56  N   UNL     1       9.876 -10.796   7.769  1.00  0.00    -0.248 NA
ATOM     57  C   UNL     1       9.186 -12.556   9.133  1.00  0.00     0.031 C 
ATOM     58  C   UNL     1       8.249  -7.136  10.591  1.00  0.00     0.029 A 
ATOM     59  C   UNL     1       8.856  -8.381  10.407  1.00  0.00     0.049 A 
ATOM     60  H   UNL     1       9.030  -9.785  11.974  1.00  0.00     0.167 HD
ATOM     61  C   UNL     1       9.684 -10.291   9.046  1.00  0.00     0.074 A 
ATOM     62  C   UNL     1       9.360 -11.454   9.866  1.00  0.00     0.031 C 
ATOM     63  C   UNL     1       9.542  -8.951   9.267  1.00  0.00     0.031 A 
BRANCH  50  64
ATOM     64  C   UNL     1       6.364 -10.387  13.556  1.00  0.00    -0.014 A 
ATOM     65  C   UNL     1       5.848 -11.689  13.691  1.00  0.00     0.009 A 
ATOM     66  C   UNL     1       7.204  -9.930  14.590  1.00  0.00     0.009 A 
ATOM     67  C   UNL     1       6.147 -12.493  14.795  1.00  0.00     0.001 A 
ATOM     68  C   UNL     1       7.538 -10.748  15.677  1.00  0.00     0.001 A 
ATOM     69  C   UNL     1       7.010 -12.030  15.778  1.00  0.00     0.000 A 
ENDBRANCH  50  64
BRANCH  51  70
ATOM     70  C   UNL     1       8.996 -14.009   6.224  1.00  0.00    -0.014 A 
ATOM     71  C   UNL     1       7.963 -14.956   6.091  1.00  0.00     0.009 A 
ATOM     72  C   UNL     1      10.320 -14.473   6.223  1.00  0.00     0.009 A 
ATOM     73  C   UNL     1       8.240 -16.323   6.006  1.00  0.00     0.001 A 
ATOM     74  C   UNL     1      10.596 -15.844   6.138  1.00  0.00     0.001 A 
ATOM     75  C   UNL     1       9.557 -16.768   6.046  1.00  0.00     0.000 A 
ENDBRANCH  51  70
BRANCH  63  76
ATOM     76  C   UNL     1       9.822  -7.998   8.126  1.00  0.00    -0.014 A 
ATOM     77  C   UNL     1      10.694  -6.922   8.351  1.00  0.00     0.009 A 
ATOM     78  C   UNL     1       9.086  -8.019   6.928  1.00  0.00     0.009 A 
ATOM     79  C   UNL     1      10.812  -5.886   7.421  1.00  0.00     0.001 A 
ATOM     80  C   UNL     1       9.223  -6.994   5.985  1.00  0.00     0.001 A 
ATOM     81  C   UNL     1      10.075  -5.921   6.239  1.00  0.00     0.000 A 
ENDBRANCH  63  76
ENDBRANCH  37  38
ENDBRANCH  29  32
ENDBRANCH  27  28
ENDBRANCH  26  27
ENDBRANCH   1  26
TORSDOF 17
