REMARK SMILES Cc1c(C[NH2+]Cc2cccc(F)c2)c(C(=O)NCCCCNC(=O)c2ccc(-c3c4nc(c(-c5ccccc5)c5ccc([nH]5)c(-c5ccccc5)c5nc(c(-c6ccccc6)c6ccc3[nH]6)C=C5)C=C4)cc2)c(C)n1Cc1c(F)cccc1Cl
REMARK SMILES IDX 18 1 17 2 15 3 16 4 14 6 1 7 2 8 3 9 75 10 73 11 74 12 4 13
REMARK SMILES IDX 5 14 6 17 7 18 8 19 13 20 9 21 11 22 10 23 12 24 76 25 77 26
REMARK SMILES IDX 78 27 83 28 79 29 80 30 82 31 84 32 81 33 19 34 20 35 21 36
REMARK SMILES IDX 22 37 23 38 24 40 25 41 26 42 72 43 27 44 71 45 28 46 29 47
REMARK SMILES IDX 30 48 65 49 31 50 70 51 64 52 66 53 32 54 69 55 63 56 62 57
REMARK SMILES IDX 33 59 55 60 40 61 54 62 41 63 44 64 53 65 67 66 42 67 43 68
REMARK SMILES IDX 52 70 68 71 45 72 34 73 35 74 39 75 36 76 38 77 37 78 56 79
REMARK SMILES IDX 57 80 61 81 58 82 60 83 59 84 46 85 47 86 51 87 48 88 50 89
REMARK SMILES IDX 49 90
REMARK H PARENT 17 5 5 15 5 16 22 39 66 58 44 69
REMARK Flexibility Score: inf
ROOT
ATOM      1  C   UNL     1      -1.427  -2.365   5.945  1.00  0.00     0.116 C 
ENDROOT
BRANCH   1   2
ATOM      2  N   UNL     1      -0.837  -3.480   5.249  1.00  0.00    -0.352 N 
ATOM      3  C   UNL     1      -0.090  -3.503   4.084  1.00  0.00     0.253 C 
ATOM      4  O   UNL     1       0.322  -4.610   3.746  1.00  0.00    -0.269 OA
ATOM      5  H   UNL     1      -0.988  -4.359   5.665  1.00  0.00     0.163 HD
BRANCH   3   6
ATOM      6  C   UNL     1       0.083  -2.294   3.251  1.00  0.00     0.069 A 
ATOM      7  C   UNL     1       0.679  -0.406   0.057  1.00  0.00     0.065 C 
ATOM      8  C   UNL     1       0.336  -0.959   1.400  1.00  0.00     0.025 A 
ATOM      9  C   UNL     1       0.393  -2.286   1.834  1.00  0.00     0.040 A 
ATOM     10  N   UNL     1      -0.059  -0.201   2.489  1.00  0.00    -0.343 N 
ATOM     11  C   UNL     1       0.228  -0.954   3.619  1.00  0.00     0.028 A 
ATOM     12  C   UNL     1       0.686  -0.339   4.899  1.00  0.00     0.065 C 
BRANCH   9  13
ATOM     13  C   UNL     1       0.777  -3.486   0.998  1.00  0.00     0.300 C 
BRANCH  13  14
ATOM     14  N   UNL     1       2.148  -3.850   1.347  1.00  0.00    -0.339 N 
ATOM     15  H   UNL     1       2.159  -4.161   2.319  1.00  0.00     0.346 HD
ATOM     16  H   UNL     1       2.722  -3.021   1.193  1.00  0.00     0.346 HD
BRANCH  14  17
ATOM     17  C   UNL     1       2.711  -4.911   0.520  1.00  0.00     0.297 C 
BRANCH  17  18
ATOM     18  C   UNL     1       3.128  -4.523  -0.885  1.00  0.00     0.009 A 
ATOM     19  C   UNL     1       3.297  -3.191  -1.302  1.00  0.00     0.010 A 
ATOM     20  C   UNL     1       3.406  -5.542  -1.812  1.00  0.00     0.048 A 
ATOM     21  C   UNL     1       3.665  -2.884  -2.615  1.00  0.00     0.004 A 
ATOM     22  C   UNL     1       3.784  -5.227  -3.115  1.00  0.00     0.123 A 
ATOM     23  C   UNL     1       3.903  -3.907  -3.528  1.00  0.00     0.039 A 
ATOM     24  F   UNL     1       4.036  -6.213  -3.986  1.00  0.00    -0.207 F 
ENDBRANCH  17  18
ENDBRANCH  14  17
ENDBRANCH  13  14
ENDBRANCH   9  13
BRANCH  10  25
ATOM     25  C   UNL     1      -0.486   1.209   2.489  1.00  0.00     0.162 C 
BRANCH  25  26
ATOM     26  C   UNL     1      -1.989   1.394   2.590  1.00  0.00     0.026 A 
ATOM     27  C   UNL     1      -2.640   1.171   3.813  1.00  0.00     0.129 A 
ATOM     28  C   UNL     1      -2.797   1.854   1.537  1.00  0.00     0.048 A 
ATOM     29  F   UNL     1      -1.934   0.853   4.902  1.00  0.00    -0.207 F 
ATOM     30  C   UNL     1      -4.015   1.329   3.986  1.00  0.00     0.040 A 
ATOM     31  C   UNL     1      -4.182   2.038   1.706  1.00  0.00     0.021 A 
ATOM     32  Cl  UNL     1      -2.150   2.289  -0.004  1.00  0.00    -0.084 Cl
ATOM     33  C   UNL     1      -4.796   1.761   2.926  1.00  0.00     0.005 A 
ENDBRANCH  25  26
ENDBRANCH  10  25
ENDBRANCH   3   6
ENDBRANCH   1   2
BRANCH   1  34
ATOM     34  C   UNL     1      -2.689  -2.654   6.752  1.00  0.00     0.023 C 
BRANCH  34  35
ATOM     35  C   UNL     1      -2.665  -3.754   7.825  1.00  0.00     0.023 C 
BRANCH  35  36
ATOM     36  C   UNL     1      -1.373  -4.007   8.616  1.00  0.00     0.116 C 
BRANCH  36  37
ATOM     37  N   UNL     1      -1.339  -3.387   9.923  1.00  0.00    -0.352 N 
ATOM     38  C   UNL     1      -0.691  -3.838  11.059  1.00  0.00     0.251 C 
ATOM     39  H   UNL     1      -1.837  -2.543  10.015  1.00  0.00     0.163 HD
ATOM     40  O   UNL     1      -0.752  -3.157  12.080  1.00  0.00    -0.269 OA
BRANCH  38  41
ATOM     41  C   UNL     1      -0.034  -5.190  11.105  1.00  0.00     0.039 A 
ATOM     42  C   UNL     1      -0.754  -6.210  11.695  1.00  0.00     0.014 A 
ATOM     43  C   UNL     1       1.298  -5.476  10.751  1.00  0.00     0.014 A 
ATOM     44  C   UNL     1      -0.166  -7.484  11.878  1.00  0.00     0.010 A 
ATOM     45  C   UNL     1       1.925  -6.761  11.040  1.00  0.00     0.010 A 
ATOM     46  C   UNL     1       1.219  -7.815  11.646  1.00  0.00    -0.014 A 
BRANCH  46  47
ATOM     47  C   UNL     1       1.783  -9.065  12.482  1.00  0.00     0.031 A 
ATOM     48  C   UNL     1       1.101  -8.923  13.798  1.00  0.00     0.074 A 
ATOM     49  C   UNL     1       2.729 -10.083  12.516  1.00  0.00     0.049 A 
ATOM     50  N   UNL     1       1.282  -7.826  14.471  1.00  0.00    -0.248 NA
ATOM     51  C   UNL     1      -0.056  -9.721  14.204  1.00  0.00     0.031 C 
ATOM     52  C   UNL     1       3.793 -10.391  11.550  1.00  0.00     0.029 A 
ATOM     53  N   UNL     1       2.958 -11.123  13.470  1.00  0.00    -0.354 N 
ATOM     54  C   UNL     1       0.416  -7.874  15.529  1.00  0.00     0.074 A 
ATOM     55  C   UNL     1      -0.508  -8.953  15.203  1.00  0.00     0.031 C 
ATOM     56  C   UNL     1       4.429 -11.560  11.861  1.00  0.00     0.029 A 
ATOM     57  C   UNL     1       3.902 -12.134  13.098  1.00  0.00     0.049 A 
ATOM     58  H   UNL     1       2.492 -11.143  14.337  1.00  0.00     0.167 HD
ATOM     59  C   UNL     1       0.923  -7.511  16.740  1.00  0.00     0.031 A 
ATOM     60  C   UNL     1       4.287 -13.299  13.748  1.00  0.00     0.031 A 
ATOM     61  C   UNL     1       1.190  -8.667  17.553  1.00  0.00     0.049 A 
ATOM     62  C   UNL     1       4.020 -13.102  15.179  1.00  0.00     0.074 A 
ATOM     63  C   UNL     1       0.470  -9.812  17.831  1.00  0.00     0.029 A 
ATOM     64  N   UNL     1       2.518  -8.973  17.769  1.00  0.00    -0.354 N 
ATOM     65  N   UNL     1       4.846 -12.428  15.921  1.00  0.00    -0.248 NA
ATOM     66  C   UNL     1       2.937 -13.767  15.894  1.00  0.00     0.031 C 
ATOM     67  C   UNL     1       1.401 -10.865  17.676  1.00  0.00     0.029 A 
ATOM     68  C   UNL     1       2.688 -10.339  17.672  1.00  0.00     0.049 A 
ATOM     69  H   UNL     1       3.230  -8.321  17.961  1.00  0.00     0.167 HD
ATOM     70  C   UNL     1       4.104 -12.149  17.025  1.00  0.00     0.074 A 
ATOM     71  C   UNL     1       3.113 -13.205  17.093  1.00  0.00     0.031 C 
ATOM     72  C   UNL     1       4.010 -10.845  17.383  1.00  0.00     0.031 A 
BRANCH  59  73
ATOM     73  C   UNL     1       1.801  -6.283  16.701  1.00  0.00    -0.014 A 
ATOM     74  C   UNL     1       1.358  -5.109  17.317  1.00  0.00     0.009 A 
ATOM     75  C   UNL     1       2.984  -6.225  15.933  1.00  0.00     0.009 A 
ATOM     76  C   UNL     1       2.035  -3.901  17.105  1.00  0.00     0.001 A 
ATOM     77  C   UNL     1       3.630  -5.015  15.683  1.00  0.00     0.001 A 
ATOM     78  C   UNL     1       3.148  -3.849  16.264  1.00  0.00     0.000 A 
ENDBRANCH  59  73
BRANCH  60  79
ATOM     79  C   UNL     1       5.075 -14.614  13.589  1.00  0.00    -0.014 A 
ATOM     80  C   UNL     1       5.804 -15.135  14.710  1.00  0.00     0.009 A 
ATOM     81  C   UNL     1       4.801 -15.549  12.585  1.00  0.00     0.009 A 
ATOM     82  C   UNL     1       6.109 -16.497  14.885  1.00  0.00     0.001 A 
ATOM     83  C   UNL     1       5.148 -16.919  12.740  1.00  0.00     0.001 A 
ATOM     84  C   UNL     1       5.762 -17.399  13.900  1.00  0.00     0.000 A 
ENDBRANCH  60  79
BRANCH  72  85
ATOM     85  C   UNL     1       5.242  -9.968  17.186  1.00  0.00    -0.014 A 
ATOM     86  C   UNL     1       6.052  -9.944  16.027  1.00  0.00     0.009 A 
ATOM     87  C   UNL     1       5.637  -9.141  18.247  1.00  0.00     0.009 A 
ATOM     88  C   UNL     1       7.229  -9.189  15.960  1.00  0.00     0.001 A 
ATOM     89  C   UNL     1       6.783  -8.341  18.161  1.00  0.00     0.001 A 
ATOM     90  C   UNL     1       7.590  -8.380  17.027  1.00  0.00     0.000 A 
ENDBRANCH  72  85
ENDBRANCH  46  47
ENDBRANCH  38  41
ENDBRANCH  36  37
ENDBRANCH  35  36
ENDBRANCH  34  35
ENDBRANCH   1  34
TORSDOF 17
