REMARK SMILES Cc1c(Br)c(C)c2c(c1Br)O[C@H](C(F)(F)F)C(C(=O)NCCCCNC(=O)c1ccc(-c3c4nc(c(-c5ccccc5)c5ccc([nH]5)c(-c5ccccc5)c5nc(c(-c6ccccc6)c6ccc3[nH]6)C=C5)C=C4)cc1)=C2
REMARK SMILES IDX 23 1 22 2 21 3 20 4 18 5 19 6 17 8 1 9 2 10 3 11 9 12 4 13
REMARK SMILES IDX 5 14 8 15 10 16 6 17 7 18 11 19 76 20 12 21 13 22 14 23
REMARK SMILES IDX 15 24 16 25 24 26 25 27 26 28 27 30 28 31 29 32 75 33 30 34
REMARK SMILES IDX 74 35 31 36 32 37 33 38 68 39 34 40 73 41 67 42 69 43 35 44
REMARK SMILES IDX 72 45 66 46 65 47 36 49 58 50 43 51 57 52 44 53 47 54 56 55
REMARK SMILES IDX 70 56 45 57 46 58 55 60 71 61 48 62 37 63 38 64 42 65 39 66
REMARK SMILES IDX 41 67 40 68 59 69 60 70 64 71 61 72 63 73 62 74 49 75 50 76
REMARK SMILES IDX 54 77 51 78 53 79 52 80
REMARK H PARENT 20 7 25 29 69 48 47 59
REMARK Flexibility Score: inf
ROOT
ATOM      1  C   UNL     1      -6.042   7.644   3.459  1.00  0.00     0.023 C 
ENDROOT
BRANCH   1   2
ATOM      2  C   UNL     1      -5.330   6.396   2.930  1.00  0.00     0.023 C 
BRANCH   2   3
ATOM      3  C   UNL     1      -4.989   6.456   1.444  1.00  0.00     0.116 C 
BRANCH   3   4
ATOM      4  N   UNL     1      -3.728   7.135   1.206  1.00  0.00    -0.352 N 
ATOM      5  C   UNL     1      -2.455   6.778   0.917  1.00  0.00     0.251 C 
ATOM      6  O   UNL     1      -1.661   7.719   0.809  1.00  0.00    -0.270 OA
ATOM      7  H   UNL     1      -3.825   8.112   1.272  1.00  0.00     0.163 HD
BRANCH   5   8
ATOM      8  C   UNL     1      -1.970   5.379   0.724  1.00  0.00     0.067 C 
ATOM      9  C   UNL     1       1.440  -0.160  -0.139  1.00  0.00     0.047 C 
ATOM     10  C   UNL     1       0.944   1.259   0.021  1.00  0.00    -0.019 A 
ATOM     11  C   UNL     1       1.768   2.386  -0.224  1.00  0.00     0.025 A 
ATOM     12  C   UNL     1      -0.399   1.487   0.379  1.00  0.00     0.064 A 
ATOM     13  Br  UNL     1       3.577   2.109  -0.805  1.00  0.00    -0.050 Br
ATOM     14  C   UNL     1       1.281   3.712  -0.063  1.00  0.00    -0.026 A 
ATOM     15  C   UNL     1      -0.892   2.791   0.537  1.00  0.00     0.142 A 
ATOM     16  Br  UNL     1      -1.619   0.027   0.626  1.00  0.00    -0.046 Br
ATOM     17  C   UNL     1       2.147   4.932  -0.296  1.00  0.00     0.046 C 
ATOM     18  C   UNL     1      -0.064   3.902   0.338  1.00  0.00     0.022 A 
ATOM     19  O   UNL     1      -2.193   2.929   0.947  1.00  0.00    -0.474 OA
ATOM     20  C   UNL     1      -0.640   5.232   0.586  1.00  0.00     0.026 C 
ATOM     21  C   UNL     1      -2.857   4.178   0.639  1.00  0.00     0.314 C 
BRANCH  21  22
ATOM     22  C   UNL     1      -3.588   4.064  -0.712  1.00  0.00     0.429 C 
ATOM     23  F   UNL     1      -4.599   3.165  -0.632  1.00  0.00    -0.167 F 
ATOM     24  F   UNL     1      -4.149   5.237  -1.094  1.00  0.00    -0.167 F 
ATOM     25  F   UNL     1      -2.772   3.673  -1.715  1.00  0.00    -0.167 F 
ENDBRANCH  21  22
ENDBRANCH   5   8
ENDBRANCH   3   4
ENDBRANCH   2   3
ENDBRANCH   1   2
BRANCH   1  26
ATOM     26  C   UNL     1      -7.322   8.031   2.720  1.00  0.00     0.116 C 
BRANCH  26  27
ATOM     27  N   UNL     1      -8.273   6.938   2.574  1.00  0.00    -0.352 N 
ATOM     28  C   UNL     1      -9.644   7.013   2.522  1.00  0.00     0.251 C 
ATOM     29  H   UNL     1      -7.887   6.035   2.503  1.00  0.00     0.163 HD
ATOM     30  O   UNL     1     -10.331   6.000   2.464  1.00  0.00    -0.269 OA
BRANCH  28  31
ATOM     31  C   UNL     1     -10.278   8.342   2.587  1.00  0.00     0.039 A 
ATOM     32  C   UNL     1     -11.194   8.597   3.610  1.00  0.00     0.014 A 
ATOM     33  C   UNL     1      -9.901   9.347   1.693  1.00  0.00     0.014 A 
ATOM     34  C   UNL     1     -11.676   9.893   3.785  1.00  0.00     0.010 A 
ATOM     35  C   UNL     1     -10.338  10.649   1.905  1.00  0.00     0.010 A 
ATOM     36  C   UNL     1     -11.220  10.934   2.959  1.00  0.00    -0.014 A 
BRANCH  36  37
ATOM     37  C   UNL     1     -11.648  12.332   3.192  1.00  0.00     0.031 A 
ATOM     38  C   UNL     1     -12.519  13.028   2.188  1.00  0.00     0.074 A 
ATOM     39  C   UNL     1     -11.208  12.989   4.282  1.00  0.00     0.049 A 
ATOM     40  N   UNL     1     -12.962  14.259   2.197  1.00  0.00    -0.248 NA
ATOM     41  C   UNL     1     -12.930  12.246   1.011  1.00  0.00     0.031 C 
ATOM     42  C   UNL     1     -10.330  12.431   5.313  1.00  0.00     0.029 A 
ATOM     43  N   UNL     1     -11.443  14.273   4.705  1.00  0.00    -0.354 N 
ATOM     44  C   UNL     1     -13.694  14.400   1.026  1.00  0.00     0.074 A 
ATOM     45  C   UNL     1     -13.597  13.149   0.308  1.00  0.00     0.031 C 
ATOM     46  C   UNL     1     -10.131  13.355   6.268  1.00  0.00     0.029 A 
ATOM     47  C   UNL     1     -10.839  14.577   5.901  1.00  0.00     0.049 A 
ATOM     48  H   UNL     1     -11.993  14.914   4.200  1.00  0.00     0.167 HD
ATOM     49  C   UNL     1     -14.403  15.470   0.597  1.00  0.00     0.031 A 
ATOM     50  C   UNL     1     -10.859  15.713   6.623  1.00  0.00     0.031 A 
ATOM     51  C   UNL     1     -14.511  16.710   1.315  1.00  0.00     0.049 A 
ATOM     52  C   UNL     1     -11.642  16.891   6.119  1.00  0.00     0.074 A 
ATOM     53  C   UNL     1     -15.239  17.838   0.981  1.00  0.00     0.029 A 
ATOM     54  N   UNL     1     -13.877  16.981   2.517  1.00  0.00    -0.354 N 
ATOM     55  N   UNL     1     -12.363  16.996   5.029  1.00  0.00    -0.248 NA
ATOM     56  C   UNL     1     -11.618  18.106   6.946  1.00  0.00     0.031 C 
ATOM     57  C   UNL     1     -15.018  18.806   1.966  1.00  0.00     0.029 A 
ATOM     58  C   UNL     1     -14.185  18.264   2.932  1.00  0.00     0.049 A 
ATOM     59  H   UNL     1     -13.293  16.354   3.003  1.00  0.00     0.167 HD
ATOM     60  C   UNL     1     -12.895  18.277   5.050  1.00  0.00     0.074 A 
ATOM     61  C   UNL     1     -12.422  18.910   6.264  1.00  0.00     0.031 C 
ATOM     62  C   UNL     1     -13.704  18.875   4.143  1.00  0.00     0.031 A 
BRANCH  49  63
ATOM     63  C   UNL     1     -15.123  15.337  -0.713  1.00  0.00    -0.014 A 
ATOM     64  C   UNL     1     -16.279  14.547  -0.820  1.00  0.00     0.009 A 
ATOM     65  C   UNL     1     -14.662  16.029  -1.842  1.00  0.00     0.009 A 
ATOM     66  C   UNL     1     -16.942  14.430  -2.042  1.00  0.00     0.001 A 
ATOM     67  C   UNL     1     -15.341  15.928  -3.057  1.00  0.00     0.001 A 
ATOM     68  C   UNL     1     -16.475  15.124  -3.158  1.00  0.00     0.000 A 
ENDBRANCH  49  63
BRANCH  50  69
ATOM     69  C   UNL     1     -10.143  15.776   7.921  1.00  0.00    -0.014 A 
ATOM     70  C   UNL     1     -10.864  15.738   9.125  1.00  0.00     0.009 A 
ATOM     71  C   UNL     1      -8.743  15.857   7.968  1.00  0.00     0.009 A 
ATOM     72  C   UNL     1     -10.197  15.796  10.350  1.00  0.00     0.001 A 
ATOM     73  C   UNL     1      -8.078  15.894   9.196  1.00  0.00     0.001 A 
ATOM     74  C   UNL     1      -8.806  15.869  10.385  1.00  0.00     0.000 A 
ENDBRANCH  50  69
BRANCH  62  75
ATOM     75  C   UNL     1     -14.149  20.278   4.434  1.00  0.00    -0.014 A 
ATOM     76  C   UNL     1     -13.284  21.364   4.240  1.00  0.00     0.009 A 
ATOM     77  C   UNL     1     -15.472  20.518   4.836  1.00  0.00     0.009 A 
ATOM     78  C   UNL     1     -13.732  22.668   4.459  1.00  0.00     0.001 A 
ATOM     79  C   UNL     1     -15.923  21.824   5.034  1.00  0.00     0.001 A 
ATOM     80  C   UNL     1     -15.052  22.896   4.849  1.00  0.00     0.000 A 
ENDBRANCH  62  75
ENDBRANCH  36  37
ENDBRANCH  28  31
ENDBRANCH  26  27
ENDBRANCH   1  26
TORSDOF 12
