REMARK SMILES Cc1c(Cl)ccc2c1C=C(C(=O)NCCCCNC(=O)c1ccc(-c3c4nc(c(-c5ccccc5)c5ccc([nH]5)c(-c5ccccc5)c5nc(c(-c6ccccc6)c6ccc3[nH]6)C=C5)C=C4)cc1)[C@@H](C(F)(F)F)O2
REMARK SMILES IDX 16 1 15 2 14 3 13 4 11 5 12 6 10 8 1 9 2 10 3 11 8 12 4 13
REMARK SMILES IDX 5 14 7 15 9 16 6 17 74 18 69 19 70 20 71 21 72 22 73 23
REMARK SMILES IDX 17 24 18 25 19 26 20 28 21 29 22 30 68 31 23 32 67 33 24 34
REMARK SMILES IDX 25 35 26 36 61 37 27 38 66 39 60 40 62 41 28 42 65 43 59 44
REMARK SMILES IDX 58 45 29 47 51 48 36 49 50 50 37 51 40 52 49 53 63 54 38 55
REMARK SMILES IDX 39 56 48 58 64 59 41 60 30 61 31 62 35 63 32 64 34 65 33 66
REMARK SMILES IDX 52 67 53 68 57 69 54 70 56 71 55 72 42 73 43 74 47 75 44 76
REMARK SMILES IDX 46 77 45 78
REMARK H PARENT 13 7 18 27 62 46 40 57
REMARK Flexibility Score: inf
ROOT
ATOM      1  C   UNL     1      -3.433   6.617  -4.891  1.00  0.00     0.023 C 
ENDROOT
BRANCH   1   2
ATOM      2  C   UNL     1      -2.949   5.175  -5.058  1.00  0.00     0.023 C 
BRANCH   2   3
ATOM      3  C   UNL     1      -1.438   5.008  -4.937  1.00  0.00     0.116 C 
BRANCH   3   4
ATOM      4  N   UNL     1      -1.012   4.948  -3.551  1.00  0.00    -0.352 N 
ATOM      5  C   UNL     1      -0.585   3.998  -2.688  1.00  0.00     0.251 C 
ATOM      6  O   UNL     1      -0.334   4.406  -1.549  1.00  0.00    -0.270 OA
ATOM      7  H   UNL     1      -1.040   5.835  -3.126  1.00  0.00     0.163 HD
BRANCH   5   8
ATOM      8  C   UNL     1      -0.402   2.550  -3.010  1.00  0.00     0.067 C 
ATOM      9  C   UNL     1       1.093  -0.053   0.179  1.00  0.00     0.047 C 
ATOM     10  C   UNL     1       0.658  -0.544  -1.180  1.00  0.00    -0.021 A 
ATOM     11  C   UNL     1       0.836  -1.908  -1.507  1.00  0.00     0.044 A 
ATOM     12  C   UNL     1       0.134   0.321  -2.172  1.00  0.00     0.022 A 
ATOM     13  Cl  UNL     1       1.523  -3.038  -0.388  1.00  0.00    -0.084 Cl
ATOM     14  C   UNL     1       0.470  -2.411  -2.758  1.00  0.00     0.024 A 
ATOM     15  C   UNL     1      -0.210  -0.206  -3.428  1.00  0.00     0.128 A 
ATOM     16  C   UNL     1      -0.109   1.753  -1.964  1.00  0.00     0.026 C 
ATOM     17  C   UNL     1      -0.061  -1.560  -3.716  1.00  0.00     0.048 A 
ATOM     18  O   UNL     1      -0.746   0.546  -4.435  1.00  0.00    -0.475 OA
ATOM     19  C   UNL     1      -0.483   1.972  -4.389  1.00  0.00     0.314 C 
BRANCH  19  20
ATOM     20  C   UNL     1       0.754   2.297  -5.246  1.00  0.00     0.429 C 
ATOM     21  F   UNL     1       0.508   2.030  -6.554  1.00  0.00    -0.167 F 
ATOM     22  F   UNL     1       1.098   3.605  -5.183  1.00  0.00    -0.167 F 
ATOM     23  F   UNL     1       1.844   1.585  -4.884  1.00  0.00    -0.167 F 
ENDBRANCH  19  20
ENDBRANCH   5   8
ENDBRANCH   3   4
ENDBRANCH   2   3
ENDBRANCH   1   2
BRANCH   1  24
ATOM     24  C   UNL     1      -2.785   7.635  -5.827  1.00  0.00     0.116 C 
BRANCH  24  25
ATOM     25  N   UNL     1      -2.833   7.249  -7.231  1.00  0.00    -0.352 N 
ATOM     26  C   UNL     1      -2.993   8.066  -8.323  1.00  0.00     0.251 C 
ATOM     27  H   UNL     1      -2.741   6.287  -7.419  1.00  0.00     0.163 HD
ATOM     28  O   UNL     1      -3.081   7.609  -9.456  1.00  0.00    -0.269 OA
BRANCH  26  29
ATOM     29  C   UNL     1      -3.099   9.515  -8.091  1.00  0.00     0.039 A 
ATOM     30  C   UNL     1      -4.287  10.162  -8.430  1.00  0.00     0.014 A 
ATOM     31  C   UNL     1      -2.060  10.194  -7.447  1.00  0.00     0.014 A 
ATOM     32  C   UNL     1      -4.464  11.492  -8.060  1.00  0.00     0.010 A 
ATOM     33  C   UNL     1      -2.256  11.509  -7.042  1.00  0.00     0.010 A 
ATOM     34  C   UNL     1      -3.462  12.162  -7.338  1.00  0.00    -0.014 A 
BRANCH  34  35
ATOM     35  C   UNL     1      -3.669  13.555  -6.888  1.00  0.00     0.031 A 
ATOM     36  C   UNL     1      -2.922  14.671  -7.550  1.00  0.00     0.074 A 
ATOM     37  C   UNL     1      -4.512  13.805  -5.868  1.00  0.00     0.049 A 
ATOM     38  N   UNL     1      -2.979  15.954  -7.305  1.00  0.00    -0.248 NA
ATOM     39  C   UNL     1      -1.979  14.298  -8.617  1.00  0.00     0.031 C 
ATOM     40  C   UNL     1      -5.274  12.795  -5.130  1.00  0.00     0.029 A 
ATOM     41  N   UNL     1      -4.875  14.991  -5.285  1.00  0.00    -0.354 N 
ATOM     42  C   UNL     1      -2.084  16.541  -8.187  1.00  0.00     0.074 A 
ATOM     43  C   UNL     1      -1.463  15.475  -8.941  1.00  0.00     0.031 C 
ATOM     44  C   UNL     1      -6.042  13.410  -4.215  1.00  0.00     0.029 A 
ATOM     45  C   UNL     1      -5.811  14.850  -4.290  1.00  0.00     0.049 A 
ATOM     46  H   UNL     1      -4.501  15.861  -5.553  1.00  0.00     0.167 HD
ATOM     47  C   UNL     1      -1.821  17.855  -8.369  1.00  0.00     0.031 A 
ATOM     48  C   UNL     1      -6.423  15.778  -3.532  1.00  0.00     0.031 A 
ATOM     49  C   UNL     1      -2.445  18.915  -7.630  1.00  0.00     0.049 A 
ATOM     50  C   UNL     1      -6.098  17.229  -3.737  1.00  0.00     0.074 A 
ATOM     51  C   UNL     1      -2.272  20.280  -7.773  1.00  0.00     0.029 A 
ATOM     52  N   UNL     1      -3.364  18.727  -6.611  1.00  0.00    -0.354 N 
ATOM     53  N   UNL     1      -5.277  17.772  -4.602  1.00  0.00    -0.248 NA
ATOM     54  C   UNL     1      -6.785  18.195  -2.866  1.00  0.00     0.031 C 
ATOM     55  C   UNL     1      -3.069  20.920  -6.819  1.00  0.00     0.029 A 
ATOM     56  C   UNL     1      -3.759  19.952  -6.105  1.00  0.00     0.049 A 
ATOM     57  H   UNL     1      -3.688  17.853  -6.295  1.00  0.00     0.167 HD
ATOM     58  C   UNL     1      -5.358  19.142  -4.392  1.00  0.00     0.074 A 
ATOM     59  C   UNL     1      -6.310  19.349  -3.320  1.00  0.00     0.031 C 
ATOM     60  C   UNL     1      -4.703  20.136  -5.036  1.00  0.00     0.031 A 
BRANCH  47  61
ATOM     61  C   UNL     1      -0.821  18.213  -9.425  1.00  0.00    -0.014 A 
ATOM     62  C   UNL     1      -1.169  18.163 -10.784  1.00  0.00     0.009 A 
ATOM     63  C   UNL     1       0.465  18.637  -9.062  1.00  0.00     0.009 A 
ATOM     64  C   UNL     1      -0.237  18.511 -11.763  1.00  0.00     0.001 A 
ATOM     65  C   UNL     1       1.389  19.002 -10.043  1.00  0.00     0.001 A 
ATOM     66  C   UNL     1       1.039  18.933 -11.391  1.00  0.00     0.000 A 
ENDBRANCH  47  61
BRANCH  48  67
ATOM     67  C   UNL     1      -7.442  15.355  -2.542  1.00  0.00    -0.014 A 
ATOM     68  C   UNL     1      -8.807  15.474  -2.844  1.00  0.00     0.009 A 
ATOM     69  C   UNL     1      -7.060  14.793  -1.315  1.00  0.00     0.009 A 
ATOM     70  C   UNL     1      -9.772  15.040  -1.932  1.00  0.00     0.001 A 
ATOM     71  C   UNL     1      -8.028  14.348  -0.411  1.00  0.00     0.001 A 
ATOM     72  C   UNL     1      -9.382  14.474  -0.720  1.00  0.00     0.000 A 
ENDBRANCH  48  67
BRANCH  60  73
ATOM     73  C   UNL     1      -4.989  21.546  -4.614  1.00  0.00    -0.014 A 
ATOM     74  C   UNL     1      -4.354  22.097  -3.493  1.00  0.00     0.009 A 
ATOM     75  C   UNL     1      -5.806  22.360  -5.413  1.00  0.00     0.009 A 
ATOM     76  C   UNL     1      -4.535  23.445  -3.177  1.00  0.00     0.001 A 
ATOM     77  C   UNL     1      -5.973  23.709  -5.103  1.00  0.00     0.001 A 
ATOM     78  C   UNL     1      -5.338  24.250  -3.986  1.00  0.00     0.000 A 
ENDBRANCH  60  73
ENDBRANCH  34  35
ENDBRANCH  26  29
ENDBRANCH  24  25
ENDBRANCH   1  24
TORSDOF 12
