REMARK SMILES COCCCC(=O)N[C@H]1CC[C@@H](C(=O)NCCCCNC(=O)c2ccc(-c3c4nc(c(-c5ccccc5)c5ccc([nH]5)c(-c5ccccc5)c5nc(c(-c6ccccc6)c6ccc3[nH]6)C=C5)C=C4)cc2)CC1
REMARK SMILES IDX 16 1 15 2 13 3 14 4 12 6 9 7 10 8 72 9 11 10 71 11 8 12 6 13
REMARK SMILES IDX 7 14 5 16 4 17 3 18 2 19 1 20 17 21 18 22 19 23 20 24 21 25
REMARK SMILES IDX 22 27 23 28 24 29 70 30 25 31 69 32 26 33 27 34 28 35 63 36
REMARK SMILES IDX 29 37 68 38 62 39 64 40 30 41 67 42 61 43 60 44 31 46 53 47
REMARK SMILES IDX 38 48 52 49 39 50 42 51 51 52 65 53 40 54 41 55 50 57 66 58
REMARK SMILES IDX 43 59 32 60 33 61 37 62 34 63 36 64 35 65 54 66 55 67 59 68
REMARK SMILES IDX 56 69 58 70 57 71 44 72 45 73 49 74 46 75 48 76 47 77
REMARK H PARENT 15 5 8 15 20 26 64 45 42 56
REMARK Flexibility Score: inf
ROOT
ATOM      1  C   UNL     1       0.681  -1.493   1.488  1.00  0.00     0.116 C 
ENDROOT
BRANCH   1   2
ATOM      2  N   UNL     1      -0.212  -1.878   0.416  1.00  0.00    -0.356 N 
ATOM      3  C   UNL     1      -0.201  -1.714  -0.924  1.00  0.00     0.223 C 
ATOM      4  O   UNL     1      -1.306  -1.845  -1.469  1.00  0.00    -0.275 OA
ATOM      5  H   UNL     1      -1.005  -2.368   0.735  1.00  0.00     0.163 HD
BRANCH   3   6
ATOM      6  C   UNL     1       1.021  -1.425  -1.808  1.00  0.00     0.078 C 
ATOM      7  C   UNL     1       3.042   0.801  -1.365  1.00  0.00     0.082 C 
ATOM      8  C   UNL     1       3.235  -0.589  -0.755  1.00  0.00     0.026 C 
ATOM      9  C   UNL     1       1.775   1.054  -2.153  1.00  0.00     0.026 C 
ATOM     10  C   UNL     1       2.440  -1.737  -1.371  1.00  0.00     0.015 C 
ATOM     11  C   UNL     1       0.916  -0.124  -2.605  1.00  0.00     0.015 C 
BRANCH   7  12
ATOM     12  N   UNL     1       3.449   1.873  -0.413  1.00  0.00    -0.353 N 
ATOM     13  C   UNL     1       2.978   2.817   0.434  1.00  0.00     0.220 C 
ATOM     14  O   UNL     1       3.864   3.424   1.053  1.00  0.00    -0.275 OA
ATOM     15  H   UNL     1       4.432   1.907  -0.392  1.00  0.00     0.163 HD
BRANCH  13  16
ATOM     16  C   UNL     1       1.532   3.160   0.761  1.00  0.00     0.102 C 
BRANCH  16  17
ATOM     17  C   UNL     1       0.867   4.351   0.067  1.00  0.00     0.038 C 
BRANCH  17  18
ATOM     18  C   UNL     1       0.204   4.092  -1.285  1.00  0.00     0.160 C 
BRANCH  18  19
ATOM     19  O   UNL     1      -1.056   3.422  -1.307  1.00  0.00    -0.385 OA
ATOM     20  C   UNL     1      -1.254   2.277  -0.504  1.00  0.00     0.194 C 
ENDBRANCH  18  19
ENDBRANCH  17  18
ENDBRANCH  16  17
ENDBRANCH  13  16
ENDBRANCH   7  12
ENDBRANCH   3   6
ENDBRANCH   1   2
BRANCH   1  21
ATOM     21  C   UNL     1       0.490  -0.014   1.802  1.00  0.00     0.023 C 
BRANCH  21  22
ATOM     22  C   UNL     1       0.204   0.342   3.251  1.00  0.00     0.023 C 
BRANCH  22  23
ATOM     23  C   UNL     1       1.360   0.099   4.200  1.00  0.00     0.116 C 
BRANCH  23  24
ATOM     24  N   UNL     1       2.431   1.087   4.140  1.00  0.00    -0.352 N 
ATOM     25  C   UNL     1       3.089   1.712   5.184  1.00  0.00     0.251 C 
ATOM     26  H   UNL     1       2.724   1.344   3.236  1.00  0.00     0.163 HD
ATOM     27  O   UNL     1       3.974   2.535   4.965  1.00  0.00    -0.269 OA
BRANCH  25  28
ATOM     28  C   UNL     1       2.677   1.438   6.579  1.00  0.00     0.039 A 
ATOM     29  C   UNL     1       2.479   2.506   7.458  1.00  0.00     0.014 A 
ATOM     30  C   UNL     1       2.378   0.140   6.987  1.00  0.00     0.014 A 
ATOM     31  C   UNL     1       1.859   2.281   8.691  1.00  0.00     0.010 A 
ATOM     32  C   UNL     1       1.624  -0.056   8.134  1.00  0.00     0.010 A 
ATOM     33  C   UNL     1       1.358   1.008   9.009  1.00  0.00    -0.014 A 
BRANCH  33  34
ATOM     34  C   UNL     1       0.569   0.748  10.244  1.00  0.00     0.031 A 
ATOM     35  C   UNL     1       1.002  -0.344  11.191  1.00  0.00     0.074 A 
ATOM     36  C   UNL     1      -0.585   1.410  10.471  1.00  0.00     0.049 A 
ATOM     37  N   UNL     1       0.383  -0.827  12.239  1.00  0.00    -0.248 NA
ATOM     38  C   UNL     1       2.272  -1.024  10.884  1.00  0.00     0.031 C 
ATOM     39  C   UNL     1      -1.168   2.439   9.606  1.00  0.00     0.029 A 
ATOM     40  N   UNL     1      -1.480   1.311  11.508  1.00  0.00    -0.354 N 
ATOM     41  C   UNL     1       1.158  -1.895  12.672  1.00  0.00     0.074 A 
ATOM     42  C   UNL     1       2.249  -2.036  11.736  1.00  0.00     0.031 C 
ATOM     43  C   UNL     1      -2.288   2.913  10.175  1.00  0.00     0.029 A 
ATOM     44  C   UNL     1      -2.530   2.193  11.420  1.00  0.00     0.049 A 
ATOM     45  H   UNL     1      -1.379   0.667  12.246  1.00  0.00     0.167 HD
ATOM     46  C   UNL     1       1.006  -2.669  13.773  1.00  0.00     0.031 A 
ATOM     47  C   UNL     1      -3.567   2.405  12.252  1.00  0.00     0.031 A 
ATOM     48  C   UNL     1      -0.032  -2.484  14.747  1.00  0.00     0.049 A 
ATOM     49  C   UNL     1      -3.680   1.581  13.505  1.00  0.00     0.074 A 
ATOM     50  C   UNL     1      -0.227  -3.155  15.941  1.00  0.00     0.029 A 
ATOM     51  N   UNL     1      -1.040  -1.538  14.646  1.00  0.00    -0.354 N 
ATOM     52  N   UNL     1      -2.903   0.615  13.932  1.00  0.00    -0.248 NA
ATOM     53  C   UNL     1      -4.806   1.888  14.399  1.00  0.00     0.031 C 
ATOM     54  C   UNL     1      -1.371  -2.630  16.552  1.00  0.00     0.029 A 
ATOM     55  C   UNL     1      -1.862  -1.607  15.757  1.00  0.00     0.049 A 
ATOM     56  H   UNL     1      -1.154  -0.910  13.897  1.00  0.00     0.167 HD
ATOM     57  C   UNL     1      -3.427   0.220  15.156  1.00  0.00     0.074 A 
ATOM     58  C   UNL     1      -4.579   1.061  15.410  1.00  0.00     0.031 C 
ATOM     59  C   UNL     1      -2.995  -0.752  15.995  1.00  0.00     0.031 A 
BRANCH  46  60
ATOM     60  C   UNL     1       2.009  -3.771  13.982  1.00  0.00    -0.014 A 
ATOM     61  C   UNL     1       3.352  -3.486  14.284  1.00  0.00     0.009 A 
ATOM     62  C   UNL     1       1.611  -5.111  13.870  1.00  0.00     0.009 A 
ATOM     63  C   UNL     1       4.284  -4.516  14.413  1.00  0.00     0.001 A 
ATOM     64  C   UNL     1       2.538  -6.142  14.035  1.00  0.00     0.001 A 
ATOM     65  C   UNL     1       3.876  -5.843  14.291  1.00  0.00     0.000 A 
ENDBRANCH  46  60
BRANCH  47  66
ATOM     66  C   UNL     1      -4.557   3.476  11.962  1.00  0.00    -0.014 A 
ATOM     67  C   UNL     1      -4.568   4.651  12.731  1.00  0.00     0.009 A 
ATOM     68  C   UNL     1      -5.497   3.332  10.932  1.00  0.00     0.009 A 
ATOM     69  C   UNL     1      -5.519   5.646  12.494  1.00  0.00     0.001 A 
ATOM     70  C   UNL     1      -6.430   4.341  10.679  1.00  0.00     0.001 A 
ATOM     71  C   UNL     1      -6.447   5.492  11.466  1.00  0.00     0.000 A 
ENDBRANCH  47  66
BRANCH  59  72
ATOM     72  C   UNL     1      -3.744  -0.929  17.284  1.00  0.00    -0.014 A 
ATOM     73  C   UNL     1      -5.015  -1.522  17.312  1.00  0.00     0.009 A 
ATOM     74  C   UNL     1      -3.145  -0.536  18.491  1.00  0.00     0.009 A 
ATOM     75  C   UNL     1      -5.686  -1.689  18.525  1.00  0.00     0.001 A 
ATOM     76  C   UNL     1      -3.806  -0.729  19.703  1.00  0.00     0.001 A 
ATOM     77  C   UNL     1      -5.079  -1.298  19.719  1.00  0.00     0.000 A 
ENDBRANCH  59  72
ENDBRANCH  33  34
ENDBRANCH  25  28
ENDBRANCH  23  24
ENDBRANCH  22  23
ENDBRANCH  21  22
ENDBRANCH   1  21
TORSDOF 16
