REMARK SMILES O=C(NCCCCNC(=O)c1cccc([C@@H]2CCC[N@@H+](Cc3cccc(OCCO)c3)C2)c1)c1ccc(-c2c3nc(c(-c4ccccc4)c4ccc([nH]4)c(-c4ccccc4)c4nc(c(-c5ccccc5)c5ccc2[nH]5)C=C4)C=C3)cc1
REMARK SMILES IDX 8 1 9 2 10 3 7 5 6 6 5 7 4 8 3 9 1 10 2 11 34 13 35 14 81 15
REMARK SMILES IDX 36 16 80 17 37 18 38 19 39 20 74 21 40 22 79 23 73 24 75 25
REMARK SMILES IDX 41 26 78 27 72 28 71 29 42 31 64 32 49 33 63 34 50 35 53 36
REMARK SMILES IDX 62 37 76 38 51 39 52 40 61 42 77 43 54 44 43 45 44 46 48 47
REMARK SMILES IDX 45 48 47 49 46 50 65 51 66 52 70 53 67 54 69 55 68 56 55 57
REMARK SMILES IDX 56 58 60 59 57 60 59 61 58 62 11 63 12 64 33 65 13 66 15 67
REMARK SMILES IDX 14 68 16 69 17 70 32 71 18 72 20 73 19 74 21 76 22 77 23 78
REMARK SMILES IDX 31 79 24 80 26 81 25 82 27 83 28 84 29 85 30 86
REMARK H PARENT 8 4 3 12 75 30 53 41 20 75 30 87
REMARK Flexibility Score: inf
ROOT
ATOM      1  N   UNL     1       6.524  -3.228   2.970  1.00  0.00    -0.352 N 
ATOM      2  C   UNL     1       7.321  -4.201   3.533  1.00  0.00     0.251 C 
ATOM      3  O   UNL     1       8.524  -4.008   3.673  1.00  0.00    -0.269 OA
ATOM      4  H   UNL     1       7.000  -2.455   2.590  1.00  0.00     0.163 HD
ENDROOT
BRANCH   1   5
ATOM      5  C   UNL     1       5.070  -3.188   2.861  1.00  0.00     0.116 C 
BRANCH   5   6
ATOM      6  C   UNL     1       4.485  -1.822   3.200  1.00  0.00     0.023 C 
BRANCH   6   7
ATOM      7  C   UNL     1       4.904  -0.692   2.264  1.00  0.00     0.023 C 
BRANCH   7   8
ATOM      8  C   UNL     1       4.559  -0.911   0.795  1.00  0.00     0.116 C 
BRANCH   8   9
ATOM      9  N   UNL     1       3.124  -0.959   0.558  1.00  0.00    -0.352 N 
ATOM     10  O   UNL     1       1.093  -0.221  -0.078  1.00  0.00    -0.269 OA
ATOM     11  C   UNL     1       2.308  -0.083  -0.117  1.00  0.00     0.251 C 
ATOM     12  H   UNL     1       2.666  -1.742   0.941  1.00  0.00     0.163 HD
BRANCH  11  13
ATOM     13  C   UNL     1       2.898   1.046  -0.870  1.00  0.00     0.039 A 
ATOM     14  C   UNL     1       3.984   0.850  -1.727  1.00  0.00     0.014 A 
ATOM     15  C   UNL     1       2.341   2.319  -0.723  1.00  0.00     0.014 A 
ATOM     16  C   UNL     1       4.605   1.945  -2.320  1.00  0.00     0.010 A 
ATOM     17  C   UNL     1       2.917   3.406  -1.384  1.00  0.00     0.010 A 
ATOM     18  C   UNL     1       4.074   3.233  -2.160  1.00  0.00    -0.014 A 
BRANCH  18  19
ATOM     19  C   UNL     1       4.706   4.393  -2.835  1.00  0.00     0.031 A 
ATOM     20  C   UNL     1       5.316   5.510  -2.036  1.00  0.00     0.074 A 
ATOM     21  C   UNL     1       4.704   4.452  -4.180  1.00  0.00     0.049 A 
ATOM     22  N   UNL     1       5.833   6.638  -2.454  1.00  0.00    -0.248 NA
ATOM     23  C   UNL     1       5.339   5.343  -0.575  1.00  0.00     0.031 C 
ATOM     24  C   UNL     1       4.154   3.426  -5.069  1.00  0.00     0.029 A 
ATOM     25  N   UNL     1       5.170   5.419  -5.034  1.00  0.00    -0.354 N 
ATOM     26  C   UNL     1       6.217   7.326  -1.311  1.00  0.00     0.074 A 
ATOM     27  C   UNL     1       5.853   6.499  -0.180  1.00  0.00     0.031 C 
ATOM     28  C   UNL     1       4.325   3.812  -6.341  1.00  0.00     0.029 A 
ATOM     29  C   UNL     1       4.934   5.138  -6.356  1.00  0.00     0.049 A 
ATOM     30  H   UNL     1       5.628   6.235  -4.728  1.00  0.00     0.167 HD
ATOM     31  C   UNL     1       6.818   8.537  -1.213  1.00  0.00     0.031 A 
ATOM     32  C   UNL     1       5.148   5.875  -7.461  1.00  0.00     0.031 A 
ATOM     33  C   UNL     1       7.167   9.361  -2.341  1.00  0.00     0.049 A 
ATOM     34  C   UNL     1       5.761   7.238  -7.327  1.00  0.00     0.074 A 
ATOM     35  C   UNL     1       7.806  10.589  -2.348  1.00  0.00     0.029 A 
ATOM     36  N   UNL     1       6.895   9.045  -3.664  1.00  0.00    -0.354 N 
ATOM     37  N   UNL     1       6.146   7.864  -6.242  1.00  0.00    -0.248 NA
ATOM     38  C   UNL     1       5.974   7.993  -8.568  1.00  0.00     0.031 C 
ATOM     39  C   UNL     1       7.864  11.044  -3.669  1.00  0.00     0.029 A 
ATOM     40  C   UNL     1       7.326  10.068  -4.493  1.00  0.00     0.049 A 
ATOM     41  H   UNL     1       6.461   8.216  -3.970  1.00  0.00     0.167 HD
ATOM     42  C   UNL     1       6.676   9.073  -6.670  1.00  0.00     0.074 A 
ATOM     43  C   UNL     1       6.565   9.091  -8.115  1.00  0.00     0.031 C 
ATOM     44  C   UNL     1       7.213  10.074  -5.930  1.00  0.00     0.031 A 
BRANCH  31  45
ATOM     45  C   UNL     1       7.090   9.065   0.171  1.00  0.00    -0.014 A 
ATOM     46  C   UNL     1       8.055   8.480   1.007  1.00  0.00     0.009 A 
ATOM     47  C   UNL     1       6.376  10.180   0.640  1.00  0.00     0.009 A 
ATOM     48  C   UNL     1       8.263   8.969   2.299  1.00  0.00     0.001 A 
ATOM     49  C   UNL     1       6.610  10.687   1.920  1.00  0.00     0.001 A 
ATOM     50  C   UNL     1       7.543  10.073   2.753  1.00  0.00     0.000 A 
ENDBRANCH  31  45
BRANCH  32  51
ATOM     51  C   UNL     1       4.754   5.330  -8.786  1.00  0.00    -0.014 A 
ATOM     52  C   UNL     1       5.727   4.915  -9.705  1.00  0.00     0.009 A 
ATOM     53  C   UNL     1       3.397   5.179  -9.115  1.00  0.00     0.009 A 
ATOM     54  C   UNL     1       5.348   4.367 -10.933  1.00  0.00     0.001 A 
ATOM     55  C   UNL     1       3.022   4.604 -10.330  1.00  0.00     0.001 A 
ATOM     56  C   UNL     1       3.997   4.205 -11.241  1.00  0.00     0.000 A 
ENDBRANCH  32  51
BRANCH  44  57
ATOM     57  C   UNL     1       7.774  11.257  -6.668  1.00  0.00    -0.014 A 
ATOM     58  C   UNL     1       6.940  12.209  -7.274  1.00  0.00     0.009 A 
ATOM     59  C   UNL     1       9.164  11.451  -6.699  1.00  0.00     0.009 A 
ATOM     60  C   UNL     1       7.491  13.322  -7.913  1.00  0.00     0.001 A 
ATOM     61  C   UNL     1       9.710  12.579  -7.313  1.00  0.00     0.001 A 
ATOM     62  C   UNL     1       8.873  13.510  -7.926  1.00  0.00     0.000 A 
ENDBRANCH  44  57
ENDBRANCH  18  19
ENDBRANCH  11  13
ENDBRANCH   8   9
ENDBRANCH   7   8
ENDBRANCH   6   7
ENDBRANCH   5   6
ENDBRANCH   1   5
BRANCH   2  63
ATOM     63  C   UNL     1       6.723  -5.484   3.965  1.00  0.00     0.040 A 
ATOM     64  C   UNL     1       7.071  -6.058   5.184  1.00  0.00     0.014 A 
ATOM     65  C   UNL     1       5.802  -6.121   3.135  1.00  0.00     0.018 A 
ATOM     66  C   UNL     1       6.434  -7.232   5.593  1.00  0.00     0.001 A 
ATOM     67  C   UNL     1       5.123  -7.269   3.541  1.00  0.00    -0.039 A 
ATOM     68  C   UNL     1       5.453  -7.822   4.786  1.00  0.00     0.004 A 
BRANCH  67  69
ATOM     69  C   UNL     1       4.002  -7.844   2.694  1.00  0.00     0.074 C 
ATOM     70  C   UNL     1       4.436  -8.315   1.296  1.00  0.00     0.020 C 
ATOM     71  C   UNL     1       2.795  -6.881   2.601  1.00  0.00     0.270 C 
ATOM     72  C   UNL     1       4.493  -7.200   0.252  1.00  0.00     0.062 C 
ATOM     73  N   UNL     1       2.920  -5.790   1.615  1.00  0.00    -0.331 N 
ATOM     74  C   UNL     1       3.256  -6.300   0.277  1.00  0.00     0.262 C 
ATOM     75  H   UNL     1       3.701  -5.208   1.917  1.00  0.00     0.348 HD
BRANCH  73  76
ATOM     76  C   UNL     1       1.726  -4.902   1.597  1.00  0.00     0.299 C 
BRANCH  76  77
ATOM     77  C   UNL     1       0.499  -5.456   0.892  1.00  0.00     0.010 A 
ATOM     78  C   UNL     1       0.153  -5.023  -0.394  1.00  0.00     0.010 A 
ATOM     79  C   UNL     1      -0.236  -6.501   1.474  1.00  0.00     0.056 A 
ATOM     80  C   UNL     1      -0.851  -5.679  -1.106  1.00  0.00     0.004 A 
ATOM     81  C   UNL     1      -1.164  -7.228   0.733  1.00  0.00     0.119 A 
ATOM     82  C   UNL     1      -1.485  -6.795  -0.553  1.00  0.00     0.046 A 
BRANCH  81  83
ATOM     83  O   UNL     1      -1.762  -8.395   1.126  1.00  0.00    -0.491 OA
BRANCH  83  84
ATOM     84  C   UNL     1      -1.266  -9.075   2.287  1.00  0.00     0.257 C 
BRANCH  84  85
ATOM     85  C   UNL     1      -0.152 -10.075   1.955  1.00  0.00     0.197 C 
BRANCH  85  86
ATOM     86  O   UNL     1       0.980  -9.472   1.341  1.00  0.00    -0.393 OA
ATOM     87  H   UNL     1       0.716  -9.074   0.497  1.00  0.00     0.210 HD
ENDBRANCH  85  86
ENDBRANCH  84  85
ENDBRANCH  83  84
ENDBRANCH  81  83
ENDBRANCH  76  77
ENDBRANCH  73  76
ENDBRANCH  67  69
ENDBRANCH   2  63
TORSDOF 18
