REMARK SMILES Nc1nn(-c2ccc(Cl)cc2)nc1C(=O)NCCCCNC(=O)c1ccc(-c2c3nc(c(-c4ccccc4)c4ccc([nH]4)c(-c4ccccc4)c4nc(c(-c5ccccc5)c5ccc2[nH]5)C=C4)C=C3)cc1
REMARK SMILES IDX 19 1 18 2 17 3 16 4 14 5 15 6 13 8 2 9 3 10 4 11 12 12 1 13
REMARK SMILES IDX 5 16 6 17 11 18 7 19 10 20 8 21 9 22 20 23 21 24 22 25 23 27
REMARK SMILES IDX 24 28 25 29 71 30 26 31 70 32 27 33 28 34 29 35 64 36 30 37
REMARK SMILES IDX 69 38 63 39 65 40 31 41 68 42 62 43 61 44 32 46 54 47 39 48
REMARK SMILES IDX 53 49 40 50 43 51 52 52 66 53 41 54 42 55 51 57 67 58 44 59
REMARK SMILES IDX 33 60 34 61 38 62 35 63 37 64 36 65 55 66 56 67 60 68 57 69
REMARK SMILES IDX 59 70 58 71 45 72 46 73 50 74 47 75 49 76 48 77
REMARK H PARENT 16 7 1 14 1 15 21 26 65 45 43 56
REMARK Flexibility Score: inf
ROOT
ATOM      1  C   UNL     1       3.463  -3.592  -0.034  1.00  0.00     0.023 C 
ENDROOT
BRANCH   1   2
ATOM      2  C   UNL     1       2.183  -2.771   0.142  1.00  0.00     0.023 C 
BRANCH   2   3
ATOM      3  C   UNL     1       2.172  -1.331  -0.369  1.00  0.00     0.116 C 
BRANCH   3   4
ATOM      4  N   UNL     1       2.335  -1.188  -1.798  1.00  0.00    -0.351 N 
ATOM      5  C   UNL     1       1.599  -0.501  -2.742  1.00  0.00     0.275 C 
ATOM      6  O   UNL     1       2.010  -0.621  -3.901  1.00  0.00    -0.267 OA
ATOM      7  H   UNL     1       3.112  -1.669  -2.164  1.00  0.00     0.163 HD
BRANCH   5   8
ATOM      8  C   UNL     1       0.410   0.316  -2.435  1.00  0.00     0.194 A 
ATOM      9  C   UNL     1       0.037   1.152  -1.338  1.00  0.00     0.179 A 
ATOM     10  N   UNL     1      -1.086   1.801  -1.618  1.00  0.00    -0.130 NA
ATOM     11  N   UNL     1      -1.365   1.386  -2.868  1.00  0.00    -0.149 N 
ATOM     12  N   UNL     1      -0.577   0.409  -3.362  1.00  0.00    -0.141 NA
BRANCH   9  13
ATOM     13  N   UNL     1       0.644   1.388  -0.169  1.00  0.00    -0.380 N 
ATOM     14  H   UNL     1       0.236   2.005   0.481  1.00  0.00     0.158 HD
ATOM     15  H   UNL     1       1.498   0.945   0.041  1.00  0.00     0.158 HD
ENDBRANCH   9  13
BRANCH  11  16
ATOM     16  C   UNL     1      -2.405   1.986  -3.623  1.00  0.00     0.086 A 
ATOM     17  C   UNL     1      -3.023   1.284  -4.665  1.00  0.00     0.032 A 
ATOM     18  C   UNL     1      -2.805   3.299  -3.323  1.00  0.00     0.032 A 
ATOM     19  C   UNL     1      -4.066   1.886  -5.379  1.00  0.00     0.023 A 
ATOM     20  C   UNL     1      -3.811   3.911  -4.074  1.00  0.00     0.023 A 
ATOM     21  C   UNL     1      -4.447   3.197  -5.088  1.00  0.00     0.041 A 
ATOM     22  Cl  UNL     1      -5.713   3.941  -5.986  1.00  0.00    -0.084 Cl
ENDBRANCH  11  16
ENDBRANCH   5   8
ENDBRANCH   3   4
ENDBRANCH   2   3
ENDBRANCH   1   2
BRANCH   1  23
ATOM     23  C   UNL     1       4.726  -2.974   0.547  1.00  0.00     0.116 C 
BRANCH  23  24
ATOM     24  N   UNL     1       4.684  -2.784   1.993  1.00  0.00    -0.352 N 
ATOM     25  C   UNL     1       5.710  -2.340   2.812  1.00  0.00     0.251 C 
ATOM     26  H   UNL     1       3.831  -2.997   2.437  1.00  0.00     0.163 HD
ATOM     27  O   UNL     1       5.689  -2.535   4.014  1.00  0.00    -0.269 OA
BRANCH  25  28
ATOM     28  C   UNL     1       6.845  -1.625   2.192  1.00  0.00     0.039 A 
ATOM     29  C   UNL     1       8.161  -1.917   2.557  1.00  0.00     0.014 A 
ATOM     30  C   UNL     1       6.573  -0.681   1.204  1.00  0.00     0.014 A 
ATOM     31  C   UNL     1       9.202  -1.320   1.848  1.00  0.00     0.010 A 
ATOM     32  C   UNL     1       7.595  -0.190   0.425  1.00  0.00     0.010 A 
ATOM     33  C   UNL     1       8.913  -0.481   0.759  1.00  0.00    -0.014 A 
BRANCH  33  34
ATOM     34  C   UNL     1       9.988  -0.024  -0.118  1.00  0.00     0.031 A 
ATOM     35  C   UNL     1      10.850  -1.109  -0.665  1.00  0.00     0.074 A 
ATOM     36  C   UNL     1      10.099   1.237  -0.589  1.00  0.00     0.049 A 
ATOM     37  N   UNL     1      12.098  -1.316  -0.410  1.00  0.00    -0.248 NA
ATOM     38  C   UNL     1      10.230  -2.154  -1.496  1.00  0.00     0.031 C 
ATOM     39  C   UNL     1       9.167   2.356  -0.419  1.00  0.00     0.029 A 
ATOM     40  N   UNL     1      11.029   1.751  -1.442  1.00  0.00    -0.354 N 
ATOM     41  C   UNL     1      12.483  -2.398  -1.195  1.00  0.00     0.074 A 
ATOM     42  C   UNL     1      11.264  -2.971  -1.710  1.00  0.00     0.031 C 
ATOM     43  C   UNL     1       9.438   3.310  -1.338  1.00  0.00     0.029 A 
ATOM     44  C   UNL     1      10.653   2.946  -2.045  1.00  0.00     0.049 A 
ATOM     45  H   UNL     1      11.893   1.313  -1.616  1.00  0.00     0.167 HD
ATOM     46  C   UNL     1      13.785  -2.584  -1.551  1.00  0.00     0.031 A 
ATOM     47  C   UNL     1      11.271   3.570  -3.078  1.00  0.00     0.031 A 
ATOM     48  C   UNL     1      14.673  -1.772  -0.755  1.00  0.00     0.049 A 
ATOM     49  C   UNL     1      12.655   3.045  -3.156  1.00  0.00     0.074 A 
ATOM     50  C   UNL     1      14.901  -1.623   0.600  1.00  0.00     0.029 A 
ATOM     51  N   UNL     1      15.201  -0.648  -1.348  1.00  0.00    -0.354 N 
ATOM     52  N   UNL     1      13.566   3.298  -2.262  1.00  0.00    -0.248 NA
ATOM     53  C   UNL     1      12.896   1.870  -3.979  1.00  0.00     0.031 C 
ATOM     54  C   UNL     1      15.068  -0.219   0.786  1.00  0.00     0.029 A 
ATOM     55  C   UNL     1      15.028   0.389  -0.470  1.00  0.00     0.049 A 
ATOM     56  H   UNL     1      15.624  -0.598  -2.236  1.00  0.00     0.167 HD
ATOM     57  C   UNL     1      14.223   2.089  -2.085  1.00  0.00     0.074 A 
ATOM     58  C   UNL     1      13.841   1.278  -3.242  1.00  0.00     0.031 C 
ATOM     59  C   UNL     1      14.774   1.751  -0.881  1.00  0.00     0.031 A 
BRANCH  46  60
ATOM     60  C   UNL     1      14.220  -3.148  -2.885  1.00  0.00    -0.014 A 
ATOM     61  C   UNL     1      15.599  -3.259  -3.147  1.00  0.00     0.009 A 
ATOM     62  C   UNL     1      13.357  -3.280  -3.988  1.00  0.00     0.009 A 
ATOM     63  C   UNL     1      16.087  -3.379  -4.454  1.00  0.00     0.001 A 
ATOM     64  C   UNL     1      13.839  -3.446  -5.289  1.00  0.00     0.001 A 
ATOM     65  C   UNL     1      15.206  -3.459  -5.526  1.00  0.00     0.000 A 
ENDBRANCH  46  60
BRANCH  47  66
ATOM     66  C   UNL     1      10.689   4.423  -4.138  1.00  0.00    -0.014 A 
ATOM     67  C   UNL     1      11.509   5.216  -4.957  1.00  0.00     0.009 A 
ATOM     68  C   UNL     1       9.345   4.261  -4.525  1.00  0.00     0.009 A 
ATOM     69  C   UNL     1      11.014   5.788  -6.137  1.00  0.00     0.001 A 
ATOM     70  C   UNL     1       8.849   4.838  -5.699  1.00  0.00     0.001 A 
ATOM     71  C   UNL     1       9.689   5.587  -6.515  1.00  0.00     0.000 A 
ENDBRANCH  47  66
BRANCH  59  72
ATOM     72  C   UNL     1      14.892   2.810   0.188  1.00  0.00    -0.014 A 
ATOM     73  C   UNL     1      13.804   3.564   0.662  1.00  0.00     0.009 A 
ATOM     74  C   UNL     1      16.125   2.947   0.843  1.00  0.00     0.009 A 
ATOM     75  C   UNL     1      13.961   4.458   1.728  1.00  0.00     0.001 A 
ATOM     76  C   UNL     1      16.276   3.817   1.924  1.00  0.00     0.001 A 
ATOM     77  C   UNL     1      15.196   4.580   2.360  1.00  0.00     0.000 A 
ENDBRANCH  59  72
ENDBRANCH  33  34
ENDBRANCH  25  28
ENDBRANCH  23  24
ENDBRANCH   1  23
TORSDOF 13
