REMARK SMILES Cc1c(CC(=O)N[C@H](CO)C(=O)NCCCCNC(=O)c2ccc(-c3c4nc(c(-c5ccccc5)c5ccc([nH]5)c(-c5ccccc5)c5nc(c(-c6ccccc6)c6ccc3[nH]6)C=C5)C=C4)cc2)cc(-c2ccc(S(C)(=O)=O)cc2)n1-c1ccc(F)cc1
REMARK SMILES IDX 14 1 13 2 11 3 12 4 8 6 7 7 5 8 6 9 4 11 3 12 1 13 2 14
REMARK SMILES IDX 81 15 69 16 70 17 82 18 83 19 88 20 84 21 87 22 85 23 86 24
REMARK SMILES IDX 71 25 72 26 80 27 73 28 79 29 74 30 75 31 76 32 77 33 78 34
REMARK SMILES IDX 9 35 10 36 15 38 16 39 17 40 18 41 19 42 20 44 21 45 22 46
REMARK SMILES IDX 68 47 23 48 67 49 24 50 25 51 26 52 61 53 27 54 66 55 60 56
REMARK SMILES IDX 62 57 28 58 65 59 59 60 58 61 29 63 51 64 36 65 50 66 37 67
REMARK SMILES IDX 40 68 49 69 63 70 38 71 39 72 48 74 64 75 41 76 30 77 31 78
REMARK SMILES IDX 35 79 32 80 34 81 33 82 52 83 53 84 57 85 54 86 56 87 55 88
REMARK SMILES IDX 42 89 43 90 47 91 44 92 46 93 45 94
REMARK H PARENT 13 5 7 10 10 37 18 43 62 62 40 73
REMARK Flexibility Score: inf
ROOT
ATOM      1  C   UNL     1       4.821  -3.842  -6.425  1.00  0.00     0.116 C 
ENDROOT
BRANCH   1   2
ATOM      2  N   UNL     1       3.331  -3.634  -6.403  1.00  0.00    -0.354 N 
ATOM      3  C   UNL     1       2.263  -2.858  -6.061  1.00  0.00     0.244 C 
ATOM      4  O   UNL     1       1.250  -3.282  -6.661  1.00  0.00    -0.273 OA
ATOM      5  H   UNL     1       2.949  -4.428  -6.841  1.00  0.00     0.163 HD
BRANCH   3   6
ATOM      6  C   UNL     1       1.978  -1.669  -5.011  1.00  0.00     0.197 C 
BRANCH   6   7
ATOM      7  N   UNL     1       2.938  -0.658  -4.569  1.00  0.00    -0.342 N 
ATOM      8  C   UNL     1       3.848  -0.858  -3.567  1.00  0.00     0.225 C 
ATOM      9  O   UNL     1       4.125   0.061  -2.799  1.00  0.00    -0.275 OA
ATOM     10  H   UNL     1       2.929   0.218  -5.018  1.00  0.00     0.164 HD
BRANCH   8  11
ATOM     11  C   UNL     1       4.580  -2.164  -3.583  1.00  0.00     0.137 C 
BRANCH  11  12
ATOM     12  C   UNL     1       3.996  -3.359  -2.882  1.00  0.00    -0.017 A 
ATOM     13  C   UNL     1       5.736  -3.456  -0.999  1.00  0.00     0.065 C 
ATOM     14  C   UNL     1       4.504  -3.903  -1.716  1.00  0.00     0.024 A 
ATOM     15  N   UNL     1       3.745  -5.016  -1.369  1.00  0.00    -0.314 N 
ATOM     16  C   UNL     1       2.980  -4.275  -3.296  1.00  0.00     0.033 A 
ATOM     17  C   UNL     1       2.733  -5.196  -2.303  1.00  0.00     0.053 A 
BRANCH  15  18
ATOM     18  C   UNL     1       3.955  -5.845  -0.248  1.00  0.00     0.046 A 
ATOM     19  C   UNL     1       3.894  -7.237  -0.397  1.00  0.00     0.029 A 
ATOM     20  C   UNL     1       4.176  -5.255   0.999  1.00  0.00     0.029 A 
ATOM     21  C   UNL     1       4.064  -8.043   0.722  1.00  0.00     0.041 A 
ATOM     22  C   UNL     1       4.341  -6.069   2.110  1.00  0.00     0.041 A 
ATOM     23  C   UNL     1       4.284  -7.452   1.962  1.00  0.00     0.123 A 
ATOM     24  F   UNL     1       4.436  -8.230   3.040  1.00  0.00    -0.207 F 
ENDBRANCH  15  18
BRANCH  17  25
ATOM     25  C   UNL     1       1.547  -6.062  -2.147  1.00  0.00    -0.001 A 
ATOM     26  C   UNL     1       0.744  -5.906  -1.006  1.00  0.00     0.011 A 
ATOM     27  C   UNL     1       1.158  -7.000  -3.116  1.00  0.00     0.011 A 
ATOM     28  C   UNL     1      -0.382  -6.704  -0.797  1.00  0.00     0.021 A 
ATOM     29  C   UNL     1       0.030  -7.815  -2.909  1.00  0.00     0.021 A 
ATOM     30  C   UNL     1      -0.721  -7.675  -1.738  1.00  0.00     0.067 A 
BRANCH  30  31
ATOM     31  S   UNL     1      -2.140  -8.706  -1.434  1.00  0.00     0.175 S 
ATOM     32  C   UNL     1      -1.743  -9.569   0.068  1.00  0.00     0.163 C 
ATOM     33  O   UNL     1      -3.253  -7.803  -1.148  1.00  0.00    -0.224 OA
ATOM     34  O   UNL     1      -2.224  -9.680  -2.490  1.00  0.00    -0.224 OA
ENDBRANCH  30  31
ENDBRANCH  17  25
ENDBRANCH  11  12
ENDBRANCH   8  11
ENDBRANCH   6   7
BRANCH   6  35
ATOM     35  C   UNL     1       1.053  -1.985  -3.766  1.00  0.00     0.191 C 
BRANCH  35  36
ATOM     36  O   UNL     1       0.126  -3.041  -3.933  1.00  0.00    -0.394 OA
ATOM     37  H   UNL     1      -0.506  -2.809  -4.632  1.00  0.00     0.210 HD
ENDBRANCH  35  36
ENDBRANCH   6  35
ENDBRANCH   3   6
ENDBRANCH   1   2
BRANCH   1  38
ATOM     38  C   UNL     1       5.371  -4.989  -5.523  1.00  0.00     0.023 C 
BRANCH  38  39
ATOM     39  C   UNL     1       6.364  -6.060  -6.096  1.00  0.00     0.023 C 
BRANCH  39  40
ATOM     40  C   UNL     1       7.261  -5.697  -7.299  1.00  0.00     0.116 C 
BRANCH  40  41
ATOM     41  N   UNL     1       8.566  -6.379  -7.288  1.00  0.00    -0.352 N 
ATOM     42  C   UNL     1       9.263  -7.233  -8.130  1.00  0.00     0.251 C 
ATOM     43  H   UNL     1       9.077  -6.175  -6.471  1.00  0.00     0.163 HD
ATOM     44  O   UNL     1      10.399  -7.554  -7.766  1.00  0.00    -0.269 OA
BRANCH  42  45
ATOM     45  C   UNL     1       8.776  -7.796  -9.444  1.00  0.00     0.039 A 
ATOM     46  C   UNL     1       9.130  -9.091  -9.867  1.00  0.00     0.014 A 
ATOM     47  C   UNL     1       8.130  -7.047 -10.399  1.00  0.00     0.014 A 
ATOM     48  C   UNL     1       8.850  -9.610 -11.202  1.00  0.00     0.010 A 
ATOM     49  C   UNL     1       7.845  -7.585 -11.717  1.00  0.00     0.010 A 
ATOM     50  C   UNL     1       8.247  -8.862 -12.246  1.00  0.00    -0.014 A 
BRANCH  50  51
ATOM     51  C   UNL     1       8.610  -9.310 -13.857  1.00  0.00     0.031 A 
ATOM     52  C   UNL     1      10.085  -8.999 -14.031  1.00  0.00     0.074 A 
ATOM     53  C   UNL     1       8.163  -9.418 -15.205  1.00  0.00     0.049 A 
ATOM     54  N   UNL     1      10.340  -7.951 -14.758  1.00  0.00    -0.248 NA
ATOM     55  C   UNL     1      11.121  -9.266 -13.035  1.00  0.00     0.031 C 
ATOM     56  C   UNL     1       9.057  -9.872 -16.358  1.00  0.00     0.029 A 
ATOM     57  N   UNL     1       7.008  -9.118 -15.963  1.00  0.00    -0.354 N 
ATOM     58  C   UNL     1      10.944  -7.138 -13.857  1.00  0.00     0.074 A 
ATOM     59  C   UNL     1      11.610  -8.024 -12.904  1.00  0.00     0.031 C 
ATOM     60  C   UNL     1       8.441  -9.840 -17.566  1.00  0.00     0.029 A 
ATOM     61  C   UNL     1       7.095  -9.331 -17.407  1.00  0.00     0.049 A 
ATOM     62  H   UNL     1       6.185  -8.783 -15.539  1.00  0.00     0.167 HD
ATOM     63  C   UNL     1      10.536  -5.850 -13.738  1.00  0.00     0.031 A 
ATOM     64  C   UNL     1       6.212  -8.985 -18.417  1.00  0.00     0.031 A 
ATOM     65  C   UNL     1       9.226  -5.524 -14.331  1.00  0.00     0.049 A 
ATOM     66  C   UNL     1       6.046  -7.537 -18.125  1.00  0.00     0.074 A 
ATOM     67  C   UNL     1       7.958  -6.076 -14.301  1.00  0.00     0.029 A 
ATOM     68  N   UNL     1       9.065  -4.564 -15.319  1.00  0.00    -0.354 N 
ATOM     69  N   UNL     1       6.804  -6.586 -18.594  1.00  0.00    -0.248 NA
ATOM     70  C   UNL     1       4.951  -7.129 -17.259  1.00  0.00     0.031 C 
ATOM     71  C   UNL     1       7.019  -5.165 -14.803  1.00  0.00     0.029 A 
ATOM     72  C   UNL     1       7.769  -4.696 -15.853  1.00  0.00     0.049 A 
ATOM     73  H   UNL     1       9.741  -3.905 -15.599  1.00  0.00     0.167 HD
ATOM     74  C   UNL     1       6.536  -5.527 -17.754  1.00  0.00     0.074 A 
ATOM     75  C   UNL     1       5.272  -5.848 -17.108  1.00  0.00     0.031 C 
ATOM     76  C   UNL     1       7.574  -4.784 -17.281  1.00  0.00     0.031 A 
BRANCH  63  77
ATOM     77  C   UNL     1      11.366  -4.864 -12.989  1.00  0.00    -0.014 A 
ATOM     78  C   UNL     1      12.705  -5.112 -12.634  1.00  0.00     0.009 A 
ATOM     79  C   UNL     1      10.886  -3.559 -12.823  1.00  0.00     0.009 A 
ATOM     80  C   UNL     1      13.548  -4.098 -12.194  1.00  0.00     0.001 A 
ATOM     81  C   UNL     1      11.746  -2.528 -12.447  1.00  0.00     0.001 A 
ATOM     82  C   UNL     1      13.078  -2.796 -12.146  1.00  0.00     0.000 A 
ENDBRANCH  63  77
BRANCH  64  83
ATOM     83  C   UNL     1       5.722  -9.203 -19.865  1.00  0.00    -0.014 A 
ATOM     84  C   UNL     1       6.350  -9.685 -21.022  1.00  0.00     0.009 A 
ATOM     85  C   UNL     1       4.370  -8.774 -20.075  1.00  0.00     0.009 A 
ATOM     86  C   UNL     1       5.656  -9.737 -22.277  1.00  0.00     0.001 A 
ATOM     87  C   UNL     1       3.692  -8.800 -21.305  1.00  0.00     0.001 A 
ATOM     88  C   UNL     1       4.335  -9.299 -22.417  1.00  0.00     0.000 A 
ENDBRANCH  64  83
BRANCH  76  89
ATOM     89  C   UNL     1       8.709  -4.519 -18.197  1.00  0.00    -0.014 A 
ATOM     90  C   UNL     1       8.605  -3.392 -19.014  1.00  0.00     0.009 A 
ATOM     91  C   UNL     1       9.930  -5.205 -18.093  1.00  0.00     0.009 A 
ATOM     92  C   UNL     1       9.738  -2.887 -19.637  1.00  0.00     0.001 A 
ATOM     93  C   UNL     1      11.070  -4.674 -18.689  1.00  0.00     0.001 A 
ATOM     94  C   UNL     1      10.975  -3.505 -19.445  1.00  0.00     0.000 A 
ENDBRANCH  76  89
ENDBRANCH  50  51
ENDBRANCH  42  45
ENDBRANCH  40  41
ENDBRANCH  39  40
ENDBRANCH  38  39
ENDBRANCH   1  38
TORSDOF 19
