REMARK SMILES C[NH2+][C@]1(C(=O)NCCCCNC(=O)c2ccc(-c3c4nc(c(-c5ccccc5)c5ccc([nH]5)c(-c5ccccc5)c5nc(c(-c6ccccc6)c6ccc3[nH]6)C=C5)C=C4)cc2)CC[C@@H](OCCCc2ccccc2)C1
REMARK SMILES IDX 7 1 6 2 4 3 5 4 3 6 62 7 75 8 63 9 64 10 2 11 1 12 65 15
REMARK SMILES IDX 66 16 67 17 68 18 69 19 70 20 74 21 71 22 73 23 72 24 8 25
REMARK SMILES IDX 9 26 10 27 11 28 12 29 13 31 14 32 15 33 61 34 16 35 60 36
REMARK SMILES IDX 17 37 18 38 19 39 54 40 20 41 59 42 53 43 55 44 21 45 58 46
REMARK SMILES IDX 52 47 51 48 22 50 44 51 29 52 43 53 30 54 33 55 42 56 56 57
REMARK SMILES IDX 31 58 32 59 41 61 57 62 34 63 23 64 24 65 28 66 25 67 27 68
REMARK SMILES IDX 26 69 45 70 46 71 50 72 47 73 49 74 48 75 35 76 36 77 40 78
REMARK SMILES IDX 37 79 39 80 38 81
REMARK H PARENT 6 5 2 13 2 14 11 30 55 49 33 60
REMARK Flexibility Score: inf
ROOT
ATOM      1  C   UNL     1       0.893   1.333  -4.356  1.00  0.00     0.116 C 
ENDROOT
BRANCH   1   2
ATOM      2  N   UNL     1       1.123   1.278  -2.753  1.00  0.00    -0.351 N 
ATOM      3  C   UNL     1       0.239   0.898  -1.052  1.00  0.00     0.281 C 
ATOM      4  O   UNL     1       0.795   0.515   0.045  1.00  0.00    -0.268 OA
ATOM      5  H   UNL     1       2.056   1.529  -2.566  1.00  0.00     0.163 HD
BRANCH   3   6
ATOM      6  C   UNL     1      -1.565   0.925  -0.562  1.00  0.00     0.177 C 
ATOM      7  C   UNL     1      -2.588   2.111  -0.632  1.00  0.00     0.082 C 
ATOM      8  C   UNL     1      -2.422  -0.332  -0.978  1.00  0.00     0.111 C 
ATOM      9  C   UNL     1      -3.906   1.607  -1.228  1.00  0.00     0.039 C 
ATOM     10  C   UNL     1      -3.710   0.165  -1.647  1.00  0.00     0.125 C 
BRANCH   6  11
ATOM     11  N   UNL     1      -1.449   0.766   0.985  1.00  0.00    -0.336 N 
ATOM     12  C   UNL     1      -0.860   1.939   1.663  1.00  0.00     0.331 C 
ATOM     13  H   UNL     1      -2.384   0.612   1.363  1.00  0.00     0.346 HD
ATOM     14  H   UNL     1      -0.823  -0.021   1.156  1.00  0.00     0.346 HD
ENDBRANCH   6  11
BRANCH  10  15
ATOM     15  O   UNL     1      -4.068  -0.062  -3.001  1.00  0.00    -0.378 OA
BRANCH  15  16
ATOM     16  C   UNL     1      -3.203  -0.023  -4.107  1.00  0.00     0.161 C 
BRANCH  16  17
ATOM     17  C   UNL     1      -2.695   1.329  -4.578  1.00  0.00     0.033 C 
BRANCH  17  18
ATOM     18  C   UNL     1      -1.907   2.202  -3.618  1.00  0.00     0.038 C 
BRANCH  18  19
ATOM     19  C   UNL     1      -0.833   1.603  -2.716  1.00  0.00    -0.048 A 
ATOM     20  C   UNL     1      -0.255  -0.161  -2.766  1.00  0.00     0.004 A 
ATOM     21  C   UNL     1       0.232   2.840  -1.863  1.00  0.00     0.004 A 
ATOM     22  C   UNL     1       1.364  -0.623  -2.061  1.00  0.00     0.000 A 
ATOM     23  C   UNL     1       1.837   2.349  -1.157  1.00  0.00     0.000 A 
ATOM     24  C   UNL     1       2.431   0.625  -1.282  1.00  0.00     0.000 A 
ENDBRANCH  18  19
ENDBRANCH  17  18
ENDBRANCH  16  17
ENDBRANCH  15  16
ENDBRANCH  10  15
ENDBRANCH   3   6
ENDBRANCH   1   2
BRANCH   1  25
ATOM     25  C   UNL     1       1.275   2.699  -4.922  1.00  0.00     0.023 C 
BRANCH  25  26
ATOM     26  C   UNL     1       2.774   2.840  -5.118  1.00  0.00     0.023 C 
BRANCH  26  27
ATOM     27  C   UNL     1       3.377   1.661  -5.865  1.00  0.00     0.116 C 
BRANCH  27  28
ATOM     28  N   UNL     1       2.557   1.260  -7.014  1.00  0.00    -0.352 N 
ATOM     29  C   UNL     1       2.973   0.986  -8.287  1.00  0.00     0.251 C 
ATOM     30  H   UNL     1       1.590   1.179  -6.849  1.00  0.00     0.163 HD
ATOM     31  O   UNL     1       2.192   0.858  -9.218  1.00  0.00    -0.269 OA
BRANCH  29  32
ATOM     32  C   UNL     1       4.418   0.862  -8.465  1.00  0.00     0.039 A 
ATOM     33  C   UNL     1       5.075   1.760  -9.299  1.00  0.00     0.014 A 
ATOM     34  C   UNL     1       5.104  -0.007  -7.610  1.00  0.00     0.014 A 
ATOM     35  C   UNL     1       6.461   1.809  -9.249  1.00  0.00     0.010 A 
ATOM     36  C   UNL     1       6.468   0.137  -7.475  1.00  0.00     0.010 A 
ATOM     37  C   UNL     1       7.158   1.022  -8.315  1.00  0.00    -0.014 A 
BRANCH  37  38
ATOM     38  C   UNL     1       8.629   1.075  -8.230  1.00  0.00     0.031 A 
ATOM     39  C   UNL     1       9.419  -0.166  -8.529  1.00  0.00     0.074 A 
ATOM     40  C   UNL     1       9.234   2.216  -7.853  1.00  0.00     0.049 A 
ATOM     41  N   UNL     1      10.713  -0.342  -8.502  1.00  0.00    -0.248 NA
ATOM     42  C   UNL     1       8.655  -1.380  -8.871  1.00  0.00     0.031 C 
ATOM     43  C   UNL     1       8.553   3.463  -7.495  1.00  0.00     0.029 A 
ATOM     44  N   UNL     1      10.564   2.511  -7.717  1.00  0.00    -0.354 N 
ATOM     45  C   UNL     1      10.911  -1.681  -8.808  1.00  0.00     0.074 A 
ATOM     46  C   UNL     1       9.610  -2.292  -8.939  1.00  0.00     0.031 C 
ATOM     47  C   UNL     1       9.474   4.404  -7.230  1.00  0.00     0.029 A 
ATOM     48  C   UNL     1      10.802   3.813  -7.349  1.00  0.00     0.049 A 
ATOM     49  H   UNL     1      11.281   1.854  -7.869  1.00  0.00     0.167 HD
ATOM     50  C   UNL     1      12.077  -2.338  -8.994  1.00  0.00     0.031 A 
ATOM     51  C   UNL     1      11.966   4.451  -7.131  1.00  0.00     0.031 A 
ATOM     52  C   UNL     1      13.365  -1.717  -8.865  1.00  0.00     0.049 A 
ATOM     53  C   UNL     1      13.249   3.690  -7.316  1.00  0.00     0.074 A 
ATOM     54  C   UNL     1      14.612  -2.271  -9.080  1.00  0.00     0.029 A 
ATOM     55  N   UNL     1      13.567  -0.400  -8.478  1.00  0.00    -0.354 N 
ATOM     56  N   UNL     1      13.426   2.442  -7.684  1.00  0.00    -0.248 NA
ATOM     57  C   UNL     1      14.494   4.428  -7.070  1.00  0.00     0.031 C 
ATOM     58  C   UNL     1      15.572  -1.312  -8.750  1.00  0.00     0.029 A 
ATOM     59  C   UNL     1      14.922  -0.134  -8.412  1.00  0.00     0.049 A 
ATOM     60  H   UNL     1      12.852   0.247  -8.280  1.00  0.00     0.167 HD
ATOM     61  C   UNL     1      14.800   2.255  -7.742  1.00  0.00     0.074 A 
ATOM     62  C   UNL     1      15.408   3.524  -7.393  1.00  0.00     0.031 C 
ATOM     63  C   UNL     1      15.500   1.137  -8.057  1.00  0.00     0.031 A 
BRANCH  50  64
ATOM     64  C   UNL     1      12.002  -3.800  -9.338  1.00  0.00    -0.014 A 
ATOM     65  C   UNL     1      11.469  -4.240 -10.561  1.00  0.00     0.009 A 
ATOM     66  C   UNL     1      12.489  -4.751  -8.430  1.00  0.00     0.009 A 
ATOM     67  C   UNL     1      11.390  -5.604 -10.849  1.00  0.00     0.001 A 
ATOM     68  C   UNL     1      12.444  -6.112  -8.737  1.00  0.00     0.001 A 
ATOM     69  C   UNL     1      11.885  -6.537  -9.941  1.00  0.00     0.000 A 
ENDBRANCH  50  64
BRANCH  51  70
ATOM     70  C   UNL     1      11.970   5.881  -6.725  1.00  0.00    -0.014 A 
ATOM     71  C   UNL     1      12.478   6.870  -7.582  1.00  0.00     0.009 A 
ATOM     72  C   UNL     1      11.472   6.266  -5.470  1.00  0.00     0.009 A 
ATOM     73  C   UNL     1      12.518   8.206  -7.177  1.00  0.00     0.001 A 
ATOM     74  C   UNL     1      11.481   7.607  -5.082  1.00  0.00     0.001 A 
ATOM     75  C   UNL     1      12.016   8.574  -5.930  1.00  0.00     0.000 A 
ENDBRANCH  51  70
BRANCH  63  76
ATOM     76  C   UNL     1      17.000   1.248  -8.078  1.00  0.00    -0.014 A 
ATOM     77  C   UNL     1      17.740   1.420  -6.899  1.00  0.00     0.009 A 
ATOM     78  C   UNL     1      17.682   1.131  -9.300  1.00  0.00     0.009 A 
ATOM     79  C   UNL     1      19.132   1.513  -6.949  1.00  0.00     0.001 A 
ATOM     80  C   UNL     1      19.075   1.185  -9.342  1.00  0.00     0.001 A 
ATOM     81  C   UNL     1      19.798   1.389  -8.168  1.00  0.00     0.000 A 
ENDBRANCH  63  76
ENDBRANCH  37  38
ENDBRANCH  29  32
ENDBRANCH  27  28
ENDBRANCH  26  27
ENDBRANCH  25  26
ENDBRANCH   1  25
TORSDOF 17
