REMARK SMILES C[C@H]1SCCC[C@]1(Nc1ccc(Cl)cc1)C(=O)NCCCCNC(=O)c1ccc(-c2c3nc(c(-c4ccccc4)c4ccc([nH]4)c(-c4ccccc4)c4nc(c(-c5ccccc5)c5ccc2[nH]5)C=C4)C=C3)cc1
REMARK SMILES IDX 20 1 19 2 18 3 16 4 17 5 7 7 1 8 2 9 3 10 4 11 6 12 5 13
REMARK SMILES IDX 8 14 9 16 10 17 15 18 11 19 14 20 12 21 13 22 21 23 22 24
REMARK SMILES IDX 23 25 24 26 25 28 26 29 27 30 73 31 28 32 72 33 29 34 30 35
REMARK SMILES IDX 31 36 66 37 32 38 71 39 65 40 67 41 33 42 70 43 64 44 63 45
REMARK SMILES IDX 34 47 56 48 41 49 55 50 42 51 45 52 54 53 68 54 43 55 44 56
REMARK SMILES IDX 53 58 69 59 46 60 35 61 36 62 40 63 37 64 39 65 38 66 57 67
REMARK SMILES IDX 58 68 62 69 59 70 61 71 60 72 47 73 48 74 52 75 49 76 51 77
REMARK SMILES IDX 50 78
REMARK H PARENT 18 6 8 15 23 27 67 46 45 57
REMARK Flexibility Score: inf
ROOT
ATOM      1  C   UNL     1      -1.626   2.571  -1.967  1.00  0.00     0.023 C 
ENDROOT
BRANCH   1   2
ATOM      2  C   UNL     1      -0.645   1.852  -2.891  1.00  0.00     0.116 C 
BRANCH   2   3
ATOM      3  N   UNL     1       0.695   1.884  -2.342  1.00  0.00    -0.354 N 
ATOM      4  C   UNL     1       1.597   0.896  -2.088  1.00  0.00     0.246 C 
ATOM      5  O   UNL     1       2.678   1.300  -1.634  1.00  0.00    -0.272 OA
ATOM      6  H   UNL     1       1.011   2.786  -2.109  1.00  0.00     0.163 HD
BRANCH   4   7
ATOM      7  C   UNL     1       1.333  -0.646  -2.296  1.00  0.00     0.128 C 
ATOM      8  C   UNL     1      -0.940  -0.701  -0.926  1.00  0.00     0.022 C 
ATOM      9  C   UNL     1       0.492  -1.204  -1.085  1.00  0.00     0.078 C 
ATOM     10  S   UNL     1       0.302  -3.040  -1.127  1.00  0.00    -0.156 SA
ATOM     11  C   UNL     1       2.050  -3.472  -1.069  1.00  0.00     0.070 C 
ATOM     12  C   UNL     1       2.739  -1.341  -2.272  1.00  0.00     0.040 C 
ATOM     13  C   UNL     1       2.758  -2.870  -2.268  1.00  0.00     0.014 C 
BRANCH   7  14
ATOM     14  N   UNL     1       0.665  -0.972  -3.584  1.00  0.00    -0.370 N 
ATOM     15  H   UNL     1       0.064  -1.751  -3.565  1.00  0.00     0.161 HD
BRANCH  14  16
ATOM     16  C   UNL     1       0.771  -0.332  -4.803  1.00  0.00     0.035 A 
ATOM     17  C   UNL     1       1.853   0.469  -5.184  1.00  0.00     0.027 A 
ATOM     18  C   UNL     1      -0.345  -0.354  -5.657  1.00  0.00     0.027 A 
ATOM     19  C   UNL     1       1.817   1.237  -6.356  1.00  0.00     0.022 A 
ATOM     20  C   UNL     1      -0.401   0.428  -6.816  1.00  0.00     0.022 A 
ATOM     21  C   UNL     1       0.682   1.228  -7.157  1.00  0.00     0.041 A 
ATOM     22  Cl  UNL     1       0.605   2.232  -8.551  1.00  0.00    -0.084 Cl
ENDBRANCH  14  16
ENDBRANCH   7  14
ENDBRANCH   4   7
ENDBRANCH   2   3
ENDBRANCH   1   2
BRANCH   1  23
ATOM     23  C   UNL     1      -1.649   4.085  -2.134  1.00  0.00     0.023 C 
BRANCH  23  24
ATOM     24  C   UNL     1      -2.075   4.562  -3.514  1.00  0.00     0.116 C 
BRANCH  24  25
ATOM     25  N   UNL     1      -3.371   4.043  -3.931  1.00  0.00    -0.352 N 
ATOM     26  C   UNL     1      -4.439   4.728  -4.465  1.00  0.00     0.251 C 
ATOM     27  H   UNL     1      -3.500   3.074  -3.815  1.00  0.00     0.163 HD
ATOM     28  O   UNL     1      -5.508   4.174  -4.666  1.00  0.00    -0.269 OA
BRANCH  26  29
ATOM     29  C   UNL     1      -4.270   6.165  -4.755  1.00  0.00     0.039 A 
ATOM     30  C   UNL     1      -5.184   7.076  -4.224  1.00  0.00     0.014 A 
ATOM     31  C   UNL     1      -3.152   6.603  -5.468  1.00  0.00     0.014 A 
ATOM     32  C   UNL     1      -4.930   8.442  -4.340  1.00  0.00     0.010 A 
ATOM     33  C   UNL     1      -2.855   7.958  -5.500  1.00  0.00     0.010 A 
ATOM     34  C   UNL     1      -3.742   8.890  -4.940  1.00  0.00    -0.014 A 
BRANCH  34  35
ATOM     35  C   UNL     1      -3.405  10.332  -5.014  1.00  0.00     0.031 A 
ATOM     36  C   UNL     1      -3.256  10.990  -6.357  1.00  0.00     0.074 A 
ATOM     37  C   UNL     1      -3.154  11.025  -3.886  1.00  0.00     0.049 A 
ATOM     38  N   UNL     1      -2.871  12.207  -6.643  1.00  0.00    -0.248 NA
ATOM     39  C   UNL     1      -3.541  10.157  -7.538  1.00  0.00     0.031 C 
ATOM     40  C   UNL     1      -3.214  10.489  -2.524  1.00  0.00     0.029 A 
ATOM     41  N   UNL     1      -2.787  12.335  -3.710  1.00  0.00    -0.354 N 
ATOM     42  C   UNL     1      -2.836  12.272  -8.030  1.00  0.00     0.074 A 
ATOM     43  C   UNL     1      -3.188  10.962  -8.528  1.00  0.00     0.031 C 
ATOM     44  C   UNL     1      -2.926  11.470  -1.652  1.00  0.00     0.029 A 
ATOM     45  C   UNL     1      -2.625  12.690  -2.393  1.00  0.00     0.049 A 
ATOM     46  H   UNL     1      -2.652  12.962  -4.457  1.00  0.00     0.167 HD
ATOM     47  C   UNL     1      -2.559  13.335  -8.821  1.00  0.00     0.031 A 
ATOM     48  C   UNL     1      -2.272  13.868  -1.846  1.00  0.00     0.031 A 
ATOM     49  C   UNL     1      -2.247  14.646  -8.327  1.00  0.00     0.049 A 
ATOM     50  C   UNL     1      -1.995  15.040  -2.745  1.00  0.00     0.074 A 
ATOM     51  C   UNL     1      -2.020  15.807  -9.045  1.00  0.00     0.029 A 
ATOM     52  N   UNL     1      -2.126  14.972  -6.985  1.00  0.00    -0.354 N 
ATOM     53  N   UNL     1      -2.029  15.103  -4.054  1.00  0.00    -0.248 NA
ATOM     54  C   UNL     1      -1.639  16.307  -2.090  1.00  0.00     0.031 C 
ATOM     55  C   UNL     1      -1.728  16.830  -8.137  1.00  0.00     0.029 A 
ATOM     56  C   UNL     1      -1.815  16.314  -6.854  1.00  0.00     0.049 A 
ATOM     57  H   UNL     1      -2.244  14.342  -6.238  1.00  0.00     0.167 HD
ATOM     58  C   UNL     1      -1.728  16.419  -4.378  1.00  0.00     0.074 A 
ATOM     59  C   UNL     1      -1.527  17.124  -3.128  1.00  0.00     0.031 C 
ATOM     60  C   UNL     1      -1.627  16.995  -5.600  1.00  0.00     0.031 A 
BRANCH  47  61
ATOM     61  C   UNL     1      -2.590  13.112 -10.306  1.00  0.00    -0.014 A 
ATOM     62  C   UNL     1      -3.801  12.897 -10.983  1.00  0.00     0.009 A 
ATOM     63  C   UNL     1      -1.394  13.132 -11.040  1.00  0.00     0.009 A 
ATOM     64  C   UNL     1      -3.810  12.667 -12.360  1.00  0.00     0.001 A 
ATOM     65  C   UNL     1      -1.409  12.931 -12.421  1.00  0.00     0.001 A 
ATOM     66  C   UNL     1      -2.615  12.688 -13.078  1.00  0.00     0.000 A 
ENDBRANCH  47  61
BRANCH  48  67
ATOM     67  C   UNL     1      -2.188  14.013  -0.369  1.00  0.00    -0.014 A 
ATOM     68  C   UNL     1      -3.160  14.749   0.326  1.00  0.00     0.009 A 
ATOM     69  C   UNL     1      -1.135  13.429   0.350  1.00  0.00     0.009 A 
ATOM     70  C   UNL     1      -3.063  14.922   1.708  1.00  0.00     0.001 A 
ATOM     71  C   UNL     1      -1.055  13.582   1.737  1.00  0.00     0.001 A 
ATOM     72  C   UNL     1      -2.013  14.336   2.413  1.00  0.00     0.000 A 
ENDBRANCH  48  67
BRANCH  60  73
ATOM     73  C   UNL     1      -1.320  18.463  -5.643  1.00  0.00    -0.014 A 
ATOM     74  C   UNL     1      -0.033  18.945  -5.365  1.00  0.00     0.009 A 
ATOM     75  C   UNL     1      -2.326  19.370  -6.013  1.00  0.00     0.009 A 
ATOM     76  C   UNL     1       0.235  20.313  -5.430  1.00  0.00     0.001 A 
ATOM     77  C   UNL     1      -2.048  20.734  -6.101  1.00  0.00     0.001 A 
ATOM     78  C   UNL     1      -0.771  21.205  -5.803  1.00  0.00     0.000 A 
ENDBRANCH  60  73
ENDBRANCH  34  35
ENDBRANCH  26  29
ENDBRANCH  24  25
ENDBRANCH  23  24
ENDBRANCH   1  23
TORSDOF 13
