REMARK SMILES C[C@@H]1SCCC[C@H]1[N@H+]1CCC[C@H](CCC(=O)NCCCCNC(=O)c2ccc(-c3c4nc(c(-c5ccccc5)c5ccc([nH]5)c(-c5ccccc5)c5nc(c(-c6ccccc6)c6ccc3[nH]6)C=C5)C=C4)cc2)C1
REMARK SMILES IDX 19 1 18 2 17 3 15 4 16 5 14 7 13 8 12 9 8 10 9 11 73 12
REMARK SMILES IDX 10 14 11 15 7 16 1 17 2 18 3 19 4 20 6 21 5 22 20 23 21 24
REMARK SMILES IDX 22 25 23 26 24 28 25 29 26 30 72 31 27 32 71 33 28 34 29 35
REMARK SMILES IDX 30 36 65 37 31 38 70 39 64 40 66 41 32 42 69 43 63 44 62 45
REMARK SMILES IDX 33 47 55 48 40 49 54 50 41 51 44 52 53 53 67 54 42 55 43 56
REMARK SMILES IDX 52 58 68 59 45 60 34 61 35 62 39 63 36 64 38 65 37 66 56 67
REMARK SMILES IDX 57 68 61 69 58 70 60 71 59 72 46 73 47 74 51 75 48 76 50 77
REMARK SMILES IDX 49 78
REMARK H PARENT 17 6 8 13 22 27 66 46 44 57
REMARK Flexibility Score: inf
ROOT
ATOM      1  C   UNL     1      -3.090  -1.906   4.418  1.00  0.00     0.023 C 
ENDROOT
BRANCH   1   2
ATOM      2  C   UNL     1      -2.774  -0.415   4.592  1.00  0.00     0.116 C 
BRANCH   2   3
ATOM      3  N   UNL     1      -2.193  -0.224   5.919  1.00  0.00    -0.356 N 
ATOM      4  C   UNL     1      -0.916  -0.253   6.387  1.00  0.00     0.220 C 
ATOM      5  O   UNL     1      -0.764  -0.436   7.598  1.00  0.00    -0.275 OA
ATOM      6  H   UNL     1      -2.862  -0.036   6.617  1.00  0.00     0.163 HD
BRANCH   4   7
ATOM      7  C   UNL     1       0.290  -0.030   5.490  1.00  0.00     0.100 C 
BRANCH   7   8
ATOM      8  C   UNL     1       1.041  -1.326   5.140  1.00  0.00     0.019 C 
BRANCH   8   9
ATOM      9  C   UNL     1       1.217  -1.677   3.630  1.00  0.00     0.045 C 
ATOM     10  N   UNL     1      -0.147  -1.674   1.427  1.00  0.00    -0.331 N 
ATOM     11  C   UNL     1      -0.013  -3.123   1.399  1.00  0.00     0.262 C 
ATOM     12  C   UNL     1       0.048  -1.168   2.782  1.00  0.00     0.265 C 
ATOM     13  H   UNL     1      -1.112  -1.580   1.112  1.00  0.00     0.348 HD
ATOM     14  C   UNL     1       1.262  -3.661   2.039  1.00  0.00     0.062 C 
ATOM     15  C   UNL     1       1.383  -3.201   3.487  1.00  0.00     0.015 C 
BRANCH  10  16
ATOM     16  C   UNL     1       0.420  -0.800   0.376  1.00  0.00     0.196 C 
ATOM     17  C   UNL     1       2.418   0.524  -0.399  1.00  0.00     0.026 C 
ATOM     18  C   UNL     1       1.924  -0.869   0.045  1.00  0.00     0.101 C 
ATOM     19  S   UNL     1       2.449  -2.017  -1.291  1.00  0.00    -0.153 SA
ATOM     20  C   UNL     1       0.901  -2.780  -1.867  1.00  0.00     0.070 C 
ATOM     21  C   UNL     1      -0.410  -0.768  -0.910  1.00  0.00     0.067 C 
ATOM     22  C   UNL     1      -0.425  -2.048  -1.718  1.00  0.00     0.017 C 
ENDBRANCH  10  16
ENDBRANCH   8   9
ENDBRANCH   7   8
ENDBRANCH   4   7
ENDBRANCH   2   3
ENDBRANCH   1   2
BRANCH   1  23
ATOM     23  C   UNL     1      -3.797  -2.424   3.157  1.00  0.00     0.023 C 
BRANCH  23  24
ATOM     24  C   UNL     1      -4.347  -1.438   2.138  1.00  0.00     0.116 C 
BRANCH  24  25
ATOM     25  N   UNL     1      -3.596  -1.399   0.887  1.00  0.00    -0.352 N 
ATOM     26  C   UNL     1      -4.086  -1.378  -0.406  1.00  0.00     0.251 C 
ATOM     27  H   UNL     1      -2.615  -1.387   0.975  1.00  0.00     0.163 HD
ATOM     28  O   UNL     1      -3.354  -1.427  -1.391  1.00  0.00    -0.269 OA
BRANCH  26  29
ATOM     29  C   UNL     1      -5.534  -1.383  -0.654  1.00  0.00     0.039 A 
ATOM     30  C   UNL     1      -6.030  -2.283  -1.604  1.00  0.00     0.014 A 
ATOM     31  C   UNL     1      -6.396  -0.578   0.087  1.00  0.00     0.014 A 
ATOM     32  C   UNL     1      -7.400  -2.484  -1.706  1.00  0.00     0.010 A 
ATOM     33  C   UNL     1      -7.752  -0.856   0.063  1.00  0.00     0.010 A 
ATOM     34  C   UNL     1      -8.258  -1.831  -0.811  1.00  0.00    -0.014 A 
BRANCH  34  35
ATOM     35  C   UNL     1      -9.692  -2.177  -0.739  1.00  0.00     0.031 A 
ATOM     36  C   UNL     1     -10.716  -1.122  -1.019  1.00  0.00     0.074 A 
ATOM     37  C   UNL     1     -10.048  -3.405  -0.315  1.00  0.00     0.049 A 
ATOM     38  N   UNL     1     -12.012  -1.169  -0.862  1.00  0.00    -0.248 NA
ATOM     39  C   UNL     1     -10.210   0.176  -1.495  1.00  0.00     0.031 C 
ATOM     40  C   UNL     1      -9.122  -4.490   0.033  1.00  0.00     0.029 A 
ATOM     41  N   UNL     1     -11.286  -3.949  -0.097  1.00  0.00    -0.354 N 
ATOM     42  C   UNL     1     -12.469   0.102  -1.178  1.00  0.00     0.074 A 
ATOM     43  C   UNL     1     -11.311   0.911  -1.486  1.00  0.00     0.031 C 
ATOM     44  C   UNL     1      -9.827  -5.577   0.381  1.00  0.00     0.029 A 
ATOM     45  C   UNL     1     -11.247  -5.254   0.330  1.00  0.00     0.049 A 
ATOM     46  H   UNL     1     -12.125  -3.451  -0.232  1.00  0.00     0.167 HD
ATOM     47  C   UNL     1     -13.746   0.548  -1.225  1.00  0.00     0.031 A 
ATOM     48  C   UNL     1     -12.250  -6.092   0.646  1.00  0.00     0.031 A 
ATOM     49  C   UNL     1     -14.886  -0.281  -0.946  1.00  0.00     0.049 A 
ATOM     50  C   UNL     1     -13.660  -5.585   0.547  1.00  0.00     0.074 A 
ATOM     51  C   UNL     1     -16.228   0.043  -1.010  1.00  0.00     0.029 A 
ATOM     52  N   UNL     1     -14.808  -1.612  -0.561  1.00  0.00    -0.354 N 
ATOM     53  N   UNL     1     -14.084  -4.390   0.208  1.00  0.00    -0.248 NA
ATOM     54  C   UNL     1     -14.729  -6.540   0.865  1.00  0.00     0.031 C 
ATOM     55  C   UNL     1     -16.963  -1.088  -0.636  1.00  0.00     0.029 A 
ATOM     56  C   UNL     1     -16.079  -2.126  -0.381  1.00  0.00     0.049 A 
ATOM     57  H   UNL     1     -13.972  -2.116  -0.435  1.00  0.00     0.167 HD
ATOM     58  C   UNL     1     -15.469  -4.456   0.247  1.00  0.00     0.074 A 
ATOM     59  C   UNL     1     -15.812  -5.813   0.627  1.00  0.00     0.031 C 
ATOM     60  C   UNL     1     -16.379  -3.484  -0.006  1.00  0.00     0.031 A 
BRANCH  47  61
ATOM     61  C   UNL     1     -13.951   1.992  -1.585  1.00  0.00    -0.014 A 
ATOM     62  C   UNL     1     -13.675   2.467  -2.878  1.00  0.00     0.009 A 
ATOM     63  C   UNL     1     -14.406   2.897  -0.613  1.00  0.00     0.009 A 
ATOM     64  C   UNL     1     -13.799   3.825  -3.176  1.00  0.00     0.001 A 
ATOM     65  C   UNL     1     -14.559   4.250  -0.923  1.00  0.00     0.001 A 
ATOM     66  C   UNL     1     -14.243   4.715  -2.199  1.00  0.00     0.000 A 
ENDBRANCH  47  61
BRANCH  48  67
ATOM     67  C   UNL     1     -11.960  -7.493   1.046  1.00  0.00    -0.014 A 
ATOM     68  C   UNL     1     -12.252  -8.552   0.172  1.00  0.00     0.009 A 
ATOM     69  C   UNL     1     -11.379  -7.783   2.290  1.00  0.00     0.009 A 
ATOM     70  C   UNL     1     -11.993  -9.873   0.545  1.00  0.00     0.001 A 
ATOM     71  C   UNL     1     -11.096  -9.104   2.650  1.00  0.00     0.001 A 
ATOM     72  C   UNL     1     -11.412 -10.147   1.782  1.00  0.00     0.000 A 
ENDBRANCH  48  67
BRANCH  60  73
ATOM     73  C   UNL     1     -17.825  -3.872   0.087  1.00  0.00    -0.014 A 
ATOM     74  C   UNL     1     -18.445  -4.066   1.331  1.00  0.00     0.009 A 
ATOM     75  C   UNL     1     -18.582  -4.003  -1.086  1.00  0.00     0.009 A 
ATOM     76  C   UNL     1     -19.794  -4.415   1.394  1.00  0.00     0.001 A 
ATOM     77  C   UNL     1     -19.937  -4.326  -1.018  1.00  0.00     0.001 A 
ATOM     78  C   UNL     1     -20.540  -4.540   0.221  1.00  0.00     0.000 A 
ENDBRANCH  60  73
ENDBRANCH  34  35
ENDBRANCH  26  29
ENDBRANCH  24  25
ENDBRANCH  23  24
ENDBRANCH   1  23
TORSDOF 14
