REMARK SMILES COc1cccc([C@H]2CC(c3ccc(S(C)(=O)=O)cc3)=NN2c2ccc(C(=O)NCCCCNC(=O)c3ccc(-c4c5nc(c(-c6ccccc6)c6ccc([nH]6)c(-c6ccccc6)c6nc(c(-c7ccccc7)c7ccc4[nH]7)C=C6)C=C5)cc3)cc2)c1
REMARK SMILES IDX 31 1 30 2 29 3 27 4 28 5 26 7 23 8 24 9 86 10 25 11 85 12
REMARK SMILES IDX 22 13 8 14 9 15 10 16 21 17 7 18 3 19 4 20 87 21 5 22 6 23
REMARK SMILES IDX 2 24 1 25 11 26 12 27 20 28 13 29 19 30 14 31 15 32 16 33
REMARK SMILES IDX 17 34 18 35 32 36 33 37 34 38 35 39 36 41 37 42 38 43 84 44
REMARK SMILES IDX 39 45 83 46 40 47 41 48 42 49 77 50 43 51 82 52 76 53 78 54
REMARK SMILES IDX 44 55 81 56 75 57 74 58 45 60 67 61 52 62 66 63 53 64 56 65
REMARK SMILES IDX 65 66 79 67 54 68 55 69 64 71 80 72 57 73 46 74 47 75 51 76
REMARK SMILES IDX 48 77 50 78 49 79 68 80 69 81 73 82 70 83 72 84 71 85 58 86
REMARK SMILES IDX 59 87 63 88 60 89 62 90 61 91
REMARK H PARENT 29 6 34 40 78 59 56 70
REMARK Flexibility Score: inf
ROOT
ATOM      1  C   UNL     1       4.981 -10.877   0.593  1.00  0.00     0.023 C 
ENDROOT
BRANCH   1   2
ATOM      2  C   UNL     1       3.769 -10.171   1.205  1.00  0.00     0.116 C 
BRANCH   2   3
ATOM      3  N   UNL     1       4.146  -9.481   2.420  1.00  0.00    -0.352 N 
ATOM      4  C   UNL     1       4.521  -8.185   2.664  1.00  0.00     0.251 C 
ATOM      5  O   UNL     1       4.780  -7.891   3.833  1.00  0.00    -0.269 OA
ATOM      6  H   UNL     1       4.129 -10.050   3.223  1.00  0.00     0.163 HD
BRANCH   4   7
ATOM      7  C   UNL     1       4.587  -7.125   1.615  1.00  0.00     0.039 A 
ATOM      8  C   UNL     1       4.660  -4.968  -0.228  1.00  0.00     0.060 A 
ATOM      9  C   UNL     1       4.539  -4.737   1.146  1.00  0.00     0.029 A 
ATOM     10  C   UNL     1       4.787  -6.287  -0.662  1.00  0.00     0.029 A 
ATOM     11  C   UNL     1       4.482  -5.798   2.054  1.00  0.00     0.016 A 
ATOM     12  C   UNL     1       4.789  -7.349   0.251  1.00  0.00     0.016 A 
BRANCH   8  13
ATOM     13  N   UNL     1       4.690  -3.902  -1.108  1.00  0.00    -0.257 N 
ATOM     14  C   UNL     1       3.846  -3.771  -2.295  1.00  0.00     0.144 C 
ATOM     15  C   UNL     1       4.468  -2.569  -3.021  1.00  0.00     0.091 C 
ATOM     16  C   UNL     1       5.633  -2.293  -2.114  1.00  0.00     0.071 C 
ATOM     17  N   UNL     1       5.735  -3.041  -1.063  1.00  0.00    -0.176 NA
BRANCH  14  18
ATOM     18  C   UNL     1       2.393  -3.549  -1.907  1.00  0.00    -0.019 A 
ATOM     19  C   UNL     1       0.686  -2.296  -0.696  1.00  0.00     0.119 A 
ATOM     20  C   UNL     1      -0.278  -3.212  -1.113  1.00  0.00     0.046 A 
ATOM     21  C   UNL     1       2.017  -2.476  -1.074  1.00  0.00     0.052 A 
ATOM     22  C   UNL     1       0.076  -4.279  -1.937  1.00  0.00     0.004 A 
ATOM     23  C   UNL     1       1.403  -4.445  -2.337  1.00  0.00     0.006 A 
BRANCH  19  24
ATOM     24  O   UNL     1       0.237  -1.294   0.120  1.00  0.00    -0.497 OA
ATOM     25  C   UNL     1       0.905  -0.047  -0.042  1.00  0.00     0.278 C 
ENDBRANCH  19  24
ENDBRANCH  14  18
BRANCH  16  26
ATOM     26  C   UNL     1       6.622  -1.264  -2.436  1.00  0.00    -0.002 A 
ATOM     27  C   UNL     1       7.956  -1.652  -2.595  1.00  0.00     0.011 A 
ATOM     28  C   UNL     1       6.242   0.075  -2.526  1.00  0.00     0.011 A 
ATOM     29  C   UNL     1       8.927  -0.689  -2.860  1.00  0.00     0.021 A 
ATOM     30  C   UNL     1       7.217   1.046  -2.766  1.00  0.00     0.021 A 
ATOM     31  C   UNL     1       8.553   0.658  -2.925  1.00  0.00     0.067 A 
BRANCH  31  32
ATOM     32  S   UNL     1       9.805   1.884  -3.224  1.00  0.00     0.175 S 
ATOM     33  C   UNL     1      10.892   1.741  -1.829  1.00  0.00     0.163 C 
ATOM     34  O   UNL     1      10.521   1.467  -4.413  1.00  0.00    -0.224 OA
ATOM     35  O   UNL     1       9.168   3.186  -3.151  1.00  0.00    -0.224 OA
ENDBRANCH  31  32
ENDBRANCH  16  26
ENDBRANCH   8  13
ENDBRANCH   4   7
ENDBRANCH   2   3
ENDBRANCH   1   2
BRANCH   1  36
ATOM     36  C   UNL     1       5.368 -12.183   1.293  1.00  0.00     0.023 C 
BRANCH  36  37
ATOM     37  C   UNL     1       4.307 -13.276   1.244  1.00  0.00     0.116 C 
BRANCH  37  38
ATOM     38  N   UNL     1       3.902 -13.621  -0.109  1.00  0.00    -0.352 N 
ATOM     39  C   UNL     1       3.460 -14.826  -0.593  1.00  0.00     0.251 C 
ATOM     40  H   UNL     1       3.952 -12.890  -0.767  1.00  0.00     0.163 HD
ATOM     41  O   UNL     1       3.258 -14.973  -1.794  1.00  0.00    -0.269 OA
BRANCH  39  42
ATOM     42  C   UNL     1       3.271 -15.960   0.334  1.00  0.00     0.039 A 
ATOM     43  C   UNL     1       3.803 -17.203  -0.017  1.00  0.00     0.014 A 
ATOM     44  C   UNL     1       2.585 -15.800   1.541  1.00  0.00     0.014 A 
ATOM     45  C   UNL     1       3.695 -18.274   0.870  1.00  0.00     0.010 A 
ATOM     46  C   UNL     1       2.535 -16.851   2.452  1.00  0.00     0.010 A 
ATOM     47  C   UNL     1       3.085 -18.098   2.122  1.00  0.00    -0.014 A 
BRANCH  47  48
ATOM     48  C   UNL     1       3.019 -19.214   3.095  1.00  0.00     0.031 A 
ATOM     49  C   UNL     1       1.694 -19.816   3.469  1.00  0.00     0.074 A 
ATOM     50  C   UNL     1       4.151 -19.656   3.675  1.00  0.00     0.049 A 
ATOM     51  N   UNL     1       1.440 -20.796   4.300  1.00  0.00    -0.248 NA
ATOM     52  C   UNL     1       0.497 -19.227   2.848  1.00  0.00     0.031 C 
ATOM     53  C   UNL     1       5.493 -19.120   3.434  1.00  0.00     0.029 A 
ATOM     54  N   UNL     1       4.352 -20.661   4.587  1.00  0.00    -0.354 N 
ATOM     55  C   UNL     1       0.058 -20.931   4.310  1.00  0.00     0.074 A 
ATOM     56  C   UNL     1      -0.475 -19.903   3.443  1.00  0.00     0.031 C 
ATOM     57  C   UNL     1       6.381 -19.823   4.155  1.00  0.00     0.029 A 
ATOM     58  C   UNL     1       5.671 -20.837   4.927  1.00  0.00     0.049 A 
ATOM     59  H   UNL     1       3.621 -21.203   4.961  1.00  0.00     0.167 HD
ATOM     60  C   UNL     1      -0.700 -21.841   4.966  1.00  0.00     0.031 A 
ATOM     61  C   UNL     1       6.244 -21.722   5.764  1.00  0.00     0.031 A 
ATOM     62  C   UNL     1      -0.172 -22.871   5.819  1.00  0.00     0.049 A 
ATOM     63  C   UNL     1       5.382 -22.727   6.473  1.00  0.00     0.074 A 
ATOM     64  C   UNL     1      -0.853 -23.880   6.478  1.00  0.00     0.029 A 
ATOM     65  N   UNL     1       1.170 -23.022   6.131  1.00  0.00    -0.354 N 
ATOM     66  N   UNL     1       4.083 -22.892   6.410  1.00  0.00    -0.248 NA
ATOM     67  C   UNL     1       6.070 -23.678   7.357  1.00  0.00     0.031 C 
ATOM     68  C   UNL     1       0.074 -24.617   7.224  1.00  0.00     0.029 A 
ATOM     69  C   UNL     1       1.336 -24.095   6.992  1.00  0.00     0.049 A 
ATOM     70  H   UNL     1       1.897 -22.452   5.792  1.00  0.00     0.167 HD
ATOM     71  C   UNL     1       3.800 -23.977   7.229  1.00  0.00     0.074 A 
ATOM     72  C   UNL     1       5.065 -24.443   7.760  1.00  0.00     0.031 C 
ATOM     73  C   UNL     1       2.601 -24.538   7.517  1.00  0.00     0.031 A 
BRANCH  60  74
ATOM     74  C   UNL     1      -2.189 -21.756   4.782  1.00  0.00    -0.014 A 
ATOM     75  C   UNL     1      -2.791 -22.113   3.564  1.00  0.00     0.009 A 
ATOM     76  C   UNL     1      -3.003 -21.337   5.845  1.00  0.00     0.009 A 
ATOM     77  C   UNL     1      -4.174 -22.015   3.403  1.00  0.00     0.001 A 
ATOM     78  C   UNL     1      -4.389 -21.265   5.689  1.00  0.00     0.001 A 
ATOM     79  C   UNL     1      -4.972 -21.595   4.467  1.00  0.00     0.000 A 
ENDBRANCH  60  74
BRANCH  61  80
ATOM     80  C   UNL     1       7.716 -21.718   5.955  1.00  0.00    -0.014 A 
ATOM     81  C   UNL     1       8.505 -22.741   5.408  1.00  0.00     0.009 A 
ATOM     82  C   UNL     1       8.340 -20.696   6.687  1.00  0.00     0.009 A 
ATOM     83  C   UNL     1       9.886 -22.756   5.613  1.00  0.00     0.001 A 
ATOM     84  C   UNL     1       9.724 -20.700   6.870  1.00  0.00     0.001 A 
ATOM     85  C   UNL     1      10.495 -21.735   6.340  1.00  0.00     0.000 A 
ENDBRANCH  61  80
BRANCH  73  86
ATOM     86  C   UNL     1       2.608 -25.728   8.432  1.00  0.00    -0.014 A 
ATOM     87  C   UNL     1       2.845 -25.584   9.807  1.00  0.00     0.009 A 
ATOM     88  C   UNL     1       2.348 -27.006   7.914  1.00  0.00     0.009 A 
ATOM     89  C   UNL     1       2.858 -26.704  10.641  1.00  0.00     0.001 A 
ATOM     90  C   UNL     1       2.334 -28.120   8.755  1.00  0.00     0.001 A 
ATOM     91  C   UNL     1       2.599 -27.969  10.115  1.00  0.00     0.000 A 
ENDBRANCH  73  86
ENDBRANCH  47  48
ENDBRANCH  39  42
ENDBRANCH  37  38
ENDBRANCH  36  37
ENDBRANCH   1  36
TORSDOF 16
