REMARK SMILES CC(C)Cc1ccc([C@@H](C)C(=O)NCCCCNC(=O)c2ccc(-c3c4nc(c(-c5ccccc5)c5ccc([nH]5)c(-c5ccccc5)c5nc(c(-c6ccccc6)c6ccc3[nH]6)C=C5)C=C4)cc2)cc1
REMARK SMILES IDX 15 1 14 2 13 3 11 4 12 5 9 7 10 8 8 9 5 10 6 11 70 12 7 13
REMARK SMILES IDX 69 14 4 15 2 16 1 17 3 18 16 19 17 20 18 21 19 22 20 24
REMARK SMILES IDX 21 25 22 26 68 27 23 28 67 29 24 30 25 31 26 32 61 33 27 34
REMARK SMILES IDX 66 35 60 36 62 37 28 38 65 39 59 40 58 41 29 43 51 44 36 45
REMARK SMILES IDX 50 46 37 47 40 48 49 49 63 50 38 51 39 52 48 54 64 55 41 56
REMARK SMILES IDX 30 57 31 58 35 59 32 60 34 61 33 62 52 63 53 64 57 65 54 66
REMARK SMILES IDX 56 67 55 68 42 69 43 70 47 71 44 72 46 73 45 74
REMARK H PARENT 13 6 18 23 62 42 40 53
REMARK Flexibility Score: inf
ROOT
ATOM      1  C   UNL     1      -3.643   2.738   4.449  1.00  0.00     0.023 C 
ENDROOT
BRANCH   1   2
ATOM      2  C   UNL     1      -3.412   1.958   5.743  1.00  0.00     0.116 C 
BRANCH   2   3
ATOM      3  N   UNL     1      -4.103   0.687   5.748  1.00  0.00    -0.356 N 
ATOM      4  C   UNL     1      -3.679  -0.563   5.412  1.00  0.00     0.227 C 
ATOM      5  O   UNL     1      -4.527  -1.462   5.458  1.00  0.00    -0.274 OA
ATOM      6  H   UNL     1      -5.040   0.733   6.046  1.00  0.00     0.163 HD
BRANCH   4   7
ATOM      7  C   UNL     1      -2.233  -0.891   5.011  1.00  0.00     0.105 C 
ATOM      8  C   UNL     1      -1.216  -0.659   6.130  1.00  0.00     0.023 C 
BRANCH   7   9
ATOM      9  C   UNL     1      -1.850  -0.361   3.639  1.00  0.00    -0.036 A 
ATOM     10  C   UNL     1      -1.233   0.578   1.040  1.00  0.00    -0.048 A 
ATOM     11  C   UNL     1      -0.893   1.326   2.172  1.00  0.00     0.004 A 
ATOM     12  C   UNL     1      -1.897  -0.640   1.214  1.00  0.00     0.004 A 
ATOM     13  C   UNL     1      -1.162   0.843   3.453  1.00  0.00     0.005 A 
ATOM     14  C   UNL     1      -2.214  -1.095   2.498  1.00  0.00     0.005 A 
BRANCH  10  15
ATOM     15  C   UNL     1      -0.850   1.065  -0.337  1.00  0.00     0.038 C 
BRANCH  15  16
ATOM     16  C   UNL     1       0.673   1.243  -0.506  1.00  0.00    -0.013 C 
ATOM     17  C   UNL     1       1.418  -0.089  -0.377  1.00  0.00     0.008 C 
ATOM     18  C   UNL     1       0.986   1.891  -1.854  1.00  0.00     0.008 C 
ENDBRANCH  15  16
ENDBRANCH  10  15
ENDBRANCH   7   9
ENDBRANCH   4   7
ENDBRANCH   2   3
ENDBRANCH   1   2
BRANCH   1  19
ATOM     19  C   UNL     1      -4.914   3.584   4.421  1.00  0.00     0.023 C 
BRANCH  19  20
ATOM     20  C   UNL     1      -5.000   4.665   5.490  1.00  0.00     0.116 C 
BRANCH  20  21
ATOM     21  N   UNL     1      -3.885   5.601   5.486  1.00  0.00    -0.352 N 
ATOM     22  C   UNL     1      -3.889   6.929   5.851  1.00  0.00     0.251 C 
ATOM     23  H   UNL     1      -3.020   5.240   5.185  1.00  0.00     0.163 HD
ATOM     24  O   UNL     1      -2.884   7.617   5.729  1.00  0.00    -0.269 OA
BRANCH  22  25
ATOM     25  C   UNL     1      -5.148   7.527   6.344  1.00  0.00     0.039 A 
ATOM     26  C   UNL     1      -5.618   8.697   5.742  1.00  0.00     0.014 A 
ATOM     27  C   UNL     1      -5.893   6.892   7.339  1.00  0.00     0.014 A 
ATOM     28  C   UNL     1      -6.882   9.183   6.082  1.00  0.00     0.010 A 
ATOM     29  C   UNL     1      -7.181   7.332   7.618  1.00  0.00     0.010 A 
ATOM     30  C   UNL     1      -7.690   8.478   6.988  1.00  0.00    -0.014 A 
BRANCH  30  31
ATOM     31  C   UNL     1      -9.077   8.912   7.285  1.00  0.00     0.031 A 
ATOM     32  C   UNL     1      -9.451   9.342   8.675  1.00  0.00     0.074 A 
ATOM     33  C   UNL     1     -10.019   8.838   6.324  1.00  0.00     0.049 A 
ATOM     34  N   UNL     1     -10.622   9.685   9.146  1.00  0.00    -0.248 NA
ATOM     35  C   UNL     1      -8.371   9.356   9.675  1.00  0.00     0.031 C 
ATOM     36  C   UNL     1      -9.799   8.383   4.949  1.00  0.00     0.029 A 
ATOM     37  N   UNL     1     -11.358   9.137   6.364  1.00  0.00    -0.354 N 
ATOM     38  C   UNL     1     -10.426   9.931  10.498  1.00  0.00     0.074 A 
ATOM     39  C   UNL     1      -9.035   9.650  10.783  1.00  0.00     0.031 C 
ATOM     40  C   UNL     1     -10.955   8.461   4.270  1.00  0.00     0.029 A 
ATOM     41  C   UNL     1     -12.002   8.937   5.167  1.00  0.00     0.049 A 
ATOM     42  H   UNL     1     -11.813   9.465   7.173  1.00  0.00     0.167 HD
ATOM     43  C   UNL     1     -11.316  10.370  11.419  1.00  0.00     0.031 A 
ATOM     44  C   UNL     1     -13.293   9.116   4.831  1.00  0.00     0.031 A 
ATOM     45  C   UNL     1     -12.693  10.670  11.133  1.00  0.00     0.049 A 
ATOM     46  C   UNL     1     -14.259   9.622   5.864  1.00  0.00     0.074 A 
ATOM     47  C   UNL     1     -13.657  11.188  11.979  1.00  0.00     0.029 A 
ATOM     48  N   UNL     1     -13.300  10.479   9.902  1.00  0.00    -0.354 N 
ATOM     49  N   UNL     1     -14.041   9.921   7.121  1.00  0.00    -0.248 NA
ATOM     50  C   UNL     1     -15.648   9.825   5.427  1.00  0.00     0.031 C 
ATOM     51  C   UNL     1     -14.860  11.274  11.270  1.00  0.00     0.029 A 
ATOM     52  C   UNL     1     -14.632  10.851   9.970  1.00  0.00     0.049 A 
ATOM     53  H   UNL     1     -12.851  10.130   9.098  1.00  0.00     0.167 HD
ATOM     54  C   UNL     1     -15.256  10.369   7.620  1.00  0.00     0.074 A 
ATOM     55  C   UNL     1     -16.204  10.317   6.525  1.00  0.00     0.031 C 
ATOM     56  C   UNL     1     -15.560  10.789   8.872  1.00  0.00     0.031 A 
BRANCH  43  57
ATOM     57  C   UNL     1     -10.818  10.545  12.825  1.00  0.00    -0.014 A 
ATOM     58  C   UNL     1      -9.926  11.578  13.156  1.00  0.00     0.009 A 
ATOM     59  C   UNL     1     -11.253   9.673  13.835  1.00  0.00     0.009 A 
ATOM     60  C   UNL     1      -9.446  11.707  14.461  1.00  0.00     0.001 A 
ATOM     61  C   UNL     1     -10.793   9.822  15.144  1.00  0.00     0.001 A 
ATOM     62  C   UNL     1      -9.882  10.831  15.454  1.00  0.00     0.000 A 
ENDBRANCH  43  57
BRANCH  44  63
ATOM     63  C   UNL     1     -13.741   8.844   3.441  1.00  0.00    -0.014 A 
ATOM     64  C   UNL     1     -14.044   9.906   2.575  1.00  0.00     0.009 A 
ATOM     65  C   UNL     1     -13.863   7.527   2.972  1.00  0.00     0.009 A 
ATOM     66  C   UNL     1     -14.480   9.654   1.272  1.00  0.00     0.001 A 
ATOM     67  C   UNL     1     -14.276   7.279   1.661  1.00  0.00     0.001 A 
ATOM     68  C   UNL     1     -14.591   8.342   0.815  1.00  0.00     0.000 A 
ENDBRANCH  44  63
BRANCH  56  69
ATOM     69  C   UNL     1     -16.968  11.250   9.117  1.00  0.00    -0.014 A 
ATOM     70  C   UNL     1     -18.025  10.332   9.215  1.00  0.00     0.009 A 
ATOM     71  C   UNL     1     -17.231  12.617   9.291  1.00  0.00     0.009 A 
ATOM     72  C   UNL     1     -19.326  10.780   9.456  1.00  0.00     0.001 A 
ATOM     73  C   UNL     1     -18.527  13.059   9.556  1.00  0.00     0.001 A 
ATOM     74  C   UNL     1     -19.575  12.142   9.630  1.00  0.00     0.000 A 
ENDBRANCH  56  69
ENDBRANCH  30  31
ENDBRANCH  22  25
ENDBRANCH  20  21
ENDBRANCH  19  20
ENDBRANCH   1  19
TORSDOF 14
