REMARK SMILES O=C(NCCCCNC(=O)[C@@H]1C[C@@H](O)CN1C(=O)CSc1ccc(F)cc1F)c1ccc(-c2c3nc(c(-c4ccccc4)c4ccc([nH]4)c(-c4ccccc4)c4nc(c(-c5ccccc5)c5ccc2[nH]5)C=C4)C=C3)cc1
REMARK SMILES IDX 6 1 5 2 4 3 3 4 1 5 2 6 29 8 30 9 76 10 31 11 75 12 32 13
REMARK SMILES IDX 33 14 34 15 69 16 35 17 74 18 68 19 70 20 36 21 73 22 67 23
REMARK SMILES IDX 66 24 37 26 59 27 44 28 58 29 45 30 48 31 57 32 71 33 46 34
REMARK SMILES IDX 47 35 56 37 72 38 49 39 38 40 39 41 43 42 40 43 42 44 41 45
REMARK SMILES IDX 60 46 61 47 65 48 62 49 64 50 63 51 50 52 51 53 55 54 52 55
REMARK SMILES IDX 54 56 53 57 7 58 8 59 9 60 10 62 11 63 12 64 16 65 13 66
REMARK SMILES IDX 15 67 17 68 18 69 19 70 20 71 21 72 22 73 27 74 23 75 26 76
REMARK SMILES IDX 28 77 24 78 25 79 14 80
REMARK H PARENT 3 7 70 25 48 36 8 61 14 81
REMARK Flexibility Score: inf
ROOT
ATOM      1  C   UNL     1      10.028  -6.850  -0.346  1.00  0.00     0.023 C 
ENDROOT
BRANCH   1   2
ATOM      2  C   UNL     1       9.809  -8.076   0.542  1.00  0.00     0.023 C 
BRANCH   2   3
ATOM      3  C   UNL     1       9.621  -9.403  -0.184  1.00  0.00     0.116 C 
BRANCH   3   4
ATOM      4  N   UNL     1      10.818  -9.869  -0.869  1.00  0.00    -0.352 N 
ATOM      5  O   UNL     1      12.767 -10.950  -1.191  1.00  0.00    -0.269 OA
ATOM      6  C   UNL     1      11.764 -10.800  -0.505  1.00  0.00     0.251 C 
ATOM      7  H   UNL     1      10.978  -9.445  -1.743  1.00  0.00     0.163 HD
BRANCH   6   8
ATOM      8  C   UNL     1      11.604 -11.591   0.737  1.00  0.00     0.039 A 
ATOM      9  C   UNL     1      10.388 -12.186   1.069  1.00  0.00     0.014 A 
ATOM     10  C   UNL     1      12.706 -11.752   1.583  1.00  0.00     0.014 A 
ATOM     11  C   UNL     1      10.216 -12.758   2.327  1.00  0.00     0.010 A 
ATOM     12  C   UNL     1      12.559 -12.417   2.806  1.00  0.00     0.010 A 
ATOM     13  C   UNL     1      11.297 -12.873   3.216  1.00  0.00    -0.014 A 
BRANCH  13  14
ATOM     14  C   UNL     1      11.079 -13.468   4.562  1.00  0.00     0.031 A 
ATOM     15  C   UNL     1      11.270 -12.649   5.812  1.00  0.00     0.074 A 
ATOM     16  C   UNL     1      10.658 -14.744   4.660  1.00  0.00     0.049 A 
ATOM     17  N   UNL     1      11.062 -12.989   7.061  1.00  0.00    -0.248 NA
ATOM     18  C   UNL     1      11.763 -11.273   5.644  1.00  0.00     0.031 C 
ATOM     19  C   UNL     1      10.433 -15.649   3.530  1.00  0.00     0.029 A 
ATOM     20  N   UNL     1      10.316 -15.492   5.757  1.00  0.00    -0.354 N 
ATOM     21  C   UNL     1      11.425 -11.885   7.824  1.00  0.00     0.074 A 
ATOM     22  C   UNL     1      11.889 -10.872   6.901  1.00  0.00     0.031 C 
ATOM     23  C   UNL     1       9.933 -16.806   3.987  1.00  0.00     0.029 A 
ATOM     24  C   UNL     1       9.855 -16.748   5.442  1.00  0.00     0.049 A 
ATOM     25  H   UNL     1      10.392 -15.162   6.681  1.00  0.00     0.167 HD
ATOM     26  C   UNL     1      11.371 -11.723   9.168  1.00  0.00     0.031 A 
ATOM     27  C   UNL     1       9.419 -17.745   6.233  1.00  0.00     0.031 A 
ATOM     28  C   UNL     1      10.896 -12.722  10.091  1.00  0.00     0.049 A 
ATOM     29  C   UNL     1       9.387 -17.547   7.720  1.00  0.00     0.074 A 
ATOM     30  C   UNL     1      10.765 -12.633  11.466  1.00  0.00     0.029 A 
ATOM     31  N   UNL     1      10.479 -13.994   9.732  1.00  0.00    -0.354 N 
ATOM     32  N   UNL     1       9.697 -16.483   8.419  1.00  0.00    -0.248 NA
ATOM     33  C   UNL     1       8.939 -18.691   8.527  1.00  0.00     0.031 C 
ATOM     34  C   UNL     1      10.315 -13.869  11.945  1.00  0.00     0.029 A 
ATOM     35  C   UNL     1      10.113 -14.708  10.862  1.00  0.00     0.049 A 
ATOM     36  H   UNL     1      10.447 -14.340   8.810  1.00  0.00     0.167 HD
ATOM     37  C   UNL     1       9.454 -16.817   9.744  1.00  0.00     0.074 A 
ATOM     38  C   UNL     1       8.959 -18.179   9.749  1.00  0.00     0.031 C 
ATOM     39  C   UNL     1       9.623 -16.062  10.856  1.00  0.00     0.031 A 
BRANCH  26  40
ATOM     40  C   UNL     1      11.870 -10.420   9.731  1.00  0.00    -0.014 A 
ATOM     41  C   UNL     1      11.151  -9.226   9.569  1.00  0.00     0.009 A 
ATOM     42  C   UNL     1      13.065 -10.397  10.469  1.00  0.00     0.009 A 
ATOM     43  C   UNL     1      11.639  -8.029  10.100  1.00  0.00     0.001 A 
ATOM     44  C   UNL     1      13.535  -9.205  11.023  1.00  0.00     0.001 A 
ATOM     45  C   UNL     1      12.827  -8.020  10.829  1.00  0.00     0.000 A 
ENDBRANCH  26  40
BRANCH  27  46
ATOM     46  C   UNL     1       8.963 -19.023   5.627  1.00  0.00    -0.014 A 
ATOM     47  C   UNL     1       7.604 -19.371   5.639  1.00  0.00     0.009 A 
ATOM     48  C   UNL     1       9.884 -19.895   5.026  1.00  0.00     0.009 A 
ATOM     49  C   UNL     1       7.179 -20.577   5.080  1.00  0.00     0.001 A 
ATOM     50  C   UNL     1       9.452 -21.087   4.441  1.00  0.00     0.001 A 
ATOM     51  C   UNL     1       8.101 -21.431   4.476  1.00  0.00     0.000 A 
ENDBRANCH  27  46
BRANCH  39  52
ATOM     52  C   UNL     1       9.226 -16.678  12.168  1.00  0.00    -0.014 A 
ATOM     53  C   UNL     1       9.989 -17.698  12.758  1.00  0.00     0.009 A 
ATOM     54  C   UNL     1       8.078 -16.216  12.830  1.00  0.00     0.009 A 
ATOM     55  C   UNL     1       9.587 -18.268  13.968  1.00  0.00     0.001 A 
ATOM     56  C   UNL     1       7.695 -16.768  14.053  1.00  0.00     0.001 A 
ATOM     57  C   UNL     1       8.443 -17.801  14.616  1.00  0.00     0.000 A 
ENDBRANCH  39  52
ENDBRANCH  13  14
ENDBRANCH   6   8
ENDBRANCH   3   4
ENDBRANCH   2   3
ENDBRANCH   1   2
BRANCH   1  58
ATOM     58  C   UNL     1       9.021  -6.639  -1.473  1.00  0.00     0.116 C 
BRANCH  58  59
ATOM     59  N   UNL     1       7.627  -6.604  -1.061  1.00  0.00    -0.354 N 
ATOM     60  C   UNL     1       6.531  -6.512  -1.895  1.00  0.00     0.242 C 
ATOM     61  H   UNL     1       7.448  -6.650  -0.094  1.00  0.00     0.163 HD
ATOM     62  O   UNL     1       5.399  -6.642  -1.428  1.00  0.00    -0.273 OA
BRANCH  60  63
ATOM     63  C   UNL     1       6.802  -6.282  -3.397  1.00  0.00     0.177 C 
ATOM     64  C   UNL     1       5.725  -5.372  -4.010  1.00  0.00     0.069 C 
ATOM     65  N   UNL     1       6.798  -7.423  -4.326  1.00  0.00    -0.327 N 
ATOM     66  C   UNL     1       5.975  -5.523  -5.505  1.00  0.00     0.136 C 
ATOM     67  C   UNL     1       6.369  -6.997  -5.658  1.00  0.00     0.152 C 
BRANCH  65  68
ATOM     68  C   UNL     1       7.243  -8.681  -3.983  1.00  0.00     0.233 C 
ATOM     69  O   UNL     1       7.477  -8.992  -2.815  1.00  0.00    -0.274 OA
BRANCH  68  70
ATOM     70  C   UNL     1       7.458  -9.716  -5.073  1.00  0.00     0.175 C 
BRANCH  70  71
ATOM     71  S   UNL     1       5.908 -10.493  -5.622  1.00  0.00    -0.113 SA
BRANCH  71  72
ATOM     72  C   UNL     1       5.295 -11.118  -4.067  1.00  0.00     0.044 A 
ATOM     73  C   UNL     1       4.408 -10.332  -3.321  1.00  0.00     0.021 A 
ATOM     74  C   UNL     1       5.639 -12.390  -3.591  1.00  0.00     0.139 A 
ATOM     75  C   UNL     1       3.887 -10.811  -2.117  1.00  0.00     0.040 A 
ATOM     76  C   UNL     1       5.113 -12.878  -2.399  1.00  0.00     0.079 A 
ATOM     77  F   UNL     1       6.485 -13.170  -4.282  1.00  0.00    -0.206 F 
ATOM     78  C   UNL     1       4.240 -12.080  -1.671  1.00  0.00     0.126 A 
ATOM     79  F   UNL     1       3.727 -12.541  -0.523  1.00  0.00    -0.207 F 
ENDBRANCH  71  72
ENDBRANCH  70  71
ENDBRANCH  68  70
ENDBRANCH  65  68
BRANCH  66  80
ATOM     80  O   UNL     1       7.027  -4.648  -5.913  1.00  0.00    -0.391 OA
ATOM     81  H   UNL     1       7.823  -4.835  -5.392  1.00  0.00     0.211 HD
ENDBRANCH  66  80
ENDBRANCH  60  63
ENDBRANCH  58  59
ENDBRANCH   1  58
TORSDOF 16
