REMARK SMILES CCn1cccc1C(=O)N(C)c1snc(C)c1C(=O)NCCCCNC(=O)c1ccc(-c2c3nc(c(-c4ccccc4)c4ccc([nH]4)c(-c4ccccc4)c4nc(c(-c5ccccc5)c5ccc2[nH]5)C=C4)C=C3)cc1
REMARK SMILES IDX 21 1 20 2 18 3 19 4 17 6 12 7 13 8 14 9 15 10 16 11 10 12
REMARK SMILES IDX 11 13 8 14 9 15 7 16 3 17 4 18 5 19 6 20 2 21 1 22 22 23
REMARK SMILES IDX 23 24 24 25 25 26 26 27 27 29 28 30 29 31 75 32 30 33 74 34
REMARK SMILES IDX 31 35 32 36 33 37 68 38 34 39 73 40 67 41 69 42 35 43 72 44
REMARK SMILES IDX 66 45 65 46 36 48 58 49 43 50 57 51 44 52 47 53 56 54 70 55
REMARK SMILES IDX 45 56 46 57 55 59 71 60 48 61 37 62 38 63 42 64 39 65 41 66
REMARK SMILES IDX 40 67 59 68 60 69 64 70 61 71 63 72 62 73 49 74 50 75 54 76
REMARK SMILES IDX 51 77 53 78 52 79
REMARK H PARENT 20 5 25 28 69 47 47 58
REMARK Flexibility Score: inf
ROOT
ATOM      1  C   UNL     1       3.385   1.190   3.397  1.00  0.00     0.116 C 
ENDROOT
BRANCH   1   2
ATOM      2  N   UNL     1       4.802   1.176   3.615  1.00  0.00    -0.352 N 
ATOM      3  C   UNL     1       5.811   0.578   2.879  1.00  0.00     0.256 C 
ATOM      4  O   UNL     1       6.947   0.931   3.210  1.00  0.00    -0.269 OA
ATOM      5  H   UNL     1       5.105   1.668   4.413  1.00  0.00     0.163 HD
BRANCH   3   6
ATOM      6  C   UNL     1       5.628  -0.461   1.841  1.00  0.00     0.097 A 
ATOM      7  C   UNL     1       4.586  -0.714   0.949  1.00  0.00     0.131 A 
ATOM      8  S   UNL     1       4.970  -2.032  -0.073  1.00  0.00    -0.017 S 
ATOM      9  N   UNL     1       6.402  -2.388   0.632  1.00  0.00    -0.195 NA
ATOM     10  C   UNL     1       6.644  -1.509   1.607  1.00  0.00     0.066 A 
ATOM     11  C   UNL     1       7.906  -1.762   2.369  1.00  0.00     0.069 C 
BRANCH   7  12
ATOM     12  N   UNL     1       3.303  -0.186   0.728  1.00  0.00    -0.300 N 
ATOM     13  C   UNL     1       2.189  -1.023   1.158  1.00  0.00     0.154 C 
BRANCH  12  14
ATOM     14  C   UNL     1       3.268   1.094   0.149  1.00  0.00     0.275 C 
ATOM     15  O   UNL     1       4.339   1.559  -0.268  1.00  0.00    -0.267 OA
BRANCH  14  16
ATOM     16  C   UNL     1       2.081   1.983   0.087  1.00  0.00     0.107 A 
ATOM     17  N   UNL     1       0.696   1.875   0.202  1.00  0.00    -0.344 N 
ATOM     18  C   UNL     1       0.121   3.133   0.179  1.00  0.00     0.086 A 
ATOM     19  C   UNL     1       1.069   4.044  -0.180  1.00  0.00     0.020 A 
ATOM     20  C   UNL     1       2.284   3.346  -0.196  1.00  0.00     0.033 A 
BRANCH  17  21
ATOM     21  C   UNL     1      -0.196   0.730   0.190  1.00  0.00     0.119 C 
ATOM     22  C   UNL     1      -0.095  -0.095  -1.076  1.00  0.00     0.027 C 
ENDBRANCH  17  21
ENDBRANCH  14  16
ENDBRANCH  12  14
ENDBRANCH   7  12
ENDBRANCH   3   6
ENDBRANCH   1   2
BRANCH   1  23
ATOM     23  C   UNL     1       2.447   1.263   4.596  1.00  0.00     0.023 C 
BRANCH  23  24
ATOM     24  C   UNL     1       2.394   2.562   5.397  1.00  0.00     0.023 C 
BRANCH  24  25
ATOM     25  C   UNL     1       2.083   3.824   4.596  1.00  0.00     0.116 C 
BRANCH  25  26
ATOM     26  N   UNL     1       0.744   3.831   4.028  1.00  0.00    -0.352 N 
ATOM     27  C   UNL     1       0.086   4.833   3.345  1.00  0.00     0.251 C 
ATOM     28  H   UNL     1       0.232   2.999   4.149  1.00  0.00     0.163 HD
ATOM     29  O   UNL     1      -1.134   4.778   3.250  1.00  0.00    -0.269 OA
BRANCH  27  30
ATOM     30  C   UNL     1       0.812   5.976   2.730  1.00  0.00     0.039 A 
ATOM     31  C   UNL     1       0.153   7.208   2.612  1.00  0.00     0.014 A 
ATOM     32  C   UNL     1       2.079   5.823   2.160  1.00  0.00     0.014 A 
ATOM     33  C   UNL     1       0.789   8.286   1.994  1.00  0.00     0.010 A 
ATOM     34  C   UNL     1       2.713   6.882   1.522  1.00  0.00     0.010 A 
ATOM     35  C   UNL     1       2.082   8.124   1.477  1.00  0.00    -0.014 A 
BRANCH  35  36
ATOM     36  C   UNL     1       2.893   9.316   1.153  1.00  0.00     0.031 A 
ATOM     37  C   UNL     1       3.494   9.930   2.430  1.00  0.00     0.074 A 
ATOM     38  C   UNL     1       2.994   9.691  -0.157  1.00  0.00     0.049 A 
ATOM     39  N   UNL     1       3.878  11.145   2.659  1.00  0.00    -0.248 NA
ATOM     40  C   UNL     1       3.638   9.090   3.656  1.00  0.00     0.031 C 
ATOM     41  C   UNL     1       2.404   8.947  -1.291  1.00  0.00     0.029 A 
ATOM     42  N   UNL     1       3.600  10.748  -0.811  1.00  0.00    -0.354 N 
ATOM     43  C   UNL     1       4.421  11.191   3.962  1.00  0.00     0.074 A 
ATOM     44  C   UNL     1       4.168   9.918   4.558  1.00  0.00     0.031 C 
ATOM     45  C   UNL     1       2.600   9.604  -2.456  1.00  0.00     0.029 A 
ATOM     46  C   UNL     1       3.341  10.826  -2.205  1.00  0.00     0.049 A 
ATOM     47  H   UNL     1       4.170  11.400  -0.343  1.00  0.00     0.167 HD
ATOM     48  C   UNL     1       5.159  12.242   4.423  1.00  0.00     0.031 A 
ATOM     49  C   UNL     1       3.657  11.822  -3.090  1.00  0.00     0.031 A 
ATOM     50  C   UNL     1       5.193  13.277   3.450  1.00  0.00     0.049 A 
ATOM     51  C   UNL     1       4.511  12.770  -2.362  1.00  0.00     0.074 A 
ATOM     52  C   UNL     1       4.230  14.128   2.974  1.00  0.00     0.029 A 
ATOM     53  N   UNL     1       6.242  13.234   2.565  1.00  0.00    -0.354 N 
ATOM     54  N   UNL     1       5.751  12.562  -2.045  1.00  0.00    -0.248 NA
ATOM     55  C   UNL     1       3.933  14.042  -1.911  1.00  0.00     0.031 C 
ATOM     56  C   UNL     1       4.498  14.163   1.590  1.00  0.00     0.029 A 
ATOM     57  C   UNL     1       5.727  13.543   1.334  1.00  0.00     0.049 A 
ATOM     58  H   UNL     1       7.181  13.023   2.774  1.00  0.00     0.167 HD
ATOM     59  C   UNL     1       5.939  13.466  -1.031  1.00  0.00     0.074 A 
ATOM     60  C   UNL     1       4.973  14.524  -1.235  1.00  0.00     0.031 C 
ATOM     61  C   UNL     1       6.398  13.024   0.168  1.00  0.00     0.031 A 
BRANCH  48  62
ATOM     62  C   UNL     1       6.099  12.364   5.587  1.00  0.00    -0.014 A 
ATOM     63  C   UNL     1       6.552  13.665   5.919  1.00  0.00     0.009 A 
ATOM     64  C   UNL     1       6.801  11.284   6.130  1.00  0.00     0.009 A 
ATOM     65  C   UNL     1       7.723  13.876   6.647  1.00  0.00     0.001 A 
ATOM     66  C   UNL     1       7.957  11.496   6.897  1.00  0.00     0.001 A 
ATOM     67  C   UNL     1       8.437  12.786   7.121  1.00  0.00     0.000 A 
ENDBRANCH  48  62
BRANCH  49  68
ATOM     68  C   UNL     1       3.314  12.226  -4.505  1.00  0.00    -0.014 A 
ATOM     69  C   UNL     1       2.574  11.477  -5.420  1.00  0.00     0.009 A 
ATOM     70  C   UNL     1       3.695  13.525  -4.950  1.00  0.00     0.009 A 
ATOM     71  C   UNL     1       2.162  12.033  -6.652  1.00  0.00     0.001 A 
ATOM     72  C   UNL     1       3.250  14.099  -6.143  1.00  0.00     0.001 A 
ATOM     73  C   UNL     1       2.464  13.351  -6.995  1.00  0.00     0.000 A 
ENDBRANCH  49  68
BRANCH  61  74
ATOM     74  C   UNL     1       7.222  11.747   0.116  1.00  0.00    -0.014 A 
ATOM     75  C   UNL     1       8.380  11.699  -0.678  1.00  0.00     0.009 A 
ATOM     76  C   UNL     1       6.824  10.550   0.739  1.00  0.00     0.009 A 
ATOM     77  C   UNL     1       9.095  10.508  -0.861  1.00  0.00     0.001 A 
ATOM     78  C   UNL     1       7.539   9.354   0.560  1.00  0.00     0.001 A 
ATOM     79  C   UNL     1       8.674   9.334  -0.244  1.00  0.00     0.000 A 
ENDBRANCH  61  74
ENDBRANCH  35  36
ENDBRANCH  27  30
ENDBRANCH  25  26
ENDBRANCH  24  25
ENDBRANCH  23  24
ENDBRANCH   1  23
TORSDOF 15
