REMARK SMILES Cc1ccccc1CCNS(=O)(=O)c1ccc(C(=O)NCCCCNC(=O)c2ccc(-c3c4nc(c(-c5ccccc5)c5ccc([nH]5)c(-c5ccccc5)c5nc(c(-c6ccccc6)c6ccc3[nH]6)C=C5)C=C4)cc2)o1
REMARK SMILES IDX 21 1 20 2 18 3 19 4 17 6 14 7 15 8 76 9 16 10 11 11 12 12
REMARK SMILES IDX 13 13 10 14 9 16 8 17 7 18 1 19 2 20 3 21 4 22 6 23 5 24
REMARK SMILES IDX 22 25 23 26 24 27 25 28 26 29 27 31 28 32 29 33 75 34 30 35
REMARK SMILES IDX 74 36 31 37 32 38 33 39 68 40 34 41 73 42 67 43 69 44 35 45
REMARK SMILES IDX 72 46 66 47 65 48 36 50 58 51 43 52 57 53 44 54 47 55 56 56
REMARK SMILES IDX 70 57 45 58 46 59 55 61 71 62 48 63 37 64 38 65 42 66 39 67
REMARK SMILES IDX 41 68 40 69 59 70 60 71 64 72 61 73 63 74 62 75 49 76 50 77
REMARK SMILES IDX 54 78 51 79 53 80 52 81
REMARK H PARENT 20 5 10 15 25 30 69 49 47 60
REMARK Flexibility Score: inf
ROOT
ATOM      1  C   UNL     1       1.837  10.575  -2.886  1.00  0.00     0.116 C 
ENDROOT
BRANCH   1   2
ATOM      2  N   UNL     1       2.674   9.393  -2.827  1.00  0.00    -0.349 N 
ATOM      3  C   UNL     1       2.366   8.055  -2.761  1.00  0.00     0.287 C 
ATOM      4  O   UNL     1       3.333   7.289  -2.769  1.00  0.00    -0.266 OA
ATOM      5  H   UNL     1       3.640   9.584  -2.835  1.00  0.00     0.163 HD
BRANCH   3   6
ATOM      6  C   UNL     1       0.995   7.581  -2.694  1.00  0.00     0.193 A 
ATOM      7  C   UNL     1      -0.524   5.935  -2.820  1.00  0.00     0.234 A 
ATOM      8  C   UNL     1      -1.202   7.111  -2.545  1.00  0.00     0.065 A 
ATOM      9  O   UNL     1       0.816   6.236  -2.902  1.00  0.00    -0.438 OA
ATOM     10  C   UNL     1      -0.241   8.145  -2.441  1.00  0.00     0.058 A 
BRANCH   7  11
ATOM     11  S   UNL     1      -1.106   4.258  -3.021  1.00  0.00     0.273 S 
ATOM     12  O   UNL     1      -0.354   3.683  -4.098  1.00  0.00    -0.204 OA
ATOM     13  O   UNL     1      -2.559   4.370  -3.070  1.00  0.00    -0.204 OA
BRANCH  11  14
ATOM     14  N   UNL     1      -0.751   3.411  -1.605  1.00  0.00    -0.208 NA
ATOM     15  H   UNL     1      -1.145   3.937  -0.825  1.00  0.00     0.141 HD
BRANCH  14  16
ATOM     16  C   UNL     1       0.685   3.171  -1.304  1.00  0.00     0.104 C 
BRANCH  16  17
ATOM     17  C   UNL     1       0.831   2.542   0.097  1.00  0.00     0.052 C 
BRANCH  17  18
ATOM     18  C   UNL     1       0.243   1.144   0.176  1.00  0.00    -0.044 A 
ATOM     19  C   UNL     1       2.489  -0.081  -0.148  1.00  0.00     0.044 C 
ATOM     20  C   UNL     1       0.991  -0.035  -0.015  1.00  0.00    -0.048 A 
ATOM     21  C   UNL     1       0.316  -1.271  -0.040  1.00  0.00     0.004 A 
ATOM     22  C   UNL     1      -1.068  -1.348   0.115  1.00  0.00     0.000 A 
ATOM     23  C   UNL     1      -1.148   1.038   0.389  1.00  0.00     0.004 A 
ATOM     24  C   UNL     1      -1.800  -0.191   0.339  1.00  0.00     0.000 A 
ENDBRANCH  17  18
ENDBRANCH  16  17
ENDBRANCH  14  16
ENDBRANCH  11  14
ENDBRANCH   7  11
ENDBRANCH   3   6
ENDBRANCH   1   2
BRANCH   1  25
ATOM     25  C   UNL     1       1.606  11.187  -1.498  1.00  0.00     0.023 C 
BRANCH  25  26
ATOM     26  C   UNL     1       2.853  11.818  -0.870  1.00  0.00     0.023 C 
BRANCH  26  27
ATOM     27  C   UNL     1       3.339  13.076  -1.577  1.00  0.00     0.116 C 
BRANCH  27  28
ATOM     28  N   UNL     1       2.725  14.324  -1.138  1.00  0.00    -0.352 N 
ATOM     29  C   UNL     1       2.881  15.608  -1.641  1.00  0.00     0.251 C 
ATOM     30  H   UNL     1       2.110  14.243  -0.373  1.00  0.00     0.163 HD
ATOM     31  O   UNL     1       2.329  16.553  -1.084  1.00  0.00    -0.269 OA
BRANCH  29  32
ATOM     32  C   UNL     1       3.562  15.818  -2.946  1.00  0.00     0.039 A 
ATOM     33  C   UNL     1       2.918  16.652  -3.869  1.00  0.00     0.014 A 
ATOM     34  C   UNL     1       4.571  14.960  -3.364  1.00  0.00     0.014 A 
ATOM     35  C   UNL     1       3.025  16.363  -5.223  1.00  0.00     0.010 A 
ATOM     36  C   UNL     1       4.578  14.577  -4.682  1.00  0.00     0.010 A 
ATOM     37  C   UNL     1       3.743  15.230  -5.587  1.00  0.00    -0.014 A 
BRANCH  37  38
ATOM     38  C   UNL     1       3.649  14.606  -6.889  1.00  0.00     0.031 A 
ATOM     39  C   UNL     1       4.692  14.907  -7.873  1.00  0.00     0.074 A 
ATOM     40  C   UNL     1       2.663  13.712  -7.117  1.00  0.00     0.049 A 
ATOM     41  N   UNL     1       4.500  14.908  -9.142  1.00  0.00    -0.248 NA
ATOM     42  C   UNL     1       6.046  15.297  -7.487  1.00  0.00     0.031 C 
ATOM     43  C   UNL     1       2.495  12.808  -8.248  1.00  0.00     0.029 A 
ATOM     44  N   UNL     1       1.469  13.598  -6.409  1.00  0.00    -0.354 N 
ATOM     45  C   UNL     1       5.742  14.965  -9.728  1.00  0.00     0.074 A 
ATOM     46  C   UNL     1       6.658  15.326  -8.674  1.00  0.00     0.031 C 
ATOM     47  C   UNL     1       1.202  12.438  -8.318  1.00  0.00     0.029 A 
ATOM     48  C   UNL     1       0.474  13.203  -7.317  1.00  0.00     0.049 A 
ATOM     49  H   UNL     1       1.345  13.764  -5.446  1.00  0.00     0.167 HD
ATOM     50  C   UNL     1       5.888  14.512 -11.001  1.00  0.00     0.031 A 
ATOM     51  C   UNL     1      -0.566  14.049  -7.584  1.00  0.00     0.031 A 
ATOM     52  C   UNL     1       4.609  14.065 -11.542  1.00  0.00     0.049 A 
ATOM     53  C   UNL     1      -0.533  14.572  -9.007  1.00  0.00     0.074 A 
ATOM     54  C   UNL     1       4.025  12.811 -11.633  1.00  0.00     0.029 A 
ATOM     55  N   UNL     1       3.585  14.990 -11.702  1.00  0.00    -0.354 N 
ATOM     56  N   UNL     1       0.534  14.574  -9.761  1.00  0.00    -0.248 NA
ATOM     57  C   UNL     1      -1.699  15.114  -9.697  1.00  0.00     0.031 C 
ATOM     58  C   UNL     1       2.624  12.992 -11.781  1.00  0.00     0.029 A 
ATOM     59  C   UNL     1       2.365  14.351 -11.812  1.00  0.00     0.049 A 
ATOM     60  H   UNL     1       3.712  15.966 -11.733  1.00  0.00     0.167 HD
ATOM     61  C   UNL     1       0.222  15.055 -11.008  1.00  0.00     0.074 A 
ATOM     62  C   UNL     1      -1.189  15.386 -10.913  1.00  0.00     0.031 C 
ATOM     63  C   UNL     1       1.147  15.128 -12.013  1.00  0.00     0.031 A 
BRANCH  50  64
ATOM     64  C   UNL     1       7.226  14.174 -11.597  1.00  0.00    -0.014 A 
ATOM     65  C   UNL     1       7.323  13.100 -12.500  1.00  0.00     0.009 A 
ATOM     66  C   UNL     1       8.424  14.841 -11.288  1.00  0.00     0.009 A 
ATOM     67  C   UNL     1       8.552  12.670 -13.012  1.00  0.00     0.001 A 
ATOM     68  C   UNL     1       9.662  14.395 -11.771  1.00  0.00     0.001 A 
ATOM     69  C   UNL     1       9.726  13.305 -12.631  1.00  0.00     0.000 A 
ENDBRANCH  50  64
BRANCH  51  70
ATOM     70  C   UNL     1      -1.008  14.808  -6.373  1.00  0.00    -0.014 A 
ATOM     71  C   UNL     1      -1.534  14.060  -5.294  1.00  0.00     0.009 A 
ATOM     72  C   UNL     1      -0.541  16.103  -6.113  1.00  0.00     0.009 A 
ATOM     73  C   UNL     1      -1.439  14.526  -3.978  1.00  0.00     0.001 A 
ATOM     74  C   UNL     1      -0.477  16.576  -4.793  1.00  0.00     0.001 A 
ATOM     75  C   UNL     1      -0.874  15.770  -3.725  1.00  0.00     0.000 A 
ENDBRANCH  51  70
BRANCH  63  76
ATOM     76  C   UNL     1       1.008  15.869 -13.328  1.00  0.00    -0.014 A 
ATOM     77  C   UNL     1       0.008  16.800 -13.621  1.00  0.00     0.009 A 
ATOM     78  C   UNL     1       2.024  15.719 -14.306  1.00  0.00     0.009 A 
ATOM     79  C   UNL     1       0.002  17.511 -14.831  1.00  0.00     0.001 A 
ATOM     80  C   UNL     1       2.058  16.469 -15.483  1.00  0.00     0.001 A 
ATOM     81  C   UNL     1       1.033  17.358 -15.752  1.00  0.00     0.000 A 
ENDBRANCH  63  76
ENDBRANCH  37  38
ENDBRANCH  29  32
ENDBRANCH  27  28
ENDBRANCH  26  27
ENDBRANCH  25  26
ENDBRANCH   1  25
TORSDOF 16
