REMARK SMILES CSc1ccc(C[NH+]2CCC(CC(=O)NCCCCNC(=O)c3ccc(-c4c5nc(c(-c6ccccc6)c6ccc([nH]6)c(-c6ccccc6)c6nc(c(-c7ccccc7)c7ccc4[nH]7)C=C6)C=C5)cc3)CC2)cc1
REMARK SMILES IDX 16 1 15 2 13 3 14 4 12 6 11 7 8 8 9 9 72 10 10 12 71 13 7 14
REMARK SMILES IDX 6 15 3 16 4 17 74 18 5 19 73 20 2 21 1 22 17 23 18 24 19 25
REMARK SMILES IDX 20 26 21 27 22 29 23 30 24 31 70 32 25 33 69 34 26 35 27 36
REMARK SMILES IDX 28 37 63 38 29 39 68 40 62 41 64 42 30 43 67 44 61 45 60 46
REMARK SMILES IDX 31 48 53 49 38 50 52 51 39 52 42 53 51 54 65 55 40 56 41 57
REMARK SMILES IDX 50 59 66 60 43 61 32 62 33 63 37 64 34 65 36 66 35 67 54 68
REMARK SMILES IDX 55 69 59 70 56 71 58 72 57 73 44 74 45 75 49 76 46 77 48 78
REMARK SMILES IDX 47 79
REMARK H PARENT 15 5 8 11 20 28 64 47 42 58
REMARK Flexibility Score: inf
ROOT
ATOM      1  C   UNL     1      -3.835   7.088   6.259  1.00  0.00     0.116 C 
ENDROOT
BRANCH   1   2
ATOM      2  N   UNL     1      -4.299   5.735   6.524  1.00  0.00    -0.356 N 
ATOM      3  C   UNL     1      -3.649   4.649   7.041  1.00  0.00     0.220 C 
ATOM      4  O   UNL     1      -4.278   3.593   7.134  1.00  0.00    -0.275 OA
ATOM      5  H   UNL     1      -5.242   5.574   6.291  1.00  0.00     0.163 HD
BRANCH   3   6
ATOM      6  C   UNL     1      -2.187   4.722   7.472  1.00  0.00     0.104 C 
BRANCH   6   7
ATOM      7  C   UNL     1      -1.200   4.308   6.360  1.00  0.00     0.009 C 
ATOM      8  N   UNL     1       1.068   5.216   4.702  1.00  0.00    -0.331 N 
ATOM      9  C   UNL     1      -0.268   5.149   4.117  1.00  0.00     0.262 C 
ATOM     10  C   UNL     1       1.251   4.136   5.676  1.00  0.00     0.262 C 
ATOM     11  H   UNL     1       1.164   6.088   5.223  1.00  0.00     0.348 HD
ATOM     12  C   UNL     1      -1.329   5.258   5.183  1.00  0.00     0.066 C 
ATOM     13  C   UNL     1       0.256   4.284   6.843  1.00  0.00     0.066 C 
BRANCH   8  14
ATOM     14  C   UNL     1       2.115   5.286   3.663  1.00  0.00     0.299 C 
BRANCH  14  15
ATOM     15  C   UNL     1       1.910   4.369   2.473  1.00  0.00     0.006 A 
ATOM     16  C   UNL     1       1.173   2.593   0.401  1.00  0.00     0.007 A 
ATOM     17  C   UNL     1       1.833   2.128   1.542  1.00  0.00     0.015 A 
ATOM     18  C   UNL     1       0.926   3.966   0.285  1.00  0.00     0.015 A 
ATOM     19  C   UNL     1       2.205   3.006   2.564  1.00  0.00     0.011 A 
ATOM     20  C   UNL     1       1.294   4.847   1.306  1.00  0.00     0.011 A 
BRANCH  16  21
ATOM     21  S   UNL     1       0.598   1.552  -0.936  1.00  0.00    -0.130 SA
ATOM     22  C   UNL     1       0.914  -0.122  -0.319  1.00  0.00     0.091 C 
ENDBRANCH  16  21
ENDBRANCH  14  15
ENDBRANCH   8  14
ENDBRANCH   6   7
ENDBRANCH   3   6
ENDBRANCH   1   2
BRANCH   1  23
ATOM     23  C   UNL     1      -3.639   7.351   4.759  1.00  0.00     0.023 C 
BRANCH  23  24
ATOM     24  C   UNL     1      -4.850   7.870   4.009  1.00  0.00     0.023 C 
BRANCH  24  25
ATOM     25  C   UNL     1      -5.235   9.287   4.368  1.00  0.00     0.116 C 
BRANCH  25  26
ATOM     26  N   UNL     1      -4.192  10.269   4.093  1.00  0.00    -0.352 N 
ATOM     27  C   UNL     1      -4.321  11.514   3.518  1.00  0.00     0.251 C 
ATOM     28  H   UNL     1      -3.278  10.008   4.351  1.00  0.00     0.163 HD
ATOM     29  O   UNL     1      -3.344  12.203   3.271  1.00  0.00    -0.269 OA
BRANCH  27  30
ATOM     30  C   UNL     1      -5.677  11.974   3.157  1.00  0.00     0.039 A 
ATOM     31  C   UNL     1      -5.916  12.432   1.860  1.00  0.00     0.014 A 
ATOM     32  C   UNL     1      -6.724  11.828   4.068  1.00  0.00     0.014 A 
ATOM     33  C   UNL     1      -7.230  12.656   1.450  1.00  0.00     0.010 A 
ATOM     34  C   UNL     1      -8.031  11.932   3.621  1.00  0.00     0.010 A 
ATOM     35  C   UNL     1      -8.298  12.360   2.312  1.00  0.00    -0.014 A 
BRANCH  35  36
ATOM     36  C   UNL     1      -9.710  12.513   1.889  1.00  0.00     0.031 A 
ATOM     37  C   UNL     1     -10.604  13.466   2.634  1.00  0.00     0.074 A 
ATOM     38  C   UNL     1     -10.208  11.740   0.905  1.00  0.00     0.049 A 
ATOM     39  N   UNL     1     -11.885  13.684   2.486  1.00  0.00    -0.248 NA
ATOM     40  C   UNL     1      -9.984  14.244   3.720  1.00  0.00     0.031 C 
ATOM     41  C   UNL     1      -9.459  10.736   0.145  1.00  0.00     0.029 A 
ATOM     42  N   UNL     1     -11.473  11.678   0.377  1.00  0.00    -0.354 N 
ATOM     43  C   UNL     1     -12.227  14.587   3.484  1.00  0.00     0.074 A 
ATOM     44  C   UNL     1     -11.037  14.831   4.266  1.00  0.00     0.031 C 
ATOM     45  C   UNL     1     -10.265  10.195  -0.783  1.00  0.00     0.029 A 
ATOM     46  C   UNL     1     -11.595  10.782  -0.657  1.00  0.00     0.049 A 
ATOM     47  H   UNL     1     -12.222  12.225   0.707  1.00  0.00     0.167 HD
ATOM     48  C   UNL     1     -13.419  15.183   3.716  1.00  0.00     0.031 A 
ATOM     49  C   UNL     1     -12.660  10.476  -1.420  1.00  0.00     0.031 A 
ATOM     50  C   UNL     1     -14.587  14.977   2.907  1.00  0.00     0.049 A 
ATOM     51  C   UNL     1     -13.967  11.172  -1.165  1.00  0.00     0.074 A 
ATOM     52  C   UNL     1     -15.818  15.602   2.993  1.00  0.00     0.029 A 
ATOM     53  N   UNL     1     -14.664  14.077   1.855  1.00  0.00    -0.354 N 
ATOM     54  N   UNL     1     -14.255  12.084  -0.268  1.00  0.00    -0.248 NA
ATOM     55  C   UNL     1     -15.092  10.803  -2.035  1.00  0.00     0.031 C 
ATOM     56  C   UNL     1     -16.654  15.050   2.017  1.00  0.00     0.029 A 
ATOM     57  C   UNL     1     -15.929  14.113   1.297  1.00  0.00     0.049 A 
ATOM     58  H   UNL     1     -13.928  13.498   1.552  1.00  0.00     0.167 HD
ATOM     59  C   UNL     1     -15.586  12.418  -0.483  1.00  0.00     0.074 A 
ATOM     60  C   UNL     1     -16.043  11.618  -1.602  1.00  0.00     0.031 C 
ATOM     61  C   UNL     1     -16.360  13.309   0.183  1.00  0.00     0.031 A 
BRANCH  48  62
ATOM     62  C   UNL     1     -13.505  16.110   4.895  1.00  0.00    -0.014 A 
ATOM     63  C   UNL     1     -12.835  17.345   4.904  1.00  0.00     0.009 A 
ATOM     64  C   UNL     1     -14.263  15.741   6.016  1.00  0.00     0.009 A 
ATOM     65  C   UNL     1     -12.881  18.166   6.032  1.00  0.00     0.001 A 
ATOM     66  C   UNL     1     -14.334  16.579   7.130  1.00  0.00     0.001 A 
ATOM     67  C   UNL     1     -13.633  17.784   7.142  1.00  0.00     0.000 A 
ENDBRANCH  48  62
BRANCH  49  68
ATOM     68  C   UNL     1     -12.524   9.499  -2.531  1.00  0.00    -0.014 A 
ATOM     69  C   UNL     1     -12.516   9.947  -3.862  1.00  0.00     0.009 A 
ATOM     70  C   UNL     1     -12.397   8.126  -2.276  1.00  0.00     0.009 A 
ATOM     71  C   UNL     1     -12.404   9.036  -4.915  1.00  0.00     0.001 A 
ATOM     72  C   UNL     1     -12.261   7.220  -3.331  1.00  0.00     0.001 A 
ATOM     73  C   UNL     1     -12.273   7.675  -4.649  1.00  0.00     0.000 A 
ENDBRANCH  49  68
BRANCH  61  74
ATOM     74  C   UNL     1     -17.769  13.488  -0.301  1.00  0.00    -0.014 A 
ATOM     75  C   UNL     1     -18.752  12.519  -0.052  1.00  0.00     0.009 A 
ATOM     76  C   UNL     1     -18.125  14.667  -0.975  1.00  0.00     0.009 A 
ATOM     77  C   UNL     1     -20.061  12.716  -0.494  1.00  0.00     0.001 A 
ATOM     78  C   UNL     1     -19.440  14.871  -1.393  1.00  0.00     0.001 A 
ATOM     79  C   UNL     1     -20.404  13.893  -1.159  1.00  0.00     0.000 A 
ENDBRANCH  61  74
ENDBRANCH  35  36
ENDBRANCH  27  30
ENDBRANCH  25  26
ENDBRANCH  24  25
ENDBRANCH  23  24
ENDBRANCH   1  23
TORSDOF 15
