REMARK SMILES O=C(NCCCCNC(=O)[C@@]1([NH2+]C2CC2)CCC[C@@H](n2cncn2)C1)c1ccc(-c2c3nc(c(-c4ccccc4)c4ccc([nH]4)c(-c4ccccc4)c4nc(c(-c5ccccc5)c5ccc2[nH]5)C=C4)C=C3)cc1
REMARK SMILES IDX 5 1 4 2 3 3 1 4 2 5 26 7 27 8 73 9 28 10 72 11 29 12 30 13
REMARK SMILES IDX 31 14 66 15 32 16 71 17 65 18 67 19 33 20 70 21 64 22 63 23
REMARK SMILES IDX 34 25 56 26 41 27 55 28 42 29 45 30 54 31 68 32 43 33 44 34
REMARK SMILES IDX 53 36 69 37 46 38 35 39 36 40 40 41 37 42 39 43 38 44 57 45
REMARK SMILES IDX 58 46 62 47 59 48 61 49 60 50 47 51 48 52 52 53 49 54 51 55
REMARK SMILES IDX 50 56 6 57 7 58 8 59 9 60 10 62 11 63 16 64 25 65 17 66
REMARK SMILES IDX 19 67 18 68 12 69 13 72 14 73 15 74 20 75 21 76 24 77 22 78
REMARK SMILES IDX 23 79
REMARK H PARENT 3 6 67 24 45 35 8 61 12 70 12 71
REMARK Flexibility Score: inf
ROOT
ATOM      1  C   UNL     1       5.044  -0.347   2.124  1.00  0.00     0.023 C 
ENDROOT
BRANCH   1   2
ATOM      2  C   UNL     1       4.753  -0.881   0.721  1.00  0.00     0.116 C 
BRANCH   2   3
ATOM      3  N   UNL     1       3.361  -1.140   0.404  1.00  0.00    -0.352 N 
ATOM      4  O   UNL     1       1.279  -0.950  -0.329  1.00  0.00    -0.269 OA
ATOM      5  C   UNL     1       2.286  -0.360   0.077  1.00  0.00     0.251 C 
ATOM      6  H   UNL     1       3.140  -2.099   0.429  1.00  0.00     0.163 HD
BRANCH   5   7
ATOM      7  C   UNL     1       2.220   1.114   0.249  1.00  0.00     0.039 A 
ATOM      8  C   UNL     1       3.319   1.966   0.340  1.00  0.00     0.014 A 
ATOM      9  C   UNL     1       0.929   1.671   0.332  1.00  0.00     0.014 A 
ATOM     10  C   UNL     1       3.141   3.320   0.621  1.00  0.00     0.010 A 
ATOM     11  C   UNL     1       0.744   3.028   0.578  1.00  0.00     0.010 A 
ATOM     12  C   UNL     1       1.855   3.848   0.762  1.00  0.00    -0.014 A 
BRANCH  12  13
ATOM     13  C   UNL     1       1.720   5.287   0.981  1.00  0.00     0.031 A 
ATOM     14  C   UNL     1       2.163   6.168  -0.140  1.00  0.00     0.074 A 
ATOM     15  C   UNL     1       1.081   5.833   2.034  1.00  0.00     0.049 A 
ATOM     16  N   UNL     1       3.032   7.128  -0.115  1.00  0.00    -0.248 NA
ATOM     17  C   UNL     1       1.583   5.918  -1.468  1.00  0.00     0.031 C 
ATOM     18  C   UNL     1       0.293   5.147   3.060  1.00  0.00     0.029 A 
ATOM     19  N   UNL     1       0.903   7.154   2.332  1.00  0.00    -0.354 N 
ATOM     20  C   UNL     1       3.015   7.700  -1.386  1.00  0.00     0.074 A 
ATOM     21  C   UNL     1       2.173   6.862  -2.202  1.00  0.00     0.031 C 
ATOM     22  C   UNL     1      -0.461   6.057   3.717  1.00  0.00     0.029 A 
ATOM     23  C   UNL     1      -0.111   7.388   3.248  1.00  0.00     0.049 A 
ATOM     24  H   UNL     1       1.445   7.873   1.933  1.00  0.00     0.167 HD
ATOM     25  C   UNL     1       3.557   8.920  -1.654  1.00  0.00     0.031 A 
ATOM     26  C   UNL     1      -0.675   8.581   3.550  1.00  0.00     0.031 A 
ATOM     27  C   UNL     1       4.451   9.370  -0.625  1.00  0.00     0.049 A 
ATOM     28  C   UNL     1       0.232   9.658   3.098  1.00  0.00     0.074 A 
ATOM     29  C   UNL     1       5.634   8.914  -0.083  1.00  0.00     0.029 A 
ATOM     30  N   UNL     1       3.997  10.341   0.231  1.00  0.00    -0.354 N 
ATOM     31  N   UNL     1       1.373   9.931   3.660  1.00  0.00    -0.248 NA
ATOM     32  C   UNL     1       0.038  10.226   1.774  1.00  0.00     0.031 C 
ATOM     33  C   UNL     1       5.577   9.286   1.292  1.00  0.00     0.029 A 
ATOM     34  C   UNL     1       4.373   9.964   1.492  1.00  0.00     0.049 A 
ATOM     35  H   UNL     1       3.497  11.153  -0.014  1.00  0.00     0.167 HD
ATOM     36  C   UNL     1       2.194  10.332   2.618  1.00  0.00     0.074 A 
ATOM     37  C   UNL     1       1.286  10.620   1.512  1.00  0.00     0.031 C 
ATOM     38  C   UNL     1       3.542  10.122   2.663  1.00  0.00     0.031 A 
BRANCH  25  39
ATOM     39  C   UNL     1       3.020   9.870  -2.695  1.00  0.00    -0.014 A 
ATOM     40  C   UNL     1       3.739  11.044  -2.987  1.00  0.00     0.009 A 
ATOM     41  C   UNL     1       1.702   9.795  -3.183  1.00  0.00     0.009 A 
ATOM     42  C   UNL     1       3.148  12.109  -3.677  1.00  0.00     0.001 A 
ATOM     43  C   UNL     1       1.123  10.839  -3.910  1.00  0.00     0.001 A 
ATOM     44  C   UNL     1       1.838  12.008  -4.133  1.00  0.00     0.000 A 
ENDBRANCH  25  39
BRANCH  26  45
ATOM     45  C   UNL     1      -2.056   8.859   3.995  1.00  0.00    -0.014 A 
ATOM     46  C   UNL     1      -2.382  10.072   4.620  1.00  0.00     0.009 A 
ATOM     47  C   UNL     1      -3.114   8.030   3.578  1.00  0.00     0.009 A 
ATOM     48  C   UNL     1      -3.719  10.453   4.793  1.00  0.00     0.001 A 
ATOM     49  C   UNL     1      -4.448   8.407   3.757  1.00  0.00     0.001 A 
ATOM     50  C   UNL     1      -4.750   9.626   4.352  1.00  0.00     0.000 A 
ENDBRANCH  26  45
BRANCH  38  51
ATOM     51  C   UNL     1       4.150   9.706   3.979  1.00  0.00    -0.014 A 
ATOM     52  C   UNL     1       3.769   8.533   4.654  1.00  0.00     0.009 A 
ATOM     53  C   UNL     1       5.241  10.436   4.475  1.00  0.00     0.009 A 
ATOM     54  C   UNL     1       4.433   8.125   5.813  1.00  0.00     0.001 A 
ATOM     55  C   UNL     1       5.920  10.014   5.620  1.00  0.00     0.001 A 
ATOM     56  C   UNL     1       5.512   8.864   6.293  1.00  0.00     0.000 A 
ENDBRANCH  38  51
ENDBRANCH  12  13
ENDBRANCH   5   7
ENDBRANCH   2   3
ENDBRANCH   1   2
BRANCH   1  57
ATOM     57  C   UNL     1       4.535  -1.183   3.300  1.00  0.00     0.023 C 
BRANCH  57  58
ATOM     58  C   UNL     1       4.898  -2.664   3.294  1.00  0.00     0.116 C 
BRANCH  58  59
ATOM     59  N   UNL     1       6.323  -2.932   3.281  1.00  0.00    -0.351 N 
ATOM     60  C   UNL     1       6.989  -4.093   3.573  1.00  0.00     0.281 C 
ATOM     61  H   UNL     1       6.893  -2.171   3.025  1.00  0.00     0.163 HD
ATOM     62  O   UNL     1       8.174  -4.136   3.219  1.00  0.00    -0.268 OA
BRANCH  60  63
ATOM     63  C   UNL     1       6.365  -5.252   4.427  1.00  0.00     0.177 C 
ATOM     64  C   UNL     1       7.229  -6.534   4.323  1.00  0.00     0.079 C 
ATOM     65  C   UNL     1       6.463  -4.771   5.907  1.00  0.00     0.106 C 
ATOM     66  C   UNL     1       6.748  -7.641   5.257  1.00  0.00     0.009 C 
ATOM     67  C   UNL     1       6.122  -5.834   6.976  1.00  0.00     0.116 C 
ATOM     68  C   UNL     1       6.817  -7.186   6.705  1.00  0.00     0.028 C 
BRANCH  63  69
ATOM     69  N   UNL     1       4.950  -5.532   4.086  1.00  0.00    -0.331 N 
ATOM     70  H   UNL     1       4.412  -4.735   4.424  1.00  0.00     0.347 HD
ATOM     71  H   UNL     1       4.803  -6.446   4.515  1.00  0.00     0.347 HD
BRANCH  69  72
ATOM     72  C   UNL     1       4.516  -5.766   2.703  1.00  0.00     0.183 C 
ATOM     73  C   UNL     1       5.406  -5.880   1.501  1.00  0.00     0.071 C 
ATOM     74  C   UNL     1       4.719  -7.099   2.043  1.00  0.00     0.071 C 
ENDBRANCH  69  72
ENDBRANCH  63  69
BRANCH  67  75
ATOM     75  N   UNL     1       6.413  -5.348   8.331  1.00  0.00    -0.250 N 
ATOM     76  C   UNL     1       6.051  -4.161   8.896  1.00  0.00     0.220 A 
ATOM     77  N   UNL     1       7.081  -6.106   9.226  1.00  0.00    -0.160 NA
ATOM     78  N   UNL     1       6.493  -4.102  10.132  1.00  0.00    -0.224 NA
ATOM     79  C   UNL     1       7.117  -5.304  10.291  1.00  0.00     0.246 A 
ENDBRANCH  67  75
ENDBRANCH  60  63
ENDBRANCH  58  59
ENDBRANCH  57  58
ENDBRANCH   1  57
TORSDOF 14
