REMARK SMILES CC[C@@H]1CCC[C@@](Cc2ccccn2)(C(=O)NCCCCNC(=O)c2ccc(-c3c4nc(c(-c5ccccc5)c5ccc([nH]5)c(-c5ccccc5)c5nc(c(-c6ccccc6)c6ccc3[nH]6)C=C5)C=C4)cc2)C1
REMARK SMILES IDX 19 1 18 2 17 3 15 4 16 5 7 7 3 8 4 9 73 10 5 11 6 12 2 13
REMARK SMILES IDX 1 14 8 15 9 16 10 17 14 18 11 19 13 20 12 21 20 22 21 23
REMARK SMILES IDX 22 24 23 25 24 27 25 28 26 29 72 30 27 31 71 32 28 33 29 34
REMARK SMILES IDX 30 35 65 36 31 37 70 38 64 39 66 40 32 41 69 42 63 43 62 44
REMARK SMILES IDX 33 46 55 47 40 48 54 49 41 50 44 51 53 52 67 53 42 54 43 55
REMARK SMILES IDX 52 57 68 58 45 59 34 60 35 61 39 62 36 63 38 64 37 65 56 66
REMARK SMILES IDX 57 67 61 68 58 69 60 70 59 71 46 72 47 73 51 74 48 75 50 76
REMARK SMILES IDX 49 77
REMARK H PARENT 17 6 22 26 66 45 44 56
REMARK Flexibility Score: inf
ROOT
ATOM      1  C   UNL     1       2.887   6.618   4.544  1.00  0.00     0.023 C 
ENDROOT
BRANCH   1   2
ATOM      2  C   UNL     1       2.464   6.440   3.093  1.00  0.00     0.116 C 
BRANCH   2   3
ATOM      3  N   UNL     1       2.962   5.226   2.482  1.00  0.00    -0.356 N 
ATOM      4  C   UNL     1       2.365   4.307   1.674  1.00  0.00     0.226 C 
ATOM      5  O   UNL     1       3.149   3.587   1.043  1.00  0.00    -0.274 OA
ATOM      6  H   UNL     1       3.904   5.028   2.688  1.00  0.00     0.163 HD
BRANCH   4   7
ATOM      7  C   UNL     1       0.831   4.165   1.484  1.00  0.00     0.055 C 
ATOM      8  C   UNL     1       0.844   1.573   1.921  1.00  0.00    -0.010 C 
ATOM      9  C   UNL     1       0.179   1.815   3.284  1.00  0.00     0.003 C 
ATOM     10  C   UNL     1       0.544   2.718   0.930  1.00  0.00     0.021 C 
ATOM     11  C   UNL     1       0.409   3.223   3.814  1.00  0.00     0.001 C 
ATOM     12  C   UNL     1      -0.004   4.269   2.779  1.00  0.00     0.017 C 
BRANCH   8  13
ATOM     13  C   UNL     1       0.389   0.201   1.380  1.00  0.00     0.000 C 
ATOM     14  C   UNL     1       0.988  -0.174   0.032  1.00  0.00     0.004 C 
ENDBRANCH   8  13
BRANCH   7  15
ATOM     15  C   UNL     1       0.336   5.128   0.360  1.00  0.00     0.073 C 
BRANCH  15  16
ATOM     16  C   UNL     1       0.680   6.592   0.453  1.00  0.00     0.041 A 
ATOM     17  C   UNL     1       1.809   7.096  -0.195  1.00  0.00     0.024 A 
ATOM     18  N   UNL     1      -0.144   7.380   1.186  1.00  0.00    -0.261 NA
ATOM     19  C   UNL     1       2.112   8.450  -0.069  1.00  0.00     0.003 A 
ATOM     20  C   UNL     1       0.167   8.694   1.277  1.00  0.00     0.111 A 
ATOM     21  C   UNL     1       1.279   9.267   0.685  1.00  0.00     0.020 A 
ENDBRANCH  15  16
ENDBRANCH   7  15
ENDBRANCH   4   7
ENDBRANCH   2   3
ENDBRANCH   1   2
BRANCH   1  22
ATOM     22  C   UNL     1       4.352   7.004   4.746  1.00  0.00     0.023 C 
BRANCH  22  23
ATOM     23  C   UNL     1       4.872   8.152   3.883  1.00  0.00     0.116 C 
BRANCH  23  24
ATOM     24  N   UNL     1       4.051   9.354   3.924  1.00  0.00    -0.352 N 
ATOM     25  C   UNL     1       4.456  10.668   3.905  1.00  0.00     0.251 C 
ATOM     26  H   UNL     1       3.079   9.207   3.973  1.00  0.00     0.163 HD
ATOM     27  O   UNL     1       3.638  11.580   3.966  1.00  0.00    -0.269 OA
BRANCH  25  28
ATOM     28  C   UNL     1       5.900  10.969   3.854  1.00  0.00     0.039 A 
ATOM     29  C   UNL     1       6.460  11.755   4.864  1.00  0.00     0.014 A 
ATOM     30  C   UNL     1       6.704  10.412   2.857  1.00  0.00     0.014 A 
ATOM     31  C   UNL     1       7.846  11.910   4.925  1.00  0.00     0.010 A 
ATOM     32  C   UNL     1       8.089  10.520   2.953  1.00  0.00     0.010 A 
ATOM     33  C   UNL     1       8.672  11.256   3.997  1.00  0.00    -0.014 A 
BRANCH  33  34
ATOM     34  C   UNL     1      10.150  11.295   4.123  1.00  0.00     0.031 A 
ATOM     35  C   UNL     1      10.983  11.973   3.073  1.00  0.00     0.074 A 
ATOM     36  C   UNL     1      10.748  10.650   5.144  1.00  0.00     0.049 A 
ATOM     37  N   UNL     1      12.287  12.053   2.980  1.00  0.00    -0.248 NA
ATOM     38  C   UNL     1      10.259  12.627   1.972  1.00  0.00     0.031 C 
ATOM     39  C   UNL     1      10.057   9.916   6.207  1.00  0.00     0.029 A 
ATOM     40  N   UNL     1      12.078  10.500   5.449  1.00  0.00    -0.354 N 
ATOM     41  C   UNL     1      12.538  12.744   1.802  1.00  0.00     0.074 A 
ATOM     42  C   UNL     1      11.255  13.030   1.197  1.00  0.00     0.031 C 
ATOM     43  C   UNL     1      10.966   9.416   7.060  1.00  0.00     0.029 A 
ATOM     44  C   UNL     1      12.303   9.761   6.586  1.00  0.00     0.049 A 
ATOM     45  H   UNL     1      12.802  10.885   4.905  1.00  0.00     0.167 HD
ATOM     46  C   UNL     1      13.728  13.121   1.279  1.00  0.00     0.031 A 
ATOM     47  C   UNL     1      13.456   9.400   7.179  1.00  0.00     0.031 A 
ATOM     48  C   UNL     1      15.004  12.856   1.887  1.00  0.00     0.049 A 
ATOM     49  C   UNL     1      14.763   9.829   6.574  1.00  0.00     0.074 A 
ATOM     50  C   UNL     1      16.259  13.261   1.467  1.00  0.00     0.029 A 
ATOM     51  N   UNL     1      15.188  12.117   3.044  1.00  0.00    -0.354 N 
ATOM     52  N   UNL     1      14.979  10.548   5.501  1.00  0.00    -0.248 NA
ATOM     53  C   UNL     1      15.985   9.402   7.272  1.00  0.00     0.031 C 
ATOM     54  C   UNL     1      17.207  12.730   2.348  1.00  0.00     0.029 A 
ATOM     55  C   UNL     1      16.538  12.033   3.340  1.00  0.00     0.049 A 
ATOM     56  H   UNL     1      14.466  11.711   3.576  1.00  0.00     0.167 HD
ATOM     57  C   UNL     1      16.358  10.685   5.410  1.00  0.00     0.074 A 
ATOM     58  C   UNL     1      16.927   9.985   6.543  1.00  0.00     0.031 C 
ATOM     59  C   UNL     1      17.088  11.337   4.473  1.00  0.00     0.031 A 
BRANCH  46  60
ATOM     60  C   UNL     1      13.704  13.861  -0.028  1.00  0.00    -0.014 A 
ATOM     61  C   UNL     1      13.263  15.192  -0.100  1.00  0.00     0.009 A 
ATOM     62  C   UNL     1      14.164  13.232  -1.194  1.00  0.00     0.009 A 
ATOM     63  C   UNL     1      13.253  15.867  -1.322  1.00  0.00     0.001 A 
ATOM     64  C   UNL     1      14.176  13.918  -2.410  1.00  0.00     0.001 A 
ATOM     65  C   UNL     1      13.713  15.231  -2.474  1.00  0.00     0.000 A 
ENDBRANCH  46  60
BRANCH  47  66
ATOM     66  C   UNL     1      13.434   8.602   8.432  1.00  0.00    -0.014 A 
ATOM     67  C   UNL     1      13.782   9.197   9.654  1.00  0.00     0.009 A 
ATOM     68  C   UNL     1      13.085   7.243   8.412  1.00  0.00     0.009 A 
ATOM     69  C   UNL     1      13.809   8.440  10.828  1.00  0.00     0.001 A 
ATOM     70  C   UNL     1      13.088   6.495   9.591  1.00  0.00     0.001 A 
ATOM     71  C   UNL     1      13.459   7.091  10.796  1.00  0.00     0.000 A 
ENDBRANCH  47  66
BRANCH  59  72
ATOM     72  C   UNL     1      18.578  11.354   4.653  1.00  0.00    -0.014 A 
ATOM     73  C   UNL     1      19.355  10.214   4.397  1.00  0.00     0.009 A 
ATOM     74  C   UNL     1      19.215  12.540   5.049  1.00  0.00     0.009 A 
ATOM     75  C   UNL     1      20.741  10.255   4.562  1.00  0.00     0.001 A 
ATOM     76  C   UNL     1      20.603  12.585   5.188  1.00  0.00     0.001 A 
ATOM     77  C   UNL     1      21.363  11.441   4.953  1.00  0.00     0.000 A 
ENDBRANCH  59  72
ENDBRANCH  33  34
ENDBRANCH  25  28
ENDBRANCH  23  24
ENDBRANCH  22  23
ENDBRANCH   1  22
TORSDOF 14
