REMARK SMILES C[C@]1(c2nnnn2CCC(=O)NCCCCNC(=O)c2ccc(-c3c4nc(c(-c5ccccc5)c5ccc([nH]5)c(-c5ccccc5)c5nc(c(-c6ccccc6)c6ccc3[nH]6)C=C5)C=C4)cc2)CCCO1
REMARK SMILES IDX 14 1 13 2 12 3 10 4 11 5 9 7 8 8 7 9 3 10 4 11 5 12 6 13
REMARK SMILES IDX 2 14 1 15 68 16 71 17 69 18 70 19 15 20 16 21 17 22 18 23
REMARK SMILES IDX 19 25 20 26 21 27 67 28 22 29 66 30 23 31 24 32 25 33 60 34
REMARK SMILES IDX 26 35 65 36 59 37 61 38 27 39 64 40 58 41 57 42 28 44 50 45
REMARK SMILES IDX 35 46 49 47 36 48 39 49 48 50 62 51 37 52 38 53 47 55 63 56
REMARK SMILES IDX 40 57 29 58 30 59 34 60 31 61 33 62 32 63 51 64 52 65 56 66
REMARK SMILES IDX 53 67 55 68 54 69 41 70 42 71 46 72 43 73 45 74 44 75
REMARK H PARENT 12 6 17 24 61 43 39 54
REMARK Flexibility Score: inf
ROOT
ATOM      1  C   UNL     1       1.528   2.696   1.718  1.00  0.00     0.023 C 
ENDROOT
BRANCH   1   2
ATOM      2  C   UNL     1       0.870   1.885   2.829  1.00  0.00     0.116 C 
BRANCH   2   3
ATOM      3  N   UNL     1      -0.495   2.326   3.058  1.00  0.00    -0.356 N 
ATOM      4  C   UNL     1      -1.660   1.878   2.513  1.00  0.00     0.221 C 
ATOM      5  O   UNL     1      -2.688   2.524   2.730  1.00  0.00    -0.275 OA
ATOM      6  H   UNL     1      -0.592   3.061   3.706  1.00  0.00     0.163 HD
BRANCH   4   7
ATOM      7  C   UNL     1      -1.716   0.600   1.695  1.00  0.00     0.124 C 
BRANCH   7   8
ATOM      8  C   UNL     1      -1.730   0.850   0.187  1.00  0.00     0.158 C 
BRANCH   8   9
ATOM      9  N   UNL     1      -0.423   0.848  -0.433  1.00  0.00    -0.226 N 
ATOM     10  C   UNL     1       0.494  -0.150  -0.665  1.00  0.00     0.183 A 
ATOM     11  N   UNL     1       1.654   0.450  -0.889  1.00  0.00    -0.111 NA
ATOM     12  N   UNL     1       1.351   1.756  -1.158  1.00  0.00    -0.024 NA
ATOM     13  N   UNL     1       0.065   1.992  -0.950  1.00  0.00    -0.045 NA
BRANCH  10  14
ATOM     14  C   UNL     1       0.198  -1.531  -1.143  1.00  0.00     0.126 C 
ATOM     15  C   UNL     1       0.417  -1.518  -2.671  1.00  0.00     0.051 C 
ATOM     16  C   UNL     1       1.012  -2.628  -0.468  1.00  0.00     0.046 C 
ATOM     17  O   UNL     1      -1.173  -1.869  -0.874  1.00  0.00    -0.367 OA
ATOM     18  C   UNL     1       0.150  -3.844  -0.728  1.00  0.00     0.032 C 
ATOM     19  C   UNL     1      -1.247  -3.276  -0.581  1.00  0.00     0.161 C 
ENDBRANCH  10  14
ENDBRANCH   8   9
ENDBRANCH   7   8
ENDBRANCH   4   7
ENDBRANCH   2   3
ENDBRANCH   1   2
BRANCH   1  20
ATOM     20  C   UNL     1       2.129   4.060   2.037  1.00  0.00     0.023 C 
BRANCH  20  21
ATOM     21  C   UNL     1       3.358   4.007   2.917  1.00  0.00     0.116 C 
BRANCH  21  22
ATOM     22  N   UNL     1       4.484   3.281   2.328  1.00  0.00    -0.352 N 
ATOM     23  C   UNL     1       5.658   2.914   2.974  1.00  0.00     0.251 C 
ATOM     24  H   UNL     1       4.401   3.028   1.380  1.00  0.00     0.163 HD
ATOM     25  O   UNL     1       6.680   2.644   2.385  1.00  0.00    -0.269 OA
BRANCH  23  26
ATOM     26  C   UNL     1       5.589   2.856   4.445  1.00  0.00     0.039 A 
ATOM     27  C   UNL     1       6.416   3.648   5.239  1.00  0.00     0.014 A 
ATOM     28  C   UNL     1       4.514   2.150   4.979  1.00  0.00     0.014 A 
ATOM     29  C   UNL     1       6.069   3.823   6.575  1.00  0.00     0.010 A 
ATOM     30  C   UNL     1       4.085   2.463   6.245  1.00  0.00     0.010 A 
ATOM     31  C   UNL     1       4.867   3.273   7.063  1.00  0.00    -0.014 A 
BRANCH  31  32
ATOM     32  C   UNL     1       4.358   3.666   8.378  1.00  0.00     0.031 A 
ATOM     33  C   UNL     1       4.408   5.128   8.653  1.00  0.00     0.074 A 
ATOM     34  C   UNL     1       3.743   2.827   9.242  1.00  0.00     0.049 A 
ATOM     35  N   UNL     1       5.263   5.739   9.402  1.00  0.00    -0.248 NA
ATOM     36  C   UNL     1       3.514   6.035   7.915  1.00  0.00     0.031 C 
ATOM     37  C   UNL     1       3.324   1.436   9.021  1.00  0.00     0.029 A 
ATOM     38  N   UNL     1       3.274   3.080  10.497  1.00  0.00    -0.354 N 
ATOM     39  C   UNL     1       4.884   7.078   9.413  1.00  0.00     0.074 A 
ATOM     40  C   UNL     1       3.921   7.231   8.353  1.00  0.00     0.031 C 
ATOM     41  C   UNL     1       2.459   1.059   9.987  1.00  0.00     0.029 A 
ATOM     42  C   UNL     1       2.437   2.093  11.002  1.00  0.00     0.049 A 
ATOM     43  H   UNL     1       3.508   3.892  11.002  1.00  0.00     0.167 HD
ATOM     44  C   UNL     1       5.185   7.872  10.479  1.00  0.00     0.031 A 
ATOM     45  C   UNL     1       1.790   2.101  12.189  1.00  0.00     0.031 A 
ATOM     46  C   UNL     1       6.094   7.203  11.377  1.00  0.00     0.049 A 
ATOM     47  C   UNL     1       2.533   3.007  13.085  1.00  0.00     0.074 A 
ATOM     48  C   UNL     1       7.425   6.859  11.395  1.00  0.00     0.029 A 
ATOM     49  N   UNL     1       5.453   6.424  12.305  1.00  0.00    -0.354 N 
ATOM     50  N   UNL     1       3.745   2.763  13.495  1.00  0.00    -0.248 NA
ATOM     51  C   UNL     1       2.077   4.378  13.259  1.00  0.00     0.031 C 
ATOM     52  C   UNL     1       7.508   5.676  12.193  1.00  0.00     0.029 A 
ATOM     53  C   UNL     1       6.238   5.371  12.685  1.00  0.00     0.049 A 
ATOM     54  H   UNL     1       4.549   6.599  12.653  1.00  0.00     0.167 HD
ATOM     55  C   UNL     1       4.343   4.007  13.547  1.00  0.00     0.074 A 
ATOM     56  C   UNL     1       3.237   4.957  13.580  1.00  0.00     0.031 C 
ATOM     57  C   UNL     1       5.665   4.162  13.242  1.00  0.00     0.031 A 
BRANCH  44  58
ATOM     58  C   UNL     1       4.293   8.976  11.005  1.00  0.00    -0.014 A 
ATOM     59  C   UNL     1       4.733   9.719  12.118  1.00  0.00     0.009 A 
ATOM     60  C   UNL     1       2.932   9.094  10.667  1.00  0.00     0.009 A 
ATOM     61  C   UNL     1       3.846  10.484  12.887  1.00  0.00     0.001 A 
ATOM     62  C   UNL     1       2.050   9.883  11.414  1.00  0.00     0.001 A 
ATOM     63  C   UNL     1       2.502  10.559  12.539  1.00  0.00     0.000 A 
ENDBRANCH  44  58
BRANCH  45  64
ATOM     64  C   UNL     1       0.457   1.565  12.530  1.00  0.00    -0.014 A 
ATOM     65  C   UNL     1       0.086   1.363  13.869  1.00  0.00     0.009 A 
ATOM     66  C   UNL     1      -0.557   1.546  11.555  1.00  0.00     0.009 A 
ATOM     67  C   UNL     1      -1.261   1.213  14.225  1.00  0.00     0.001 A 
ATOM     68  C   UNL     1      -1.901   1.396  11.912  1.00  0.00     0.001 A 
ATOM     69  C   UNL     1      -2.254   1.250  13.250  1.00  0.00     0.000 A 
ENDBRANCH  45  64
BRANCH  57  70
ATOM     70  C   UNL     1       6.548   2.948  13.328  1.00  0.00    -0.014 A 
ATOM     71  C   UNL     1       6.406   1.810  12.517  1.00  0.00     0.009 A 
ATOM     72  C   UNL     1       7.624   2.998  14.226  1.00  0.00     0.009 A 
ATOM     73  C   UNL     1       7.304   0.742  12.627  1.00  0.00     0.001 A 
ATOM     74  C   UNL     1       8.532   1.943  14.320  1.00  0.00     0.001 A 
ATOM     75  C   UNL     1       8.367   0.812  13.526  1.00  0.00     0.000 A 
ENDBRANCH  57  70
ENDBRANCH  31  32
ENDBRANCH  23  26
ENDBRANCH  21  22
ENDBRANCH  20  21
ENDBRANCH   1  20
TORSDOF 14
