REMARK SMILES C[N@H+]1[C@H]2CC[C@@H]1C[N@@H+]([C@H](C(=O)NCCCCNC(=O)c1ccc(-c3c4nc(c(-c5ccccc5)c5ccc([nH]5)c(-c5ccccc5)c5nc(c(-c6ccccc6)c6ccc3[nH]6)C=C5)C=C4)cc1)c1ccccc1)CC2
REMARK SMILES IDX 14 1 13 2 12 3 10 4 11 5 9 7 8 8 7 10 6 11 1 12 2 13 3 14
REMARK SMILES IDX 4 16 5 18 74 19 75 20 68 22 69 23 73 24 70 25 72 26 71 27
REMARK SMILES IDX 15 28 16 29 17 30 18 31 19 33 20 34 21 35 67 36 22 37 66 38
REMARK SMILES IDX 23 39 24 40 25 41 60 42 26 43 65 44 59 45 61 46 27 47 64 48
REMARK SMILES IDX 58 49 57 50 28 52 50 53 35 54 49 55 36 56 39 57 48 58 62 59
REMARK SMILES IDX 37 60 38 61 47 63 63 64 40 65 29 66 30 67 34 68 31 69 33 70
REMARK SMILES IDX 32 71 51 72 52 73 56 74 53 75 55 76 54 77 41 78 42 79 46 80
REMARK SMILES IDX 43 81 45 82 44 83
REMARK H PARENT 12 6 8 9 2 15 17 32 61 51 39 62
REMARK Flexibility Score: 90.00
ROOT
ATOM      1  C   UNL     1       3.142   2.832   0.861  1.00  0.00     0.023 C 
ENDROOT
BRANCH   1   2
ATOM      2  C   UNL     1       2.727   3.173   2.295  1.00  0.00     0.116 C 
BRANCH   2   3
ATOM      3  N   UNL     1       1.312   3.470   2.444  1.00  0.00    -0.351 N 
ATOM      4  C   UNL     1       0.352   2.854   3.212  1.00  0.00     0.283 C 
ATOM      5  O   UNL     1      -0.785   3.341   3.164  1.00  0.00    -0.268 OA
ATOM      6  H   UNL     1       0.990   4.234   1.911  1.00  0.00     0.163 HD
BRANCH   4   7
ATOM      7  C   UNL     1       0.653   1.589   4.103  1.00  0.00     0.305 C 
BRANCH   7   8
ATOM      8  N   UNL     1       0.457   0.315   3.320  1.00  0.00    -0.316 N 
ATOM      9  H   UNL     1      -0.494   0.376   2.958  1.00  0.00     0.349 HD
BRANCH   8  10
ATOM     10  C   UNL     1       0.491  -0.891   4.172  1.00  0.00     0.328 C 
BRANCH  10  11
ATOM     11  C   UNL     1       0.094  -2.267   3.552  1.00  0.00     0.240 C 
ATOM     12  C   UNL     1       1.039  -4.024   2.138  1.00  0.00     0.333 C 
ATOM     13  N   UNL     1       0.866  -2.587   2.328  1.00  0.00    -0.328 N 
ATOM     14  C   UNL     1       0.114  -1.955   1.236  1.00  0.00     0.190 CG0
ATOM     15  H   UNL     1       1.821  -2.235   2.379  1.00  0.00     0.348 HD
ATOM     16  C   UNL     1      -1.335  -1.773   1.689  1.00  0.00     0.071 C 
ATOM     17  G   UNL     1       0.777  -0.623   0.921  1.00  0.00     0.000 G0
ATOM     18  C   UNL     1      -1.365  -2.295   3.109  1.00  0.00     0.077 C 
ENDBRANCH  10  11
ENDBRANCH   8  10
BRANCH   8  19
ATOM     19  C   UNL     1       1.270   0.208   2.115  1.00  0.00     0.269 C 
BRANCH  19  20
ATOM     20  C   UNL     1       0.777  -0.623   0.921  1.00  0.00     0.126 CG0
ATOM     21  G   UNL     1       0.114  -1.955   1.236  1.00  0.00     0.000 G0
ENDBRANCH  19  20
ENDBRANCH   8  19
ENDBRANCH   7   8
BRANCH   7  22
ATOM     22  C   UNL     1       1.862   1.813   5.028  1.00  0.00     0.019 A 
ATOM     23  C   UNL     1       3.037   1.044   5.030  1.00  0.00     0.010 A 
ATOM     24  C   UNL     1       1.823   2.930   5.893  1.00  0.00     0.010 A 
ATOM     25  C   UNL     1       4.130   1.389   5.832  1.00  0.00     0.001 A 
ATOM     26  C   UNL     1       2.918   3.280   6.688  1.00  0.00     0.001 A 
ATOM     27  C   UNL     1       4.075   2.511   6.653  1.00  0.00     0.000 A 
ENDBRANCH   7  22
ENDBRANCH   4   7
ENDBRANCH   2   3
ENDBRANCH   1   2
BRANCH   1  28
ATOM     28  C   UNL     1       3.094   3.995  -0.113  1.00  0.00     0.023 C 
BRANCH  28  29
ATOM     29  C   UNL     1       3.925   5.188   0.319  1.00  0.00     0.116 C 
BRANCH  29  30
ATOM     30  N   UNL     1       5.308   4.835   0.627  1.00  0.00    -0.352 N 
ATOM     31  C   UNL     1       6.467   5.358   0.111  1.00  0.00     0.251 C 
ATOM     32  H   UNL     1       5.425   4.124   1.297  1.00  0.00     0.163 HD
ATOM     33  O   UNL     1       7.555   4.850   0.359  1.00  0.00    -0.269 OA
BRANCH  31  34
ATOM     34  C   UNL     1       6.372   6.528  -0.777  1.00  0.00     0.039 A 
ATOM     35  C   UNL     1       7.011   6.498  -2.017  1.00  0.00     0.014 A 
ATOM     36  C   UNL     1       5.568   7.609  -0.408  1.00  0.00     0.014 A 
ATOM     37  C   UNL     1       6.771   7.524  -2.929  1.00  0.00     0.010 A 
ATOM     38  C   UNL     1       5.250   8.571  -1.353  1.00  0.00     0.010 A 
ATOM     39  C   UNL     1       5.852   8.540  -2.620  1.00  0.00    -0.014 A 
BRANCH  39  40
ATOM     40  C   UNL     1       5.498   9.594  -3.598  1.00  0.00     0.031 A 
ATOM     41  C   UNL     1       5.781  11.032  -3.272  1.00  0.00     0.074 A 
ATOM     42  C   UNL     1       4.830   9.267  -4.721  1.00  0.00     0.049 A 
ATOM     43  N   UNL     1       5.452  12.109  -3.938  1.00  0.00    -0.248 NA
ATOM     44  C   UNL     1       6.490  11.297  -2.009  1.00  0.00     0.031 C 
ATOM     45  C   UNL     1       4.439   7.911  -5.114  1.00  0.00     0.029 A 
ATOM     46  N   UNL     1       4.345  10.059  -5.729  1.00  0.00    -0.354 N 
ATOM     47  C   UNL     1       5.882  13.174  -3.158  1.00  0.00     0.074 A 
ATOM     48  C   UNL     1       6.446  12.619  -1.949  1.00  0.00     0.031 C 
ATOM     49  C   UNL     1       3.794   7.965  -6.291  1.00  0.00     0.029 A 
ATOM     50  C   UNL     1       3.691   9.358  -6.712  1.00  0.00     0.049 A 
ATOM     51  H   UNL     1       4.455  11.037  -5.747  1.00  0.00     0.167 HD
ATOM     52  C   UNL     1       5.829  14.498  -3.433  1.00  0.00     0.031 A 
ATOM     53  C   UNL     1       3.068   9.790  -7.824  1.00  0.00     0.031 A 
ATOM     54  C   UNL     1       5.294  15.044  -4.649  1.00  0.00     0.049 A 
ATOM     55  C   UNL     1       3.040  11.262  -8.121  1.00  0.00     0.074 A 
ATOM     56  C   UNL     1       5.284  16.361  -5.072  1.00  0.00     0.029 A 
ATOM     57  N   UNL     1       4.668  14.298  -5.636  1.00  0.00    -0.354 N 
ATOM     58  N   UNL     1       3.536  12.254  -7.420  1.00  0.00    -0.248 NA
ATOM     59  C   UNL     1       2.374  11.674  -9.364  1.00  0.00     0.031 C 
ATOM     60  C   UNL     1       4.605  16.419  -6.294  1.00  0.00     0.029 A 
ATOM     61  C   UNL     1       4.236  15.131  -6.653  1.00  0.00     0.049 A 
ATOM     62  H   UNL     1       4.549  13.321  -5.616  1.00  0.00     0.167 HD
ATOM     63  C   UNL     1       3.250  13.406  -8.140  1.00  0.00     0.074 A 
ATOM     64  C   UNL     1       2.558  12.987  -9.343  1.00  0.00     0.031 C 
ATOM     65  C   UNL     1       3.534  14.695  -7.832  1.00  0.00     0.031 A 
BRANCH  52  66
ATOM     66  C   UNL     1       6.357  15.438  -2.385  1.00  0.00    -0.014 A 
ATOM     67  C   UNL     1       7.728  15.507  -2.088  1.00  0.00     0.009 A 
ATOM     68  C   UNL     1       5.468  16.267  -1.685  1.00  0.00     0.009 A 
ATOM     69  C   UNL     1       8.191  16.351  -1.077  1.00  0.00     0.001 A 
ATOM     70  C   UNL     1       5.938  17.133  -0.695  1.00  0.00     0.001 A 
ATOM     71  C   UNL     1       7.296  17.165  -0.384  1.00  0.00     0.000 A 
ENDBRANCH  52  66
BRANCH  53  72
ATOM     72  C   UNL     1       2.431   8.810  -8.740  1.00  0.00    -0.014 A 
ATOM     73  C   UNL     1       3.024   8.501  -9.973  1.00  0.00     0.009 A 
ATOM     74  C   UNL     1       1.243   8.158  -8.374  1.00  0.00     0.009 A 
ATOM     75  C   UNL     1       2.432   7.569 -10.828  1.00  0.00     0.001 A 
ATOM     76  C   UNL     1       0.666   7.209  -9.220  1.00  0.00     0.001 A 
ATOM     77  C   UNL     1       1.258   6.919 -10.449  1.00  0.00     0.000 A 
ENDBRANCH  53  72
BRANCH  65  78
ATOM     78  C   UNL     1       3.096  15.744  -8.813  1.00  0.00    -0.014 A 
ATOM     79  C   UNL     1       1.745  16.106  -8.926  1.00  0.00     0.009 A 
ATOM     80  C   UNL     1       4.051  16.413  -9.594  1.00  0.00     0.009 A 
ATOM     81  C   UNL     1       1.356  17.102  -9.824  1.00  0.00     0.001 A 
ATOM     82  C   UNL     1       3.662  17.426 -10.470  1.00  0.00     0.001 A 
ATOM     83  C   UNL     1       2.315  17.765 -10.590  1.00  0.00     0.000 A 
ENDBRANCH  65  78
ENDBRANCH  39  40
ENDBRANCH  31  34
ENDBRANCH  29  30
ENDBRANCH  28  29
ENDBRANCH   1  28
TORSDOF 13
