REMARK SMILES N#Cc1ccccc1Cn1cccc1C(=O)NCCCCNC(=O)c1ccc(-c2c3nc(c(-c4ccccc4)c4ccc([nH]4)c(-c4ccccc4)c4nc(c(-c5ccccc5)c5ccc2[nH]5)C=C4)C=C3)cc1
REMARK SMILES IDX 19 1 18 2 17 3 15 4 16 5 14 7 10 8 11 9 12 10 13 11 9 12
REMARK SMILES IDX 8 13 3 14 4 15 5 16 7 17 6 18 2 19 1 20 20 21 21 22 22 23
REMARK SMILES IDX 23 24 24 26 25 27 26 28 72 29 27 30 71 31 28 32 29 33 30 34
REMARK SMILES IDX 65 35 31 36 70 37 64 38 66 39 32 40 69 41 63 42 62 43 33 45
REMARK SMILES IDX 55 46 40 47 54 48 41 49 44 50 53 51 67 52 42 53 43 54 52 56
REMARK SMILES IDX 68 57 45 58 34 59 35 60 39 61 36 62 38 63 37 64 56 65 57 66
REMARK SMILES IDX 61 67 58 68 60 69 59 70 46 71 47 72 51 73 48 74 50 75 49 76
REMARK H PARENT 17 6 22 25 66 44 44 55
REMARK Flexibility Score: inf
ROOT
ATOM      1  C   UNL     1      -3.095  -1.292   0.272  1.00  0.00     0.023 C 
ENDROOT
BRANCH   1   2
ATOM      2  C   UNL     1      -3.124  -2.779  -0.093  1.00  0.00     0.116 C 
BRANCH   2   3
ATOM      3  N   UNL     1      -3.191  -2.925  -1.534  1.00  0.00    -0.351 N 
ATOM      4  C   UNL     1      -2.288  -3.079  -2.556  1.00  0.00     0.267 C 
ATOM      5  O   UNL     1      -2.824  -3.096  -3.671  1.00  0.00    -0.268 OA
ATOM      6  H   UNL     1      -4.119  -2.910  -1.863  1.00  0.00     0.163 HD
BRANCH   4   7
ATOM      7  C   UNL     1      -0.851  -3.330  -2.428  1.00  0.00     0.107 A 
ATOM      8  N   UNL     1       0.158  -2.883  -1.569  1.00  0.00    -0.339 N 
ATOM      9  C   UNL     1       1.316  -3.588  -1.823  1.00  0.00     0.086 A 
ATOM     10  C   UNL     1       1.161  -4.279  -2.995  1.00  0.00     0.020 A 
ATOM     11  C   UNL     1      -0.176  -4.097  -3.385  1.00  0.00     0.033 A 
BRANCH   8  12
ATOM     12  C   UNL     1       0.034  -1.925  -0.473  1.00  0.00     0.159 C 
BRANCH  12  13
ATOM     13  C   UNL     1       0.958  -0.719  -0.416  1.00  0.00    -0.010 A 
ATOM     14  C   UNL     1       0.498   0.616  -0.553  1.00  0.00     0.057 A 
ATOM     15  C   UNL     1       1.340   1.699  -0.252  1.00  0.00     0.020 A 
ATOM     16  C   UNL     1       2.656   1.488   0.133  1.00  0.00     0.001 A 
ATOM     17  C   UNL     1       2.296  -0.899  -0.023  1.00  0.00     0.007 A 
ATOM     18  C   UNL     1       3.138   0.189   0.227  1.00  0.00     0.000 A 
BRANCH  14  19
ATOM     19  C   UNL     1      -0.831   0.996  -0.969  1.00  0.00     0.099 C 
ATOM     20  N   UNL     1      -1.867   1.389  -1.276  1.00  0.00    -0.192 NA
ENDBRANCH  14  19
ENDBRANCH  12  13
ENDBRANCH   8  12
ENDBRANCH   4   7
ENDBRANCH   2   3
ENDBRANCH   1   2
BRANCH   1  21
ATOM     21  C   UNL     1      -4.397  -0.516   0.408  1.00  0.00     0.023 C 
BRANCH  21  22
ATOM     22  C   UNL     1      -5.181  -0.842   1.658  1.00  0.00     0.116 C 
BRANCH  22  23
ATOM     23  N   UNL     1      -4.448  -0.514   2.873  1.00  0.00    -0.352 N 
ATOM     24  C   UNL     1      -4.851  -0.757   4.165  1.00  0.00     0.251 C 
ATOM     25  H   UNL     1      -3.575  -0.073   2.758  1.00  0.00     0.163 HD
ATOM     26  O   UNL     1      -4.408  -0.099   5.098  1.00  0.00    -0.269 OA
BRANCH  24  27
ATOM     27  C   UNL     1      -5.837  -1.827   4.410  1.00  0.00     0.039 A 
ATOM     28  C   UNL     1      -6.916  -1.587   5.261  1.00  0.00     0.014 A 
ATOM     29  C   UNL     1      -5.681  -3.068   3.779  1.00  0.00     0.014 A 
ATOM     30  C   UNL     1      -7.875  -2.582   5.422  1.00  0.00     0.010 A 
ATOM     31  C   UNL     1      -6.666  -4.035   3.886  1.00  0.00     0.010 A 
ATOM     32  C   UNL     1      -7.763  -3.794   4.710  1.00  0.00    -0.014 A 
BRANCH  32  33
ATOM     33  C   UNL     1      -8.942  -4.691   4.656  1.00  0.00     0.031 A 
ATOM     34  C   UNL     1     -10.057  -3.967   3.859  1.00  0.00     0.074 A 
ATOM     35  C   UNL     1      -8.873  -5.878   5.350  1.00  0.00     0.049 A 
ATOM     36  N   UNL     1     -11.305  -3.806   4.150  1.00  0.00    -0.248 NA
ATOM     37  C   UNL     1      -9.704  -3.174   2.641  1.00  0.00     0.031 C 
ATOM     38  C   UNL     1      -7.624  -6.470   5.897  1.00  0.00     0.029 A 
ATOM     39  N   UNL     1      -9.785  -6.847   5.735  1.00  0.00    -0.354 N 
ATOM     40  C   UNL     1     -11.924  -3.117   3.080  1.00  0.00     0.074 A 
ATOM     41  C   UNL     1     -10.861  -2.615   2.265  1.00  0.00     0.031 C 
ATOM     42  C   UNL     1      -7.872  -7.590   6.619  1.00  0.00     0.029 A 
ATOM     43  C   UNL     1      -9.298  -7.839   6.650  1.00  0.00     0.049 A 
ATOM     44  H   UNL     1     -10.711  -6.854   5.402  1.00  0.00     0.167 HD
ATOM     45  C   UNL     1     -13.270  -3.208   2.846  1.00  0.00     0.031 A 
ATOM     46  C   UNL     1     -10.004  -8.733   7.428  1.00  0.00     0.031 A 
ATOM     47  C   UNL     1     -13.858  -4.009   3.869  1.00  0.00     0.049 A 
ATOM     48  C   UNL     1     -11.399  -8.534   7.024  1.00  0.00     0.074 A 
ATOM     49  C   UNL     1     -14.017  -3.822   5.217  1.00  0.00     0.029 A 
ATOM     50  N   UNL     1     -13.902  -5.353   3.580  1.00  0.00    -0.354 N 
ATOM     51  N   UNL     1     -11.917  -8.941   5.907  1.00  0.00    -0.248 NA
ATOM     52  C   UNL     1     -12.248  -7.689   7.873  1.00  0.00     0.031 C 
ATOM     53  C   UNL     1     -13.565  -5.055   5.735  1.00  0.00     0.029 A 
ATOM     54  C   UNL     1     -13.537  -6.015   4.718  1.00  0.00     0.049 A 
ATOM     55  H   UNL     1     -14.148  -5.760   2.718  1.00  0.00     0.167 HD
ATOM     56  C   UNL     1     -12.958  -8.064   5.753  1.00  0.00     0.074 A 
ATOM     57  C   UNL     1     -13.305  -7.582   7.075  1.00  0.00     0.031 C 
ATOM     58  C   UNL     1     -13.080  -7.370   4.593  1.00  0.00     0.031 A 
BRANCH  45  59
ATOM     59  C   UNL     1     -14.107  -3.006   1.607  1.00  0.00    -0.014 A 
ATOM     60  C   UNL     1     -15.504  -3.232   1.745  1.00  0.00     0.009 A 
ATOM     61  C   UNL     1     -13.592  -2.999   0.309  1.00  0.00     0.009 A 
ATOM     62  C   UNL     1     -16.305  -3.613   0.669  1.00  0.00     0.001 A 
ATOM     63  C   UNL     1     -14.412  -3.329  -0.783  1.00  0.00     0.001 A 
ATOM     64  C   UNL     1     -15.750  -3.682  -0.598  1.00  0.00     0.000 A 
ENDBRANCH  45  59
BRANCH  46  65
ATOM     65  C   UNL     1      -9.823  -9.695   8.598  1.00  0.00    -0.014 A 
ATOM     66  C   UNL     1      -8.634 -10.271   9.050  1.00  0.00     0.009 A 
ATOM     67  C   UNL     1     -10.977 -10.052   9.365  1.00  0.00     0.009 A 
ATOM     68  C   UNL     1      -8.601 -11.046  10.242  1.00  0.00     0.001 A 
ATOM     69  C   UNL     1     -10.946 -10.767  10.568  1.00  0.00     0.001 A 
ATOM     70  C   UNL     1      -9.742 -11.254  11.022  1.00  0.00     0.000 A 
ENDBRANCH  46  65
BRANCH  58  71
ATOM     71  C   UNL     1     -12.424  -7.984   3.367  1.00  0.00    -0.014 A 
ATOM     72  C   UNL     1     -12.862  -9.245   2.931  1.00  0.00     0.009 A 
ATOM     73  C   UNL     1     -11.336  -7.410   2.680  1.00  0.00     0.009 A 
ATOM     74  C   UNL     1     -12.246  -9.911   1.864  1.00  0.00     0.001 A 
ATOM     75  C   UNL     1     -10.710  -8.081   1.612  1.00  0.00     0.001 A 
ATOM     76  C   UNL     1     -11.169  -9.330   1.203  1.00  0.00     0.000 A 
ENDBRANCH  58  71
ENDBRANCH  32  33
ENDBRANCH  24  27
ENDBRANCH  22  23
ENDBRANCH  21  22
ENDBRANCH   1  21
TORSDOF 14
