REMARK SMILES Cc1cc(Cl)c2c(c1)C=C(C(=O)NCCCCNC(=O)c1ccc(-c3c4nc(c(-c5ccccc5)c5ccc([nH]5)c(-c5ccccc5)c5nc(c(-c6ccccc6)c6ccc3[nH]6)C=C5)C=C4)cc1)[C@@H](C(F)(F)F)O2
REMARK SMILES IDX 16 1 15 2 14 3 13 4 11 5 12 6 10 8 1 9 2 10 3 11 8 12 4 13
REMARK SMILES IDX 7 14 5 15 6 16 9 17 74 18 69 19 70 20 71 21 72 22 73 23
REMARK SMILES IDX 17 24 18 25 19 26 20 28 21 29 22 30 68 31 23 32 67 33 24 34
REMARK SMILES IDX 25 35 26 36 61 37 27 38 66 39 60 40 62 41 28 42 65 43 59 44
REMARK SMILES IDX 58 45 29 47 51 48 36 49 50 50 37 51 40 52 49 53 63 54 38 55
REMARK SMILES IDX 39 56 48 58 64 59 41 60 30 61 31 62 35 63 32 64 34 65 33 66
REMARK SMILES IDX 52 67 53 68 57 69 54 70 56 71 55 72 42 73 43 74 47 75 44 76
REMARK SMILES IDX 46 77 45 78
REMARK H PARENT 13 7 18 27 62 46 40 57
REMARK Flexibility Score: inf
ROOT
ATOM      1  C   UNL     1      -4.183  -1.883  -9.767  1.00  0.00     0.023 C 
ENDROOT
BRANCH   1   2
ATOM      2  C   UNL     1      -3.334  -2.293  -8.560  1.00  0.00     0.023 C 
BRANCH   2   3
ATOM      3  C   UNL     1      -1.968  -1.616  -8.497  1.00  0.00     0.116 C 
BRANCH   3   4
ATOM      4  N   UNL     1      -2.030  -0.332  -7.823  1.00  0.00    -0.352 N 
ATOM      5  C   UNL     1      -1.681   0.168  -6.614  1.00  0.00     0.251 C 
ATOM      6  O   UNL     1      -1.931   1.367  -6.454  1.00  0.00    -0.270 OA
ATOM      7  H   UNL     1      -2.433   0.359  -8.397  1.00  0.00     0.163 HD
BRANCH   5   8
ATOM      8  C   UNL     1      -1.040  -0.606  -5.509  1.00  0.00     0.067 C 
ATOM      9  C   UNL     1       1.090   0.177   0.257  1.00  0.00     0.044 C 
ATOM     10  C   UNL     1       0.683  -0.576  -0.975  1.00  0.00    -0.049 A 
ATOM     11  C   UNL     1       0.907  -1.956  -1.053  1.00  0.00     0.028 A 
ATOM     12  C   UNL     1       0.106   0.086  -2.068  1.00  0.00     0.015 A 
ATOM     13  C   UNL     1       0.546  -2.665  -2.200  1.00  0.00     0.084 A 
ATOM     14  C   UNL     1      -0.253  -0.622  -3.222  1.00  0.00     0.019 A 
ATOM     15  Cl  UNL     1       0.834  -4.367  -2.242  1.00  0.00    -0.080 Cl
ATOM     16  C   UNL     1      -0.026  -1.999  -3.288  1.00  0.00     0.146 A 
ATOM     17  C   UNL     1      -0.897   0.054  -4.343  1.00  0.00     0.025 C 
ATOM     18  O   UNL     1      -0.398  -2.732  -4.381  1.00  0.00    -0.474 OA
ATOM     19  C   UNL     1      -0.528  -2.012  -5.636  1.00  0.00     0.314 C 
BRANCH  19  20
ATOM     20  C   UNL     1       0.800  -2.090  -6.413  1.00  0.00     0.429 C 
ATOM     21  F   UNL     1       1.051  -3.365  -6.801  1.00  0.00    -0.167 F 
ATOM     22  F   UNL     1       0.781  -1.345  -7.545  1.00  0.00    -0.167 F 
ATOM     23  F   UNL     1       1.857  -1.669  -5.684  1.00  0.00    -0.167 F 
ENDBRANCH  19  20
ENDBRANCH   5   8
ENDBRANCH   3   4
ENDBRANCH   2   3
ENDBRANCH   1   2
BRANCH   1  24
ATOM     24  C   UNL     1      -3.530  -2.098 -11.133  1.00  0.00     0.116 C 
BRANCH  24  25
ATOM     25  N   UNL     1      -3.022  -3.446 -11.337  1.00  0.00    -0.352 N 
ATOM     26  C   UNL     1      -2.895  -4.132 -12.521  1.00  0.00     0.251 C 
ATOM     27  H   UNL     1      -2.732  -3.926 -10.527  1.00  0.00     0.163 HD
ATOM     28  O   UNL     1      -2.521  -5.300 -12.535  1.00  0.00    -0.269 OA
BRANCH  26  29
ATOM     29  C   UNL     1      -3.263  -3.454 -13.777  1.00  0.00     0.039 A 
ATOM     30  C   UNL     1      -4.217  -4.047 -14.608  1.00  0.00     0.014 A 
ATOM     31  C   UNL     1      -2.709  -2.212 -14.097  1.00  0.00     0.014 A 
ATOM     32  C   UNL     1      -4.677  -3.354 -15.727  1.00  0.00     0.010 A 
ATOM     33  C   UNL     1      -3.207  -1.501 -15.182  1.00  0.00     0.010 A 
ATOM     34  C   UNL     1      -4.202  -2.061 -15.999  1.00  0.00    -0.014 A 
BRANCH  34  35
ATOM     35  C   UNL     1      -4.736  -1.262 -17.127  1.00  0.00     0.031 A 
ATOM     36  C   UNL     1      -3.847  -0.922 -18.287  1.00  0.00     0.074 A 
ATOM     37  C   UNL     1      -5.992  -0.782 -17.068  1.00  0.00     0.049 A 
ATOM     38  N   UNL     1      -4.085  -0.135 -19.304  1.00  0.00    -0.248 NA
ATOM     39  C   UNL     1      -2.507  -1.531 -18.292  1.00  0.00     0.031 C 
ATOM     40  C   UNL     1      -6.949  -1.032 -15.988  1.00  0.00     0.029 A 
ATOM     41  N   UNL     1      -6.676   0.029 -17.938  1.00  0.00    -0.354 N 
ATOM     42  C   UNL     1      -2.921  -0.140 -20.061  1.00  0.00     0.074 A 
ATOM     43  C   UNL     1      -1.966  -0.978 -19.367  1.00  0.00     0.031 C 
ATOM     44  C   UNL     1      -8.103  -0.405 -16.271  1.00  0.00     0.029 A 
ATOM     45  C   UNL     1      -7.953   0.323 -17.527  1.00  0.00     0.049 A 
ATOM     46  H   UNL     1      -6.289   0.368 -18.777  1.00  0.00     0.167 HD
ATOM     47  C   UNL     1      -2.674   0.486 -21.235  1.00  0.00     0.031 A 
ATOM     48  C   UNL     1      -8.895   1.098 -18.095  1.00  0.00     0.031 A 
ATOM     49  C   UNL     1      -3.623   1.315 -21.927  1.00  0.00     0.049 A 
ATOM     50  C   UNL     1      -8.590   1.798 -19.388  1.00  0.00     0.074 A 
ATOM     51  C   UNL     1      -3.471   1.982 -23.129  1.00  0.00     0.029 A 
ATOM     52  N   UNL     1      -4.907   1.582 -21.479  1.00  0.00    -0.354 N 
ATOM     53  N   UNL     1      -7.486   1.780 -20.095  1.00  0.00    -0.248 NA
ATOM     54  C   UNL     1      -9.663   2.621 -19.964  1.00  0.00     0.031 C 
ATOM     55  C   UNL     1      -4.654   2.679 -23.394  1.00  0.00     0.029 A 
ATOM     56  C   UNL     1      -5.558   2.407 -22.380  1.00  0.00     0.049 A 
ATOM     57  H   UNL     1      -5.299   1.236 -20.644  1.00  0.00     0.167 HD
ATOM     58  C   UNL     1      -7.739   2.565 -21.212  1.00  0.00     0.074 A 
ATOM     59  C   UNL     1      -9.104   3.036 -21.093  1.00  0.00     0.031 C 
ATOM     60  C   UNL     1      -6.916   2.865 -22.245  1.00  0.00     0.031 A 
BRANCH  47  61
ATOM     61  C   UNL     1      -1.314   0.295 -21.843  1.00  0.00    -0.014 A 
ATOM     62  C   UNL     1      -0.950  -0.928 -22.427  1.00  0.00     0.009 A 
ATOM     63  C   UNL     1      -0.397   1.357 -21.859  1.00  0.00     0.009 A 
ATOM     64  C   UNL     1       0.317  -1.093 -22.991  1.00  0.00     0.001 A 
ATOM     65  C   UNL     1       0.859   1.197 -22.446  1.00  0.00     0.001 A 
ATOM     66  C   UNL     1       1.218  -0.029 -23.004  1.00  0.00     0.000 A 
ENDBRANCH  47  61
BRANCH  48  67
ATOM     67  C   UNL     1     -10.228   1.232 -17.455  1.00  0.00    -0.014 A 
ATOM     68  C   UNL     1     -11.344   0.588 -18.009  1.00  0.00     0.009 A 
ATOM     69  C   UNL     1     -10.391   1.990 -16.285  1.00  0.00     0.009 A 
ATOM     70  C   UNL     1     -12.601   0.713 -17.415  1.00  0.00     0.001 A 
ATOM     71  C   UNL     1     -11.646   2.094 -15.679  1.00  0.00     0.001 A 
ATOM     72  C   UNL     1     -12.750   1.461 -16.248  1.00  0.00     0.000 A 
ENDBRANCH  48  67
BRANCH  60  73
ATOM     73  C   UNL     1      -7.480   3.712 -23.348  1.00  0.00    -0.014 A 
ATOM     74  C   UNL     1      -7.679   5.090 -23.179  1.00  0.00     0.009 A 
ATOM     75  C   UNL     1      -7.772   3.127 -24.590  1.00  0.00     0.009 A 
ATOM     76  C   UNL     1      -8.188   5.862 -24.226  1.00  0.00     0.001 A 
ATOM     77  C   UNL     1      -8.257   3.904 -25.642  1.00  0.00     0.001 A 
ATOM     78  C   UNL     1      -8.471   5.269 -25.457  1.00  0.00     0.000 A 
ENDBRANCH  60  73
ENDBRANCH  34  35
ENDBRANCH  26  29
ENDBRANCH  24  25
ENDBRANCH   1  24
TORSDOF 12
