REMARK SMILES CC(C)[NH2+][C@]1(C(=O)NCCCCNC(=O)c2ccc(-c3c4nc(c(-c5ccccc5)c5ccc([nH]5)c(-c5ccccc5)c5nc(c(-c6ccccc6)c6ccc3[nH]6)C=C5)C=C4)cc2)CCC[C@@H]1CCSc1cnccn1
REMARK SMILES IDX 9 1 8 2 6 3 7 4 5 6 64 7 67 8 65 9 66 10 4 11 2 14 1 15 3 16
REMARK SMILES IDX 68 17 69 18 70 19 71 20 72 21 76 22 73 23 75 24 74 25 10 26
REMARK SMILES IDX 11 27 12 28 13 29 14 30 15 32 16 33 17 34 63 35 18 36 62 37
REMARK SMILES IDX 19 38 20 39 21 40 56 41 22 42 61 43 55 44 57 45 23 46 60 47
REMARK SMILES IDX 54 48 53 49 24 51 46 52 31 53 45 54 32 55 35 56 44 57 58 58
REMARK SMILES IDX 33 59 34 60 43 62 59 63 36 64 25 65 26 66 30 67 27 68 29 69
REMARK SMILES IDX 28 70 47 71 48 72 52 73 49 74 51 75 50 76 37 77 38 78 42 79
REMARK SMILES IDX 39 80 41 81 40 82
REMARK H PARENT 8 5 4 12 4 13 13 31 57 50 35 61
REMARK Flexibility Score: inf
ROOT
ATOM      1  C   UNL     1       1.713  -0.285   2.274  1.00  0.00     0.116 C 
ENDROOT
BRANCH   1   2
ATOM      2  N   UNL     1       0.725  -0.108   1.228  1.00  0.00    -0.351 N 
ATOM      3  C   UNL     1      -0.555   0.366   1.280  1.00  0.00     0.281 C 
ATOM      4  O   UNL     1      -1.090   0.551   0.180  1.00  0.00    -0.268 OA
ATOM      5  H   UNL     1       1.027  -0.375   0.330  1.00  0.00     0.163 HD
BRANCH   3   6
ATOM      6  C   UNL     1      -1.356   0.564   2.638  1.00  0.00     0.178 C 
ATOM      7  C   UNL     1      -2.393   1.704   2.414  1.00  0.00     0.079 C 
ATOM      8  C   UNL     1      -2.289  -0.708   2.782  1.00  0.00     0.061 C 
ATOM      9  C   UNL     1      -3.622   1.285   3.200  1.00  0.00     0.008 C 
ATOM     10  C   UNL     1      -3.728  -0.198   2.907  1.00  0.00     0.011 C 
BRANCH   6  11
ATOM     11  N   UNL     1      -0.398   0.996   3.671  1.00  0.00    -0.331 N 
ATOM     12  H   UNL     1       0.364   0.319   3.648  1.00  0.00     0.347 HD
ATOM     13  H   UNL     1      -0.228   1.964   3.399  1.00  0.00     0.347 HD
BRANCH  11  14
ATOM     14  C   UNL     1      -0.758   1.146   5.067  1.00  0.00     0.176 C 
ATOM     15  C   UNL     1       0.400   0.537   5.874  1.00  0.00     0.075 C 
ATOM     16  C   UNL     1      -0.930   2.602   5.496  1.00  0.00     0.075 C 
ENDBRANCH  11  14
ENDBRANCH   6  11
BRANCH   8  17
ATOM     17  C   UNL     1      -1.917  -1.973   3.587  1.00  0.00     0.022 C 
BRANCH  17  18
ATOM     18  C   UNL     1      -1.954  -2.089   5.118  1.00  0.00     0.077 C 
BRANCH  18  19
ATOM     19  S   UNL     1      -3.543  -2.506   5.927  1.00  0.00    -0.105 SA
BRANCH  19  20
ATOM     20  C   UNL     1      -4.231  -0.916   6.309  1.00  0.00     0.114 A 
ATOM     21  C   UNL     1      -3.613   0.033   7.115  1.00  0.00     0.146 A 
ATOM     22  N   UNL     1      -5.441  -0.662   5.754  1.00  0.00    -0.247 NA
ATOM     23  N   UNL     1      -4.125   1.276   7.329  1.00  0.00    -0.260 NA
ATOM     24  C   UNL     1      -5.957   0.568   5.964  1.00  0.00     0.132 A 
ATOM     25  C   UNL     1      -5.310   1.521   6.727  1.00  0.00     0.131 A 
ENDBRANCH  19  20
ENDBRANCH  18  19
ENDBRANCH  17  18
ENDBRANCH   8  17
ENDBRANCH   3   6
ENDBRANCH   1   2
BRANCH   1  26
ATOM     26  C   UNL     1       2.677  -1.436   2.020  1.00  0.00     0.023 C 
BRANCH  26  27
ATOM     27  C   UNL     1       3.463  -1.389   0.715  1.00  0.00     0.023 C 
BRANCH  27  28
ATOM     28  C   UNL     1       4.159  -0.072   0.402  1.00  0.00     0.116 C 
BRANCH  28  29
ATOM     29  N   UNL     1       5.058   0.383   1.450  1.00  0.00    -0.352 N 
ATOM     30  C   UNL     1       6.356   0.833   1.344  1.00  0.00     0.251 C 
ATOM     31  H   UNL     1       4.689   0.368   2.362  1.00  0.00     0.163 HD
ATOM     32  O   UNL     1       7.002   1.127   2.337  1.00  0.00    -0.269 OA
BRANCH  30  33
ATOM     33  C   UNL     1       6.975   0.907   0.005  1.00  0.00     0.039 A 
ATOM     34  C   UNL     1       8.186   0.245  -0.212  1.00  0.00     0.014 A 
ATOM     35  C   UNL     1       6.322   1.560  -1.044  1.00  0.00     0.014 A 
ATOM     36  C   UNL     1       8.699   0.161  -1.506  1.00  0.00     0.010 A 
ATOM     37  C   UNL     1       6.795   1.409  -2.342  1.00  0.00     0.010 A 
ATOM     38  C   UNL     1       7.983   0.703  -2.586  1.00  0.00    -0.014 A 
BRANCH  38  39
ATOM     39  C   UNL     1       8.456   0.535  -3.982  1.00  0.00     0.031 A 
ATOM     40  C   UNL     1       8.851   1.739  -4.789  1.00  0.00     0.074 A 
ATOM     41  C   UNL     1       8.459  -0.689  -4.545  1.00  0.00     0.049 A 
ATOM     42  N   UNL     1       9.226   1.807  -6.041  1.00  0.00    -0.248 NA
ATOM     43  C   UNL     1       8.788   3.042  -4.107  1.00  0.00     0.031 C 
ATOM     44  C   UNL     1       8.050  -1.931  -3.884  1.00  0.00     0.029 A 
ATOM     45  N   UNL     1       8.814  -1.088  -5.809  1.00  0.00    -0.354 N 
ATOM     46  C   UNL     1       9.420   3.157  -6.301  1.00  0.00     0.074 A 
ATOM     47  C   UNL     1       9.075   3.877  -5.095  1.00  0.00     0.031 C 
ATOM     48  C   UNL     1       8.203  -2.955  -4.739  1.00  0.00     0.029 A 
ATOM     49  C   UNL     1       8.688  -2.441  -6.015  1.00  0.00     0.049 A 
ATOM     50  H   UNL     1       9.129  -0.465  -6.502  1.00  0.00     0.167 HD
ATOM     51  C   UNL     1       9.866   3.745  -7.436  1.00  0.00     0.031 A 
ATOM     52  C   UNL     1       8.934  -3.182  -7.111  1.00  0.00     0.031 A 
ATOM     53  C   UNL     1      10.229   3.029  -8.628  1.00  0.00     0.049 A 
ATOM     54  C   UNL     1       9.441  -2.508  -8.355  1.00  0.00     0.074 A 
ATOM     55  C   UNL     1      10.750   3.527  -9.809  1.00  0.00     0.029 A 
ATOM     56  N   UNL     1      10.110   1.657  -8.788  1.00  0.00    -0.354 N 
ATOM     57  N   UNL     1       9.685  -1.237  -8.563  1.00  0.00    -0.248 NA
ATOM     58  C   UNL     1       9.718  -3.373  -9.510  1.00  0.00     0.031 C 
ATOM     59  C   UNL     1      10.911   2.460 -10.698  1.00  0.00     0.029 A 
ATOM     60  C   UNL     1      10.533   1.292 -10.054  1.00  0.00     0.049 A 
ATOM     61  H   UNL     1       9.775   1.035  -8.103  1.00  0.00     0.167 HD
ATOM     62  C   UNL     1      10.168  -1.153  -9.862  1.00  0.00     0.074 A 
ATOM     63  C   UNL     1      10.195  -2.502 -10.388  1.00  0.00     0.031 C 
ATOM     64  C   UNL     1      10.554  -0.056 -10.558  1.00  0.00     0.031 A 
BRANCH  51  65
ATOM     65  C   UNL     1       9.983   5.243  -7.432  1.00  0.00    -0.014 A 
ATOM     66  C   UNL     1      10.977   5.891  -6.680  1.00  0.00     0.009 A 
ATOM     67  C   UNL     1       9.100   6.016  -8.201  1.00  0.00     0.009 A 
ATOM     68  C   UNL     1      11.057   7.284  -6.667  1.00  0.00     0.001 A 
ATOM     69  C   UNL     1       9.201   7.408  -8.207  1.00  0.00     0.001 A 
ATOM     70  C   UNL     1      10.172   8.041  -7.433  1.00  0.00     0.000 A 
ENDBRANCH  51  65
BRANCH  52  71
ATOM     71  C   UNL     1       8.731  -4.654  -7.077  1.00  0.00    -0.014 A 
ATOM     72  C   UNL     1       9.834  -5.521  -7.063  1.00  0.00     0.009 A 
ATOM     73  C   UNL     1       7.438  -5.199  -7.062  1.00  0.00     0.009 A 
ATOM     74  C   UNL     1       9.646  -6.905  -7.060  1.00  0.00     0.001 A 
ATOM     75  C   UNL     1       7.254  -6.583  -7.034  1.00  0.00     0.001 A 
ATOM     76  C   UNL     1       8.357  -7.435  -7.042  1.00  0.00     0.000 A 
ENDBRANCH  52  71
BRANCH  64  77
ATOM     77  C   UNL     1      11.070  -0.275 -11.950  1.00  0.00    -0.014 A 
ATOM     78  C   UNL     1      10.200  -0.584 -13.007  1.00  0.00     0.009 A 
ATOM     79  C   UNL     1      12.440  -0.127 -12.214  1.00  0.00     0.009 A 
ATOM     80  C   UNL     1      10.699  -0.769 -14.297  1.00  0.00     0.001 A 
ATOM     81  C   UNL     1      12.932  -0.288 -13.510  1.00  0.00     0.001 A 
ATOM     82  C   UNL     1      12.062  -0.617 -14.548  1.00  0.00     0.000 A 
ENDBRANCH  64  77
ENDBRANCH  38  39
ENDBRANCH  30  33
ENDBRANCH  28  29
ENDBRANCH  27  28
ENDBRANCH  26  27
ENDBRANCH   1  26
TORSDOF 17
