REMARK SMILES C[NH+]1CCN(c2nc3c(cc2F)c(=O)c(C(=O)NCCCCNC(=O)c2ccc(-c4c5nc(c(-c6ccccc6)c6ccc([nH]6)c(-c6ccccc6)c6nc(c(-c7ccccc7)c7ccc4[nH]7)C=C6)C=C5)cc2)cn3-c2ccc(F)cc2F)CC1
REMARK SMILES IDX 21 1 20 2 19 3 18 4 16 5 17 6 15 8 6 9 7 10 11 11 8 12 10 13
REMARK SMILES IDX 12 14 9 15 75 16 13 17 74 18 14 19 5 20 1 21 2 22 3 23 85 24
REMARK SMILES IDX 4 26 84 27 76 28 77 29 82 30 78 31 81 32 83 33 79 34 80 35
REMARK SMILES IDX 22 36 23 37 24 38 25 40 26 41 27 42 73 43 28 44 72 45 29 46
REMARK SMILES IDX 30 47 31 48 66 49 32 50 71 51 65 52 67 53 33 54 70 55 64 56
REMARK SMILES IDX 63 57 34 59 56 60 41 61 55 62 42 63 45 64 54 65 68 66 43 67
REMARK SMILES IDX 44 68 53 70 69 71 46 72 35 73 36 74 40 75 37 76 39 77 38 78
REMARK SMILES IDX 57 79 58 80 62 81 59 82 61 83 60 84 47 85 48 86 52 87 49 88
REMARK SMILES IDX 51 89 50 90
REMARK H PARENT 18 7 2 25 23 39 67 58 45 69
REMARK Flexibility Score: inf
ROOT
ATOM      1  C   UNL     1      -9.340  -0.117   6.896  1.00  0.00     0.023 C 
ENDROOT
BRANCH   1   2
ATOM      2  C   UNL     1      -8.306  -0.245   5.783  1.00  0.00     0.023 C 
BRANCH   2   3
ATOM      3  C   UNL     1      -8.817  -0.907   4.500  1.00  0.00     0.116 C 
BRANCH   3   4
ATOM      4  N   UNL     1      -9.481   0.056   3.645  1.00  0.00    -0.352 N 
ATOM      5  C   UNL     1      -9.026   0.824   2.619  1.00  0.00     0.256 C 
ATOM      6  O   UNL     1      -9.862   1.552   2.075  1.00  0.00    -0.269 OA
ATOM      7  H   UNL     1     -10.437   0.177   3.843  1.00  0.00     0.163 HD
BRANCH   5   8
ATOM      8  C   UNL     1      -7.631   0.767   2.096  1.00  0.00     0.104 A 
ATOM      9  C   UNL     1      -2.869  -0.127   0.550  1.00  0.00     0.167 A 
ATOM     10  N   UNL     1      -3.925   0.537   0.013  1.00  0.00    -0.209 NA
ATOM     11  C   UNL     1      -2.961  -0.723   1.810  1.00  0.00     0.166 A 
ATOM     12  C   UNL     1      -5.095   0.616   0.697  1.00  0.00     0.151 A 
ATOM     13  C   UNL     1      -4.118  -0.590   2.551  1.00  0.00     0.059 A 
ATOM     14  F   UNL     1      -1.918  -1.369   2.353  1.00  0.00    -0.203 F 
ATOM     15  C   UNL     1      -5.189   0.100   1.987  1.00  0.00     0.069 A 
ATOM     16  N   UNL     1      -6.251   1.237   0.118  1.00  0.00    -0.297 N 
ATOM     17  C   UNL     1      -6.394   0.349   2.788  1.00  0.00     0.203 A 
ATOM     18  C   UNL     1      -7.444   1.212   0.840  1.00  0.00     0.111 A 
ATOM     19  O   UNL     1      -6.284   0.243   4.002  1.00  0.00    -0.288 OA
BRANCH   9  20
ATOM     20  N   UNL     1      -1.712  -0.155  -0.182  1.00  0.00    -0.343 N 
ATOM     21  C   UNL     1       2.512   0.144   0.126  1.00  0.00     0.332 C 
ATOM     22  N   UNL     1       1.162   0.015  -0.416  1.00  0.00    -0.334 N 
ATOM     23  C   UNL     1       0.341   1.203  -0.082  1.00  0.00     0.283 C 
ATOM     24  C   UNL     1       0.506  -1.203   0.116  1.00  0.00     0.283 C 
ATOM     25  H   UNL     1       1.239  -0.058  -1.431  1.00  0.00     0.347 HD
ATOM     26  C   UNL     1      -1.111   1.102  -0.620  1.00  0.00     0.179 C 
ATOM     27  C   UNL     1      -0.938  -1.371  -0.400  1.00  0.00     0.179 C 
ENDBRANCH   9  20
BRANCH  16  28
ATOM     28  C   UNL     1      -6.234   1.816  -1.188  1.00  0.00     0.083 A 
ATOM     29  C   UNL     1      -5.796   1.077  -2.301  1.00  0.00     0.033 A 
ATOM     30  C   UNL     1      -6.667   3.138  -1.405  1.00  0.00     0.150 A 
ATOM     31  C   UNL     1      -5.798   1.644  -3.578  1.00  0.00     0.041 A 
ATOM     32  C   UNL     1      -6.660   3.713  -2.671  1.00  0.00     0.080 A 
ATOM     33  F   UNL     1      -7.077   3.888  -0.370  1.00  0.00    -0.205 F 
ATOM     34  C   UNL     1      -6.226   2.956  -3.748  1.00  0.00     0.126 A 
ATOM     35  F   UNL     1      -6.219   3.497  -4.973  1.00  0.00    -0.207 F 
ENDBRANCH  16  28
ENDBRANCH   5   8
ENDBRANCH   3   4
ENDBRANCH   2   3
ENDBRANCH   1   2
BRANCH   1  36
ATOM     36  C   UNL     1      -9.822  -1.441   7.469  1.00  0.00     0.116 C 
BRANCH  36  37
ATOM     37  N   UNL     1      -8.752  -2.257   8.026  1.00  0.00    -0.352 N 
ATOM     38  C   UNL     1      -8.816  -3.087   9.118  1.00  0.00     0.251 C 
ATOM     39  H   UNL     1      -7.883  -2.209   7.566  1.00  0.00     0.163 HD
ATOM     40  O   UNL     1      -7.827  -3.680   9.533  1.00  0.00    -0.269 OA
BRANCH  38  41
ATOM     41  C   UNL     1     -10.108  -3.215   9.812  1.00  0.00     0.039 A 
ATOM     42  C   UNL     1     -10.191  -2.830  11.152  1.00  0.00     0.014 A 
ATOM     43  C   UNL     1     -11.245  -3.615   9.102  1.00  0.00     0.014 A 
ATOM     44  C   UNL     1     -11.439  -2.788  11.771  1.00  0.00     0.010 A 
ATOM     45  C   UNL     1     -12.492  -3.522   9.707  1.00  0.00     0.010 A 
ATOM     46  C   UNL     1     -12.596  -3.106  11.043  1.00  0.00    -0.014 A 
BRANCH  46  47
ATOM     47  C   UNL     1     -13.931  -3.037  11.675  1.00  0.00     0.031 A 
ATOM     48  C   UNL     1     -14.670  -4.306  11.977  1.00  0.00     0.074 A 
ATOM     49  C   UNL     1     -14.492  -1.841  11.931  1.00  0.00     0.049 A 
ATOM     50  N   UNL     1     -15.861  -4.461  12.493  1.00  0.00    -0.248 NA
ATOM     51  C   UNL     1     -13.989  -5.567  11.638  1.00  0.00     0.031 C 
ATOM     52  C   UNL     1     -13.879  -0.539  11.662  1.00  0.00     0.029 A 
ATOM     53  N   UNL     1     -15.709  -1.530  12.481  1.00  0.00    -0.354 N 
ATOM     54  C   UNL     1     -16.076  -5.831  12.530  1.00  0.00     0.074 A 
ATOM     55  C   UNL     1     -14.912  -6.464  11.951  1.00  0.00     0.031 C 
ATOM     56  C   UNL     1     -14.711   0.431  12.076  1.00  0.00     0.029 A 
ATOM     57  C   UNL     1     -15.924  -0.180  12.613  1.00  0.00     0.049 A 
ATOM     58  H   UNL     1     -16.367  -2.209  12.755  1.00  0.00     0.167 HD
ATOM     59  C   UNL     1     -17.142  -6.503  13.021  1.00  0.00     0.031 A 
ATOM     60  C   UNL     1     -16.979   0.487  13.117  1.00  0.00     0.031 A 
ATOM     61  C   UNL     1     -18.285  -5.877  13.621  1.00  0.00     0.049 A 
ATOM     62  C   UNL     1     -18.159  -0.282  13.637  1.00  0.00     0.074 A 
ATOM     63  C   UNL     1     -19.384  -6.478  14.208  1.00  0.00     0.029 A 
ATOM     64  N   UNL     1     -18.474  -4.508  13.713  1.00  0.00    -0.354 N 
ATOM     65  N   UNL     1     -18.328  -1.579  13.709  1.00  0.00    -0.248 NA
ATOM     66  C   UNL     1     -19.294   0.504  14.143  1.00  0.00     0.031 C 
ATOM     67  C   UNL     1     -20.256  -5.470  14.628  1.00  0.00     0.029 A 
ATOM     68  C   UNL     1     -19.683  -4.244  14.329  1.00  0.00     0.049 A 
ATOM     69  H   UNL     1     -17.842  -3.826  13.389  1.00  0.00     0.167 HD
ATOM     70  C   UNL     1     -19.576  -1.767  14.287  1.00  0.00     0.074 A 
ATOM     71  C   UNL     1     -20.123  -0.451  14.547  1.00  0.00     0.031 C 
ATOM     72  C   UNL     1     -20.208  -2.928  14.579  1.00  0.00     0.031 A 
BRANCH  59  73
ATOM     73  C   UNL     1     -17.113  -7.998  12.932  1.00  0.00    -0.014 A 
ATOM     74  C   UNL     1     -16.325  -8.755  13.813  1.00  0.00     0.009 A 
ATOM     75  C   UNL     1     -17.913  -8.658  11.988  1.00  0.00     0.009 A 
ATOM     76  C   UNL     1     -16.322 -10.148  13.734  1.00  0.00     0.001 A 
ATOM     77  C   UNL     1     -17.922 -10.052  11.924  1.00  0.00     0.001 A 
ATOM     78  C   UNL     1     -17.124 -10.795  12.793  1.00  0.00     0.000 A 
ENDBRANCH  59  73
BRANCH  60  79
ATOM     79  C   UNL     1     -16.948   1.969  13.188  1.00  0.00    -0.014 A 
ATOM     80  C   UNL     1     -16.693   2.607  14.410  1.00  0.00     0.009 A 
ATOM     81  C   UNL     1     -17.153   2.748  12.040  1.00  0.00     0.009 A 
ATOM     82  C   UNL     1     -16.654   4.001  14.484  1.00  0.00     0.001 A 
ATOM     83  C   UNL     1     -17.098   4.142  12.114  1.00  0.00     0.001 A 
ATOM     84  C   UNL     1     -16.852   4.767  13.336  1.00  0.00     0.000 A 
ENDBRANCH  60  79
BRANCH  72  85
ATOM     85  C   UNL     1     -21.556  -2.842  15.229  1.00  0.00    -0.014 A 
ATOM     86  C   UNL     1     -22.705  -2.599  14.463  1.00  0.00     0.009 A 
ATOM     87  C   UNL     1     -21.686  -3.112  16.599  1.00  0.00     0.009 A 
ATOM     88  C   UNL     1     -23.965  -2.625  15.064  1.00  0.00     0.001 A 
ATOM     89  C   UNL     1     -22.948  -3.152  17.192  1.00  0.00     0.001 A 
ATOM     90  C   UNL     1     -24.085  -2.909  16.424  1.00  0.00     0.000 A 
ENDBRANCH  72  85
ENDBRANCH  46  47
ENDBRANCH  38  41
ENDBRANCH  36  37
ENDBRANCH   1  36
TORSDOF 13
