REMARK SMILES O=C(NCCCCNC(=O)c1ccc(-c2c3nc(c(-c4ccccc4)c4ccc([nH]4)c(-c4ccccc4)c4nc(c(-c5ccccc5)c5ccc2[nH]5)C=C4)C=C3)cc1)C1=Cc2c(Cl)ccc(Cl)c2O[C@@H]1C(F)(F)F
REMARK SMILES IDX 6 1 5 2 4 3 3 4 1 5 2 6 59 8 60 9 70 10 61 11 69 12 62 13
REMARK SMILES IDX 68 14 63 15 64 16 66 17 65 18 67 19 71 20 72 21 73 22 74 23
REMARK SMILES IDX 7 24 8 25 9 26 10 28 11 29 12 30 58 31 13 32 57 33 14 34
REMARK SMILES IDX 15 35 16 36 51 37 17 38 56 39 50 40 52 41 18 42 55 43 49 44
REMARK SMILES IDX 48 45 19 47 41 48 26 49 40 50 27 51 30 52 39 53 53 54 28 55
REMARK SMILES IDX 29 56 38 58 54 59 31 60 20 61 21 62 25 63 22 64 24 65 23 66
REMARK SMILES IDX 42 67 43 68 47 69 44 70 46 71 45 72 32 73 33 74 37 75 34 76
REMARK SMILES IDX 36 77 35 78
REMARK H PARENT 3 7 8 27 52 46 30 57
REMARK Flexibility Score: inf
ROOT
ATOM      1  C   UNL     1       3.943   4.058   2.019  1.00  0.00     0.023 C 
ENDROOT
BRANCH   1   2
ATOM      2  C   UNL     1       4.300   3.433   0.677  1.00  0.00     0.023 C 
BRANCH   2   3
ATOM      3  C   UNL     1       3.999   1.949   0.517  1.00  0.00     0.116 C 
BRANCH   3   4
ATOM      4  N   UNL     1       2.683   1.626   0.001  1.00  0.00    -0.352 N 
ATOM      5  O   UNL     1       1.048   0.350  -0.858  1.00  0.00    -0.270 OA
ATOM      6  C   UNL     1       2.249   0.491  -0.629  1.00  0.00     0.251 C 
ATOM      7  H   UNL     1       2.001   2.326   0.121  1.00  0.00     0.163 HD
BRANCH   6   8
ATOM      8  C   UNL     1       3.168  -0.636  -0.974  1.00  0.00     0.067 C 
ATOM      9  C   UNL     1       4.412  -0.437  -1.442  1.00  0.00     0.027 C 
ATOM     10  C   UNL     1       2.891  -1.886  -0.175  1.00  0.00     0.314 C 
ATOM     11  C   UNL     1       5.453  -0.751  -0.417  1.00  0.00     0.037 A 
ATOM     12  O   UNL     1       3.841  -2.020   0.915  1.00  0.00    -0.474 OA
ATOM     13  C   UNL     1       6.727  -0.156  -0.495  1.00  0.00     0.052 A 
ATOM     14  C   UNL     1       5.077  -1.433   0.757  1.00  0.00     0.148 A 
ATOM     15  Cl  UNL     1       7.243   0.719  -1.896  1.00  0.00    -0.084 Cl
ATOM     16  C   UNL     1       7.575  -0.162   0.613  1.00  0.00     0.023 A 
ATOM     17  C   UNL     1       5.942  -1.439   1.860  1.00  0.00     0.083 A 
ATOM     18  C   UNL     1       7.175  -0.786   1.795  1.00  0.00     0.026 A 
ATOM     19  Cl  UNL     1       5.477  -2.158   3.359  1.00  0.00    -0.080 Cl
BRANCH  10  20
ATOM     20  C   UNL     1       2.852  -3.150  -1.050  1.00  0.00     0.429 C 
ATOM     21  F   UNL     1       2.482  -4.237  -0.332  1.00  0.00    -0.167 F 
ATOM     22  F   UNL     1       1.967  -3.028  -2.067  1.00  0.00    -0.167 F 
ATOM     23  F   UNL     1       4.058  -3.428  -1.602  1.00  0.00    -0.167 F 
ENDBRANCH  10  20
ENDBRANCH   6   8
ENDBRANCH   3   4
ENDBRANCH   2   3
ENDBRANCH   1   2
BRANCH   1  24
ATOM     24  C   UNL     1       4.508   3.382   3.268  1.00  0.00     0.116 C 
BRANCH  24  25
ATOM     25  N   UNL     1       5.948   3.165   3.255  1.00  0.00    -0.352 N 
ATOM     26  C   UNL     1       6.887   3.408   4.237  1.00  0.00     0.251 C 
ATOM     27  H   UNL     1       6.307   2.789   2.419  1.00  0.00     0.163 HD
ATOM     28  O   UNL     1       8.067   3.159   4.031  1.00  0.00    -0.269 OA
BRANCH  26  29
ATOM     29  C   UNL     1       6.474   4.028   5.519  1.00  0.00     0.039 A 
ATOM     30  C   UNL     1       7.191   5.131   5.990  1.00  0.00     0.014 A 
ATOM     31  C   UNL     1       5.359   3.569   6.223  1.00  0.00     0.014 A 
ATOM     32  C   UNL     1       6.721   5.841   7.098  1.00  0.00     0.010 A 
ATOM     33  C   UNL     1       4.844   4.326   7.274  1.00  0.00     0.010 A 
ATOM     34  C   UNL     1       5.509   5.481   7.712  1.00  0.00    -0.014 A 
BRANCH  34  35
ATOM     35  C   UNL     1       4.905   6.340   8.765  1.00  0.00     0.031 A 
ATOM     36  C   UNL     1       4.708   5.829  10.165  1.00  0.00     0.074 A 
ATOM     37  C   UNL     1       4.476   7.576   8.441  1.00  0.00     0.049 A 
ATOM     38  N   UNL     1       4.236   6.459  11.212  1.00  0.00    -0.248 NA
ATOM     39  C   UNL     1       5.060   4.424  10.417  1.00  0.00     0.031 C 
ATOM     40  C   UNL     1       4.535   8.173   7.103  1.00  0.00     0.029 A 
ATOM     41  N   UNL     1       3.911   8.560   9.215  1.00  0.00    -0.354 N 
ATOM     42  C   UNL     1       4.220   5.525  12.240  1.00  0.00     0.074 A 
ATOM     43  C   UNL     1       4.680   4.274  11.678  1.00  0.00     0.031 C 
ATOM     44  C   UNL     1       4.079   9.434   7.163  1.00  0.00     0.029 A 
ATOM     45  C   UNL     1       3.669   9.727   8.532  1.00  0.00     0.049 A 
ATOM     46  H   UNL     1       3.699   8.440  10.169  1.00  0.00     0.167 HD
ATOM     47  C   UNL     1       3.874   5.694  13.539  1.00  0.00     0.031 A 
ATOM     48  C   UNL     1       3.191  10.910   8.961  1.00  0.00     0.031 A 
ATOM     49  C   UNL     1       3.427   6.939  14.106  1.00  0.00     0.049 A 
ATOM     50  C   UNL     1       2.841  11.082  10.412  1.00  0.00     0.074 A 
ATOM     51  C   UNL     1       3.130   7.228  15.427  1.00  0.00     0.029 A 
ATOM     52  N   UNL     1       3.205   8.100  13.383  1.00  0.00    -0.354 N 
ATOM     53  N   UNL     1       2.930  10.217  11.392  1.00  0.00    -0.248 NA
ATOM     54  C   UNL     1       2.341  12.404  10.815  1.00  0.00     0.031 C 
ATOM     55  C   UNL     1       2.686   8.554  15.496  1.00  0.00     0.029 A 
ATOM     56  C   UNL     1       2.753   9.103  14.225  1.00  0.00     0.049 A 
ATOM     57  H   UNL     1       3.348   8.198  12.414  1.00  0.00     0.167 HD
ATOM     58  C   UNL     1       2.526  10.897  12.533  1.00  0.00     0.074 A 
ATOM     59  C   UNL     1       2.207  12.250  12.125  1.00  0.00     0.031 C 
ATOM     60  C   UNL     1       2.430  10.441  13.806  1.00  0.00     0.031 A 
BRANCH  47  61
ATOM     61  C   UNL     1       3.964   4.490  14.434  1.00  0.00    -0.014 A 
ATOM     62  C   UNL     1       5.207   3.951  14.806  1.00  0.00     0.009 A 
ATOM     63  C   UNL     1       2.792   3.896  14.927  1.00  0.00     0.009 A 
ATOM     64  C   UNL     1       5.272   2.814  15.615  1.00  0.00     0.001 A 
ATOM     65  C   UNL     1       2.861   2.777  15.759  1.00  0.00     0.001 A 
ATOM     66  C   UNL     1       4.100   2.230  16.093  1.00  0.00     0.000 A 
ENDBRANCH  47  61
BRANCH  48  67
ATOM     67  C   UNL     1       3.072  12.052   8.018  1.00  0.00    -0.014 A 
ATOM     68  C   UNL     1       3.971  13.127   8.100  1.00  0.00     0.009 A 
ATOM     69  C   UNL     1       2.065  12.079   7.043  1.00  0.00     0.009 A 
ATOM     70  C   UNL     1       3.848  14.220   7.239  1.00  0.00     0.001 A 
ATOM     71  C   UNL     1       1.960  13.162   6.166  1.00  0.00     0.001 A 
ATOM     72  C   UNL     1       2.846  14.234   6.271  1.00  0.00     0.000 A 
ENDBRANCH  48  67
BRANCH  60  73
ATOM     73  C   UNL     1       1.988  11.429  14.849  1.00  0.00    -0.014 A 
ATOM     74  C   UNL     1       0.660  11.879  14.911  1.00  0.00     0.009 A 
ATOM     75  C   UNL     1       2.914  11.909  15.788  1.00  0.00     0.009 A 
ATOM     76  C   UNL     1       0.279  12.825  15.865  1.00  0.00     0.001 A 
ATOM     77  C   UNL     1       2.524  12.833  16.758  1.00  0.00     0.001 A 
ATOM     78  C   UNL     1       1.211  13.299  16.788  1.00  0.00     0.000 A 
ENDBRANCH  60  73
ENDBRANCH  34  35
ENDBRANCH  26  29
ENDBRANCH  24  25
ENDBRANCH   1  24
TORSDOF 12
