REMARK SMILES C[C@H]1[C@@H](C(=O)NCCCCNC(=O)c2ccc(-c3c4nc(c(-c5ccccc5)c5ccc([nH]5)c(-c5ccccc5)c5nc(c(-c6ccccc6)c6ccc3[nH]6)C=C5)C=C4)cc2)CC[N@@H+]1Cc1cc(F)c(F)c(F)c1
REMARK SMILES IDX 8 1 7 2 6 3 4 4 5 5 3 7 1 8 2 9 64 10 62 11 63 12 65 14
REMARK SMILES IDX 66 15 67 16 74 17 68 18 72 19 69 20 70 21 73 22 71 23 9 24
REMARK SMILES IDX 10 25 11 26 12 27 13 29 14 30 15 31 61 32 16 33 60 34 17 35
REMARK SMILES IDX 18 36 19 37 54 38 20 39 59 40 53 41 55 42 21 43 58 44 52 45
REMARK SMILES IDX 51 46 22 48 44 49 29 50 43 51 30 52 33 53 42 54 56 55 31 56
REMARK SMILES IDX 32 57 41 59 57 60 34 61 23 62 24 63 28 64 25 65 27 66 26 67
REMARK SMILES IDX 45 68 46 69 50 70 47 71 49 72 48 73 35 74 36 75 40 76 37 77
REMARK SMILES IDX 39 78 38 79
REMARK H PARENT 6 6 64 13 11 28 55 47 33 58
REMARK Flexibility Score: inf
ROOT
ATOM      1  C   UNL     1       3.522   0.320  -1.743  1.00  0.00     0.023 C 
ENDROOT
BRANCH   1   2
ATOM      2  C   UNL     1       2.884   1.551  -1.093  1.00  0.00     0.116 C 
BRANCH   2   3
ATOM      3  N   UNL     1       1.639   1.824  -1.767  1.00  0.00    -0.356 N 
ATOM      4  C   UNL     1       0.416   1.274  -1.524  1.00  0.00     0.229 C 
ATOM      5  O   UNL     1      -0.351   1.216  -2.488  1.00  0.00    -0.275 OA
ATOM      6  H   UNL     1       1.677   2.490  -2.492  1.00  0.00     0.163 HD
BRANCH   4   7
ATOM      7  C   UNL     1      -0.021   0.936  -0.092  1.00  0.00     0.142 C 
ATOM      8  C   UNL     1       1.557  -1.202   0.217  1.00  0.00     0.076 C 
ATOM      9  C   UNL     1       0.351  -0.383   0.628  1.00  0.00     0.193 C 
ATOM     10  N   UNL     1      -0.813  -1.280   0.522  1.00  0.00    -0.328 N 
ATOM     11  C   UNL     1      -1.558   0.867  -0.070  1.00  0.00     0.081 C 
ATOM     12  C   UNL     1      -1.831  -0.611  -0.275  1.00  0.00     0.263 C 
ATOM     13  H   UNL     1      -0.538  -2.125   0.023  1.00  0.00     0.348 HD
BRANCH  10  14
ATOM     14  C   UNL     1      -1.248  -1.914   1.768  1.00  0.00     0.299 C 
BRANCH  14  15
ATOM     15  C   UNL     1      -1.779  -0.995   2.849  1.00  0.00     0.012 A 
ATOM     16  C   UNL     1      -0.960  -0.588   3.917  1.00  0.00     0.052 A 
ATOM     17  C   UNL     1      -3.097  -0.515   2.797  1.00  0.00     0.052 A 
ATOM     18  C   UNL     1      -1.446   0.300   4.877  1.00  0.00     0.162 A 
ATOM     19  C   UNL     1      -3.561   0.383   3.756  1.00  0.00     0.162 A 
ATOM     20  F   UNL     1      -0.643   0.680   5.879  1.00  0.00    -0.204 F 
ATOM     21  C   UNL     1      -2.740   0.794   4.794  1.00  0.00     0.194 A 
ATOM     22  F   UNL     1      -4.810   0.855   3.654  1.00  0.00    -0.204 F 
ATOM     23  F   UNL     1      -3.192   1.663   5.709  1.00  0.00    -0.200 F 
ENDBRANCH  14  15
ENDBRANCH  10  14
ENDBRANCH   4   7
ENDBRANCH   2   3
ENDBRANCH   1   2
BRANCH   1  24
ATOM     24  C   UNL     1       4.265   0.593  -3.042  1.00  0.00     0.023 C 
BRANCH  24  25
ATOM     25  C   UNL     1       5.530   1.407  -2.864  1.00  0.00     0.116 C 
BRANCH  25  26
ATOM     26  N   UNL     1       6.479   0.809  -1.932  1.00  0.00    -0.352 N 
ATOM     27  C   UNL     1       7.848   0.761  -2.031  1.00  0.00     0.251 C 
ATOM     28  H   UNL     1       6.090   0.388  -1.132  1.00  0.00     0.163 HD
ATOM     29  O   UNL     1       8.522   0.146  -1.212  1.00  0.00    -0.269 OA
BRANCH  27  30
ATOM     30  C   UNL     1       8.482   1.429  -3.180  1.00  0.00     0.039 A 
ATOM     31  C   UNL     1       9.340   0.695  -3.999  1.00  0.00     0.014 A 
ATOM     32  C   UNL     1       8.117   2.737  -3.507  1.00  0.00     0.014 A 
ATOM     33  C   UNL     1       9.771   1.252  -5.202  1.00  0.00     0.010 A 
ATOM     34  C   UNL     1       8.462   3.245  -4.749  1.00  0.00     0.010 A 
ATOM     35  C   UNL     1       9.297   2.511  -5.606  1.00  0.00    -0.014 A 
BRANCH  35  36
ATOM     36  C   UNL     1       9.673   3.098  -6.912  1.00  0.00     0.031 A 
ATOM     37  C   UNL     1      10.430   4.396  -6.949  1.00  0.00     0.074 A 
ATOM     38  C   UNL     1       9.263   2.515  -8.055  1.00  0.00     0.049 A 
ATOM     39  N   UNL     1      10.772   5.123  -7.980  1.00  0.00    -0.248 NA
ATOM     40  C   UNL     1      10.816   4.974  -5.650  1.00  0.00     0.031 C 
ATOM     41  C   UNL     1       8.469   1.287  -8.150  1.00  0.00     0.029 A 
ATOM     42  N   UNL     1       9.456   2.886  -9.361  1.00  0.00    -0.354 N 
ATOM     43  C   UNL     1      11.378   6.256  -7.453  1.00  0.00     0.074 A 
ATOM     44  C   UNL     1      11.308   6.148  -6.013  1.00  0.00     0.031 C 
ATOM     45  C   UNL     1       8.275   0.988  -9.445  1.00  0.00     0.029 A 
ATOM     46  C   UNL     1       8.898   2.018 -10.268  1.00  0.00     0.049 A 
ATOM     47  H   UNL     1       9.947   3.698  -9.623  1.00  0.00     0.167 HD
ATOM     48  C   UNL     1      11.966   7.284  -8.107  1.00  0.00     0.031 A 
ATOM     49  C   UNL     1       8.896   2.051 -11.614  1.00  0.00     0.031 A 
ATOM     50  C   UNL     1      12.075   7.368  -9.536  1.00  0.00     0.049 A 
ATOM     51  C   UNL     1       9.593   3.181 -12.319  1.00  0.00     0.074 A 
ATOM     52  C   UNL     1      12.717   8.327 -10.298  1.00  0.00     0.029 A 
ATOM     53  N   UNL     1      11.533   6.447 -10.419  1.00  0.00    -0.354 N 
ATOM     54  N   UNL     1      10.222   4.210 -11.806  1.00  0.00    -0.248 NA
ATOM     55  C   UNL     1       9.589   3.144 -13.788  1.00  0.00     0.031 C 
ATOM     56  C   UNL     1      12.539   8.001 -11.647  1.00  0.00     0.029 A 
ATOM     57  C   UNL     1      11.819   6.819 -11.720  1.00  0.00     0.049 A 
ATOM     58  H   UNL     1      11.022   5.646 -10.159  1.00  0.00     0.167 HD
ATOM     59  C   UNL     1      10.710   4.931 -12.887  1.00  0.00     0.074 A 
ATOM     60  C   UNL     1      10.316   4.213 -14.083  1.00  0.00     0.031 C 
ATOM     61  C   UNL     1      11.420   6.085 -12.892  1.00  0.00     0.031 A 
BRANCH  48  62
ATOM     62  C   UNL     1      12.540   8.390  -7.270  1.00  0.00    -0.014 A 
ATOM     63  C   UNL     1      13.693   8.189  -6.493  1.00  0.00     0.009 A 
ATOM     64  C   UNL     1      11.924   9.650  -7.260  1.00  0.00     0.009 A 
ATOM     65  C   UNL     1      14.191   9.215  -5.689  1.00  0.00     0.001 A 
ATOM     66  C   UNL     1      12.443  10.684  -6.477  1.00  0.00     0.001 A 
ATOM     67  C   UNL     1      13.568  10.462  -5.684  1.00  0.00     0.000 A 
ENDBRANCH  48  62
BRANCH  49  68
ATOM     68  C   UNL     1       8.245   0.962 -12.385  1.00  0.00    -0.014 A 
ATOM     69  C   UNL     1       9.025   0.011 -13.061  1.00  0.00     0.009 A 
ATOM     70  C   UNL     1       6.847   0.867 -12.454  1.00  0.00     0.009 A 
ATOM     71  C   UNL     1       8.419  -0.998 -13.812  1.00  0.00     0.001 A 
ATOM     72  C   UNL     1       6.243  -0.158 -13.187  1.00  0.00     0.001 A 
ATOM     73  C   UNL     1       7.029  -1.084 -13.872  1.00  0.00     0.000 A 
ENDBRANCH  49  68
BRANCH  61  74
ATOM     74  C   UNL     1      11.842   6.623 -14.228  1.00  0.00    -0.014 A 
ATOM     75  C   UNL     1      10.922   7.253 -15.079  1.00  0.00     0.009 A 
ATOM     76  C   UNL     1      13.188   6.538 -14.616  1.00  0.00     0.009 A 
ATOM     77  C   UNL     1      11.338   7.764 -16.308  1.00  0.00     0.001 A 
ATOM     78  C   UNL     1      13.605   7.072 -15.835  1.00  0.00     0.001 A 
ATOM     79  C   UNL     1      12.679   7.678 -16.683  1.00  0.00     0.000 A 
ENDBRANCH  61  74
ENDBRANCH  35  36
ENDBRANCH  27  30
ENDBRANCH  25  26
ENDBRANCH  24  25
ENDBRANCH   1  24
TORSDOF 13
