REMARK SMILES Cc1ccc(CCC(=O)N2CCC3(CC2)[C@H](C(=O)NCCCCNC(=O)c2ccc(-c4c5nc(c(-c6ccccc6)c6ccc([nH]6)c(-c6ccccc6)c6nc(c(-c7ccccc7)c7ccc4[nH]7)C=C6)C=C5)cc2)CC(=O)N3C)cc1
REMARK SMILES IDX 21 1 20 2 19 3 17 4 18 5 16 7 8 8 9 9 10 10 11 11 15 12
REMARK SMILES IDX 12 13 14 14 13 15 78 16 75 17 76 18 79 19 77 20 7 21 6 22
REMARK SMILES IDX 5 23 1 24 2 25 3 26 81 27 4 28 80 29 22 30 23 31 24 32 25 33
REMARK SMILES IDX 26 35 27 36 28 37 74 38 29 39 73 40 30 41 31 42 32 43 67 44
REMARK SMILES IDX 33 45 72 46 66 47 68 48 34 49 71 50 65 51 64 52 35 54 57 55
REMARK SMILES IDX 42 56 56 57 43 58 46 59 55 60 69 61 44 62 45 63 54 65 70 66
REMARK SMILES IDX 47 67 36 68 37 69 41 70 38 71 40 72 39 73 58 74 59 75 63 76
REMARK SMILES IDX 60 77 62 78 61 79 48 80 49 81 53 82 50 83 52 84 51 85
REMARK H PARENT 19 6 24 34 68 53 46 64
REMARK Flexibility Score: inf
ROOT
ATOM      1  C   UNL     1       1.185  -5.673  -3.968  1.00  0.00     0.023 C 
ENDROOT
BRANCH   1   2
ATOM      2  C   UNL     1       2.296  -4.733  -4.474  1.00  0.00     0.116 C 
BRANCH   2   3
ATOM      3  N   UNL     1       1.861  -3.469  -5.064  1.00  0.00    -0.356 N 
ATOM      4  C   UNL     1       1.629  -2.211  -4.615  1.00  0.00     0.226 C 
ATOM      5  O   UNL     1       1.378  -1.369  -5.488  1.00  0.00    -0.275 OA
ATOM      6  H   UNL     1       1.695  -3.551  -6.031  1.00  0.00     0.163 HD
BRANCH   4   7
ATOM      7  C   UNL     1       1.625  -1.757  -3.151  1.00  0.00     0.113 C 
ATOM      8  C   UNL     1      -3.360  -1.710  -1.312  1.00  0.00     0.222 C 
ATOM      9  O   UNL     1      -4.362  -2.279  -1.757  1.00  0.00    -0.275 OA
ATOM     10  N   UNL     1      -2.146  -2.367  -1.246  1.00  0.00    -0.343 N 
ATOM     11  C   UNL     1      -1.820  -3.404  -2.200  1.00  0.00     0.122 C 
ATOM     12  C   UNL     1      -1.067  -2.087  -0.336  1.00  0.00     0.122 C 
ATOM     13  C   UNL     1      -0.605  -2.934  -2.992  1.00  0.00     0.051 C 
ATOM     14  C   UNL     1       0.141  -1.509  -1.073  1.00  0.00     0.051 C 
ATOM     15  C   UNL     1       0.645  -2.473  -2.181  1.00  0.00     0.058 C 
ATOM     16  N   UNL     1       1.563  -3.455  -1.564  1.00  0.00    -0.339 N 
ATOM     17  C   UNL     1       3.006  -1.850  -2.529  1.00  0.00     0.116 C 
ATOM     18  C   UNL     1       2.904  -3.056  -1.648  1.00  0.00     0.223 C 
ATOM     19  C   UNL     1       1.214  -4.468  -0.586  1.00  0.00     0.147 C 
ATOM     20  O   UNL     1       3.852  -3.576  -1.079  1.00  0.00    -0.275 OA
BRANCH   8  21
ATOM     21  C   UNL     1      -3.407  -0.196  -1.071  1.00  0.00     0.105 C 
BRANCH  21  22
ATOM     22  C   UNL     1      -3.308   0.377   0.353  1.00  0.00     0.045 C 
BRANCH  22  23
ATOM     23  C   UNL     1      -1.925   0.886   0.724  1.00  0.00    -0.047 A 
ATOM     24  C   UNL     1       2.345   1.183   1.032  1.00  0.00     0.044 C 
ATOM     25  C   UNL     1       0.846   1.229   1.041  1.00  0.00    -0.051 A 
ATOM     26  C   UNL     1       0.109   0.529   2.001  1.00  0.00     0.004 A 
ATOM     27  C   UNL     1       0.164   1.899   0.019  1.00  0.00     0.004 A 
ATOM     28  C   UNL     1      -1.275   0.391   1.865  1.00  0.00     0.004 A 
ATOM     29  C   UNL     1      -1.214   1.735  -0.135  1.00  0.00     0.004 A 
ENDBRANCH  22  23
ENDBRANCH  21  22
ENDBRANCH   8  21
ENDBRANCH   4   7
ENDBRANCH   2   3
ENDBRANCH   1   2
BRANCH   1  30
ATOM     30  C   UNL     1      -0.019  -5.887  -4.895  1.00  0.00     0.023 C 
BRANCH  30  31
ATOM     31  C   UNL     1       0.266  -6.893  -5.983  1.00  0.00     0.116 C 
BRANCH  31  32
ATOM     32  N   UNL     1       0.053  -8.282  -5.590  1.00  0.00    -0.352 N 
ATOM     33  C   UNL     1       0.656  -9.420  -6.091  1.00  0.00     0.251 C 
ATOM     34  H   UNL     1      -0.606  -8.427  -4.874  1.00  0.00     0.163 HD
ATOM     35  O   UNL     1       0.338 -10.534  -5.683  1.00  0.00    -0.269 OA
BRANCH  33  36
ATOM     36  C   UNL     1       1.795  -9.261  -7.022  1.00  0.00     0.039 A 
ATOM     37  C   UNL     1       3.003  -9.866  -6.669  1.00  0.00     0.014 A 
ATOM     38  C   UNL     1       1.749  -8.290  -8.020  1.00  0.00     0.014 A 
ATOM     39  C   UNL     1       4.193  -9.299  -7.111  1.00  0.00     0.010 A 
ATOM     40  C   UNL     1       2.925  -7.651  -8.359  1.00  0.00     0.010 A 
ATOM     41  C   UNL     1       4.140  -8.114  -7.847  1.00  0.00    -0.014 A 
BRANCH  41  42
ATOM     42  C   UNL     1       5.313  -7.282  -8.082  1.00  0.00     0.031 A 
ATOM     43  C   UNL     1       5.985  -7.362  -9.396  1.00  0.00     0.074 A 
ATOM     44  C   UNL     1       5.805  -6.470  -7.117  1.00  0.00     0.049 A 
ATOM     45  N   UNL     1       7.258  -7.251  -9.572  1.00  0.00    -0.248 NA
ATOM     46  C   UNL     1       5.251  -7.638 -10.627  1.00  0.00     0.031 C 
ATOM     47  C   UNL     1       6.904  -5.515  -7.258  1.00  0.00     0.029 A 
ATOM     48  N   UNL     1       5.567  -6.496  -5.741  1.00  0.00    -0.354 N 
ATOM     49  C   UNL     1       7.471  -7.139 -10.928  1.00  0.00     0.074 A 
ATOM     50  C   UNL     1       6.210  -7.483 -11.542  1.00  0.00     0.031 C 
ATOM     51  C   UNL     1       7.451  -5.311  -6.048  1.00  0.00     0.029 A 
ATOM     52  C   UNL     1       6.801  -6.228  -5.125  1.00  0.00     0.049 A 
ATOM     53  H   UNL     1       4.707  -6.668  -5.292  1.00  0.00     0.167 HD
ATOM     54  C   UNL     1       8.641  -6.614 -11.391  1.00  0.00     0.031 A 
ATOM     55  C   UNL     1       7.446  -7.105  -4.300  1.00  0.00     0.031 A 
ATOM     56  C   UNL     1       9.555  -6.289 -10.299  1.00  0.00     0.049 A 
ATOM     57  C   UNL     1       8.836  -7.472  -4.790  1.00  0.00     0.074 A 
ATOM     58  C   UNL     1       9.849  -5.101  -9.650  1.00  0.00     0.029 A 
ATOM     59  N   UNL     1      10.078  -7.308  -9.514  1.00  0.00    -0.354 N 
ATOM     60  N   UNL     1       9.258  -7.247  -6.004  1.00  0.00    -0.248 NA
ATOM     61  C   UNL     1       9.831  -8.181  -3.984  1.00  0.00     0.031 C 
ATOM     62  C   UNL     1      10.483  -5.419  -8.422  1.00  0.00     0.029 A 
ATOM     63  C   UNL     1      10.604  -6.795  -8.344  1.00  0.00     0.049 A 
ATOM     64  H   UNL     1      10.074  -8.262  -9.757  1.00  0.00     0.167 HD
ATOM     65  C   UNL     1      10.520  -7.757  -6.158  1.00  0.00     0.074 A 
ATOM     66  C   UNL     1      10.842  -8.324  -4.862  1.00  0.00     0.031 C 
ATOM     67  C   UNL     1      11.185  -7.683  -7.348  1.00  0.00     0.031 A 
BRANCH  54  68
ATOM     68  C   UNL     1       8.813  -6.103 -12.803  1.00  0.00    -0.014 A 
ATOM     69  C   UNL     1       9.704  -5.043 -13.053  1.00  0.00     0.009 A 
ATOM     70  C   UNL     1       8.095  -6.575 -13.914  1.00  0.00     0.009 A 
ATOM     71  C   UNL     1       9.785  -4.418 -14.306  1.00  0.00     0.001 A 
ATOM     72  C   UNL     1       8.136  -5.928 -15.158  1.00  0.00     0.001 A 
ATOM     73  C   UNL     1       8.973  -4.839 -15.350  1.00  0.00     0.000 A 
ENDBRANCH  54  68
BRANCH  55  74
ATOM     74  C   UNL     1       6.543  -8.034  -3.568  1.00  0.00    -0.014 A 
ATOM     75  C   UNL     1       5.674  -7.494  -2.599  1.00  0.00     0.009 A 
ATOM     76  C   UNL     1       6.277  -9.317  -4.066  1.00  0.00     0.009 A 
ATOM     77  C   UNL     1       4.504  -8.166  -2.233  1.00  0.00     0.001 A 
ATOM     78  C   UNL     1       5.109  -9.991  -3.687  1.00  0.00     0.001 A 
ATOM     79  C   UNL     1       4.205  -9.399  -2.804  1.00  0.00     0.000 A 
ENDBRANCH  55  74
BRANCH  67  80
ATOM     80  C   UNL     1      12.476  -8.382  -7.691  1.00  0.00    -0.014 A 
ATOM     81  C   UNL     1      12.913  -9.570  -7.092  1.00  0.00     0.009 A 
ATOM     82  C   UNL     1      13.236  -7.905  -8.785  1.00  0.00     0.009 A 
ATOM     83  C   UNL     1      14.070 -10.226  -7.538  1.00  0.00     0.001 A 
ATOM     84  C   UNL     1      14.362  -8.579  -9.261  1.00  0.00     0.001 A 
ATOM     85  C   UNL     1      14.786  -9.737  -8.628  1.00  0.00     0.000 A 
ENDBRANCH  67  80
ENDBRANCH  41  42
ENDBRANCH  33  36
ENDBRANCH  31  32
ENDBRANCH  30  31
ENDBRANCH   1  30
TORSDOF 14
