REMARK SMILES CS(=O)(=O)Nc1ccc(-c2cc(Cl)cc3c2O[C@H](C(F)(F)F)C(C(=O)NCCCCNC(=O)c2ccc(-c4c5nc(c(-c6ccccc6)c6ccc([nH]6)c(-c6ccccc6)c6nc(c(-c7ccccc7)c7ccc4[nH]7)C=C6)C=C5)cc2)=C3)cc1
REMARK SMILES IDX 28 1 27 2 26 3 24 4 25 5 23 7 10 8 11 9 16 10 12 11 15 12
REMARK SMILES IDX 17 13 13 14 14 15 82 16 18 17 9 18 6 19 7 20 84 21 8 22
REMARK SMILES IDX 83 23 5 24 2 26 1 27 3 28 4 29 19 30 20 31 21 32 22 33 29 34
REMARK SMILES IDX 30 35 31 36 32 37 33 39 34 40 35 41 81 42 36 43 80 44 37 45
REMARK SMILES IDX 38 46 39 47 74 48 40 49 79 50 73 51 75 52 41 53 78 54 72 55
REMARK SMILES IDX 71 56 42 58 64 59 49 60 63 61 50 62 53 63 62 64 76 65 51 66
REMARK SMILES IDX 52 67 61 69 77 70 54 71 43 72 44 73 48 74 45 75 47 76 46 77
REMARK SMILES IDX 65 78 66 79 70 80 67 81 69 82 68 83 55 84 56 85 60 86 57 87
REMARK SMILES IDX 59 88 58 89
REMARK H PARENT 26 6 5 25 31 38 75 57 53 68
REMARK Flexibility Score: inf
ROOT
ATOM      1  C   UNL     1      10.726 -10.806   2.450  1.00  0.00     0.023 C 
ENDROOT
BRANCH   1   2
ATOM      2  C   UNL     1      10.302  -9.709   1.463  1.00  0.00     0.116 C 
BRANCH   2   3
ATOM      3  N   UNL     1       8.869  -9.758   1.270  1.00  0.00    -0.352 N 
ATOM      4  C   UNL     1       7.958  -8.760   1.275  1.00  0.00     0.251 C 
ATOM      5  O   UNL     1       6.811  -9.032   1.616  1.00  0.00    -0.270 OA
ATOM      6  H   UNL     1       8.501 -10.657   1.109  1.00  0.00     0.163 HD
BRANCH   4   7
ATOM      7  C   UNL     1       8.354  -7.414   0.759  1.00  0.00     0.067 C 
ATOM      8  C   UNL     1       4.942  -5.362   1.620  1.00  0.00     0.026 A 
ATOM      9  C   UNL     1       3.861  -6.189   1.208  1.00  0.00     0.033 A 
ATOM     10  C   UNL     1       6.215  -5.736   1.158  1.00  0.00     0.135 A 
ATOM     11  C   UNL     1       4.003  -7.201   0.263  1.00  0.00     0.042 A 
ATOM     12  C   UNL     1       6.319  -6.682   0.107  1.00  0.00     0.019 A 
ATOM     13  O   UNL     1       7.395  -5.274   1.724  1.00  0.00    -0.475 OA
ATOM     14  Cl  UNL     1       2.652  -8.181  -0.147  1.00  0.00    -0.084 Cl
ATOM     15  C   UNL     1       5.219  -7.400  -0.355  1.00  0.00     0.032 A 
ATOM     16  C   UNL     1       7.675  -7.062  -0.350  1.00  0.00     0.025 C 
ATOM     17  C   UNL     1       8.459  -6.322   1.822  1.00  0.00     0.314 C 
BRANCH   8  18
ATOM     18  C   UNL     1       4.525  -4.098   2.289  1.00  0.00    -0.014 A 
ATOM     19  C   UNL     1       2.665  -1.968   2.616  1.00  0.00     0.048 A 
ATOM     20  C   UNL     1       2.615  -3.095   3.441  1.00  0.00     0.027 A 
ATOM     21  C   UNL     1       3.756  -1.826   1.762  1.00  0.00     0.027 A 
ATOM     22  C   UNL     1       3.551  -4.131   3.306  1.00  0.00     0.011 A 
ATOM     23  C   UNL     1       4.684  -2.878   1.606  1.00  0.00     0.011 A 
BRANCH  19  24
ATOM     24  N   UNL     1       1.484  -1.171   2.564  1.00  0.00    -0.284 N 
ATOM     25  H   UNL     1       0.723  -1.488   3.102  1.00  0.00     0.180 HD
BRANCH  24  26
ATOM     26  S   UNL     1       1.240   0.230   1.705  1.00  0.00     0.229 S 
ATOM     27  C   UNL     1       1.151  -0.313   0.006  1.00  0.00     0.183 C 
ATOM     28  O   UNL     1       2.381   1.105   1.864  1.00  0.00    -0.207 OA
ATOM     29  O   UNL     1      -0.090   0.665   2.077  1.00  0.00    -0.207 OA
ENDBRANCH  24  26
ENDBRANCH  19  24
ENDBRANCH   8  18
BRANCH  17  30
ATOM     30  C   UNL     1       9.873  -5.703   1.744  1.00  0.00     0.429 C 
ATOM     31  F   UNL     1       9.867  -4.443   1.255  1.00  0.00    -0.167 F 
ATOM     32  F   UNL     1      10.462  -5.671   2.964  1.00  0.00    -0.167 F 
ATOM     33  F   UNL     1      10.708  -6.421   0.944  1.00  0.00    -0.167 F 
ENDBRANCH  17  30
ENDBRANCH   4   7
ENDBRANCH   2   3
ENDBRANCH   1   2
BRANCH   1  34
ATOM     34  C   UNL     1      10.382 -12.241   2.024  1.00  0.00     0.023 C 
BRANCH  34  35
ATOM     35  C   UNL     1      10.934 -12.654   0.667  1.00  0.00     0.116 C 
BRANCH  35  36
ATOM     36  N   UNL     1      12.386 -12.735   0.672  1.00  0.00    -0.352 N 
ATOM     37  C   UNL     1      13.189 -13.800   0.344  1.00  0.00     0.251 C 
ATOM     38  H   UNL     1      12.857 -11.915   0.948  1.00  0.00     0.163 HD
ATOM     39  O   UNL     1      14.391 -13.770   0.585  1.00  0.00    -0.269 OA
BRANCH  37  40
ATOM     40  C   UNL     1      12.589 -14.997  -0.283  1.00  0.00     0.039 A 
ATOM     41  C   UNL     1      12.908 -16.262   0.217  1.00  0.00     0.014 A 
ATOM     42  C   UNL     1      11.699 -14.863  -1.352  1.00  0.00     0.014 A 
ATOM     43  C   UNL     1      12.283 -17.393  -0.316  1.00  0.00     0.010 A 
ATOM     44  C   UNL     1      11.023 -15.981  -1.828  1.00  0.00     0.010 A 
ATOM     45  C   UNL     1      11.311 -17.258  -1.320  1.00  0.00    -0.014 A 
BRANCH  45  46
ATOM     46  C   UNL     1      10.593 -18.432  -1.879  1.00  0.00     0.031 A 
ATOM     47  C   UNL     1      10.745 -18.771  -3.337  1.00  0.00     0.074 A 
ATOM     48  C   UNL     1       9.741 -19.136  -1.108  1.00  0.00     0.049 A 
ATOM     49  N   UNL     1      10.105 -19.661  -4.051  1.00  0.00    -0.248 NA
ATOM     50  C   UNL     1      11.728 -17.982  -4.100  1.00  0.00     0.031 C 
ATOM     51  C   UNL     1       9.484 -18.899   0.313  1.00  0.00     0.029 A 
ATOM     52  N   UNL     1       8.918 -20.190  -1.422  1.00  0.00    -0.354 N 
ATOM     53  C   UNL     1      10.585 -19.519  -5.347  1.00  0.00     0.074 A 
ATOM     54  C   UNL     1      11.534 -18.429  -5.332  1.00  0.00     0.031 C 
ATOM     55  C   UNL     1       8.578 -19.789   0.751  1.00  0.00     0.029 A 
ATOM     56  C   UNL     1       8.155 -20.628  -0.366  1.00  0.00     0.049 A 
ATOM     57  H   UNL     1       8.878 -20.594  -2.319  1.00  0.00     0.167 HD
ATOM     58  C   UNL     1      10.276 -20.242  -6.450  1.00  0.00     0.031 A 
ATOM     59  C   UNL     1       7.208 -21.584  -0.308  1.00  0.00     0.031 A 
ATOM     60  C   UNL     1       9.347 -21.339  -6.461  1.00  0.00     0.049 A 
ATOM     61  C   UNL     1       6.867 -22.359  -1.553  1.00  0.00     0.074 A 
ATOM     62  C   UNL     1       9.006 -22.167  -7.516  1.00  0.00     0.029 A 
ATOM     63  N   UNL     1       8.613 -21.762  -5.365  1.00  0.00    -0.354 N 
ATOM     64  N   UNL     1       7.369 -22.248  -2.759  1.00  0.00    -0.248 NA
ATOM     65  C   UNL     1       5.835 -23.399  -1.425  1.00  0.00     0.031 C 
ATOM     66  C   UNL     1       8.026 -23.058  -7.071  1.00  0.00     0.029 A 
ATOM     67  C   UNL     1       7.806 -22.827  -5.723  1.00  0.00     0.049 A 
ATOM     68  H   UNL     1       8.659 -21.364  -4.465  1.00  0.00     0.167 HD
ATOM     69  C   UNL     1       6.746 -23.230  -3.520  1.00  0.00     0.074 A 
ATOM     70  C   UNL     1       5.834 -23.929  -2.640  1.00  0.00     0.031 C 
ATOM     71  C   UNL     1       6.920 -23.528  -4.830  1.00  0.00     0.031 A 
BRANCH  58  72
ATOM     72  C   UNL     1      10.946 -19.862  -7.741  1.00  0.00    -0.014 A 
ATOM     73  C   UNL     1      12.318 -20.082  -7.943  1.00  0.00     0.009 A 
ATOM     74  C   UNL     1      10.186 -19.316  -8.787  1.00  0.00     0.009 A 
ATOM     75  C   UNL     1      12.921 -19.727  -9.152  1.00  0.00     0.001 A 
ATOM     76  C   UNL     1      10.784 -18.992 -10.005  1.00  0.00     0.001 A 
ATOM     77  C   UNL     1      12.153 -19.188 -10.183  1.00  0.00     0.000 A 
ENDBRANCH  58  72
BRANCH  59  78
ATOM     78  C   UNL     1       6.510 -21.872   0.974  1.00  0.00    -0.014 A 
ATOM     79  C   UNL     1       6.727 -23.086   1.645  1.00  0.00     0.009 A 
ATOM     80  C   UNL     1       5.606 -20.949   1.522  1.00  0.00     0.009 A 
ATOM     81  C   UNL     1       6.029 -23.383   2.818  1.00  0.00     0.001 A 
ATOM     82  C   UNL     1       4.933 -21.234   2.712  1.00  0.00     0.001 A 
ATOM     83  C   UNL     1       5.136 -22.455   3.352  1.00  0.00     0.000 A 
ENDBRANCH  59  78
BRANCH  71  84
ATOM     84  C   UNL     1       6.163 -24.701  -5.385  1.00  0.00    -0.014 A 
ATOM     85  C   UNL     1       4.782 -24.639  -5.625  1.00  0.00     0.009 A 
ATOM     86  C   UNL     1       6.865 -25.865  -5.740  1.00  0.00     0.009 A 
ATOM     87  C   UNL     1       4.117 -25.730  -6.189  1.00  0.00     0.001 A 
ATOM     88  C   UNL     1       6.203 -26.941  -6.331  1.00  0.00     0.001 A 
ATOM     89  C   UNL     1       4.828 -26.875  -6.549  1.00  0.00     0.000 A 
ENDBRANCH  71  84
ENDBRANCH  45  46
ENDBRANCH  37  40
ENDBRANCH  35  36
ENDBRANCH  34  35
ENDBRANCH   1  34
TORSDOF 15
