REMARK SMILES O=C(NCCCCNC(=O)c1ccc(-n2cc(CSc3nc4ccccc4c(=O)n3-c3ccc(Cl)cc3)nn2)cc1)c1ccc(-c2c3nc(c(-c4ccccc4)c4ccc([nH]4)c(-c4ccccc4)c4nc(c(-c5ccccc5)c5ccc2[nH]5)C=C4)C=C3)cc1
REMARK SMILES IDX 7 1 6 2 5 3 4 4 3 5 1 6 2 7 42 9 43 10 89 11 44 12 88 13
REMARK SMILES IDX 45 14 46 15 47 16 82 17 48 18 87 19 81 20 83 21 49 22 86 23
REMARK SMILES IDX 80 24 79 25 50 27 72 28 57 29 71 30 58 31 61 32 70 33 84 34
REMARK SMILES IDX 59 35 60 36 69 38 85 39 62 40 51 41 52 42 56 43 53 44 55 45
REMARK SMILES IDX 54 46 73 47 74 48 78 49 75 50 77 51 76 52 63 53 64 54 68 55
REMARK SMILES IDX 65 56 67 57 66 58 8 59 9 60 10 62 11 63 12 64 41 65 13 66
REMARK SMILES IDX 40 67 14 68 15 69 16 70 39 71 17 72 38 73 18 74 19 75 20 76
REMARK SMILES IDX 21 77 30 78 22 79 28 80 23 81 27 82 29 83 24 84 26 85 25 86
REMARK SMILES IDX 31 87 32 88 37 89 33 90 36 91 34 92 35 93
REMARK H PARENT 3 8 83 26 61 37 8 61
REMARK Flexibility Score: inf
ROOT
ATOM      1  C   UNL     1       4.762   3.186   2.637  1.00  0.00     0.116 C 
ENDROOT
BRANCH   1   2
ATOM      2  C   UNL     1       4.383   3.302   1.161  1.00  0.00     0.023 C 
BRANCH   2   3
ATOM      3  C   UNL     1       4.894   2.184   0.243  1.00  0.00     0.023 C 
BRANCH   3   4
ATOM      4  C   UNL     1       4.602   0.762   0.716  1.00  0.00     0.116 C 
BRANCH   4   5
ATOM      5  N   UNL     1       3.194   0.462   0.881  1.00  0.00    -0.352 N 
ATOM      6  O   UNL     1       1.116  -0.220   0.588  1.00  0.00    -0.269 OA
ATOM      7  C   UNL     1       2.185   0.072   0.045  1.00  0.00     0.251 C 
ATOM      8  H   UNL     1       2.894   0.563   1.813  1.00  0.00     0.163 HD
BRANCH   7   9
ATOM      9  C   UNL     1       2.260   0.025  -1.442  1.00  0.00     0.039 A 
ATOM     10  C   UNL     1       3.426   0.061  -2.206  1.00  0.00     0.014 A 
ATOM     11  C   UNL     1       1.024  -0.066  -2.113  1.00  0.00     0.014 A 
ATOM     12  C   UNL     1       3.358   0.069  -3.600  1.00  0.00     0.010 A 
ATOM     13  C   UNL     1       0.951  -0.071  -3.503  1.00  0.00     0.010 A 
ATOM     14  C   UNL     1       2.121   0.022  -4.250  1.00  0.00    -0.014 A 
BRANCH  14  15
ATOM     15  C   UNL     1       2.107  -0.070  -5.709  1.00  0.00     0.031 A 
ATOM     16  C   UNL     1       2.700  -1.315  -6.285  1.00  0.00     0.074 A 
ATOM     17  C   UNL     1       1.469   0.801  -6.517  1.00  0.00     0.049 A 
ATOM     18  N   UNL     1       3.660  -1.425  -7.146  1.00  0.00    -0.248 NA
ATOM     19  C   UNL     1       2.183  -2.603  -5.795  1.00  0.00     0.031 C 
ATOM     20  C   UNL     1       0.571   1.895  -6.139  1.00  0.00     0.029 A 
ATOM     21  N   UNL     1       1.411   0.809  -7.881  1.00  0.00    -0.354 N 
ATOM     22  C   UNL     1       3.788  -2.788  -7.414  1.00  0.00     0.074 A 
ATOM     23  C   UNL     1       2.916  -3.471  -6.492  1.00  0.00     0.031 C 
ATOM     24  C   UNL     1      -0.107   2.311  -7.234  1.00  0.00     0.029 A 
ATOM     25  C   UNL     1       0.407   1.613  -8.401  1.00  0.00     0.049 A 
ATOM     26  H   UNL     1       2.028   0.290  -8.446  1.00  0.00     0.167 HD
ATOM     27  C   UNL     1       4.482  -3.269  -8.483  1.00  0.00     0.031 A 
ATOM     28  C   UNL     1      -0.010   1.662  -9.689  1.00  0.00     0.031 A 
ATOM     29  C   UNL     1       5.381  -2.297  -9.037  1.00  0.00     0.049 A 
ATOM     30  C   UNL     1       1.051   1.082 -10.540  1.00  0.00     0.074 A 
ATOM     31  C   UNL     1       6.487  -1.615  -8.570  1.00  0.00     0.029 A 
ATOM     32  N   UNL     1       4.994  -1.639 -10.177  1.00  0.00    -0.354 N 
ATOM     33  N   UNL     1       2.203   1.648 -10.745  1.00  0.00    -0.248 NA
ATOM     34  C   UNL     1       0.982  -0.332 -10.867  1.00  0.00     0.031 C 
ATOM     35  C   UNL     1       6.393  -0.320  -9.158  1.00  0.00     0.029 A 
ATOM     36  C   UNL     1       5.264  -0.310  -9.979  1.00  0.00     0.049 A 
ATOM     37  H   UNL     1       4.598  -2.044 -10.983  1.00  0.00     0.167 HD
ATOM     38  C   UNL     1       3.106   0.599 -10.807  1.00  0.00     0.074 A 
ATOM     39  C   UNL     1       2.285  -0.594 -10.998  1.00  0.00     0.031 C 
ATOM     40  C   UNL     1       4.406   0.765 -10.423  1.00  0.00     0.031 A 
BRANCH  27  41
ATOM     41  C   UNL     1       4.111  -4.528  -9.222  1.00  0.00    -0.014 A 
ATOM     42  C   UNL     1       4.966  -5.018 -10.226  1.00  0.00     0.009 A 
ATOM     43  C   UNL     1       2.825  -5.098  -9.151  1.00  0.00     0.009 A 
ATOM     44  C   UNL     1       4.537  -5.992 -11.138  1.00  0.00     0.001 A 
ATOM     45  C   UNL     1       2.408  -6.098 -10.034  1.00  0.00     0.001 A 
ATOM     46  C   UNL     1       3.256  -6.528 -11.043  1.00  0.00     0.000 A 
ENDBRANCH  27  41
BRANCH  28  47
ATOM     47  C   UNL     1      -1.361   1.942 -10.218  1.00  0.00    -0.014 A 
ATOM     48  C   UNL     1      -1.548   2.318 -11.557  1.00  0.00     0.009 A 
ATOM     49  C   UNL     1      -2.495   1.570  -9.475  1.00  0.00     0.009 A 
ATOM     50  C   UNL     1      -2.822   2.285 -12.141  1.00  0.00     0.001 A 
ATOM     51  C   UNL     1      -3.766   1.540 -10.056  1.00  0.00     0.001 A 
ATOM     52  C   UNL     1      -3.927   1.883 -11.395  1.00  0.00     0.000 A 
ENDBRANCH  28  47
BRANCH  40  53
ATOM     53  C   UNL     1       4.887   2.171 -10.155  1.00  0.00    -0.014 A 
ATOM     54  C   UNL     1       4.305   3.003  -9.181  1.00  0.00     0.009 A 
ATOM     55  C   UNL     1       6.049   2.620 -10.800  1.00  0.00     0.009 A 
ATOM     56  C   UNL     1       4.846   4.260  -8.892  1.00  0.00     0.001 A 
ATOM     57  C   UNL     1       6.604   3.865 -10.494  1.00  0.00     0.001 A 
ATOM     58  C   UNL     1       5.999   4.688  -9.546  1.00  0.00     0.000 A 
ENDBRANCH  40  53
ENDBRANCH  14  15
ENDBRANCH   7   9
ENDBRANCH   4   5
ENDBRANCH   3   4
ENDBRANCH   2   3
ENDBRANCH   1   2
BRANCH   1  59
ATOM     59  N   UNL     1       6.197   3.163   2.850  1.00  0.00    -0.352 N 
ATOM     60  C   UNL     1       7.003   4.033   3.544  1.00  0.00     0.251 C 
ATOM     61  H   UNL     1       6.667   2.405   2.433  1.00  0.00     0.163 HD
ATOM     62  O   UNL     1       8.215   3.893   3.520  1.00  0.00    -0.269 OA
BRANCH  60  63
ATOM     63  C   UNL     1       6.413   5.155   4.306  1.00  0.00     0.039 A 
ATOM     64  C   UNL     1       6.901   6.444   4.065  1.00  0.00     0.016 A 
ATOM     65  C   UNL     1       5.453   4.939   5.298  1.00  0.00     0.016 A 
ATOM     66  C   UNL     1       6.397   7.529   4.786  1.00  0.00     0.029 A 
ATOM     67  C   UNL     1       4.962   6.020   6.037  1.00  0.00     0.029 A 
ATOM     68  C   UNL     1       5.442   7.318   5.789  1.00  0.00     0.066 A 
BRANCH  68  69
ATOM     69  N   UNL     1       5.032   8.412   6.590  1.00  0.00    -0.220 N 
ATOM     70  C   UNL     1       4.405   8.372   7.809  1.00  0.00     0.141 A 
ATOM     71  N   UNL     1       5.255   9.704   6.251  1.00  0.00    -0.062 NA
ATOM     72  C   UNL     1       4.371   9.677   8.248  1.00  0.00     0.093 A 
ATOM     73  N   UNL     1       4.842  10.480   7.247  1.00  0.00    -0.134 NA
BRANCH  72  74
ATOM     74  C   UNL     1       3.755  10.228   9.474  1.00  0.00     0.138 C 
BRANCH  74  75
ATOM     75  S   UNL     1       4.730  10.656  10.920  1.00  0.00    -0.081 SA
BRANCH  75  76
ATOM     76  C   UNL     1       6.307   9.907  10.905  1.00  0.00     0.176 A 
ATOM     77  N   UNL     1       7.227  10.717  11.344  1.00  0.00    -0.223 NA
ATOM     78  N   UNL     1       6.601   8.606  10.513  1.00  0.00    -0.255 N 
ATOM     79  C   UNL     1       8.560  10.297  11.326  1.00  0.00     0.079 A 
ATOM     80  C   UNL     1       7.861   8.461   9.912  1.00  0.00     0.266 A 
ATOM     81  C   UNL     1       9.537  10.970  12.062  1.00  0.00     0.029 A 
ATOM     82  C   UNL     1       8.949   9.257  10.498  1.00  0.00     0.066 A 
ATOM     83  O   UNL     1       8.125   7.747   8.946  1.00  0.00    -0.268 OA
ATOM     84  C   UNL     1      10.888  10.633  11.916  1.00  0.00     0.002 A 
ATOM     85  C   UNL     1      10.297   8.940  10.301  1.00  0.00     0.016 A 
ATOM     86  C   UNL     1      11.271   9.641  11.011  1.00  0.00     0.001 A 
BRANCH  78  87
ATOM     87  C   UNL     1       5.752   7.431  10.623  1.00  0.00     0.051 A 
ATOM     88  C   UNL     1       6.252   6.157  10.278  1.00  0.00     0.028 A 
ATOM     89  C   UNL     1       4.433   7.445  11.094  1.00  0.00     0.028 A 
ATOM     90  C   UNL     1       5.431   5.027  10.174  1.00  0.00     0.022 A 
ATOM     91  C   UNL     1       3.583   6.337  10.941  1.00  0.00     0.022 A 
ATOM     92  C   UNL     1       4.079   5.142  10.440  1.00  0.00     0.041 A 
ATOM     93  Cl  UNL     1       3.026   3.821  10.142  1.00  0.00    -0.084 Cl
ENDBRANCH  78  87
ENDBRANCH  75  76
ENDBRANCH  74  75
ENDBRANCH  72  74
ENDBRANCH  68  69
ENDBRANCH  60  63
ENDBRANCH   1  59
TORSDOF 16
