REMARK SMILES O=C(NCCCCNC(=O)c1ccc(S(=O)(=O)Cc2ncccn2)c(F)c1)c1ccc(-c2c3nc(c(-c4ccccc4)c4ccc([nH]4)c(-c4ccccc4)c4nc(c(-c5ccccc5)c5ccc2[nH]5)C=C4)C=C3)cc1
REMARK SMILES IDX 6 1 5 2 4 3 3 4 1 5 2 6 28 8 29 9 75 10 30 11 74 12 31 13
REMARK SMILES IDX 32 14 33 15 68 16 34 17 73 18 67 19 69 20 35 21 72 22 66 23
REMARK SMILES IDX 65 24 36 26 58 27 43 28 57 29 44 30 47 31 56 32 70 33 45 34
REMARK SMILES IDX 46 35 55 37 71 38 48 39 37 40 38 41 42 42 39 43 41 44 40 45
REMARK SMILES IDX 59 46 60 47 64 48 61 49 63 50 62 51 49 52 50 53 54 54 51 55
REMARK SMILES IDX 53 56 52 57 7 58 8 59 9 60 10 62 11 63 12 64 27 65 13 66
REMARK SMILES IDX 25 67 14 68 26 69 15 70 16 71 17 72 18 73 19 74 20 75 24 76
REMARK SMILES IDX 21 77 23 78 22 79
REMARK H PARENT 3 7 69 25 47 36 8 61
REMARK Flexibility Score: inf
ROOT
ATOM      1  C   UNL     1       4.330   3.682  -1.063  1.00  0.00     0.023 C 
ENDROOT
BRANCH   1   2
ATOM      2  C   UNL     1       4.826   2.270  -1.376  1.00  0.00     0.023 C 
BRANCH   2   3
ATOM      3  C   UNL     1       4.514   1.218  -0.318  1.00  0.00     0.116 C 
BRANCH   3   4
ATOM      4  N   UNL     1       3.089   1.057  -0.076  1.00  0.00    -0.352 N 
ATOM      5  O   UNL     1       1.125  -0.042   0.083  1.00  0.00    -0.269 OA
ATOM      6  C   UNL     1       2.347  -0.098  -0.015  1.00  0.00     0.251 C 
ATOM      7  H   UNL     1       2.586   1.891   0.064  1.00  0.00     0.163 HD
BRANCH   6   8
ATOM      8  C   UNL     1       3.021  -1.410  -0.102  1.00  0.00     0.039 A 
ATOM      9  C   UNL     1       4.165  -1.678   0.654  1.00  0.00     0.014 A 
ATOM     10  C   UNL     1       2.497  -2.386  -0.955  1.00  0.00     0.014 A 
ATOM     11  C   UNL     1       4.859  -2.867   0.456  1.00  0.00     0.010 A 
ATOM     12  C   UNL     1       3.154  -3.610  -1.096  1.00  0.00     0.010 A 
ATOM     13  C   UNL     1       4.357  -3.848  -0.415  1.00  0.00    -0.014 A 
BRANCH  13  14
ATOM     14  C   UNL     1       5.078  -5.138  -0.549  1.00  0.00     0.031 A 
ATOM     15  C   UNL     1       5.739  -5.532  -1.840  1.00  0.00     0.074 A 
ATOM     16  C   UNL     1       5.155  -5.948   0.525  1.00  0.00     0.049 A 
ATOM     17  N   UNL     1       6.432  -6.610  -2.111  1.00  0.00    -0.248 NA
ATOM     18  C   UNL     1       5.605  -4.604  -2.973  1.00  0.00     0.031 C 
ATOM     19  C   UNL     1       4.547  -5.678   1.830  1.00  0.00     0.029 A 
ATOM     20  N   UNL     1       5.792  -7.149   0.696  1.00  0.00    -0.354 N 
ATOM     21  C   UNL     1       6.799  -6.501  -3.446  1.00  0.00     0.074 A 
ATOM     22  C   UNL     1       6.238  -5.260  -3.937  1.00  0.00     0.031 C 
ATOM     23  C   UNL     1       4.880  -6.660   2.681  1.00  0.00     0.029 A 
ATOM     24  C   UNL     1       5.676  -7.652   1.968  1.00  0.00     0.049 A 
ATOM     25  H   UNL     1       6.285  -7.607  -0.023  1.00  0.00     0.167 HD
ATOM     26  C   UNL     1       7.538  -7.356  -4.192  1.00  0.00     0.031 A 
ATOM     27  C   UNL     1       6.147  -8.793   2.504  1.00  0.00     0.031 A 
ATOM     28  C   UNL     1       8.103  -8.586  -3.703  1.00  0.00     0.049 A 
ATOM     29  C   UNL     1       6.947  -9.728   1.648  1.00  0.00     0.074 A 
ATOM     30  C   UNL     1       8.894  -9.501  -4.378  1.00  0.00     0.029 A 
ATOM     31  N   UNL     1       7.935  -9.075  -2.417  1.00  0.00    -0.354 N 
ATOM     32  N   UNL     1       7.310  -9.592   0.396  1.00  0.00    -0.248 NA
ATOM     33  C   UNL     1       7.402 -10.973   2.280  1.00  0.00     0.031 C 
ATOM     34  C   UNL     1       9.171 -10.564  -3.511  1.00  0.00     0.029 A 
ATOM     35  C   UNL     1       8.589 -10.289  -2.285  1.00  0.00     0.049 A 
ATOM     36  H   UNL     1       7.426  -8.627  -1.704  1.00  0.00     0.167 HD
ATOM     37  C   UNL     1       8.044 -10.729   0.092  1.00  0.00     0.074 A 
ATOM     38  C   UNL     1       8.094 -11.532   1.297  1.00  0.00     0.031 C 
ATOM     39  C   UNL     1       8.622 -11.078  -1.082  1.00  0.00     0.031 A 
BRANCH  26  40
ATOM     40  C   UNL     1       7.767  -7.003  -5.635  1.00  0.00    -0.014 A 
ATOM     41  C   UNL     1       8.680  -6.005  -6.004  1.00  0.00     0.009 A 
ATOM     42  C   UNL     1       7.104  -7.725  -6.641  1.00  0.00     0.009 A 
ATOM     43  C   UNL     1       8.910  -5.721  -7.353  1.00  0.00     0.001 A 
ATOM     44  C   UNL     1       7.351  -7.454  -7.988  1.00  0.00     0.001 A 
ATOM     45  C   UNL     1       8.249  -6.449  -8.343  1.00  0.00     0.000 A 
ENDBRANCH  26  40
BRANCH  27  46
ATOM     46  C   UNL     1       5.859  -9.113   3.924  1.00  0.00    -0.014 A 
ATOM     47  C   UNL     1       6.875  -9.055   4.889  1.00  0.00     0.009 A 
ATOM     48  C   UNL     1       4.559  -9.463   4.323  1.00  0.00     0.009 A 
ATOM     49  C   UNL     1       6.598  -9.359   6.223  1.00  0.00     0.001 A 
ATOM     50  C   UNL     1       4.280  -9.740   5.661  1.00  0.00     0.001 A 
ATOM     51  C   UNL     1       5.301  -9.696   6.609  1.00  0.00     0.000 A 
ENDBRANCH  27  46
BRANCH  39  52
ATOM     52  C   UNL     1       9.373 -12.377  -1.108  1.00  0.00    -0.014 A 
ATOM     53  C   UNL     1       8.692 -13.604  -1.136  1.00  0.00     0.009 A 
ATOM     54  C   UNL     1      10.775 -12.371  -1.125  1.00  0.00     0.009 A 
ATOM     55  C   UNL     1       9.406 -14.803  -1.149  1.00  0.00     0.001 A 
ATOM     56  C   UNL     1      11.485 -13.572  -1.161  1.00  0.00     0.001 A 
ATOM     57  C   UNL     1      10.800 -14.786  -1.164  1.00  0.00     0.000 A 
ENDBRANCH  39  52
ENDBRANCH  13  14
ENDBRANCH   6   8
ENDBRANCH   3   4
ENDBRANCH   2   3
ENDBRANCH   1   2
BRANCH   1  58
ATOM     58  C   UNL     1       4.721   4.212   0.315  1.00  0.00     0.116 C 
BRANCH  58  59
ATOM     59  N   UNL     1       6.164   4.276   0.486  1.00  0.00    -0.352 N 
ATOM     60  C   UNL     1       6.961   5.387   0.573  1.00  0.00     0.251 C 
ATOM     61  H   UNL     1       6.628   3.410   0.547  1.00  0.00     0.163 HD
ATOM     62  O   UNL     1       8.183   5.301   0.600  1.00  0.00    -0.269 OA
BRANCH  60  63
ATOM     63  C   UNL     1       6.318   6.707   0.624  1.00  0.00     0.042 A 
ATOM     64  C   UNL     1       5.632   7.101   1.778  1.00  0.00     0.015 A 
ATOM     65  C   UNL     1       6.372   7.526  -0.503  1.00  0.00     0.054 A 
ATOM     66  C   UNL     1       4.972   8.328   1.795  1.00  0.00     0.024 A 
ATOM     67  C   UNL     1       5.692   8.738  -0.484  1.00  0.00     0.142 A 
ATOM     68  C   UNL     1       5.005   9.144   0.656  1.00  0.00     0.103 A 
ATOM     69  F   UNL     1       5.706   9.487  -1.593  1.00  0.00    -0.206 F 
BRANCH  68  70
ATOM     70  S   UNL     1       4.146  10.687   0.686  1.00  0.00     0.188 S 
ATOM     71  O   UNL     1       2.895  10.420  -0.008  1.00  0.00    -0.223 OA
ATOM     72  O   UNL     1       4.097  11.116   2.075  1.00  0.00    -0.223 OA
BRANCH  70  73
ATOM     73  C   UNL     1       5.010  11.905  -0.243  1.00  0.00     0.219 C 
BRANCH  73  74
ATOM     74  C   UNL     1       6.358  12.170   0.340  1.00  0.00     0.143 A 
ATOM     75  N   UNL     1       6.741  13.462   0.400  1.00  0.00    -0.240 NA
ATOM     76  N   UNL     1       7.184  11.139   0.595  1.00  0.00    -0.240 NA
ATOM     77  C   UNL     1       8.011  13.707   0.780  1.00  0.00     0.115 A 
ATOM     78  C   UNL     1       8.441  11.437   0.979  1.00  0.00     0.115 A 
ATOM     79  C   UNL     1       8.915  12.721   1.085  1.00  0.00     0.040 A 
ENDBRANCH  73  74
ENDBRANCH  70  73
ENDBRANCH  68  70
ENDBRANCH  60  63
ENDBRANCH  58  59
ENDBRANCH   1  58
TORSDOF 14
