REMARK SMILES [NH3+][C@H]1C=C[C@@H](C(=O)NC2(CC(=O)NCCCCNC(=O)c3ccc(-c4c5nc(c(-c6ccccc6)c6ccc([nH]6)c(-c6ccccc6)c6nc(c(-c7ccccc7)c7ccc4[nH]7)C=C6)C=C5)cc3)CCC2)C1
REMARK SMILES IDX 14 1 13 2 11 3 12 4 10 6 9 7 69 8 71 9 70 10 8 11 6 12 7 13
REMARK SMILES IDX 5 15 2 16 3 17 72 18 4 19 1 20 15 24 16 25 17 26 18 27 19 28
REMARK SMILES IDX 20 30 21 31 22 32 68 33 23 34 67 35 24 36 25 37 26 38 61 39
REMARK SMILES IDX 27 40 66 41 60 42 62 43 28 44 65 45 59 46 58 47 29 49 51 50
REMARK SMILES IDX 36 51 50 52 37 53 40 54 49 55 63 56 38 57 39 58 48 60 64 61
REMARK SMILES IDX 41 62 30 63 31 64 35 65 32 66 34 67 33 68 52 69 53 70 57 71
REMARK SMILES IDX 54 72 56 73 55 74 42 75 43 76 47 77 44 78 46 79 45 80
REMARK H PARENT 13 5 8 14 1 21 1 22 1 23 18 29 62 48 40 59
REMARK Flexibility Score: inf
ROOT
ATOM      1  C   UNL     1      -2.712  -0.318  -2.648  1.00  0.00     0.116 C 
ENDROOT
BRANCH   1   2
ATOM      2  N   UNL     1      -3.853   0.521  -2.351  1.00  0.00    -0.356 N 
ATOM      3  C   UNL     1      -3.874   1.832  -1.988  1.00  0.00     0.222 C 
ATOM      4  O   UNL     1      -4.928   2.303  -1.556  1.00  0.00    -0.275 OA
ATOM      5  H   UNL     1      -4.732   0.084  -2.421  1.00  0.00     0.163 HD
BRANCH   3   6
ATOM      6  C   UNL     1      -2.641   2.703  -2.108  1.00  0.00     0.128 C 
BRANCH   6   7
ATOM      7  C   UNL     1      -1.697   2.760  -0.879  1.00  0.00     0.049 C 
ATOM      8  C   UNL     1      -0.787   4.029  -0.909  1.00  0.00     0.029 C 
ATOM      9  C   UNL     1      -0.409   1.934  -1.084  1.00  0.00     0.029 C 
ATOM     10  C   UNL     1       0.294   3.193  -1.609  1.00  0.00     0.005 C 
BRANCH   7  11
ATOM     11  N   UNL     1      -2.483   2.658   0.373  1.00  0.00    -0.350 N 
ATOM     12  C   UNL     1      -2.299   2.369   1.687  1.00  0.00     0.227 C 
ATOM     13  O   UNL     1      -3.325   2.468   2.380  1.00  0.00    -0.274 OA
ATOM     14  H   UNL     1      -3.430   2.863   0.199  1.00  0.00     0.164 HD
BRANCH  12  15
ATOM     15  C   UNL     1      -1.021   1.896   2.389  1.00  0.00     0.107 C 
ATOM     16  C   UNL     1       0.864   0.346   2.222  1.00  0.00     0.205 C 
ATOM     17  C   UNL     1       1.294   1.770   2.065  1.00  0.00     0.033 C 
ATOM     18  C   UNL     1      -0.668   0.427   2.137  1.00  0.00     0.087 C 
ATOM     19  C   UNL     1       0.262   2.621   2.148  1.00  0.00    -0.012 C 
BRANCH  16  20
ATOM     20  N   UNL     1       1.414  -0.522   1.195  1.00  0.00    -0.352 N 
ATOM     21  H   UNL     1       2.430  -0.551   1.283  1.00  0.00     0.345 HD
ATOM     22  H   UNL     1       1.162  -0.161   0.275  1.00  0.00     0.345 HD
ATOM     23  H   UNL     1       1.036  -1.462   1.307  1.00  0.00     0.345 HD
ENDBRANCH  16  20
ENDBRANCH  12  15
ENDBRANCH   7  11
ENDBRANCH   6   7
ENDBRANCH   3   6
ENDBRANCH   1   2
BRANCH   1  24
ATOM     24  C   UNL     1      -2.143  -0.921  -1.364  1.00  0.00     0.023 C 
BRANCH  24  25
ATOM     25  C   UNL     1      -2.878  -2.154  -0.844  1.00  0.00     0.023 C 
BRANCH  25  26
ATOM     26  C   UNL     1      -2.756  -3.382  -1.735  1.00  0.00     0.116 C 
BRANCH  26  27
ATOM     27  N   UNL     1      -1.387  -3.843  -1.917  1.00  0.00    -0.352 N 
ATOM     28  C   UNL     1      -0.946  -5.124  -2.152  1.00  0.00     0.251 C 
ATOM     29  H   UNL     1      -0.689  -3.150  -1.865  1.00  0.00     0.163 HD
ATOM     30  O   UNL     1       0.253  -5.373  -2.217  1.00  0.00    -0.269 OA
BRANCH  28  31
ATOM     31  C   UNL     1      -1.939  -6.213  -2.269  1.00  0.00     0.039 A 
ATOM     32  C   UNL     1      -1.772  -7.361  -1.492  1.00  0.00     0.014 A 
ATOM     33  C   UNL     1      -3.062  -6.068  -3.087  1.00  0.00     0.014 A 
ATOM     34  C   UNL     1      -2.775  -8.331  -1.474  1.00  0.00     0.010 A 
ATOM     35  C   UNL     1      -4.095  -6.994  -3.005  1.00  0.00     0.010 A 
ATOM     36  C   UNL     1      -3.964  -8.133  -2.195  1.00  0.00    -0.014 A 
BRANCH  36  37
ATOM     37  C   UNL     1      -5.085  -9.101  -2.120  1.00  0.00     0.031 A 
ATOM     38  C   UNL     1      -5.528  -9.836  -3.355  1.00  0.00     0.074 A 
ATOM     39  C   UNL     1      -5.755  -9.262  -0.961  1.00  0.00     0.049 A 
ATOM     40  N   UNL     1      -6.538 -10.653  -3.512  1.00  0.00    -0.248 NA
ATOM     41  C   UNL     1      -4.751  -9.597  -4.583  1.00  0.00     0.031 C 
ATOM     42  C   UNL     1      -5.458  -8.573   0.297  1.00  0.00     0.029 A 
ATOM     43  N   UNL     1      -6.834 -10.054  -0.658  1.00  0.00    -0.354 N 
ATOM     44  C   UNL     1      -6.530 -11.005  -4.856  1.00  0.00     0.074 A 
ATOM     45  C   UNL     1      -5.449 -10.276  -5.481  1.00  0.00     0.031 C 
ATOM     46  C   UNL     1      -6.316  -8.993   1.242  1.00  0.00     0.029 A 
ATOM     47  C   UNL     1      -7.245  -9.949   0.649  1.00  0.00     0.049 A 
ATOM     48  H   UNL     1      -7.272 -10.642  -1.314  1.00  0.00     0.167 HD
ATOM     49  C   UNL     1      -7.336 -11.876  -5.508  1.00  0.00     0.031 A 
ATOM     50  C   UNL     1      -8.259 -10.552   1.296  1.00  0.00     0.031 A 
ATOM     51  C   UNL     1      -8.395 -12.621  -4.885  1.00  0.00     0.049 A 
ATOM     52  C   UNL     1      -9.134 -11.520   0.550  1.00  0.00     0.074 A 
ATOM     53  C   UNL     1      -9.230 -13.569  -5.449  1.00  0.00     0.029 A 
ATOM     54  N   UNL     1      -8.761 -12.505  -3.553  1.00  0.00    -0.354 N 
ATOM     55  N   UNL     1      -9.073 -11.890  -0.706  1.00  0.00    -0.248 NA
ATOM     56  C   UNL     1     -10.212 -12.164   1.316  1.00  0.00     0.031 C 
ATOM     57  C   UNL     1     -10.126 -14.001  -4.466  1.00  0.00     0.029 A 
ATOM     58  C   UNL     1      -9.818 -13.355  -3.280  1.00  0.00     0.049 A 
ATOM     59  H   UNL     1      -8.332 -11.907  -2.899  1.00  0.00     0.167 HD
ATOM     60  C   UNL     1     -10.084 -12.827  -0.874  1.00  0.00     0.074 A 
ATOM     61  C   UNL     1     -10.732 -12.982   0.412  1.00  0.00     0.031 C 
ATOM     62  C   UNL     1     -10.445 -13.500  -1.993  1.00  0.00     0.031 A 
BRANCH  49  63
ATOM     63  C   UNL     1      -7.094 -12.071  -6.978  1.00  0.00    -0.014 A 
ATOM     64  C   UNL     1      -5.958 -12.756  -7.440  1.00  0.00     0.009 A 
ATOM     65  C   UNL     1      -8.027 -11.595  -7.911  1.00  0.00     0.009 A 
ATOM     66  C   UNL     1      -5.745 -12.930  -8.809  1.00  0.00     0.001 A 
ATOM     67  C   UNL     1      -7.826 -11.795  -9.278  1.00  0.00     0.001 A 
ATOM     68  C   UNL     1      -6.681 -12.454  -9.726  1.00  0.00     0.000 A 
ENDBRANCH  49  63
BRANCH  50  69
ATOM     69  C   UNL     1      -8.499 -10.276   2.737  1.00  0.00    -0.014 A 
ATOM     70  C   UNL     1      -8.225 -11.258   3.703  1.00  0.00     0.009 A 
ATOM     71  C   UNL     1      -9.020  -9.041   3.153  1.00  0.00     0.009 A 
ATOM     72  C   UNL     1      -8.498 -11.019   5.052  1.00  0.00     0.001 A 
ATOM     73  C   UNL     1      -9.265  -8.796   4.506  1.00  0.00     0.001 A 
ATOM     74  C   UNL     1      -9.015  -9.788   5.452  1.00  0.00     0.000 A 
ENDBRANCH  50  69
BRANCH  62  75
ATOM     75  C   UNL     1     -11.566 -14.491  -1.867  1.00  0.00    -0.014 A 
ATOM     76  C   UNL     1     -12.898 -14.070  -1.736  1.00  0.00     0.009 A 
ATOM     77  C   UNL     1     -11.286 -15.865  -1.923  1.00  0.00     0.009 A 
ATOM     78  C   UNL     1     -13.925 -15.009  -1.632  1.00  0.00     0.001 A 
ATOM     79  C   UNL     1     -12.318 -16.800  -1.846  1.00  0.00     0.001 A 
ATOM     80  C   UNL     1     -13.635 -16.372  -1.692  1.00  0.00     0.000 A 
ENDBRANCH  62  75
ENDBRANCH  36  37
ENDBRANCH  28  31
ENDBRANCH  26  27
ENDBRANCH  25  26
ENDBRANCH  24  25
ENDBRANCH   1  24
TORSDOF 15
