REMARK SMILES Cc1nn(C(C)C)c(C)c1S(=O)(=O)Nc1cccc(C(=O)NCCCCNC(=O)c2ccc(-c3c4nc(c(-c5ccccc5)c5ccc([nH]5)c(-c5ccccc5)c5nc(c(-c6ccccc6)c6ccc3[nH]6)C=C5)C=C4)cc2)c1C
REMARK SMILES IDX 23 1 22 2 20 3 21 4 19 6 15 7 16 8 78 9 17 10 79 11 18 12
REMARK SMILES IDX 14 13 11 15 12 16 13 17 10 18 1 19 2 20 3 21 4 22 8 23 9 24
REMARK SMILES IDX 5 25 6 26 7 27 24 28 25 29 26 30 27 31 28 32 29 34 30 35
REMARK SMILES IDX 31 36 77 37 32 38 76 39 33 40 34 41 35 42 70 43 36 44 75 45
REMARK SMILES IDX 69 46 71 47 37 48 74 49 68 50 67 51 38 53 60 54 45 55 59 56
REMARK SMILES IDX 46 57 49 58 58 59 72 60 47 61 48 62 57 64 73 65 50 66 39 67
REMARK SMILES IDX 40 68 44 69 41 70 43 71 42 72 61 73 62 74 66 75 63 76 65 77
REMARK SMILES IDX 64 78 51 79 52 80 56 81 53 82 55 83 54 84
REMARK H PARENT 22 5 14 14 27 33 71 52 49 63
REMARK Flexibility Score: inf
ROOT
ATOM      1  C   UNL     1       4.704   2.850  -0.712  1.00  0.00     0.116 C 
ENDROOT
BRANCH   1   2
ATOM      2  N   UNL     1       3.971   3.469   0.379  1.00  0.00    -0.352 N 
ATOM      3  C   UNL     1       2.667   3.456   0.807  1.00  0.00     0.251 C 
ATOM      4  O   UNL     1       2.458   4.122   1.821  1.00  0.00    -0.269 OA
ATOM      5  H   UNL     1       4.547   4.031   0.946  1.00  0.00     0.163 HD
BRANCH   3   6
ATOM      6  C   UNL     1       1.557   2.670   0.154  1.00  0.00     0.044 A 
ATOM      7  C   UNL     1      -0.446   1.278   0.310  1.00  0.00     0.053 A 
ATOM      8  C   UNL     1      -0.377   0.988  -1.050  1.00  0.00     0.027 A 
ATOM      9  C   UNL     1       0.422   2.241   0.892  1.00  0.00    -0.014 A 
ATOM     10  C   UNL     1       0.650   1.524  -1.810  1.00  0.00     0.003 A 
ATOM     11  C   UNL     1       0.136   2.700   2.305  1.00  0.00     0.047 C 
ATOM     12  C   UNL     1       1.617   2.325  -1.202  1.00  0.00     0.014 A 
BRANCH   7  13
ATOM     13  N   UNL     1      -1.383   0.644   1.177  1.00  0.00    -0.279 N 
ATOM     14  H   UNL     1      -1.689   1.146   1.966  1.00  0.00     0.180 HD
BRANCH  13  15
ATOM     15  S   UNL     1      -1.998  -0.893   0.948  1.00  0.00     0.265 S 
ATOM     16  O   UNL     1      -2.703  -0.926  -0.294  1.00  0.00    -0.201 OA
ATOM     17  O   UNL     1      -2.709  -1.186   2.198  1.00  0.00    -0.201 OA
BRANCH  15  18
ATOM     18  C   UNL     1      -0.869  -2.192   0.829  1.00  0.00     0.131 A 
ATOM     19  C   UNL     1       1.565  -1.127   0.784  1.00  0.00     0.070 C 
ATOM     20  C   UNL     1       0.544  -2.196   0.718  1.00  0.00     0.080 A 
ATOM     21  N   UNL     1       1.007  -3.437   0.516  1.00  0.00    -0.176 NA
ATOM     22  N   UNL     1      -0.072  -4.230   0.590  1.00  0.00    -0.266 N 
ATOM     23  C   UNL     1      -1.232  -3.536   0.807  1.00  0.00     0.056 A 
ATOM     24  C   UNL     1      -2.554  -4.194   0.980  1.00  0.00     0.068 C 
BRANCH  22  25
ATOM     25  C   UNL     1       0.102  -5.673   0.426  1.00  0.00     0.101 C 
ATOM     26  C   UNL     1       0.358  -6.028  -1.038  1.00  0.00     0.033 C 
ATOM     27  C   UNL     1       1.209  -6.216   1.331  1.00  0.00     0.033 C 
ENDBRANCH  22  25
ENDBRANCH  15  18
ENDBRANCH  13  15
ENDBRANCH   7  13
ENDBRANCH   3   6
ENDBRANCH   1   2
BRANCH   1  28
ATOM     28  C   UNL     1       4.790   3.764  -1.946  1.00  0.00     0.023 C 
BRANCH  28  29
ATOM     29  C   UNL     1       5.489   5.105  -1.720  1.00  0.00     0.023 C 
BRANCH  29  30
ATOM     30  C   UNL     1       6.989   4.996  -1.518  1.00  0.00     0.116 C 
BRANCH  30  31
ATOM     31  N   UNL     1       7.752   4.793  -2.743  1.00  0.00    -0.352 N 
ATOM     32  C   UNL     1       9.091   4.486  -2.910  1.00  0.00     0.251 C 
ATOM     33  H   UNL     1       7.238   4.890  -3.577  1.00  0.00     0.163 HD
ATOM     34  O   UNL     1       9.562   4.422  -4.043  1.00  0.00    -0.269 OA
BRANCH  32  35
ATOM     35  C   UNL     1       9.918   4.082  -1.744  1.00  0.00     0.039 A 
ATOM     36  C   UNL     1      10.785   2.993  -1.906  1.00  0.00     0.014 A 
ATOM     37  C   UNL     1       9.676   4.587  -0.471  1.00  0.00     0.014 A 
ATOM     38  C   UNL     1      11.158   2.245  -0.793  1.00  0.00     0.010 A 
ATOM     39  C   UNL     1       9.938   3.785   0.619  1.00  0.00     0.010 A 
ATOM     40  C   UNL     1      10.608   2.574   0.443  1.00  0.00    -0.014 A 
BRANCH  40  41
ATOM     41  C   UNL     1      10.546   1.652   1.567  1.00  0.00     0.031 A 
ATOM     42  C   UNL     1      11.352   1.890   2.781  1.00  0.00     0.074 A 
ATOM     43  C   UNL     1       9.697   0.599   1.533  1.00  0.00     0.049 A 
ATOM     44  N   UNL     1      11.659   0.958   3.619  1.00  0.00    -0.248 NA
ATOM     45  C   UNL     1      11.951   3.180   3.120  1.00  0.00     0.031 C 
ATOM     46  C   UNL     1       9.268  -0.229   2.662  1.00  0.00     0.029 A 
ATOM     47  N   UNL     1       9.116  -0.049   0.459  1.00  0.00    -0.354 N 
ATOM     48  C   UNL     1      12.156   1.569   4.740  1.00  0.00     0.074 A 
ATOM     49  C   UNL     1      12.480   2.910   4.319  1.00  0.00     0.031 C 
ATOM     50  C   UNL     1       8.773  -1.385   2.190  1.00  0.00     0.029 A 
ATOM     51  C   UNL     1       9.024  -1.407   0.762  1.00  0.00     0.049 A 
ATOM     52  H   UNL     1       8.817   0.376  -0.378  1.00  0.00     0.167 HD
ATOM     53  C   UNL     1      12.077   0.919   5.934  1.00  0.00     0.031 A 
ATOM     54  C   UNL     1       9.727  -2.386   0.115  1.00  0.00     0.031 A 
ATOM     55  C   UNL     1      11.637  -0.471   5.780  1.00  0.00     0.049 A 
ATOM     56  C   UNL     1      10.631  -3.209   1.025  1.00  0.00     0.074 A 
ATOM     57  C   UNL     1      10.493  -1.163   6.140  1.00  0.00     0.029 A 
ATOM     58  N   UNL     1      12.357  -1.321   4.951  1.00  0.00    -0.354 N 
ATOM     59  N   UNL     1      10.902  -2.907   2.264  1.00  0.00    -0.248 NA
ATOM     60  C   UNL     1      11.375  -4.384   0.578  1.00  0.00     0.031 C 
ATOM     61  C   UNL     1      10.536  -2.443   5.520  1.00  0.00     0.029 A 
ATOM     62  C   UNL     1      11.719  -2.537   4.810  1.00  0.00     0.049 A 
ATOM     63  H   UNL     1      13.210  -1.087   4.520  1.00  0.00     0.167 HD
ATOM     64  C   UNL     1      11.852  -3.761   2.766  1.00  0.00     0.074 A 
ATOM     65  C   UNL     1      12.113  -4.672   1.666  1.00  0.00     0.031 C 
ATOM     66  C   UNL     1      12.356  -3.595   4.028  1.00  0.00     0.031 A 
BRANCH  53  67
ATOM     67  C   UNL     1      12.189   1.586   7.288  1.00  0.00    -0.014 A 
ATOM     68  C   UNL     1      12.026   0.810   8.452  1.00  0.00     0.009 A 
ATOM     69  C   UNL     1      12.343   2.969   7.496  1.00  0.00     0.009 A 
ATOM     70  C   UNL     1      11.986   1.383   9.732  1.00  0.00     0.001 A 
ATOM     71  C   UNL     1      12.335   3.546   8.773  1.00  0.00     0.001 A 
ATOM     72  C   UNL     1      12.143   2.753   9.893  1.00  0.00     0.000 A 
ENDBRANCH  53  67
BRANCH  54  73
ATOM     73  C   UNL     1      10.048  -2.067  -1.303  1.00  0.00    -0.014 A 
ATOM     74  C   UNL     1       8.991  -2.007  -2.231  1.00  0.00     0.009 A 
ATOM     75  C   UNL     1      11.276  -1.482  -1.644  1.00  0.00     0.009 A 
ATOM     76  C   UNL     1       9.120  -1.271  -3.412  1.00  0.00     0.001 A 
ATOM     77  C   UNL     1      11.404  -0.756  -2.834  1.00  0.00     0.001 A 
ATOM     78  C   UNL     1      10.317  -0.618  -3.697  1.00  0.00     0.000 A 
ENDBRANCH  54  73
BRANCH  66  79
ATOM     79  C   UNL     1      13.501  -4.351   4.685  1.00  0.00    -0.014 A 
ATOM     80  C   UNL     1      14.052  -5.554   4.232  1.00  0.00     0.009 A 
ATOM     81  C   UNL     1      14.067  -3.831   5.877  1.00  0.00     0.009 A 
ATOM     82  C   UNL     1      15.138  -6.161   4.888  1.00  0.00     0.001 A 
ATOM     83  C   UNL     1      15.143  -4.429   6.537  1.00  0.00     0.001 A 
ATOM     84  C   UNL     1      15.689  -5.595   6.033  1.00  0.00     0.000 A 
ENDBRANCH  66  79
ENDBRANCH  40  41
ENDBRANCH  32  35
ENDBRANCH  30  31
ENDBRANCH  29  30
ENDBRANCH  28  29
ENDBRANCH   1  28
TORSDOF 15
