REMARK SMILES COc1cc(Br)c(N)c(C(=O)NCCCCNC(=O)c2ccc(-c3c4nc(c(-c5ccccc5)c5ccc([nH]5)c(-c5ccccc5)c5nc(c(-c6ccccc6)c6ccc3[nH]6)C=C5)C=C4)cc2)c1
REMARK SMILES IDX 15 1 14 2 13 3 12 4 10 5 11 6 9 8 3 9 4 10 68 11 5 12 6 13
REMARK SMILES IDX 7 14 2 15 1 16 8 17 16 20 17 21 18 22 19 24 20 25 21 26
REMARK SMILES IDX 67 27 22 28 66 29 23 30 24 31 25 32 60 33 26 34 65 35 59 36
REMARK SMILES IDX 61 37 27 38 64 39 58 40 57 41 28 43 50 44 35 45 49 46 36 47
REMARK SMILES IDX 39 48 48 49 62 50 37 51 38 52 47 54 63 55 40 56 29 57 30 58
REMARK SMILES IDX 34 59 31 60 33 61 32 62 51 63 52 64 56 65 53 66 55 67 54 68
REMARK SMILES IDX 41 69 42 70 46 71 43 72 45 73 44 74
REMARK H PARENT 12 7 8 18 8 19 17 23 61 42 39 53
REMARK Flexibility Score: inf
ROOT
ATOM      1  C   UNL     1       5.078  -7.228   3.886  1.00  0.00     0.023 C 
ENDROOT
BRANCH   1   2
ATOM      2  C   UNL     1       3.687  -6.814   3.404  1.00  0.00     0.023 C 
BRANCH   2   3
ATOM      3  C   UNL     1       3.174  -5.458   3.881  1.00  0.00     0.116 C 
BRANCH   3   4
ATOM      4  N   UNL     1       4.031  -4.332   3.551  1.00  0.00    -0.352 N 
ATOM      5  C   UNL     1       3.703  -3.012   3.331  1.00  0.00     0.253 C 
ATOM      6  O   UNL     1       4.614  -2.218   3.094  1.00  0.00    -0.269 OA
ATOM      7  H   UNL     1       4.989  -4.545   3.474  1.00  0.00     0.163 HD
BRANCH   5   8
ATOM      8  C   UNL     1       2.294  -2.528   3.286  1.00  0.00     0.067 A 
ATOM      9  C   UNL     1       0.693  -1.182   2.029  1.00  0.00     0.120 A 
ATOM     10  C   UNL     1      -0.311  -1.596   2.897  1.00  0.00     0.064 A 
ATOM     11  C   UNL     1       1.987  -1.666   2.208  1.00  0.00     0.062 A 
ATOM     12  C   UNL     1      -0.008  -2.423   3.980  1.00  0.00     0.045 A 
ATOM     13  Br  UNL     1      -1.449  -2.961   5.103  1.00  0.00    -0.048 Br
ATOM     14  C   UNL     1       1.314  -2.821   4.255  1.00  0.00     0.059 A 
BRANCH   9  15
ATOM     15  O   UNL     1       0.286  -0.287   1.081  1.00  0.00    -0.497 OA
ATOM     16  C   UNL     1       1.085  -0.173  -0.088  1.00  0.00     0.278 C 
ENDBRANCH   9  15
BRANCH  14  17
ATOM     17  N   UNL     1       1.593  -3.531   5.426  1.00  0.00    -0.397 N 
ATOM     18  H   UNL     1       0.875  -3.712   6.075  1.00  0.00     0.156 HD
ATOM     19  H   UNL     1       2.508  -3.851   5.602  1.00  0.00     0.156 HD
ENDBRANCH  14  17
ENDBRANCH   5   8
ENDBRANCH   3   4
ENDBRANCH   2   3
ENDBRANCH   1   2
BRANCH   1  20
ATOM     20  C   UNL     1       5.376  -7.031   5.370  1.00  0.00     0.116 C 
BRANCH  20  21
ATOM     21  N   UNL     1       4.513  -7.802   6.253  1.00  0.00    -0.352 N 
ATOM     22  C   UNL     1       4.809  -8.812   7.139  1.00  0.00     0.251 C 
ATOM     23  H   UNL     1       3.559  -7.560   6.209  1.00  0.00     0.163 HD
ATOM     24  O   UNL     1       3.901  -9.388   7.732  1.00  0.00    -0.269 OA
BRANCH  22  25
ATOM     25  C   UNL     1       6.208  -9.245   7.353  1.00  0.00     0.039 A 
ATOM     26  C   UNL     1       6.492 -10.614   7.366  1.00  0.00     0.014 A 
ATOM     27  C   UNL     1       7.238  -8.321   7.532  1.00  0.00     0.014 A 
ATOM     28  C   UNL     1       7.818 -11.050   7.454  1.00  0.00     0.010 A 
ATOM     29  C   UNL     1       8.563  -8.752   7.530  1.00  0.00     0.010 A 
ATOM     30  C   UNL     1       8.869 -10.120   7.482  1.00  0.00    -0.014 A 
BRANCH  30  31
ATOM     31  C   UNL     1      10.290 -10.555   7.436  1.00  0.00     0.031 A 
ATOM     32  C   UNL     1      11.226 -10.229   8.567  1.00  0.00     0.074 A 
ATOM     33  C   UNL     1      10.764 -11.169   6.333  1.00  0.00     0.049 A 
ATOM     34  N   UNL     1      12.512 -10.456   8.667  1.00  0.00    -0.248 NA
ATOM     35  C   UNL     1      10.647  -9.529   9.723  1.00  0.00     0.031 C 
ATOM     36  C   UNL     1       9.980 -11.498   5.141  1.00  0.00     0.029 A 
ATOM     37  N   UNL     1      12.028 -11.615   6.032  1.00  0.00    -0.354 N 
ATOM     38  C   UNL     1      12.898  -9.908   9.884  1.00  0.00     0.074 A 
ATOM     39  C   UNL     1      11.722  -9.291  10.459  1.00  0.00     0.031 C 
ATOM     40  C   UNL     1      10.773 -12.114   4.250  1.00  0.00     0.029 A 
ATOM     41  C   UNL     1      12.127 -12.188   4.787  1.00  0.00     0.049 A 
ATOM     42  H   UNL     1      12.790 -11.533   6.650  1.00  0.00     0.167 HD
ATOM     43  C   UNL     1      14.114  -9.931  10.481  1.00  0.00     0.031 A 
ATOM     44  C   UNL     1      13.189 -12.707   4.143  1.00  0.00     0.031 A 
ATOM     45  C   UNL     1      15.283 -10.548   9.915  1.00  0.00     0.049 A 
ATOM     46  C   UNL     1      14.530 -12.722   4.821  1.00  0.00     0.074 A 
ATOM     47  C   UNL     1      16.545 -10.678  10.470  1.00  0.00     0.029 A 
ATOM     48  N   UNL     1      15.336 -11.135   8.660  1.00  0.00    -0.354 N 
ATOM     49  N   UNL     1      14.861 -12.265   6.004  1.00  0.00    -0.248 NA
ATOM     50  C   UNL     1      15.640 -13.337   4.079  1.00  0.00     0.031 C 
ATOM     51  C   UNL     1      17.374 -11.299   9.530  1.00  0.00     0.029 A 
ATOM     52  C   UNL     1      16.615 -11.607   8.412  1.00  0.00     0.049 A 
ATOM     53  H   UNL     1      14.577 -11.206   8.037  1.00  0.00     0.167 HD
ATOM     54  C   UNL     1      16.210 -12.556   6.159  1.00  0.00     0.074 A 
ATOM     55  C   UNL     1      16.631 -13.243   4.954  1.00  0.00     0.031 C 
ATOM     56  C   UNL     1      17.025 -12.280   7.206  1.00  0.00     0.031 A 
BRANCH  43  57
ATOM     57  C   UNL     1      14.233  -9.250  11.818  1.00  0.00    -0.014 A 
ATOM     58  C   UNL     1      13.598  -9.769  12.958  1.00  0.00     0.009 A 
ATOM     59  C   UNL     1      14.994  -8.078  11.940  1.00  0.00     0.009 A 
ATOM     60  C   UNL     1      13.678  -9.098  14.181  1.00  0.00     0.001 A 
ATOM     61  C   UNL     1      15.100  -7.427  13.171  1.00  0.00     0.001 A 
ATOM     62  C   UNL     1      14.431  -7.930  14.286  1.00  0.00     0.000 A 
ENDBRANCH  43  57
BRANCH  44  63
ATOM     63  C   UNL     1      13.017 -13.277   2.782  1.00  0.00    -0.014 A 
ATOM     64  C   UNL     1      13.052 -14.665   2.582  1.00  0.00     0.009 A 
ATOM     65  C   UNL     1      12.795 -12.438   1.679  1.00  0.00     0.009 A 
ATOM     66  C   UNL     1      12.883 -15.201   1.303  1.00  0.00     0.001 A 
ATOM     67  C   UNL     1      12.600 -12.977   0.406  1.00  0.00     0.001 A 
ATOM     68  C   UNL     1      12.651 -14.357   0.218  1.00  0.00     0.000 A 
ENDBRANCH  44  63
BRANCH  56  69
ATOM     69  C   UNL     1      18.451 -12.744   7.108  1.00  0.00    -0.014 A 
ATOM     70  C   UNL     1      19.367 -12.113   6.253  1.00  0.00     0.009 A 
ATOM     71  C   UNL     1      18.893 -13.803   7.917  1.00  0.00     0.009 A 
ATOM     72  C   UNL     1      20.691 -12.555   6.187  1.00  0.00     0.001 A 
ATOM     73  C   UNL     1      20.223 -14.224   7.870  1.00  0.00     0.001 A 
ATOM     74  C   UNL     1      21.118 -13.605   6.998  1.00  0.00     0.000 A 
ENDBRANCH  56  69
ENDBRANCH  30  31
ENDBRANCH  22  25
ENDBRANCH  20  21
ENDBRANCH   1  20
TORSDOF 13
