REMARK SMILES CC[N@@H+](CCC(=O)NCCCCNC(=O)c1ccc(-c2c3nc(c(-c4ccccc4)c4ccc([nH]4)c(-c4ccccc4)c4nc(c(-c5ccccc5)c5ccc2[nH]5)C=C4)C=C3)cc1)[C@@H]1CS[C@@H](C)C1
REMARK SMILES IDX 10 1 9 2 8 3 6 4 7 5 5 7 4 8 3 9 2 11 1 12 64 13 65 14 69 15
REMARK SMILES IDX 66 16 67 17 68 18 11 19 12 20 13 21 14 22 15 24 16 25 17 26
REMARK SMILES IDX 63 27 18 28 62 29 19 30 20 31 21 32 56 33 22 34 61 35 55 36
REMARK SMILES IDX 57 37 23 38 60 39 54 40 53 41 24 43 46 44 31 45 45 46 32 47
REMARK SMILES IDX 35 48 44 49 58 50 33 51 34 52 43 54 59 55 36 56 25 57 26 58
REMARK SMILES IDX 30 59 27 60 29 61 28 62 47 63 48 64 52 65 49 66 51 67 50 68
REMARK SMILES IDX 37 69 38 70 42 71 39 72 41 73 40 74
REMARK H PARENT 8 6 3 10 13 23 57 42 35 53
REMARK Flexibility Score: inf
ROOT
ATOM      1  C   UNL     1       2.672  -0.187  -1.219  1.00  0.00     0.023 C 
ENDROOT
BRANCH   1   2
ATOM      2  C   UNL     1       2.575  -0.867  -2.580  1.00  0.00     0.116 C 
BRANCH   2   3
ATOM      3  N   UNL     1       3.095  -2.227  -2.571  1.00  0.00    -0.356 N 
ATOM      4  C   UNL     1       2.479  -3.426  -2.364  1.00  0.00     0.225 C 
ATOM      5  O   UNL     1       3.181  -4.440  -2.345  1.00  0.00    -0.275 OA
ATOM      6  H   UNL     1       4.062  -2.292  -2.745  1.00  0.00     0.163 HD
BRANCH   4   7
ATOM      7  C   UNL     1       0.984  -3.513  -2.159  1.00  0.00     0.161 C 
BRANCH   7   8
ATOM      8  C   UNL     1       0.552  -3.954  -0.748  1.00  0.00     0.272 C 
BRANCH   8   9
ATOM      9  N   UNL     1       0.835  -3.049   0.404  1.00  0.00    -0.332 N 
ATOM     10  H   UNL     1       0.522  -3.309   1.339  1.00  0.00     0.348 HD
BRANCH   9  11
ATOM     11  C   UNL     1      -0.019  -1.856   0.295  1.00  0.00     0.259 C 
ATOM     12  C   UNL     1       0.113  -0.575   1.113  1.00  0.00     0.071 C 
ENDBRANCH   9  11
BRANCH   9  13
ATOM     13  C   UNL     1       2.248  -3.127   0.850  1.00  0.00     0.195 C 
ATOM     14  C   UNL     1       2.590  -4.598   1.245  1.00  0.00     0.134 C 
ATOM     15  C   UNL     1       2.768  -2.309   2.046  1.00  0.00     0.080 C 
ATOM     16  S   UNL     1       3.981  -4.611   2.405  1.00  0.00    -0.152 SA
ATOM     17  C   UNL     1       4.189  -2.817   2.394  1.00  0.00     0.049 C 
ATOM     18  C   UNL     1       5.322  -2.508   1.412  1.00  0.00     0.019 C 
ENDBRANCH   9  13
ENDBRANCH   8   9
ENDBRANCH   7   8
ENDBRANCH   4   7
ENDBRANCH   2   3
ENDBRANCH   1   2
BRANCH   1  19
ATOM     19  C   UNL     1       4.062  -0.103  -0.616  1.00  0.00     0.023 C 
BRANCH  19  20
ATOM     20  C   UNL     1       4.731   1.241  -0.764  1.00  0.00     0.116 C 
BRANCH  20  21
ATOM     21  N   UNL     1       4.194   2.235   0.161  1.00  0.00    -0.352 N 
ATOM     22  C   UNL     1       4.829   3.012   1.109  1.00  0.00     0.251 C 
ATOM     23  H   UNL     1       3.222   2.374   0.099  1.00  0.00     0.163 HD
ATOM     24  O   UNL     1       4.160   3.671   1.896  1.00  0.00    -0.269 OA
BRANCH  22  25
ATOM     25  C   UNL     1       6.310   3.030   1.203  1.00  0.00     0.039 A 
ATOM     26  C   UNL     1       6.924   3.229   2.444  1.00  0.00     0.014 A 
ATOM     27  C   UNL     1       7.102   2.847   0.073  1.00  0.00     0.014 A 
ATOM     28  C   UNL     1       8.319   3.178   2.546  1.00  0.00     0.010 A 
ATOM     29  C   UNL     1       8.460   2.614   0.204  1.00  0.00     0.010 A 
ATOM     30  C   UNL     1       9.096   2.830   1.431  1.00  0.00    -0.014 A 
BRANCH  30  31
ATOM     31  C   UNL     1      10.577   2.762   1.475  1.00  0.00     0.031 A 
ATOM     32  C   UNL     1      11.386   3.616   0.527  1.00  0.00     0.074 A 
ATOM     33  C   UNL     1      11.190   1.885   2.293  1.00  0.00     0.049 A 
ATOM     34  N   UNL     1      12.678   3.631   0.321  1.00  0.00    -0.248 NA
ATOM     35  C   UNL     1      10.638   4.544  -0.343  1.00  0.00     0.031 C 
ATOM     36  C   UNL     1      10.517   0.966   3.215  1.00  0.00     0.029 A 
ATOM     37  N   UNL     1      12.523   1.623   2.479  1.00  0.00    -0.354 N 
ATOM     38  C   UNL     1      12.882   4.528  -0.722  1.00  0.00     0.074 A 
ATOM     39  C   UNL     1      11.583   4.980  -1.159  1.00  0.00     0.031 C 
ATOM     40  C   UNL     1      11.442   0.279   3.904  1.00  0.00     0.029 A 
ATOM     41  C   UNL     1      12.768   0.669   3.437  1.00  0.00     0.049 A 
ATOM     42  H   UNL     1      13.237   2.075   1.974  1.00  0.00     0.167 HD
ATOM     43  C   UNL     1      14.048   4.967  -1.249  1.00  0.00     0.031 A 
ATOM     44  C   UNL     1      13.933   0.166   3.885  1.00  0.00     0.031 A 
ATOM     45  C   UNL     1      15.338   4.550  -0.777  1.00  0.00     0.049 A 
ATOM     46  C   UNL     1      15.217   0.680   3.295  1.00  0.00     0.074 A 
ATOM     47  C   UNL     1      16.587   4.988  -1.179  1.00  0.00     0.029 A 
ATOM     48  N   UNL     1      15.541   3.599   0.211  1.00  0.00    -0.354 N 
ATOM     49  N   UNL     1      15.396   1.585   2.363  1.00  0.00    -0.248 NA
ATOM     50  C   UNL     1      16.462   0.111   3.829  1.00  0.00     0.031 C 
ATOM     51  C   UNL     1      17.548   4.260  -0.472  1.00  0.00     0.029 A 
ATOM     52  C   UNL     1      16.897   3.417   0.415  1.00  0.00     0.049 A 
ATOM     53  H   UNL     1      14.828   3.125   0.696  1.00  0.00     0.167 HD
ATOM     54  C   UNL     1      16.771   1.716   2.220  1.00  0.00     0.074 A 
ATOM     55  C   UNL     1      17.377   0.811   3.176  1.00  0.00     0.031 C 
ATOM     56  C   UNL     1      17.472   2.512   1.376  1.00  0.00     0.031 A 
BRANCH  43  57
ATOM     57  C   UNL     1      13.975   5.948  -2.388  1.00  0.00    -0.014 A 
ATOM     58  C   UNL     1      13.490   7.254  -2.203  1.00  0.00     0.009 A 
ATOM     59  C   UNL     1      14.421   5.569  -3.664  1.00  0.00     0.009 A 
ATOM     60  C   UNL     1      13.412   8.142  -3.278  1.00  0.00     0.001 A 
ATOM     61  C   UNL     1      14.375   6.470  -4.729  1.00  0.00     0.001 A 
ATOM     62  C   UNL     1      13.861   7.752  -4.538  1.00  0.00     0.000 A 
ENDBRANCH  43  57
BRANCH  44  63
ATOM     63  C   UNL     1      13.943  -0.855   4.967  1.00  0.00    -0.014 A 
ATOM     64  C   UNL     1      14.432  -0.533   6.243  1.00  0.00     0.009 A 
ATOM     65  C   UNL     1      13.467  -2.155   4.734  1.00  0.00     0.009 A 
ATOM     66  C   UNL     1      14.474  -1.499   7.252  1.00  0.00     0.001 A 
ATOM     67  C   UNL     1      13.480  -3.109   5.753  1.00  0.00     0.001 A 
ATOM     68  C   UNL     1      13.994  -2.784   7.008  1.00  0.00     0.000 A 
ENDBRANCH  44  63
BRANCH  56  69
ATOM     69  C   UNL     1      18.970   2.469   1.479  1.00  0.00    -0.014 A 
ATOM     70  C   UNL     1      19.701   1.354   1.040  1.00  0.00     0.009 A 
ATOM     71  C   UNL     1      19.660   3.584   1.980  1.00  0.00     0.009 A 
ATOM     72  C   UNL     1      21.093   1.344   1.137  1.00  0.00     0.001 A 
ATOM     73  C   UNL     1      21.053   3.584   2.043  1.00  0.00     0.001 A 
ATOM     74  C   UNL     1      21.767   2.460   1.632  1.00  0.00     0.000 A 
ENDBRANCH  56  69
ENDBRANCH  30  31
ENDBRANCH  22  25
ENDBRANCH  20  21
ENDBRANCH  19  20
ENDBRANCH   1  19
TORSDOF 15
