REMARK SMILES O=C(NCCCCNC(=O)c1ccc([C@H]2Nc3ccc(Cl)cc3[C@@H]3C=CC[C@H]23)cc1)c1ccc(-c2c3nc(c(-c4ccccc4)c4ccc([nH]4)c(-c4ccccc4)c4nc(c(-c5ccccc5)c5ccc2[nH]5)C=C4)C=C3)cc1
REMARK SMILES IDX 5 1 4 2 3 3 1 4 2 5 31 7 32 8 78 9 33 10 77 11 34 12 35 13
REMARK SMILES IDX 36 14 71 15 37 16 76 17 70 18 72 19 38 20 75 21 69 22 68 23
REMARK SMILES IDX 39 25 61 26 46 27 60 28 47 29 50 30 59 31 73 32 48 33 49 34
REMARK SMILES IDX 58 36 74 37 51 38 40 39 41 40 45 41 42 42 44 43 43 44 62 45
REMARK SMILES IDX 63 46 67 47 64 48 66 49 65 50 52 51 53 52 57 53 54 54 56 55
REMARK SMILES IDX 55 56 6 57 7 58 8 59 9 60 10 62 11 63 12 64 30 65 13 66
REMARK SMILES IDX 29 67 14 68 15 69 16 70 28 71 17 72 24 74 27 75 18 76 23 77
REMARK SMILES IDX 25 78 26 79 19 80 22 81 20 82 21 83
REMARK H PARENT 3 6 72 24 50 35 8 61 16 73
REMARK Flexibility Score: inf
ROOT
ATOM      1  C   UNL     1       4.895   1.677   2.146  1.00  0.00     0.023 C 
ENDROOT
BRANCH   1   2
ATOM      2  C   UNL     1       4.486   0.370   1.473  1.00  0.00     0.116 C 
BRANCH   2   3
ATOM      3  N   UNL     1       3.051   0.248   1.255  1.00  0.00    -0.352 N 
ATOM      4  O   UNL     1       1.109   0.059   0.130  1.00  0.00    -0.269 OA
ATOM      5  C   UNL     1       2.340   0.025   0.099  1.00  0.00     0.251 C 
ATOM      6  H   UNL     1       2.501   0.342   2.066  1.00  0.00     0.163 HD
BRANCH   5   7
ATOM      7  C   UNL     1       3.025  -0.232  -1.190  1.00  0.00     0.039 A 
ATOM      8  C   UNL     1       4.131  -1.079  -1.268  1.00  0.00     0.014 A 
ATOM      9  C   UNL     1       2.524   0.359  -2.356  1.00  0.00     0.014 A 
ATOM     10  C   UNL     1       4.820  -1.216  -2.471  1.00  0.00     0.010 A 
ATOM     11  C   UNL     1       3.167   0.152  -3.583  1.00  0.00     0.010 A 
ATOM     12  C   UNL     1       4.340  -0.614  -3.646  1.00  0.00    -0.014 A 
BRANCH  12  13
ATOM     13  C   UNL     1       5.040  -0.860  -4.936  1.00  0.00     0.031 A 
ATOM     14  C   UNL     1       5.703   0.257  -5.694  1.00  0.00     0.074 A 
ATOM     15  C   UNL     1       5.093  -2.118  -5.416  1.00  0.00     0.049 A 
ATOM     16  N   UNL     1       6.370   0.204  -6.821  1.00  0.00    -0.248 NA
ATOM     17  C   UNL     1       5.605   1.608  -5.120  1.00  0.00     0.031 C 
ATOM     18  C   UNL     1       4.488  -3.290  -4.777  1.00  0.00     0.029 A 
ATOM     19  N   UNL     1       5.692  -2.627  -6.540  1.00  0.00    -0.354 N 
ATOM     20  C   UNL     1       6.759   1.510  -7.098  1.00  0.00     0.074 A 
ATOM     21  C   UNL     1       6.228   2.338  -6.036  1.00  0.00     0.031 C 
ATOM     22  C   UNL     1       4.785  -4.384  -5.492  1.00  0.00     0.029 A 
ATOM     23  C   UNL     1       5.540  -3.986  -6.675  1.00  0.00     0.049 A 
ATOM     24  H   UNL     1       6.185  -2.072  -7.187  1.00  0.00     0.167 HD
ATOM     25  C   UNL     1       7.495   1.974  -8.137  1.00  0.00     0.031 A 
ATOM     26  C   UNL     1       5.939  -4.822  -7.650  1.00  0.00     0.031 A 
ATOM     27  C   UNL     1       8.011   1.150  -9.201  1.00  0.00     0.049 A 
ATOM     28  C   UNL     1       6.699  -4.270  -8.821  1.00  0.00     0.074 A 
ATOM     29  C   UNL     1       8.791   1.527 -10.282  1.00  0.00     0.029 A 
ATOM     30  N   UNL     1       7.791  -0.213  -9.325  1.00  0.00    -0.354 N 
ATOM     31  N   UNL     1       7.093  -3.040  -9.043  1.00  0.00    -0.248 NA
ATOM     32  C   UNL     1       7.069  -5.223  -9.876  1.00  0.00     0.031 C 
ATOM     33  C   UNL     1       8.988   0.405 -11.093  1.00  0.00     0.029 A 
ATOM     34  C   UNL     1       8.391  -0.686 -10.482  1.00  0.00     0.049 A 
ATOM     35  H   UNL     1       7.284  -0.764  -8.686  1.00  0.00     0.167 HD
ATOM     36  C   UNL     1       7.777  -3.075 -10.251  1.00  0.00     0.074 A 
ATOM     37  C   UNL     1       7.762  -4.452 -10.701  1.00  0.00     0.031 C 
ATOM     38  C   UNL     1       8.364  -2.057 -10.925  1.00  0.00     0.031 A 
BRANCH  25  39
ATOM     39  C   UNL     1       7.763   3.455  -8.198  1.00  0.00    -0.014 A 
ATOM     40  C   UNL     1       8.631   4.080  -7.289  1.00  0.00     0.009 A 
ATOM     41  C   UNL     1       7.180   4.228  -9.215  1.00  0.00     0.009 A 
ATOM     42  C   UNL     1       8.882   5.453  -7.377  1.00  0.00     0.001 A 
ATOM     43  C   UNL     1       7.455   5.593  -9.320  1.00  0.00     0.001 A 
ATOM     44  C   UNL     1       8.298   6.206  -8.395  1.00  0.00     0.000 A 
ENDBRANCH  25  39
BRANCH  26  45
ATOM     45  C   UNL     1       5.606  -6.268  -7.569  1.00  0.00    -0.014 A 
ATOM     46  C   UNL     1       6.612  -7.227  -7.382  1.00  0.00     0.009 A 
ATOM     47  C   UNL     1       4.272  -6.696  -7.675  1.00  0.00     0.009 A 
ATOM     48  C   UNL     1       6.292  -8.586  -7.328  1.00  0.00     0.001 A 
ATOM     49  C   UNL     1       3.952  -8.052  -7.585  1.00  0.00     0.001 A 
ATOM     50  C   UNL     1       4.963  -8.996  -7.422  1.00  0.00     0.000 A 
ENDBRANCH  26  45
BRANCH  38  51
ATOM     51  C   UNL     1       9.070  -2.400 -12.208  1.00  0.00    -0.014 A 
ATOM     52  C   UNL     1       8.357  -2.765 -13.360  1.00  0.00     0.009 A 
ATOM     53  C   UNL     1      10.471  -2.326 -12.270  1.00  0.00     0.009 A 
ATOM     54  C   UNL     1       9.035  -3.083 -14.539  1.00  0.00     0.001 A 
ATOM     55  C   UNL     1      11.144  -2.612 -13.458  1.00  0.00     0.001 A 
ATOM     56  C   UNL     1      10.427  -3.000 -14.589  1.00  0.00     0.000 A 
ENDBRANCH  38  51
ENDBRANCH  12  13
ENDBRANCH   5   7
ENDBRANCH   2   3
ENDBRANCH   1   2
BRANCH   1  57
ATOM     57  C   UNL     1       4.377   1.905   3.569  1.00  0.00     0.023 C 
BRANCH  57  58
ATOM     58  C   UNL     1       4.780   0.871   4.628  1.00  0.00     0.116 C 
BRANCH  58  59
ATOM     59  N   UNL     1       6.218   0.797   4.858  1.00  0.00    -0.352 N 
ATOM     60  C   UNL     1       6.977   0.826   6.010  1.00  0.00     0.251 C 
ATOM     61  H   UNL     1       6.749   0.709   4.033  1.00  0.00     0.163 HD
ATOM     62  O   UNL     1       8.202   0.844   5.901  1.00  0.00    -0.269 OA
BRANCH  60  63
ATOM     63  C   UNL     1       6.374   0.904   7.367  1.00  0.00     0.039 A 
ATOM     64  C   UNL     1       6.964   1.763   8.309  1.00  0.00     0.014 A 
ATOM     65  C   UNL     1       5.236   0.183   7.727  1.00  0.00     0.014 A 
ATOM     66  C   UNL     1       6.301   2.071   9.504  1.00  0.00     0.006 A 
ATOM     67  C   UNL     1       4.552   0.512   8.901  1.00  0.00     0.006 A 
ATOM     68  C   UNL     1       5.006   1.570   9.713  1.00  0.00    -0.025 A 
BRANCH  68  69
ATOM     69  C   UNL     1       3.929   2.480  10.324  1.00  0.00     0.114 C 
ATOM     70  N   UNL     1       4.177   2.958  11.682  1.00  0.00    -0.378 N 
ATOM     71  C   UNL     1       3.787   3.644   9.317  1.00  0.00     0.031 C 
ATOM     72  C   UNL     1       3.224   3.911  12.100  1.00  0.00     0.038 A 
ATOM     73  H   UNL     1       4.926   2.650  12.242  1.00  0.00     0.161 HD
ATOM     74  C   UNL     1       3.620   5.035   9.925  1.00  0.00     0.049 C 
ATOM     75  C   UNL     1       2.608   3.471   8.352  1.00  0.00     0.034 C 
ATOM     76  C   UNL     1       2.574   3.816  13.333  1.00  0.00     0.027 A 
ATOM     77  C   UNL     1       2.846   4.940  11.210  1.00  0.00    -0.016 A 
ATOM     78  C   UNL     1       2.960   5.741   8.771  1.00  0.00    -0.023 C 
ATOM     79  C   UNL     1       2.415   4.881   7.900  1.00  0.00    -0.030 C 
ATOM     80  C   UNL     1       1.532   4.700  13.655  1.00  0.00     0.022 A 
ATOM     81  C   UNL     1       1.819   5.832  11.544  1.00  0.00     0.027 A 
ATOM     82  C   UNL     1       1.154   5.694  12.755  1.00  0.00     0.041 A 
ATOM     83  Cl  UNL     1      -0.152   6.751  13.129  1.00  0.00    -0.084 Cl
ENDBRANCH  68  69
ENDBRANCH  60  63
ENDBRANCH  58  59
ENDBRANCH  57  58
ENDBRANCH   1  57
TORSDOF 12
