REMARK SMILES CC1=C(C)C[C@@H](C(=O)NCCCCNC(=O)c2ccc(-c3c4nc(c(-c5ccccc5)c5ccc([nH]5)c(-c5ccccc5)c5nc(c(-c6ccccc6)c6ccc3[nH]6)C=C5)C=C4)cc2)[C@@H](C(=O)NCC[NH+]2CCOCC2)C1
REMARK SMILES IDX 10 1 9 2 7 3 8 4 6 6 1 7 2 8 3 9 77 10 4 11 5 12 65 13 66 14
REMARK SMILES IDX 67 15 68 16 69 18 70 19 71 20 72 21 76 22 73 24 75 25 74 26
REMARK SMILES IDX 11 27 12 28 13 29 14 30 15 31 16 33 17 34 18 35 64 36 19 37
REMARK SMILES IDX 63 38 20 39 21 40 22 41 57 42 23 43 62 44 56 45 58 46 24 47
REMARK SMILES IDX 61 48 55 49 54 50 25 52 47 53 32 54 46 55 33 56 36 57 45 58
REMARK SMILES IDX 59 59 34 60 35 61 44 63 60 64 37 65 26 66 27 67 31 68 28 69
REMARK SMILES IDX 30 70 29 71 48 72 49 73 53 74 50 75 52 76 51 77 38 78 39 79
REMARK SMILES IDX 43 80 40 81 42 82 41 83
REMARK H PARENT 9 5 68 17 71 23 14 32 58 51 36 62
REMARK Flexibility Score: inf
ROOT
ATOM      1  C   UNL     1      -0.461  -2.310   1.489  1.00  0.00     0.116 C 
ENDROOT
BRANCH   1   2
ATOM      2  N   UNL     1      -0.869  -3.552   0.869  1.00  0.00    -0.356 N 
ATOM      3  C   UNL     1      -0.405  -4.212  -0.217  1.00  0.00     0.224 C 
ATOM      4  O   UNL     1      -0.438  -5.450  -0.132  1.00  0.00    -0.275 OA
ATOM      5  H   UNL     1      -1.622  -3.998   1.319  1.00  0.00     0.163 HD
BRANCH   3   6
ATOM      6  C   UNL     1       0.118  -3.595  -1.498  1.00  0.00     0.095 C 
ATOM      7  C   UNL     1       1.520   0.491  -0.839  1.00  0.00     0.039 C 
ATOM      8  C   UNL     1       1.247  -0.924  -1.283  1.00  0.00    -0.074 C 
ATOM      9  C   UNL     1       1.963  -1.981  -0.856  1.00  0.00    -0.074 C 
ATOM     10  C   UNL     1       0.098  -1.112  -2.257  1.00  0.00     0.045 C 
ATOM     11  C   UNL     1       3.077  -1.924   0.154  1.00  0.00     0.039 C 
ATOM     12  C   UNL     1       1.631  -3.345  -1.388  1.00  0.00     0.045 C 
ATOM     13  C   UNL     1      -0.649  -2.499  -2.248  1.00  0.00     0.095 C 
BRANCH  13  14
ATOM     14  C   UNL     1      -2.176  -2.253  -2.201  1.00  0.00     0.224 C 
ATOM     15  O   UNL     1      -2.608  -1.251  -2.804  1.00  0.00    -0.275 OA
ATOM     16  N   UNL     1      -3.188  -2.989  -1.713  1.00  0.00    -0.350 N 
ATOM     17  H   UNL     1      -4.044  -2.557  -1.935  1.00  0.00     0.163 HD
BRANCH  16  18
ATOM     18  C   UNL     1      -3.443  -4.211  -0.966  1.00  0.00     0.177 C 
BRANCH  18  19
ATOM     19  C   UNL     1      -4.062  -3.979   0.444  1.00  0.00     0.283 C 
BRANCH  19  20
ATOM     20  N   UNL     1      -5.486  -3.681   0.654  1.00  0.00    -0.330 N 
ATOM     21  C   UNL     1      -6.437  -4.563  -0.027  1.00  0.00     0.291 C 
ATOM     22  C   UNL     1      -5.958  -2.292   0.604  1.00  0.00     0.291 C 
ATOM     23  H   UNL     1      -5.482  -3.901   1.650  1.00  0.00     0.348 HD
ATOM     24  C   UNL     1      -6.866  -4.046  -1.409  1.00  0.00     0.221 C 
ATOM     25  C   UNL     1      -6.452  -1.810  -0.766  1.00  0.00     0.221 C 
ATOM     26  O   UNL     1      -7.399  -2.719  -1.336  1.00  0.00    -0.370 OA
ENDBRANCH  19  20
ENDBRANCH  18  19
ENDBRANCH  16  18
ENDBRANCH  13  14
ENDBRANCH   3   6
ENDBRANCH   1   2
BRANCH   1  27
ATOM     27  C   UNL     1      -1.117  -1.012   1.029  1.00  0.00     0.023 C 
BRANCH  27  28
ATOM     28  C   UNL     1      -2.559  -0.679   1.394  1.00  0.00     0.023 C 
BRANCH  28  29
ATOM     29  C   UNL     1      -3.008  -1.001   2.814  1.00  0.00     0.116 C 
BRANCH  29  30
ATOM     30  N   UNL     1      -3.264   0.195   3.590  1.00  0.00    -0.352 N 
ATOM     31  C   UNL     1      -4.273   0.523   4.460  1.00  0.00     0.251 C 
ATOM     32  H   UNL     1      -2.590   0.903   3.471  1.00  0.00     0.163 HD
ATOM     33  O   UNL     1      -4.258   1.651   4.949  1.00  0.00    -0.269 OA
BRANCH  31  34
ATOM     34  C   UNL     1      -5.389  -0.401   4.815  1.00  0.00     0.039 A 
ATOM     35  C   UNL     1      -6.602   0.191   5.198  1.00  0.00     0.014 A 
ATOM     36  C   UNL     1      -5.284  -1.794   4.865  1.00  0.00     0.014 A 
ATOM     37  C   UNL     1      -7.685  -0.592   5.611  1.00  0.00     0.010 A 
ATOM     38  C   UNL     1      -6.393  -2.583   5.205  1.00  0.00     0.010 A 
ATOM     39  C   UNL     1      -7.598  -1.991   5.608  1.00  0.00    -0.014 A 
BRANCH  39  40
ATOM     40  C   UNL     1      -8.753  -2.810   6.069  1.00  0.00     0.031 A 
ATOM     41  C   UNL     1      -8.675  -3.607   7.345  1.00  0.00     0.074 A 
ATOM     42  C   UNL     1      -9.899  -2.819   5.361  1.00  0.00     0.049 A 
ATOM     43  N   UNL     1      -9.616  -4.295   7.947  1.00  0.00    -0.248 NA
ATOM     44  C   UNL     1      -7.375  -3.647   8.030  1.00  0.00     0.031 C 
ATOM     45  C   UNL     1     -10.119  -2.116   4.096  1.00  0.00     0.029 A 
ATOM     46  N   UNL     1     -11.103  -3.429   5.618  1.00  0.00    -0.354 N 
ATOM     47  C   UNL     1      -9.022  -4.846   9.075  1.00  0.00     0.074 A 
ATOM     48  C   UNL     1      -7.629  -4.456   9.049  1.00  0.00     0.031 C 
ATOM     49  C   UNL     1     -11.393  -2.298   3.711  1.00  0.00     0.029 A 
ATOM     50  C   UNL     1     -12.071  -3.152   4.683  1.00  0.00     0.049 A 
ATOM     51  H   UNL     1     -11.258  -4.009   6.398  1.00  0.00     0.167 HD
ATOM     52  C   UNL     1      -9.583  -5.591  10.059  1.00  0.00     0.031 A 
ATOM     53  C   UNL     1     -13.362  -3.529   4.617  1.00  0.00     0.031 A 
ATOM     54  C   UNL     1     -10.965  -5.987  10.105  1.00  0.00     0.049 A 
ATOM     55  C   UNL     1     -13.954  -4.382   5.704  1.00  0.00     0.074 A 
ATOM     56  C   UNL     1     -11.625  -6.699  11.094  1.00  0.00     0.029 A 
ATOM     57  N   UNL     1     -11.899  -5.714   9.120  1.00  0.00    -0.354 N 
ATOM     58  N   UNL     1     -13.395  -4.830   6.800  1.00  0.00    -0.248 NA
ATOM     59  C   UNL     1     -15.365  -4.767   5.547  1.00  0.00     0.031 C 
ATOM     60  C   UNL     1     -12.947  -6.899  10.683  1.00  0.00     0.029 A 
ATOM     61  C   UNL     1     -13.123  -6.268   9.463  1.00  0.00     0.049 A 
ATOM     62  H   UNL     1     -11.721  -5.203   8.298  1.00  0.00     0.167 HD
ATOM     63  C   UNL     1     -14.391  -5.524   7.476  1.00  0.00     0.074 A 
ATOM     64  C   UNL     1     -15.592  -5.428   6.673  1.00  0.00     0.031 C 
ATOM     65  C   UNL     1     -14.315  -6.176   8.662  1.00  0.00     0.031 A 
BRANCH  52  66
ATOM     66  C   UNL     1      -8.684  -6.037  11.178  1.00  0.00    -0.014 A 
ATOM     67  C   UNL     1      -8.216  -5.127  12.139  1.00  0.00     0.009 A 
ATOM     68  C   UNL     1      -8.332  -7.391  11.295  1.00  0.00     0.009 A 
ATOM     69  C   UNL     1      -7.384  -5.558  13.174  1.00  0.00     0.001 A 
ATOM     70  C   UNL     1      -7.522  -7.823  12.346  1.00  0.00     0.001 A 
ATOM     71  C   UNL     1      -7.041  -6.905  13.279  1.00  0.00     0.000 A 
ENDBRANCH  52  66
BRANCH  53  72
ATOM     72  C   UNL     1     -14.205  -3.076   3.481  1.00  0.00    -0.014 A 
ATOM     73  C   UNL     1     -15.200  -2.106   3.678  1.00  0.00     0.009 A 
ATOM     74  C   UNL     1     -14.027  -3.619   2.200  1.00  0.00     0.009 A 
ATOM     75  C   UNL     1     -16.015  -1.706   2.617  1.00  0.00     0.001 A 
ATOM     76  C   UNL     1     -14.826  -3.198   1.137  1.00  0.00     0.001 A 
ATOM     77  C   UNL     1     -15.825  -2.249   1.347  1.00  0.00     0.000 A 
ENDBRANCH  53  72
BRANCH  65  78
ATOM     78  C   UNL     1     -15.572  -6.814   9.183  1.00  0.00    -0.014 A 
ATOM     79  C   UNL     1     -16.091  -7.983   8.606  1.00  0.00     0.009 A 
ATOM     80  C   UNL     1     -16.228  -6.255  10.291  1.00  0.00     0.009 A 
ATOM     81  C   UNL     1     -17.259  -8.561   9.109  1.00  0.00     0.001 A 
ATOM     82  C   UNL     1     -17.380  -6.849  10.808  1.00  0.00     0.001 A 
ATOM     83  C   UNL     1     -17.900  -7.996  10.211  1.00  0.00     0.000 A 
ENDBRANCH  65  78
ENDBRANCH  39  40
ENDBRANCH  31  34
ENDBRANCH  29  30
ENDBRANCH  28  29
ENDBRANCH  27  28
ENDBRANCH   1  27
TORSDOF 15
