REMARK SMILES CCc1cccc(CC)c1NC(=O)C[C@@](C)(C(=O)NCCCCNC(=O)c1ccc(-c2c3nc(c(-c4ccccc4)c4ccc([nH]4)c(-c4ccccc4)c4nc(c(-c5ccccc5)c5ccc2[nH]5)C=C4)C=C3)cc1)c1ccccc1
REMARK SMILES IDX 20 1 19 2 17 3 18 4 15 6 16 7 14 8 12 9 11 10 13 12 10 13
REMARK SMILES IDX 3 14 4 15 5 16 7 17 6 18 2 19 1 20 8 21 9 22 75 23 76 24
REMARK SMILES IDX 80 25 77 26 79 27 78 28 21 29 22 30 23 31 24 32 25 33 26 35
REMARK SMILES IDX 27 36 28 37 74 38 29 39 73 40 30 41 31 42 32 43 67 44 33 45
REMARK SMILES IDX 72 46 66 47 68 48 34 49 71 50 65 51 64 52 35 54 57 55 42 56
REMARK SMILES IDX 56 57 43 58 46 59 55 60 69 61 44 62 45 63 54 65 70 66 47 67
REMARK SMILES IDX 36 68 37 69 41 70 38 71 40 72 39 73 58 74 59 75 63 76 60 77
REMARK SMILES IDX 62 78 61 79 48 80 49 81 53 82 50 83 52 84 51 85
REMARK H PARENT 19 5 11 11 24 34 68 53 46 64
REMARK Flexibility Score: inf
ROOT
ATOM      1  C   UNL     1       3.684  -5.141   3.895  1.00  0.00     0.116 C 
ENDROOT
BRANCH   1   2
ATOM      2  N   UNL     1       3.108  -4.552   5.120  1.00  0.00    -0.355 N 
ATOM      3  C   UNL     1       1.816  -4.083   5.277  1.00  0.00     0.230 C 
ATOM      4  O   UNL     1       1.083  -4.831   5.936  1.00  0.00    -0.274 OA
ATOM      5  H   UNL     1       3.702  -4.487   5.902  1.00  0.00     0.163 HD
BRANCH   3   6
ATOM      6  C   UNL     1       1.312  -2.658   4.754  1.00  0.00     0.080 C 
ATOM      7  C   UNL     1      -0.113  -2.828   4.137  1.00  0.00     0.027 C 
BRANCH   6   8
ATOM      8  C   UNL     1       2.349  -2.085   3.748  1.00  0.00     0.121 C 
BRANCH   8   9
ATOM      9  C   UNL     1       1.938  -1.224   2.581  1.00  0.00     0.225 C 
ATOM     10  N   UNL     1       1.573  -1.577   1.330  1.00  0.00    -0.326 N 
ATOM     11  H   UNL     1       1.446  -0.730   0.845  1.00  0.00     0.169 HD
ATOM     12  O   UNL     1       2.043   0.008   2.720  1.00  0.00    -0.275 OA
BRANCH  10  13
ATOM     13  C   UNL     1       1.287  -2.596   0.388  1.00  0.00     0.047 A 
ATOM     14  C   UNL     1       1.001  -2.149  -0.940  1.00  0.00    -0.024 A 
ATOM     15  C   UNL     1       0.925  -3.098  -1.994  1.00  0.00     0.006 A 
ATOM     16  C   UNL     1       1.093  -4.452  -1.778  1.00  0.00     0.001 A 
ATOM     17  C   UNL     1       1.234  -3.999   0.607  1.00  0.00    -0.024 A 
ATOM     18  C   UNL     1       1.225  -4.900  -0.480  1.00  0.00     0.006 A 
BRANCH  14  19
ATOM     19  C   UNL     1       0.537  -0.761  -1.403  1.00  0.00     0.034 C 
ATOM     20  C   UNL     1       0.692   0.533  -0.616  1.00  0.00     0.009 C 
ENDBRANCH  14  19
BRANCH  17  21
ATOM     21  C   UNL     1       0.833  -4.571   1.930  1.00  0.00     0.034 C 
ATOM     22  C   UNL     1       0.571  -6.057   2.143  1.00  0.00     0.009 C 
ENDBRANCH  17  21
ENDBRANCH  10  13
ENDBRANCH   8   9
ENDBRANCH   6   8
BRANCH   6  23
ATOM     23  C   UNL     1       0.935  -1.686   5.940  1.00  0.00    -0.032 A 
ATOM     24  C   UNL     1       0.984  -0.289   5.774  1.00  0.00     0.005 A 
ATOM     25  C   UNL     1       0.145  -2.169   7.012  1.00  0.00     0.005 A 
ATOM     26  C   UNL     1       0.187   0.565   6.548  1.00  0.00     0.000 A 
ATOM     27  C   UNL     1      -0.657  -1.314   7.776  1.00  0.00     0.000 A 
ATOM     28  C   UNL     1      -0.659   0.051   7.524  1.00  0.00     0.000 A 
ENDBRANCH   6  23
ENDBRANCH   3   6
ENDBRANCH   1   2
BRANCH   1  29
ATOM     29  C   UNL     1       5.186  -5.419   3.987  1.00  0.00     0.023 C 
BRANCH  29  30
ATOM     30  C   UNL     1       5.563  -6.881   4.232  1.00  0.00     0.023 C 
BRANCH  30  31
ATOM     31  C   UNL     1       5.071  -7.903   3.204  1.00  0.00     0.116 C 
BRANCH  31  32
ATOM     32  N   UNL     1       5.525  -7.671   1.841  1.00  0.00    -0.352 N 
ATOM     33  C   UNL     1       5.993  -8.581   0.910  1.00  0.00     0.251 C 
ATOM     34  H   UNL     1       5.495  -6.735   1.539  1.00  0.00     0.163 HD
ATOM     35  O   UNL     1       6.359  -8.209  -0.189  1.00  0.00    -0.269 OA
BRANCH  33  36
ATOM     36  C   UNL     1       6.100 -10.014   1.278  1.00  0.00     0.039 A 
ATOM     37  C   UNL     1       7.314 -10.672   1.061  1.00  0.00     0.014 A 
ATOM     38  C   UNL     1       5.034 -10.692   1.873  1.00  0.00     0.014 A 
ATOM     39  C   UNL     1       7.492 -11.975   1.535  1.00  0.00     0.010 A 
ATOM     40  C   UNL     1       5.235 -11.963   2.408  1.00  0.00     0.010 A 
ATOM     41  C   UNL     1       6.471 -12.613   2.260  1.00  0.00    -0.014 A 
BRANCH  41  42
ATOM     42  C   UNL     1       6.695 -13.936   2.899  1.00  0.00     0.031 A 
ATOM     43  C   UNL     1       5.897 -15.138   2.474  1.00  0.00     0.074 A 
ATOM     44  C   UNL     1       7.569 -14.043   3.920  1.00  0.00     0.049 A 
ATOM     45  N   UNL     1       5.932 -16.360   2.944  1.00  0.00    -0.248 NA
ATOM     46  C   UNL     1       4.912 -14.936   1.400  1.00  0.00     0.031 C 
ATOM     47  C   UNL     1       8.362 -12.945   4.480  1.00  0.00     0.029 A 
ATOM     48  N   UNL     1       7.934 -15.130   4.676  1.00  0.00    -0.354 N 
ATOM     49  C   UNL     1       4.962 -17.063   2.241  1.00  0.00     0.074 A 
ATOM     50  C   UNL     1       4.325 -16.123   1.344  1.00  0.00     0.031 C 
ATOM     51  C   UNL     1       9.139 -13.420   5.467  1.00  0.00     0.029 A 
ATOM     52  C   UNL     1       8.880 -14.847   5.632  1.00  0.00     0.049 A 
ATOM     53  H   UNL     1       7.553 -16.029   4.546  1.00  0.00     0.167 HD
ATOM     54  C   UNL     1       4.641 -18.377   2.317  1.00  0.00     0.031 A 
ATOM     55  C   UNL     1       9.478 -15.645   6.537  1.00  0.00     0.031 A 
ATOM     56  C   UNL     1       5.286 -19.323   3.189  1.00  0.00     0.049 A 
ATOM     57  C   UNL     1       9.132 -17.107   6.575  1.00  0.00     0.074 A 
ATOM     58  C   UNL     1       5.074 -20.688   3.288  1.00  0.00     0.029 A 
ATOM     59  N   UNL     1       6.270 -19.003   4.109  1.00  0.00    -0.354 N 
ATOM     60  N   UNL     1       8.270 -17.771   5.844  1.00  0.00    -0.248 NA
ATOM     61  C   UNL     1       9.858 -17.933   7.550  1.00  0.00     0.031 C 
ATOM     62  C   UNL     1       5.907 -21.188   4.295  1.00  0.00     0.029 A 
ATOM     63  C   UNL     1       6.669 -20.141   4.789  1.00  0.00     0.049 A 
ATOM     64  H   UNL     1       6.633 -18.099   4.258  1.00  0.00     0.167 HD
ATOM     65  C   UNL     1       8.374 -19.096   6.248  1.00  0.00     0.074 A 
ATOM     66  C   UNL     1       9.391 -19.143   7.277  1.00  0.00     0.031 C 
ATOM     67  C   UNL     1       7.687 -20.176   5.805  1.00  0.00     0.031 A 
BRANCH  54  68
ATOM     68  C   UNL     1       3.538 -18.872   1.423  1.00  0.00    -0.014 A 
ATOM     69  C   UNL     1       3.726 -18.988   0.037  1.00  0.00     0.009 A 
ATOM     70  C   UNL     1       2.309 -19.259   1.978  1.00  0.00     0.009 A 
ATOM     71  C   UNL     1       2.692 -19.449  -0.781  1.00  0.00     0.001 A 
ATOM     72  C   UNL     1       1.286 -19.745   1.161  1.00  0.00     0.001 A 
ATOM     73  C   UNL     1       1.475 -19.830  -0.218  1.00  0.00     0.000 A 
ENDBRANCH  54  68
BRANCH  55  74
ATOM     74  C   UNL     1      10.497 -15.090   7.466  1.00  0.00    -0.014 A 
ATOM     75  C   UNL     1      11.855 -15.405   7.299  1.00  0.00     0.009 A 
ATOM     76  C   UNL     1      10.119 -14.261   8.532  1.00  0.00     0.009 A 
ATOM     77  C   UNL     1      12.809 -14.928   8.201  1.00  0.00     0.001 A 
ATOM     78  C   UNL     1      11.079 -13.763   9.417  1.00  0.00     0.001 A 
ATOM     79  C   UNL     1      12.420 -14.105   9.257  1.00  0.00     0.000 A 
ENDBRANCH  55  74
BRANCH  67  80
ATOM     80  C   UNL     1       8.045 -21.508   6.401  1.00  0.00    -0.014 A 
ATOM     81  C   UNL     1       7.678 -21.843   7.713  1.00  0.00     0.009 A 
ATOM     82  C   UNL     1       8.736 -22.451   5.624  1.00  0.00     0.009 A 
ATOM     83  C   UNL     1       8.028 -23.085   8.247  1.00  0.00     0.001 A 
ATOM     84  C   UNL     1       9.061 -23.701   6.152  1.00  0.00     0.001 A 
ATOM     85  C   UNL     1       8.716 -24.013   7.466  1.00  0.00     0.000 A 
ENDBRANCH  67  80
ENDBRANCH  41  42
ENDBRANCH  33  36
ENDBRANCH  31  32
ENDBRANCH  30  31
ENDBRANCH  29  30
ENDBRANCH   1  29
TORSDOF 17
