REMARK SMILES CC(=O)c1ccc(N2CCN(c3ccc(C(=O)NCCCCNC(=O)c4ccc(-c5c6nc(c(-c7ccccc7)c7ccc([nH]7)c(-c7ccccc7)c7nc(c(-c8ccccc8)c8ccc5[nH]8)C=C7)C=C6)cc4)cc3NS(=O)(=O)c3ccc(C)cc3)CC2)cc1
REMARK SMILES IDX 20 1 19 2 18 3 16 4 17 5 15 7 12 8 13 9 75 10 14 11 74 12
REMARK SMILES IDX 11 13 8 14 9 15 88 16 10 17 87 18 7 19 4 20 5 21 90 22 6 23
REMARK SMILES IDX 89 24 2 25 1 26 3 27 76 28 77 30 78 31 79 32 80 33 81 34
REMARK SMILES IDX 86 35 82 36 85 37 83 38 84 39 21 40 22 41 23 42 24 43 25 45
REMARK SMILES IDX 26 46 27 47 73 48 28 49 72 50 29 51 30 52 31 53 66 54 32 55
REMARK SMILES IDX 71 56 65 57 67 58 33 59 70 60 64 61 63 62 34 64 56 65 41 66
REMARK SMILES IDX 55 67 42 68 45 69 54 70 68 71 43 72 44 73 53 75 69 76 46 77
REMARK SMILES IDX 35 78 36 79 40 80 37 81 39 82 38 83 57 84 58 85 62 86 59 87
REMARK SMILES IDX 61 88 60 89 47 90 48 91 52 92 49 93 51 94 50 95
REMARK H PARENT 18 6 76 29 23 44 67 63 45 74
REMARK Flexibility Score: inf
ROOT
ATOM      1  C   UNL     1       3.450  12.927   8.094  1.00  0.00     0.023 C 
ENDROOT
BRANCH   1   2
ATOM      2  C   UNL     1       5.111  11.642   8.696  1.00  0.00     0.116 C 
BRANCH   2   3
ATOM      3  N   UNL     1       5.378  10.664   9.948  1.00  0.00    -0.352 N 
ATOM      4  C   UNL     1       5.669   9.325  10.106  1.00  0.00     0.251 C 
ATOM      5  O   UNL     1       6.046   8.931  11.209  1.00  0.00    -0.269 OA
ATOM      6  H   UNL     1       5.320  11.136  10.809  1.00  0.00     0.163 HD
BRANCH   4   7
ATOM      7  C   UNL     1       5.397   8.325   9.046  1.00  0.00     0.042 A 
ATOM      8  C   UNL     1       4.203   6.686   7.116  1.00  0.00     0.061 A 
ATOM      9  C   UNL     1       4.311   6.246   8.436  1.00  0.00     0.029 A 
ATOM     10  C   UNL     1       4.686   7.980   6.828  1.00  0.00     0.073 A 
ATOM     11  C   UNL     1       4.829   7.100   9.416  1.00  0.00     0.016 A 
ATOM     12  C   UNL     1       5.530   8.622   7.704  1.00  0.00     0.042 A 
BRANCH   8  13
ATOM     13  N   UNL     1       3.608   5.941   6.121  1.00  0.00    -0.366 N 
ATOM     14  N   UNL     1       2.123   5.128   3.873  1.00  0.00    -0.368 N 
ATOM     15  C   UNL     1       1.454   5.246   5.179  1.00  0.00     0.138 C 
ATOM     16  C   UNL     1       3.337   5.929   3.660  1.00  0.00     0.138 C 
ATOM     17  C   UNL     1       2.473   5.037   6.330  1.00  0.00     0.138 C 
ATOM     18  C   UNL     1       4.319   5.756   4.833  1.00  0.00     0.138 C 
BRANCH  14  19
ATOM     19  C   UNL     1       1.723   4.182   2.963  1.00  0.00     0.037 A 
ATOM     20  C   UNL     1       0.902   2.269   1.062  1.00  0.00     0.017 A 
ATOM     21  C   UNL     1      -0.005   3.212   1.552  1.00  0.00     0.014 A 
ATOM     22  C   UNL     1       2.219   2.276   1.524  1.00  0.00     0.014 A 
ATOM     23  C   UNL     1       0.402   4.146   2.507  1.00  0.00     0.026 A 
ATOM     24  C   UNL     1       2.622   3.235   2.457  1.00  0.00     0.026 A 
BRANCH  20  25
ATOM     25  C   UNL     1       0.428   1.291   0.048  1.00  0.00     0.159 C 
ATOM     26  C   UNL     1       1.107  -0.051  -0.030  1.00  0.00     0.093 C 
ATOM     27  O   UNL     1      -0.527   1.574  -0.671  1.00  0.00    -0.295 OA
ENDBRANCH  20  25
ENDBRANCH  14  19
ENDBRANCH   8  13
BRANCH  10  28
ATOM     28  N   UNL     1       3.983   8.704   5.811  1.00  0.00    -0.277 N 
ATOM     29  H   UNL     1       3.304   8.194   5.312  1.00  0.00     0.180 HD
BRANCH  28  30
ATOM     30  S   UNL     1       4.170  10.293   5.368  1.00  0.00     0.261 S 
ATOM     31  O   UNL     1       5.516  10.446   4.858  1.00  0.00    -0.201 OA
ATOM     32  O   UNL     1       3.015  10.630   4.565  1.00  0.00    -0.201 OA
BRANCH  30  33
ATOM     33  C   UNL     1       4.077  11.316   6.828  1.00  0.00     0.087 A 
ATOM     34  C   UNL     1       3.204  10.806   8.308  1.00  0.00     0.022 A 
ATOM     35  C   UNL     1       5.205  12.729   6.874  1.00  0.00     0.022 A 
ATOM     36  C   UNL     1       3.346  11.793   9.823  1.00  0.00     0.005 A 
ATOM     37  C   UNL     1       5.376  13.704   8.377  1.00  0.00     0.005 A 
ATOM     38  C   UNL     1       4.490  13.203   9.881  1.00  0.00    -0.051 A 
ATOM     39  C   UNL     1       4.813  13.847  11.195  1.00  0.00     0.044 C 
ENDBRANCH  30  33
ENDBRANCH  28  30
ENDBRANCH  10  28
ENDBRANCH   4   7
ENDBRANCH   2   3
ENDBRANCH   1   2
BRANCH   1  40
ATOM     40  C   UNL     1       2.694  14.369   8.708  1.00  0.00     0.023 C 
BRANCH  40  41
ATOM     41  C   UNL     1       3.359  15.746   8.556  1.00  0.00     0.116 C 
BRANCH  41  42
ATOM     42  N   UNL     1       3.853  16.026   7.220  1.00  0.00    -0.352 N 
ATOM     43  C   UNL     1       4.644  17.073   6.821  1.00  0.00     0.251 C 
ATOM     44  H   UNL     1       3.590  15.388   6.517  1.00  0.00     0.163 HD
ATOM     45  O   UNL     1       4.941  17.236   5.643  1.00  0.00    -0.269 OA
BRANCH  43  46
ATOM     46  C   UNL     1       5.101  18.045   7.831  1.00  0.00     0.039 A 
ATOM     47  C   UNL     1       4.628  19.354   7.751  1.00  0.00     0.014 A 
ATOM     48  C   UNL     1       5.993  17.671   8.840  1.00  0.00     0.014 A 
ATOM     49  C   UNL     1       5.037  20.288   8.699  1.00  0.00     0.010 A 
ATOM     50  C   UNL     1       6.355  18.592   9.823  1.00  0.00     0.010 A 
ATOM     51  C   UNL     1       5.897  19.915   9.748  1.00  0.00    -0.014 A 
BRANCH  51  52
ATOM     52  C   UNL     1       6.340  20.939  10.726  1.00  0.00     0.031 A 
ATOM     53  C   UNL     1       7.767  21.414  10.731  1.00  0.00     0.074 A 
ATOM     54  C   UNL     1       5.445  21.477  11.575  1.00  0.00     0.049 A 
ATOM     55  N   UNL     1       8.301  22.410  11.392  1.00  0.00    -0.248 NA
ATOM     56  C   UNL     1       8.721  20.669   9.895  1.00  0.00     0.031 C 
ATOM     57  C   UNL     1       4.043  21.070  11.695  1.00  0.00     0.029 A 
ATOM     58  N   UNL     1       5.572  22.503  12.477  1.00  0.00    -0.354 N 
ATOM     59  C   UNL     1       9.646  22.415  11.044  1.00  0.00     0.074 A 
ATOM     60  C   UNL     1       9.861  21.285  10.168  1.00  0.00     0.031 C 
ATOM     61  C   UNL     1       3.426  21.875  12.575  1.00  0.00     0.029 A 
ATOM     62  C   UNL     1       4.392  22.839  13.095  1.00  0.00     0.049 A 
ATOM     63  H   UNL     1       6.426  22.956  12.663  1.00  0.00     0.167 HD
ATOM     64  C   UNL     1      10.612  23.297  11.398  1.00  0.00     0.031 A 
ATOM     65  C   UNL     1       4.114  23.830  13.963  1.00  0.00     0.031 A 
ATOM     66  C   UNL     1      10.398  24.414  12.278  1.00  0.00     0.049 A 
ATOM     67  C   UNL     1       5.203  24.795  14.344  1.00  0.00     0.074 A 
ATOM     68  C   UNL     1      11.300  25.384  12.678  1.00  0.00     0.029 A 
ATOM     69  N   UNL     1       9.194  24.706  12.900  1.00  0.00    -0.354 N 
ATOM     70  N   UNL     1       6.451  24.835  13.943  1.00  0.00    -0.248 NA
ATOM     71  C   UNL     1       4.835  25.867  15.279  1.00  0.00     0.031 C 
ATOM     72  C   UNL     1      10.654  26.234  13.583  1.00  0.00     0.029 A 
ATOM     73  C   UNL     1       9.333  25.831  13.696  1.00  0.00     0.049 A 
ATOM     74  H   UNL     1       8.362  24.191  12.792  1.00  0.00     0.167 HD
ATOM     75  C   UNL     1       7.008  25.955  14.549  1.00  0.00     0.074 A 
ATOM     76  C   UNL     1       5.954  26.575  15.327  1.00  0.00     0.031 C 
ATOM     77  C   UNL     1       8.275  26.430  14.467  1.00  0.00     0.031 A 
BRANCH  64  78
ATOM     78  C   UNL     1      11.989  23.073  10.835  1.00  0.00    -0.014 A 
ATOM     79  C   UNL     1      12.255  23.258   9.468  1.00  0.00     0.009 A 
ATOM     80  C   UNL     1      13.039  22.689  11.682  1.00  0.00     0.009 A 
ATOM     81  C   UNL     1      13.532  23.021   8.955  1.00  0.00     0.001 A 
ATOM     82  C   UNL     1      14.323  22.483  11.173  1.00  0.00     0.001 A 
ATOM     83  C   UNL     1      14.566  22.638   9.809  1.00  0.00     0.000 A 
ENDBRANCH  64  78
BRANCH  65  84
ATOM     84  C   UNL     1       2.735  23.990  14.499  1.00  0.00    -0.014 A 
ATOM     85  C   UNL     1       1.944  25.090  14.131  1.00  0.00     0.009 A 
ATOM     86  C   UNL     1       2.208  23.049  15.398  1.00  0.00     0.009 A 
ATOM     87  C   UNL     1       0.669  25.261  14.677  1.00  0.00     0.001 A 
ATOM     88  C   UNL     1       0.922  23.206  15.917  1.00  0.00     0.001 A 
ATOM     89  C   UNL     1       0.158  24.318  15.566  1.00  0.00     0.000 A 
ENDBRANCH  65  84
BRANCH  77  90
ATOM     90  C   UNL     1       8.576  27.704  15.209  1.00  0.00    -0.014 A 
ATOM     91  C   UNL     1       8.618  27.746  16.611  1.00  0.00     0.009 A 
ATOM     92  C   UNL     1       8.839  28.878  14.486  1.00  0.00     0.009 A 
ATOM     93  C   UNL     1       8.869  28.949  17.274  1.00  0.00     0.001 A 
ATOM     94  C   UNL     1       9.123  30.072  15.150  1.00  0.00     0.001 A 
ATOM     95  C   UNL     1       9.124  30.109  16.544  1.00  0.00     0.000 A 
ENDBRANCH  77  90
ENDBRANCH  51  52
ENDBRANCH  43  46
ENDBRANCH  41  42
ENDBRANCH  40  41
ENDBRANCH   1  40
TORSDOF 17
