REMARK SMILES Cc1ccc2c(c1)C=C(C(=O)NCCCCNC(=O)c1ccc(-c3c4nc(c(-c5ccccc5)c5ccc([nH]5)c(-c5ccccc5)c5nc(c(-c6ccccc6)c6ccc3[nH]6)C=C5)C=C4)cc1)[C@@H](C(F)(F)F)O2
REMARK SMILES IDX 15 1 14 2 13 3 12 4 10 5 11 6 9 8 1 9 2 10 3 11 7 12 4 13
REMARK SMILES IDX 6 14 5 15 8 16 73 17 68 18 69 19 70 20 71 21 72 22 16 23
REMARK SMILES IDX 17 24 18 25 19 27 20 28 21 29 67 30 22 31 66 32 23 33 24 34
REMARK SMILES IDX 25 35 60 36 26 37 65 38 59 39 61 40 27 41 64 42 58 43 57 44
REMARK SMILES IDX 28 46 50 47 35 48 49 49 36 50 39 51 48 52 62 53 37 54 38 55
REMARK SMILES IDX 47 57 63 58 40 59 29 60 30 61 34 62 31 63 33 64 32 65 51 66
REMARK SMILES IDX 52 67 56 68 53 69 55 70 54 71 41 72 42 73 46 74 43 75 45 76
REMARK SMILES IDX 44 77
REMARK H PARENT 12 7 17 26 61 45 39 56
REMARK Flexibility Score: inf
ROOT
ATOM      1  C   UNL     1       1.335  10.898   1.795  1.00  0.00     0.023 C 
ENDROOT
BRANCH   1   2
ATOM      2  C   UNL     1       0.570   9.580   1.643  1.00  0.00     0.023 C 
BRANCH   2   3
ATOM      3  C   UNL     1       0.458   9.079   0.206  1.00  0.00     0.116 C 
BRANCH   3   4
ATOM      4  N   UNL     1       1.640   8.346  -0.211  1.00  0.00    -0.352 N 
ATOM      5  C   UNL     1       1.995   7.047  -0.359  1.00  0.00     0.251 C 
ATOM      6  O   UNL     1       3.153   6.866  -0.750  1.00  0.00    -0.270 OA
ATOM      7  H   UNL     1       2.378   8.952  -0.449  1.00  0.00     0.163 HD
BRANCH   5   8
ATOM      8  C   UNL     1       1.113   5.872  -0.091  1.00  0.00     0.067 C 
ATOM      9  C   UNL     1       1.221  -0.321  -0.182  1.00  0.00     0.044 C 
ATOM     10  C   UNL     1       0.677   1.048   0.105  1.00  0.00    -0.050 A 
ATOM     11  C   UNL     1      -0.624   1.196   0.601  1.00  0.00     0.007 A 
ATOM     12  C   UNL     1       1.443   2.193  -0.164  1.00  0.00     0.015 A 
ATOM     13  C   UNL     1      -1.145   2.466   0.845  1.00  0.00     0.047 A 
ATOM     14  C   UNL     1       0.920   3.469   0.075  1.00  0.00     0.017 A 
ATOM     15  C   UNL     1      -0.376   3.594   0.574  1.00  0.00     0.128 A 
ATOM     16  C   UNL     1       1.716   4.669  -0.149  1.00  0.00     0.025 C 
ATOM     17  O   UNL     1      -0.939   4.804   0.859  1.00  0.00    -0.475 OA
ATOM     18  C   UNL     1      -0.363   5.956   0.182  1.00  0.00     0.314 C 
BRANCH  18  19
ATOM     19  C   UNL     1      -1.183   6.260  -1.086  1.00  0.00     0.429 C 
ATOM     20  F   UNL     1      -2.439   6.652  -0.753  1.00  0.00    -0.167 F 
ATOM     21  F   UNL     1      -0.652   7.268  -1.818  1.00  0.00    -0.167 F 
ATOM     22  F   UNL     1      -1.295   5.194  -1.908  1.00  0.00    -0.167 F 
ENDBRANCH  18  19
ENDBRANCH   5   8
ENDBRANCH   3   4
ENDBRANCH   2   3
ENDBRANCH   1   2
BRANCH   1  23
ATOM     23  C   UNL     1       0.808  12.065   0.962  1.00  0.00     0.116 C 
BRANCH  23  24
ATOM     24  N   UNL     1      -0.614  12.333   1.130  1.00  0.00    -0.352 N 
ATOM     25  C   UNL     1      -1.273  13.528   0.937  1.00  0.00     0.251 C 
ATOM     26  H   UNL     1      -1.170  11.572   1.415  1.00  0.00     0.163 HD
ATOM     27  O   UNL     1      -2.471  13.637   1.169  1.00  0.00    -0.269 OA
BRANCH  25  28
ATOM     28  C   UNL     1      -0.484  14.696   0.503  1.00  0.00     0.039 A 
ATOM     29  C   UNL     1       0.328  14.608  -0.629  1.00  0.00     0.014 A 
ATOM     30  C   UNL     1      -0.462  15.835   1.312  1.00  0.00     0.014 A 
ATOM     31  C   UNL     1       1.295  15.581  -0.848  1.00  0.00     0.010 A 
ATOM     32  C   UNL     1       0.462  16.846   1.046  1.00  0.00     0.010 A 
ATOM     33  C   UNL     1       1.390  16.694   0.004  1.00  0.00    -0.014 A 
BRANCH  33  34
ATOM     34  C   UNL     1       2.502  17.658  -0.186  1.00  0.00     0.031 A 
ATOM     35  C   UNL     1       3.602  17.769   0.835  1.00  0.00     0.074 A 
ATOM     36  C   UNL     1       2.564  18.373  -1.325  1.00  0.00     0.049 A 
ATOM     37  N   UNL     1       4.676  18.519   0.808  1.00  0.00    -0.248 NA
ATOM     38  C   UNL     1       3.490  16.931   2.040  1.00  0.00     0.031 C 
ATOM     39  C   UNL     1       1.576  18.323  -2.404  1.00  0.00     0.029 A 
ATOM     40  N   UNL     1       3.517  19.247  -1.780  1.00  0.00    -0.354 N 
ATOM     41  C   UNL     1       5.351  18.261   1.994  1.00  0.00     0.074 A 
ATOM     42  C   UNL     1       4.560  17.299   2.731  1.00  0.00     0.031 C 
ATOM     43  C   UNL     1       2.008  19.078  -3.425  1.00  0.00     0.029 A 
ATOM     44  C   UNL     1       3.269  19.710  -3.049  1.00  0.00     0.049 A 
ATOM     45  H   UNL     1       4.302  19.515  -1.250  1.00  0.00     0.167 HD
ATOM     46  C   UNL     1       6.527  18.773   2.428  1.00  0.00     0.031 A 
ATOM     47  C   UNL     1       3.974  20.552  -3.826  1.00  0.00     0.031 A 
ATOM     48  C   UNL     1       7.322  19.718   1.690  1.00  0.00     0.049 A 
ATOM     49  C   UNL     1       5.252  21.139  -3.306  1.00  0.00     0.074 A 
ATOM     50  C   UNL     1       8.532  20.287   2.048  1.00  0.00     0.029 A 
ATOM     51  N   UNL     1       6.991  20.226   0.445  1.00  0.00    -0.354 N 
ATOM     52  N   UNL     1       5.863  20.901  -2.171  1.00  0.00    -0.248 NA
ATOM     53  C   UNL     1       5.931  22.118  -4.166  1.00  0.00     0.031 C 
ATOM     54  C   UNL     1       8.913  21.173   1.036  1.00  0.00     0.029 A 
ATOM     55  C   UNL     1       7.964  21.118   0.028  1.00  0.00     0.049 A 
ATOM     56  H   UNL     1       6.185  19.988  -0.068  1.00  0.00     0.167 HD
ATOM     57  C   UNL     1       6.997  21.701  -2.179  1.00  0.00     0.074 A 
ATOM     58  C   UNL     1       7.002  22.413  -3.440  1.00  0.00     0.031 C 
ATOM     59  C   UNL     1       7.946  21.833  -1.221  1.00  0.00     0.031 A 
BRANCH  46  60
ATOM     60  C   UNL     1       7.024  18.339   3.777  1.00  0.00    -0.014 A 
ATOM     61  C   UNL     1       6.987  19.240   4.854  1.00  0.00     0.009 A 
ATOM     62  C   UNL     1       7.593  17.071   3.970  1.00  0.00     0.009 A 
ATOM     63  C   UNL     1       7.513  18.881   6.096  1.00  0.00     0.001 A 
ATOM     64  C   UNL     1       8.098  16.707   5.220  1.00  0.00     0.001 A 
ATOM     65  C   UNL     1       8.064  17.614   6.279  1.00  0.00     0.000 A 
ENDBRANCH  46  60
BRANCH  47  66
ATOM     66  C   UNL     1       3.471  20.873  -5.184  1.00  0.00    -0.014 A 
ATOM     67  C   UNL     1       2.328  21.673  -5.349  1.00  0.00     0.009 A 
ATOM     68  C   UNL     1       4.088  20.324  -6.317  1.00  0.00     0.009 A 
ATOM     69  C   UNL     1       1.796  21.893  -6.620  1.00  0.00     0.001 A 
ATOM     70  C   UNL     1       3.567  20.566  -7.590  1.00  0.00     0.001 A 
ATOM     71  C   UNL     1       2.417  21.341  -7.739  1.00  0.00     0.000 A 
ENDBRANCH  47  66
BRANCH  59  72
ATOM     72  C   UNL     1       9.071  22.788  -1.489  1.00  0.00    -0.014 A 
ATOM     73  C   UNL     1      10.351  22.295  -1.787  1.00  0.00     0.009 A 
ATOM     74  C   UNL     1       8.882  24.172  -1.365  1.00  0.00     0.009 A 
ATOM     75  C   UNL     1      11.425  23.172  -1.948  1.00  0.00     0.001 A 
ATOM     76  C   UNL     1       9.954  25.048  -1.547  1.00  0.00     0.001 A 
ATOM     77  C   UNL     1      11.224  24.547  -1.831  1.00  0.00     0.000 A 
ENDBRANCH  59  72
ENDBRANCH  33  34
ENDBRANCH  25  28
ENDBRANCH  23  24
ENDBRANCH   1  23
TORSDOF 12
