REMARK SMILES CC(C)N(C(=O)c1c(C(=O)NCCCCNC(=O)c2ccc(-c3c4nc(c(-c5ccccc5)c5ccc([nH]5)c(-c5ccccc5)c5nc(c(-c6ccccc6)c6ccc3[nH]6)C=C5)C=C4)cc2)cnn1C)C(C)C
REMARK SMILES IDX 13 1 12 2 11 3 9 4 10 5 8 7 7 8 69 9 67 10 68 11 70 12 5 13
REMARK SMILES IDX 4 14 6 15 2 16 1 17 3 18 71 19 72 20 73 21 14 22 15 23 16 24
REMARK SMILES IDX 17 25 18 27 19 28 20 29 66 30 21 31 65 32 22 33 23 34 24 35
REMARK SMILES IDX 59 36 25 37 64 38 58 39 60 40 26 41 63 42 57 43 56 44 27 46
REMARK SMILES IDX 49 47 34 48 48 49 35 50 38 51 47 52 61 53 36 54 37 55 46 57
REMARK SMILES IDX 62 58 39 59 28 60 29 61 33 62 30 63 32 64 31 65 50 66 51 67
REMARK SMILES IDX 55 68 52 69 54 70 53 71 40 72 41 73 45 74 42 75 44 76 43 77
REMARK H PARENT 11 6 16 26 60 45 38 56
REMARK Flexibility Score: inf
ROOT
ATOM      1  C   UNL     1      -3.028   1.494  -1.453  1.00  0.00     0.023 C 
ENDROOT
BRANCH   1   2
ATOM      2  C   UNL     1      -2.900   0.076  -1.986  1.00  0.00     0.116 C 
BRANCH   2   3
ATOM      3  N   UNL     1      -2.864  -0.041  -3.414  1.00  0.00    -0.352 N 
ATOM      4  C   UNL     1      -2.074  -0.808  -4.232  1.00  0.00     0.255 C 
ATOM      5  O   UNL     1      -2.260  -0.631  -5.441  1.00  0.00    -0.269 OA
ATOM      6  H   UNL     1      -3.515   0.525  -3.888  1.00  0.00     0.163 HD
BRANCH   4   7
ATOM      7  C   UNL     1      -1.046  -1.756  -3.792  1.00  0.00     0.090 A 
ATOM      8  C   UNL     1      -0.725  -2.431  -2.607  1.00  0.00     0.138 A 
ATOM      9  N   UNL     1       0.265  -3.327  -2.953  1.00  0.00    -0.262 N 
ATOM     10  C   UNL     1      -0.076  -2.251  -4.714  1.00  0.00     0.149 A 
ATOM     11  N   UNL     1       0.748  -3.153  -4.191  1.00  0.00    -0.180 NA
ATOM     12  C   UNL     1       0.837  -4.383  -2.148  1.00  0.00     0.174 C 
BRANCH   8  13
ATOM     13  C   UNL     1      -1.345  -2.425  -1.303  1.00  0.00     0.273 C 
ATOM     14  N   UNL     1      -0.679  -1.760  -0.231  1.00  0.00    -0.332 N 
ATOM     15  O   UNL     1      -2.464  -2.911  -1.155  1.00  0.00    -0.267 OA
BRANCH  14  16
ATOM     16  C   UNL     1       0.775  -1.431  -0.263  1.00  0.00     0.079 C 
ATOM     17  C   UNL     1       1.119   0.058  -0.213  1.00  0.00     0.031 C 
ATOM     18  C   UNL     1       1.569  -2.224   0.776  1.00  0.00     0.031 C 
ENDBRANCH  14  16
BRANCH  14  19
ATOM     19  C   UNL     1      -1.521  -1.501   0.973  1.00  0.00     0.079 C 
ATOM     20  C   UNL     1      -1.502  -2.660   1.969  1.00  0.00     0.031 C 
ATOM     21  C   UNL     1      -1.288  -0.173   1.692  1.00  0.00     0.031 C 
ENDBRANCH  14  19
ENDBRANCH   8  13
ENDBRANCH   4   7
ENDBRANCH   2   3
ENDBRANCH   1   2
BRANCH   1  22
ATOM     22  C   UNL     1      -4.382   2.164  -1.593  1.00  0.00     0.023 C 
BRANCH  22  23
ATOM     23  C   UNL     1      -5.582   1.362  -1.104  1.00  0.00     0.116 C 
BRANCH  23  24
ATOM     24  N   UNL     1      -5.445   0.821   0.244  1.00  0.00    -0.352 N 
ATOM     25  C   UNL     1      -6.268   0.952   1.344  1.00  0.00     0.251 C 
ATOM     26  H   UNL     1      -4.638   0.276   0.392  1.00  0.00     0.163 HD
ATOM     27  O   UNL     1      -5.953   0.462   2.416  1.00  0.00    -0.269 OA
BRANCH  25  28
ATOM     28  C   UNL     1      -7.511   1.745   1.224  1.00  0.00     0.039 A 
ATOM     29  C   UNL     1      -7.766   2.745   2.165  1.00  0.00     0.014 A 
ATOM     30  C   UNL     1      -8.370   1.560   0.140  1.00  0.00     0.014 A 
ATOM     31  C   UNL     1      -8.810   3.645   1.945  1.00  0.00     0.010 A 
ATOM     32  C   UNL     1      -9.342   2.515  -0.129  1.00  0.00     0.010 A 
ATOM     33  C   UNL     1      -9.560   3.579   0.759  1.00  0.00    -0.014 A 
BRANCH  33  34
ATOM     34  C   UNL     1     -10.548   4.630   0.404  1.00  0.00     0.031 A 
ATOM     35  C   UNL     1     -11.992   4.269   0.196  1.00  0.00     0.074 A 
ATOM     36  C   UNL     1     -10.128   5.889   0.169  1.00  0.00     0.049 A 
ATOM     37  N   UNL     1     -12.980   5.024  -0.215  1.00  0.00    -0.248 NA
ATOM     38  C   UNL     1     -12.370   2.869   0.448  1.00  0.00     0.031 C 
ATOM     39  C   UNL     1      -8.744   6.360   0.273  1.00  0.00     0.029 A 
ATOM     40  N   UNL     1     -10.826   7.006  -0.219  1.00  0.00    -0.354 N 
ATOM     41  C   UNL     1     -14.083   4.185  -0.298  1.00  0.00     0.074 A 
ATOM     42  C   UNL     1     -13.635   2.856   0.057  1.00  0.00     0.031 C 
ATOM     43  C   UNL     1      -8.702   7.673  -0.008  1.00  0.00     0.029 A 
ATOM     44  C   UNL     1     -10.044   8.127  -0.354  1.00  0.00     0.049 A 
ATOM     45  H   UNL     1     -11.797   7.003  -0.385  1.00  0.00     0.167 HD
ATOM     46  C   UNL     1     -15.362   4.494  -0.618  1.00  0.00     0.031 A 
ATOM     47  C   UNL     1     -10.368   9.382  -0.719  1.00  0.00     0.031 A 
ATOM     48  C   UNL     1     -15.818   5.817  -0.943  1.00  0.00     0.049 A 
ATOM     49  C   UNL     1     -11.797   9.703  -1.054  1.00  0.00     0.074 A 
ATOM     50  C   UNL     1     -17.107   6.244  -1.210  1.00  0.00     0.029 A 
ATOM     51  N   UNL     1     -14.998   6.930  -1.042  1.00  0.00    -0.354 N 
ATOM     52  N   UNL     1     -12.842   8.912  -1.058  1.00  0.00    -0.248 NA
ATOM     53  C   UNL     1     -12.091  11.094  -1.429  1.00  0.00     0.031 C 
ATOM     54  C   UNL     1     -17.061   7.610  -1.509  1.00  0.00     0.029 A 
ATOM     55  C   UNL     1     -15.750   8.040  -1.384  1.00  0.00     0.049 A 
ATOM     56  H   UNL     1     -14.024   6.930  -0.892  1.00  0.00     0.167 HD
ATOM     57  C   UNL     1     -13.920   9.712  -1.412  1.00  0.00     0.074 A 
ATOM     58  C   UNL     1     -13.405  11.053  -1.599  1.00  0.00     0.031 C 
ATOM     59  C   UNL     1     -15.221   9.366  -1.567  1.00  0.00     0.031 A 
BRANCH  46  60
ATOM     60  C   UNL     1     -16.359   3.370  -0.625  1.00  0.00    -0.014 A 
ATOM     61  C   UNL     1     -16.782   2.768   0.571  1.00  0.00     0.009 A 
ATOM     62  C   UNL     1     -16.896   2.919  -1.840  1.00  0.00     0.009 A 
ATOM     63  C   UNL     1     -17.693   1.710   0.547  1.00  0.00     0.001 A 
ATOM     64  C   UNL     1     -17.829   1.880  -1.859  1.00  0.00     0.001 A 
ATOM     65  C   UNL     1     -18.218   1.270  -0.667  1.00  0.00     0.000 A 
ENDBRANCH  46  60
BRANCH  47  66
ATOM     66  C   UNL     1      -9.326  10.440  -0.763  1.00  0.00    -0.014 A 
ATOM     67  C   UNL     1      -9.298  11.445   0.215  1.00  0.00     0.009 A 
ATOM     68  C   UNL     1      -8.361  10.456  -1.782  1.00  0.00     0.009 A 
ATOM     69  C   UNL     1      -8.340  12.460   0.161  1.00  0.00     0.001 A 
ATOM     70  C   UNL     1      -7.389  11.458  -1.820  1.00  0.00     0.001 A 
ATOM     71  C   UNL     1      -7.384  12.463  -0.854  1.00  0.00     0.000 A 
ENDBRANCH  47  66
BRANCH  59  72
ATOM     72  C   UNL     1     -16.180  10.461  -1.932  1.00  0.00    -0.014 A 
ATOM     73  C   UNL     1     -16.214  10.994  -3.229  1.00  0.00     0.009 A 
ATOM     74  C   UNL     1     -17.090  10.936  -0.974  1.00  0.00     0.009 A 
ATOM     75  C   UNL     1     -17.123  12.003  -3.552  1.00  0.00     0.001 A 
ATOM     76  C   UNL     1     -18.014  11.927  -1.307  1.00  0.00     0.001 A 
ATOM     77  C   UNL     1     -18.024  12.465  -2.593  1.00  0.00     0.000 A 
ENDBRANCH  59  72
ENDBRANCH  33  34
ENDBRANCH  25  28
ENDBRANCH  23  24
ENDBRANCH  22  23
ENDBRANCH   1  22
TORSDOF 14
