REMARK SMILES O=C(CCn1cc(Cl)c([N+](=O)[O-])n1)NCCCCNC(=O)c1ccc(-c2c3nc(c(-c4ccccc4)c4ccc([nH]4)c(-c4ccccc4)c4nc(c(-c5ccccc5)c5ccc2[nH]5)C=C4)C=C3)cc1
REMARK SMILES IDX 16 1 15 2 14 3 1 4 2 5 3 7 4 8 5 9 6 10 13 11 7 12 9 13 8 14
REMARK SMILES IDX 10 15 11 16 12 17 17 18 18 19 19 20 20 21 21 23 22 24 23 25
REMARK SMILES IDX 69 26 24 27 68 28 25 29 26 30 27 31 62 32 28 33 67 34 61 35
REMARK SMILES IDX 63 36 29 37 66 38 60 39 59 40 30 42 52 43 37 44 51 45 38 46
REMARK SMILES IDX 41 47 50 48 64 49 39 50 40 51 49 53 65 54 42 55 31 56 32 57
REMARK SMILES IDX 36 58 33 59 35 60 34 61 53 62 54 63 58 64 55 65 57 66 56 67
REMARK SMILES IDX 43 68 44 69 48 70 45 71 47 72 46 73
REMARK H PARENT 14 6 19 22 63 41 41 52
REMARK Flexibility Score: inf
ROOT
ATOM      1  C   UNL     1       2.142   3.709   0.438  1.00  0.00     0.023 C 
ENDROOT
BRANCH   1   2
ATOM      2  C   UNL     1       1.846   2.366  -0.242  1.00  0.00     0.116 C 
BRANCH   2   3
ATOM      3  N   UNL     1       2.502   1.220   0.370  1.00  0.00    -0.356 N 
ATOM      4  O   UNL     1       1.220  -0.323  -0.748  1.00  0.00    -0.275 OA
ATOM      5  C   UNL     1       2.170  -0.065  -0.016  1.00  0.00     0.221 C 
ATOM      6  H   UNL     1       3.186   1.361   1.063  1.00  0.00     0.163 HD
BRANCH   5   7
ATOM      7  C   UNL     1       3.135  -1.143   0.429  1.00  0.00     0.125 C 
BRANCH   7   8
ATOM      8  C   UNL     1       3.849  -1.734  -0.793  1.00  0.00     0.179 C 
BRANCH   8   9
ATOM      9  N   UNL     1       4.993  -0.949  -1.245  1.00  0.00    -0.178 N 
ATOM     10  C   UNL     1       5.072   0.406  -1.370  1.00  0.00     0.161 A 
ATOM     11  N   UNL     1       6.166  -1.559  -1.516  1.00  0.00     0.061 NA
ATOM     12  C   UNL     1       6.409   0.709  -1.428  1.00  0.00     0.160 A 
ATOM     13  C   UNL     1       7.036  -0.533  -1.644  1.00  0.00     0.408 A 
ATOM     14  Cl  UNL     1       7.061   2.258  -1.272  1.00  0.00    -0.073 Cl
BRANCH  13  15
ATOM     15  N   UNL     1       8.419  -0.821  -1.970  1.00  0.00    -0.020 N 
ATOM     16  O   UNL     1       9.192   0.147  -2.029  1.00  0.00    -0.358 OA
ATOM     17  O   UNL     1       8.741  -1.995  -2.196  1.00  0.00    -0.358 OA
ENDBRANCH  13  15
ENDBRANCH   8   9
ENDBRANCH   7   8
ENDBRANCH   5   7
ENDBRANCH   2   3
ENDBRANCH   1   2
BRANCH   1  18
ATOM     18  C   UNL     1       3.605   4.180   0.458  1.00  0.00     0.023 C 
BRANCH  18  19
ATOM     19  C   UNL     1       4.192   4.521  -0.904  1.00  0.00     0.116 C 
BRANCH  19  20
ATOM     20  N   UNL     1       3.703   5.767  -1.493  1.00  0.00    -0.352 N 
ATOM     21  C   UNL     1       4.204   6.420  -2.616  1.00  0.00     0.251 C 
ATOM     22  H   UNL     1       2.935   6.190  -1.046  1.00  0.00     0.163 HD
ATOM     23  O   UNL     1       3.974   7.601  -2.815  1.00  0.00    -0.269 OA
BRANCH  21  24
ATOM     24  C   UNL     1       5.017   5.646  -3.581  1.00  0.00     0.039 A 
ATOM     25  C   UNL     1       6.112   6.194  -4.260  1.00  0.00     0.014 A 
ATOM     26  C   UNL     1       4.653   4.324  -3.800  1.00  0.00     0.014 A 
ATOM     27  C   UNL     1       6.864   5.374  -5.106  1.00  0.00     0.010 A 
ATOM     28  C   UNL     1       5.502   3.480  -4.460  1.00  0.00     0.010 A 
ATOM     29  C   UNL     1       6.554   4.009  -5.195  1.00  0.00    -0.014 A 
BRANCH  29  30
ATOM     30  C   UNL     1       7.333   3.071  -5.998  1.00  0.00     0.031 A 
ATOM     31  C   UNL     1       8.786   3.010  -5.681  1.00  0.00     0.074 A 
ATOM     32  C   UNL     1       6.739   2.141  -6.784  1.00  0.00     0.049 A 
ATOM     33  N   UNL     1       9.782   3.276  -6.458  1.00  0.00    -0.248 NA
ATOM     34  C   UNL     1       9.184   2.699  -4.304  1.00  0.00     0.031 C 
ATOM     35  C   UNL     1       5.300   1.888  -6.978  1.00  0.00     0.029 A 
ATOM     36  N   UNL     1       7.306   1.128  -7.493  1.00  0.00    -0.354 N 
ATOM     37  C   UNL     1      10.934   2.984  -5.727  1.00  0.00     0.074 A 
ATOM     38  C   UNL     1      10.513   2.770  -4.369  1.00  0.00     0.031 C 
ATOM     39  C   UNL     1       5.118   0.676  -7.548  1.00  0.00     0.029 A 
ATOM     40  C   UNL     1       6.413   0.155  -7.934  1.00  0.00     0.049 A 
ATOM     41  H   UNL     1       8.272   1.086  -7.679  1.00  0.00     0.167 HD
ATOM     42  C   UNL     1      12.116   2.712  -6.345  1.00  0.00     0.031 A 
ATOM     43  C   UNL     1       6.711  -0.995  -8.586  1.00  0.00     0.031 A 
ATOM     44  C   UNL     1      12.097   3.128  -7.722  1.00  0.00     0.049 A 
ATOM     45  C   UNL     1       8.056  -0.819  -9.172  1.00  0.00     0.074 A 
ATOM     46  C   UNL     1      11.931   4.335  -8.369  1.00  0.00     0.029 A 
ATOM     47  N   UNL     1      11.838   2.156  -8.659  1.00  0.00    -0.354 N 
ATOM     48  N   UNL     1       8.309   0.031 -10.124  1.00  0.00    -0.248 NA
ATOM     49  C   UNL     1       9.204  -1.259  -8.400  1.00  0.00     0.031 C 
ATOM     50  C   UNL     1      11.112   4.033  -9.496  1.00  0.00     0.029 A 
ATOM     51  C   UNL     1      10.894   2.653  -9.519  1.00  0.00     0.049 A 
ATOM     52  H   UNL     1      12.254   1.265  -8.703  1.00  0.00     0.167 HD
ATOM     53  C   UNL     1       9.540   0.573  -9.788  1.00  0.00     0.074 A 
ATOM     54  C   UNL     1      10.093  -0.340  -8.787  1.00  0.00     0.031 C 
ATOM     55  C   UNL     1       9.863   1.852 -10.141  1.00  0.00     0.031 A 
BRANCH  42  56
ATOM     56  C   UNL     1      13.114   1.702  -5.835  1.00  0.00    -0.014 A 
ATOM     57  C   UNL     1      14.310   1.520  -6.554  1.00  0.00     0.009 A 
ATOM     58  C   UNL     1      12.802   0.726  -4.870  1.00  0.00     0.009 A 
ATOM     59  C   UNL     1      15.101   0.379  -6.378  1.00  0.00     0.001 A 
ATOM     60  C   UNL     1      13.611  -0.395  -4.663  1.00  0.00     0.001 A 
ATOM     61  C   UNL     1      14.745  -0.584  -5.440  1.00  0.00     0.000 A 
ENDBRANCH  42  56
BRANCH  43  62
ATOM     62  C   UNL     1       6.020  -2.300  -8.591  1.00  0.00    -0.014 A 
ATOM     63  C   UNL     1       6.217  -3.218  -9.635  1.00  0.00     0.009 A 
ATOM     64  C   UNL     1       5.392  -2.762  -7.420  1.00  0.00     0.009 A 
ATOM     65  C   UNL     1       5.840  -4.561  -9.494  1.00  0.00     0.001 A 
ATOM     66  C   UNL     1       5.019  -4.104  -7.279  1.00  0.00     0.001 A 
ATOM     67  C   UNL     1       5.257  -5.007  -8.310  1.00  0.00     0.000 A 
ENDBRANCH  43  62
BRANCH  55  68
ATOM     68  C   UNL     1       8.920   2.584 -11.070  1.00  0.00    -0.014 A 
ATOM     69  C   UNL     1       7.597   2.911 -10.719  1.00  0.00     0.009 A 
ATOM     70  C   UNL     1       9.436   3.107 -12.263  1.00  0.00     0.009 A 
ATOM     71  C   UNL     1       6.811   3.720 -11.547  1.00  0.00     0.001 A 
ATOM     72  C   UNL     1       8.659   3.932 -13.080  1.00  0.00     0.001 A 
ATOM     73  C   UNL     1       7.347   4.236 -12.725  1.00  0.00     0.000 A 
ENDBRANCH  55  68
ENDBRANCH  29  30
ENDBRANCH  21  24
ENDBRANCH  19  20
ENDBRANCH  18  19
ENDBRANCH   1  18
TORSDOF 14
