REMARK SMILES O=C(NCCCCNC(=O)c1cc(-c2cccc(Cl)c2)oc1C(F)(F)F)c1ccc(-c2c3nc(c(-c4ccccc4)c4ccc([nH]4)c(-c4ccccc4)c4nc(c(-c5ccccc5)c5ccc2[nH]5)C=C4)C=C3)cc1
REMARK SMILES IDX 5 1 4 2 3 3 1 4 2 5 27 7 28 8 74 9 29 10 73 11 30 12 31 13
REMARK SMILES IDX 32 14 67 15 33 16 72 17 66 18 68 19 34 20 71 21 65 22 64 23
REMARK SMILES IDX 35 25 57 26 42 27 56 28 43 29 46 30 55 31 69 32 44 33 45 34
REMARK SMILES IDX 54 36 70 37 47 38 36 39 37 40 41 41 38 42 40 43 39 44 58 45
REMARK SMILES IDX 59 46 63 47 60 48 62 49 61 50 48 51 49 52 53 53 50 54 52 55
REMARK SMILES IDX 51 56 6 57 7 58 8 59 9 60 10 62 11 63 12 64 22 65 13 66
REMARK SMILES IDX 21 67 23 68 24 69 25 70 26 71 14 72 15 73 20 74 16 75 18 76
REMARK SMILES IDX 17 77 19 78
REMARK H PARENT 3 6 68 24 46 35 8 61
REMARK Flexibility Score: inf
ROOT
ATOM      1  C   UNL     1       4.918   0.879   2.467  1.00  0.00     0.023 C 
ENDROOT
BRANCH   1   2
ATOM      2  C   UNL     1       4.556  -0.001   1.279  1.00  0.00     0.116 C 
BRANCH   2   3
ATOM      3  N   UNL     1       3.121  -0.174   1.115  1.00  0.00    -0.352 N 
ATOM      4  O   UNL     1       1.120  -0.013   0.082  1.00  0.00    -0.269 OA
ATOM      5  C   UNL     1       2.342   0.059   0.007  1.00  0.00     0.251 C 
ATOM      6  H   UNL     1       2.641  -0.505   1.908  1.00  0.00     0.163 HD
BRANCH   5   7
ATOM      7  C   UNL     1       2.985   0.426  -1.272  1.00  0.00     0.039 A 
ATOM      8  C   UNL     1       4.092  -0.285  -1.741  1.00  0.00     0.014 A 
ATOM      9  C   UNL     1       2.476   1.503  -2.003  1.00  0.00     0.014 A 
ATOM     10  C   UNL     1       4.776   0.167  -2.863  1.00  0.00     0.010 A 
ATOM     11  C   UNL     1       3.114   1.902  -3.179  1.00  0.00     0.010 A 
ATOM     12  C   UNL     1       4.286   1.255  -3.602  1.00  0.00    -0.014 A 
BRANCH  12  13
ATOM     13  C   UNL     1       4.971   1.657  -4.854  1.00  0.00     0.031 A 
ATOM     14  C   UNL     1       5.629   3.000  -4.988  1.00  0.00     0.074 A 
ATOM     15  C   UNL     1       4.989   0.789  -5.883  1.00  0.00     0.049 A 
ATOM     16  N   UNL     1       6.252   3.510  -6.020  1.00  0.00    -0.248 NA
ATOM     17  C   UNL     1       5.574   3.890  -3.818  1.00  0.00     0.031 C 
ATOM     18  C   UNL     1       4.373  -0.540  -5.875  1.00  0.00     0.029 A 
ATOM     19  N   UNL     1       5.545   0.892  -7.132  1.00  0.00    -0.354 N 
ATOM     20  C   UNL     1       6.643   4.787  -5.636  1.00  0.00     0.074 A 
ATOM     21  C   UNL     1       6.167   4.982  -4.283  1.00  0.00     0.031 C 
ATOM     22  C   UNL     1       4.606  -1.139  -7.051  1.00  0.00     0.029 A 
ATOM     23  C   UNL     1       5.330  -0.215  -7.916  1.00  0.00     0.049 A 
ATOM     24  H   UNL     1       6.048   1.681  -7.437  1.00  0.00     0.167 HD
ATOM     25  C   UNL     1       7.334   5.710  -6.348  1.00  0.00     0.031 A 
ATOM     26  C   UNL     1       5.650  -0.454  -9.200  1.00  0.00     0.031 A 
ATOM     27  C   UNL     1       7.798   5.511  -7.697  1.00  0.00     0.049 A 
ATOM     28  C   UNL     1       6.386   0.596  -9.977  1.00  0.00     0.074 A 
ATOM     29  C   UNL     1       8.549   6.367  -8.485  1.00  0.00     0.029 A 
ATOM     30  N   UNL     1       7.545   4.383  -8.463  1.00  0.00    -0.354 N 
ATOM     31  N   UNL     1       6.794   1.777  -9.581  1.00  0.00    -0.248 NA
ATOM     32  C   UNL     1       6.708   0.279 -11.374  1.00  0.00     0.031 C 
ATOM     33  C   UNL     1       8.698   5.782  -9.747  1.00  0.00     0.029 A 
ATOM     34  C   UNL     1       8.093   4.535  -9.726  1.00  0.00     0.049 A 
ATOM     35  H   UNL     1       7.049   3.591  -8.154  1.00  0.00     0.167 HD
ATOM     36  C   UNL     1       7.433   2.341 -10.676  1.00  0.00     0.074 A 
ATOM     37  C   UNL     1       7.375   1.363 -11.745  1.00  0.00     0.031 C 
ATOM     38  C   UNL     1       8.016   3.560 -10.784  1.00  0.00     0.031 A 
BRANCH  25  39
ATOM     39  C   UNL     1       7.595   7.038  -5.692  1.00  0.00    -0.014 A 
ATOM     40  C   UNL     1       8.502   7.167  -4.628  1.00  0.00     0.009 A 
ATOM     41  C   UNL     1       6.942   8.187  -6.168  1.00  0.00     0.009 A 
ATOM     42  C   UNL     1       8.718   8.411  -4.029  1.00  0.00     0.001 A 
ATOM     43  C   UNL     1       7.181   9.433  -5.586  1.00  0.00     0.001 A 
ATOM     44  C   UNL     1       8.060   9.543  -4.510  1.00  0.00     0.000 A 
ENDBRANCH  25  39
BRANCH  26  45
ATOM     45  C   UNL     1       5.242  -1.738  -9.822  1.00  0.00    -0.014 A 
ATOM     46  C   UNL     1       6.190  -2.727 -10.118  1.00  0.00     0.009 A 
ATOM     47  C   UNL     1       3.884  -1.998 -10.077  1.00  0.00     0.009 A 
ATOM     48  C   UNL     1       5.788  -3.947 -10.666  1.00  0.00     0.001 A 
ATOM     49  C   UNL     1       3.483  -3.229 -10.597  1.00  0.00     0.001 A 
ATOM     50  C   UNL     1       4.436  -4.200 -10.897  1.00  0.00     0.000 A 
ENDBRANCH  26  45
BRANCH  38  51
ATOM     51  C   UNL     1       8.657   3.896 -12.100  1.00  0.00    -0.014 A 
ATOM     52  C   UNL     1       7.881   4.199 -13.230  1.00  0.00     0.009 A 
ATOM     53  C   UNL     1      10.056   3.952 -12.198  1.00  0.00     0.009 A 
ATOM     54  C   UNL     1       8.497   4.525 -14.440  1.00  0.00     0.001 A 
ATOM     55  C   UNL     1      10.668   4.304 -13.401  1.00  0.00     0.001 A 
ATOM     56  C   UNL     1       9.888   4.583 -14.523  1.00  0.00     0.000 A 
ENDBRANCH  38  51
ENDBRANCH  12  13
ENDBRANCH   5   7
ENDBRANCH   2   3
ENDBRANCH   1   2
BRANCH   1  57
ATOM     57  C   UNL     1       4.461   0.352   3.825  1.00  0.00     0.023 C 
BRANCH  57  58
ATOM     58  C   UNL     1       4.878  -1.083   4.131  1.00  0.00     0.116 C 
BRANCH  58  59
ATOM     59  N   UNL     1       6.324  -1.247   4.181  1.00  0.00    -0.352 N 
ATOM     60  C   UNL     1       7.109  -1.652   5.232  1.00  0.00     0.255 C 
ATOM     61  H   UNL     1       6.805  -1.040   3.347  1.00  0.00     0.163 HD
ATOM     62  O   UNL     1       8.331  -1.617   5.145  1.00  0.00    -0.269 OA
BRANCH  60  63
ATOM     63  C   UNL     1       6.432  -2.108   6.422  1.00  0.00     0.091 A 
ATOM     64  C   UNL     1       5.457  -3.137   6.539  1.00  0.00     0.065 A 
ATOM     65  C   UNL     1       6.602  -1.591   7.695  1.00  0.00     0.221 A 
ATOM     66  C   UNL     1       4.973  -3.071   7.823  1.00  0.00     0.135 A 
ATOM     67  O   UNL     1       5.676  -2.152   8.543  1.00  0.00    -0.451 OA
BRANCH  65  68
ATOM     68  C   UNL     1       7.493  -0.546   8.259  1.00  0.00     0.450 C 
ATOM     69  F   UNL     1       6.795   0.378   8.971  1.00  0.00    -0.163 F 
ATOM     70  F   UNL     1       8.422  -1.070   9.100  1.00  0.00    -0.163 F 
ATOM     71  F   UNL     1       8.167   0.146   7.307  1.00  0.00    -0.163 F 
ENDBRANCH  65  68
BRANCH  66  72
ATOM     72  C   UNL     1       3.865  -3.730   8.484  1.00  0.00     0.019 A 
ATOM     73  C   UNL     1       3.725  -5.122   8.399  1.00  0.00     0.012 A 
ATOM     74  C   UNL     1       2.866  -2.976   9.111  1.00  0.00     0.032 A 
ATOM     75  C   UNL     1       2.598  -5.753   8.928  1.00  0.00     0.002 A 
ATOM     76  C   UNL     1       1.736  -3.611   9.623  1.00  0.00     0.041 A 
ATOM     77  C   UNL     1       1.597  -4.995   9.534  1.00  0.00     0.020 A 
ATOM     78  Cl  UNL     1       0.482  -2.674  10.339  1.00  0.00    -0.084 Cl
ENDBRANCH  66  72
ENDBRANCH  60  63
ENDBRANCH  58  59
ENDBRANCH  57  58
ENDBRANCH   1  57
TORSDOF 13
