REMARK SMILES CCCCCCNC(=O)Oc1cccc(-c2ccc(CC(=O)NCCCCNC(=O)c3ccc(-c4c5nc(c(-c6ccccc6)c6ccc([nH]6)c(-c6ccccc6)c6nc(c(-c7ccccc7)c7ccc4[nH]7)C=C6)C=C5)cc3)cc2F)c1
REMARK SMILES IDX 20 1 19 2 16 3 17 4 80 5 18 6 79 7 81 8 15 9 11 10 12 11
REMARK SMILES IDX 82 12 13 13 14 14 10 15 8 16 7 17 9 19 6 20 5 21 4 22 3 23
REMARK SMILES IDX 2 24 1 25 21 26 22 27 23 28 24 30 25 31 26 32 27 33 28 34
REMARK SMILES IDX 29 35 30 37 31 38 32 39 78 40 33 41 77 42 34 43 35 44 36 45
REMARK SMILES IDX 71 46 37 47 76 48 70 49 72 50 38 51 75 52 69 53 68 54 39 56
REMARK SMILES IDX 61 57 46 58 60 59 47 60 50 61 59 62 73 63 48 64 49 65 58 67
REMARK SMILES IDX 74 68 51 69 40 70 41 71 45 72 42 73 44 74 43 75 62 76 63 77
REMARK SMILES IDX 67 78 64 79 66 80 65 81 52 82 53 83 57 84 54 85 56 86 55 87
REMARK H PARENT 7 18 23 29 28 36 72 55 50 66
REMARK Flexibility Score: inf
ROOT
ATOM      1  C   UNL     1      -4.107  -7.614 -11.525  1.00  0.00     0.135 C 
ENDROOT
BRANCH   1   2
ATOM      2  C   UNL     1      -4.286  -6.314 -10.781  1.00  0.00    -0.036 A 
ATOM      3  C   UNL     1      -4.744  -3.901  -9.362  1.00  0.00     0.018 A 
ATOM      4  C   UNL     1      -4.751  -3.927 -10.766  1.00  0.00     0.012 A 
ATOM      5  C   UNL     1      -4.476  -5.103  -8.693  1.00  0.00     0.131 A 
ATOM      6  C   UNL     1      -4.522  -5.116 -11.468  1.00  0.00     0.005 A 
ATOM      7  C   UNL     1      -4.236  -6.288  -9.383  1.00  0.00     0.044 A 
ATOM      8  F   UNL     1      -4.465  -5.148  -7.352  1.00  0.00    -0.206 F 
BRANCH   3   9
ATOM      9  C   UNL     1      -4.976  -2.650  -8.626  1.00  0.00    -0.012 A 
ATOM     10  C   UNL     1      -4.254  -1.016  -6.981  1.00  0.00     0.133 A 
ATOM     11  C   UNL     1      -5.389  -0.243  -7.209  1.00  0.00     0.047 A 
ATOM     12  C   UNL     1      -4.056  -2.218  -7.659  1.00  0.00     0.056 A 
ATOM     13  C   UNL     1      -6.318  -0.663  -8.158  1.00  0.00     0.004 A 
ATOM     14  C   UNL     1      -6.110  -1.853  -8.864  1.00  0.00     0.009 A 
BRANCH  10  15
ATOM     15  O   UNL     1      -3.371  -0.594  -5.976  1.00  0.00    -0.410 OA
BRANCH  15  16
ATOM     16  C   UNL     1      -2.025  -0.528  -6.302  1.00  0.00     0.412 C 
ATOM     17  N   UNL     1      -1.223  -0.222  -5.239  1.00  0.00    -0.321 N 
ATOM     18  H   UNL     1      -0.258  -0.162  -5.420  1.00  0.00     0.167 HD
ATOM     19  O   UNL     1      -1.537  -0.708  -7.415  1.00  0.00    -0.224 OA
BRANCH  17  20
ATOM     20  C   UNL     1      -1.642   0.023  -3.874  1.00  0.00     0.119 C 
BRANCH  20  21
ATOM     21  C   UNL     1      -1.020  -0.973  -2.896  1.00  0.00     0.021 C 
BRANCH  21  22
ATOM     22  C   UNL     1       0.511  -0.927  -2.811  1.00  0.00     0.002 C 
BRANCH  22  23
ATOM     23  C   UNL     1       1.113   0.431  -2.431  1.00  0.00    -0.000 C 
BRANCH  23  24
ATOM     24  C   UNL     1       0.640   1.010  -1.096  1.00  0.00    -0.003 C 
ATOM     25  C   UNL     1       1.014   0.148   0.100  1.00  0.00     0.004 C 
ENDBRANCH  23  24
ENDBRANCH  22  23
ENDBRANCH  21  22
ENDBRANCH  20  21
ENDBRANCH  17  20
ENDBRANCH  15  16
ENDBRANCH  10  15
ENDBRANCH   3   9
ENDBRANCH   1   2
BRANCH   1  26
ATOM     26  C   UNL     1      -5.273  -7.968 -12.434  1.00  0.00     0.224 C 
ATOM     27  O   UNL     1      -5.154  -7.971 -13.661  1.00  0.00    -0.275 OA
ATOM     28  N   UNL     1      -6.478  -8.326 -11.898  1.00  0.00    -0.356 N 
ATOM     29  H   UNL     1      -7.159  -8.621 -12.544  1.00  0.00     0.163 HD
BRANCH  28  30
ATOM     30  C   UNL     1      -6.891  -8.331 -10.508  1.00  0.00     0.116 C 
BRANCH  30  31
ATOM     31  C   UNL     1      -7.728  -7.099 -10.156  1.00  0.00     0.023 C 
BRANCH  31  32
ATOM     32  C   UNL     1      -9.104  -7.047 -10.825  1.00  0.00     0.023 C 
BRANCH  32  33
ATOM     33  C   UNL     1     -10.011  -8.240 -10.543  1.00  0.00     0.116 C 
BRANCH  33  34
ATOM     34  N   UNL     1     -10.292  -8.429  -9.129  1.00  0.00    -0.352 N 
ATOM     35  C   UNL     1     -11.461  -8.836  -8.533  1.00  0.00     0.251 C 
ATOM     36  H   UNL     1      -9.545  -8.239  -8.517  1.00  0.00     0.163 HD
ATOM     37  O   UNL     1     -11.565  -8.844  -7.311  1.00  0.00    -0.269 OA
BRANCH  35  38
ATOM     38  C   UNL     1     -12.613  -9.226  -9.374  1.00  0.00     0.039 A 
ATOM     39  C   UNL     1     -13.869  -8.684  -9.087  1.00  0.00     0.014 A 
ATOM     40  C   UNL     1     -12.452 -10.099 -10.453  1.00  0.00     0.014 A 
ATOM     41  C   UNL     1     -14.950  -8.961  -9.927  1.00  0.00     0.010 A 
ATOM     42  C   UNL     1     -13.514 -10.322 -11.325  1.00  0.00     0.010 A 
ATOM     43  C   UNL     1     -14.771  -9.751 -11.073  1.00  0.00    -0.014 A 
BRANCH  43  44
ATOM     44  C   UNL     1     -15.881  -9.983 -12.031  1.00  0.00     0.031 A 
ATOM     45  C   UNL     1     -16.426 -11.368 -12.236  1.00  0.00     0.074 A 
ATOM     46  C   UNL     1     -16.349  -8.959 -12.770  1.00  0.00     0.049 A 
ATOM     47  N   UNL     1     -17.338 -11.780 -13.081  1.00  0.00    -0.248 NA
ATOM     48  C   UNL     1     -15.855 -12.436 -11.399  1.00  0.00     0.031 C 
ATOM     49  C   UNL     1     -15.881  -7.573 -12.695  1.00  0.00     0.029 A 
ATOM     50  N   UNL     1     -17.318  -8.929 -13.741  1.00  0.00    -0.354 N 
ATOM     51  C   UNL     1     -17.434 -13.152 -12.892  1.00  0.00     0.074 A 
ATOM     52  C   UNL     1     -16.460 -13.511 -11.884  1.00  0.00     0.031 C 
ATOM     53  C   UNL     1     -16.579  -6.825 -13.565  1.00  0.00     0.029 A 
ATOM     54  C   UNL     1     -17.514  -7.683 -14.286  1.00  0.00     0.049 A 
ATOM     55  H   UNL     1     -17.826  -9.725 -14.021  1.00  0.00     0.167 HD
ATOM     56  C   UNL     1     -18.270 -14.034 -13.491  1.00  0.00     0.031 A 
ATOM     57  C   UNL     1     -18.346  -7.277 -15.263  1.00  0.00     0.031 A 
ATOM     58  C   UNL     1     -19.248 -13.679 -14.483  1.00  0.00     0.049 A 
ATOM     59  C   UNL     1     -19.255  -8.277 -15.921  1.00  0.00     0.074 A 
ATOM     60  C   UNL     1     -20.180 -14.492 -15.104  1.00  0.00     0.029 A 
ATOM     61  N   UNL     1     -19.421 -12.404 -15.000  1.00  0.00    -0.354 N 
ATOM     62  N   UNL     1     -19.378  -9.561 -15.685  1.00  0.00    -0.248 NA
ATOM     63  C   UNL     1     -20.145  -7.769 -16.975  1.00  0.00     0.031 C 
ATOM     64  C   UNL     1     -20.887 -13.718 -16.031  1.00  0.00     0.029 A 
ATOM     65  C   UNL     1     -20.428 -12.413 -15.950  1.00  0.00     0.049 A 
ATOM     66  H   UNL     1     -18.903 -11.611 -14.732  1.00  0.00     0.167 HD
ATOM     67  C   UNL     1     -20.378 -10.008 -16.539  1.00  0.00     0.074 A 
ATOM     68  C   UNL     1     -20.836  -8.856 -17.290  1.00  0.00     0.031 C 
ATOM     69  C   UNL     1     -20.874 -11.260 -16.687  1.00  0.00     0.031 A 
BRANCH  56  70
ATOM     70  C   UNL     1     -18.153 -15.477 -13.090  1.00  0.00    -0.014 A 
ATOM     71  C   UNL     1     -18.574 -15.917 -11.825  1.00  0.00     0.009 A 
ATOM     72  C   UNL     1     -17.644 -16.417 -14.000  1.00  0.00     0.009 A 
ATOM     73  C   UNL     1     -18.454 -17.261 -11.466  1.00  0.00     0.001 A 
ATOM     74  C   UNL     1     -17.551 -17.765 -13.649  1.00  0.00     0.001 A 
ATOM     75  C   UNL     1     -17.947 -18.184 -12.380  1.00  0.00     0.000 A 
ENDBRANCH  56  70
BRANCH  57  76
ATOM     76  C   UNL     1     -18.374  -5.849 -15.672  1.00  0.00    -0.014 A 
ATOM     77  C   UNL     1     -19.472  -5.039 -15.346  1.00  0.00     0.009 A 
ATOM     78  C   UNL     1     -17.308  -5.290 -16.395  1.00  0.00     0.009 A 
ATOM     79  C   UNL     1     -19.515  -3.705 -15.758  1.00  0.00     0.001 A 
ATOM     80  C   UNL     1     -17.342  -3.949 -16.782  1.00  0.00     0.001 A 
ATOM     81  C   UNL     1     -18.448  -3.160 -16.471  1.00  0.00     0.000 A 
ENDBRANCH  57  76
BRANCH  69  82
ATOM     82  C   UNL     1     -21.993 -11.444 -17.671  1.00  0.00    -0.014 A 
ATOM     83  C   UNL     1     -21.760 -11.413 -19.054  1.00  0.00     0.009 A 
ATOM     84  C   UNL     1     -23.293 -11.697 -17.204  1.00  0.00     0.009 A 
ATOM     85  C   UNL     1     -22.814 -11.602 -19.951  1.00  0.00     0.001 A 
ATOM     86  C   UNL     1     -24.338 -11.912 -18.102  1.00  0.00     0.001 A 
ATOM     87  C   UNL     1     -24.100 -11.856 -19.474  1.00  0.00     0.000 A 
ENDBRANCH  69  82
ENDBRANCH  43  44
ENDBRANCH  35  38
ENDBRANCH  33  34
ENDBRANCH  32  33
ENDBRANCH  31  32
ENDBRANCH  30  31
ENDBRANCH  28  30
ENDBRANCH   1  26
TORSDOF 20
