REMARK SMILES O=C(NCCCCNC(=O)[C@@H]1[C@H](C(=O)Nc2ccc(Cn3cncn3)cc2)[C@@H]2C=C[C@H]1CC2)c1ccc(-c2c3nc(c(-c4ccccc4)c4ccc([nH]4)c(-c4ccccc4)c4nc(c(-c5ccccc5)c5ccc2[nH]5)C=C4)C=C3)cc1
REMARK SMILES IDX 6 1 5 2 4 3 3 4 1 5 2 6 34 8 35 9 81 10 36 11 80 12 37 13
REMARK SMILES IDX 38 14 39 15 74 16 40 17 79 18 73 19 75 20 41 21 78 22 72 23
REMARK SMILES IDX 71 24 42 26 64 27 49 28 63 29 50 30 53 31 62 32 76 33 51 34
REMARK SMILES IDX 52 35 61 37 77 38 54 39 43 40 44 41 48 42 45 43 47 44 46 45
REMARK SMILES IDX 65 46 66 47 70 48 67 49 69 50 68 51 55 52 56 53 60 54 57 55
REMARK SMILES IDX 59 56 58 57 7 58 8 59 9 60 10 62 11 63 12 64 31 65 28 66
REMARK SMILES IDX 30 67 32 68 29 69 33 70 13 71 14 72 15 73 16 75 17 76 27 77
REMARK SMILES IDX 18 78 26 79 19 80 20 81 21 82 22 83 25 84 23 85 24 86
REMARK H PARENT 3 7 75 25 53 36 8 61 15 74
REMARK Flexibility Score: inf
ROOT
ATOM      1  C   UNL     1       4.303  -2.894   2.144  1.00  0.00     0.023 C 
ENDROOT
BRANCH   1   2
ATOM      2  C   UNL     1       4.953  -1.580   1.714  1.00  0.00     0.023 C 
BRANCH   2   3
ATOM      3  C   UNL     1       4.733  -1.175   0.259  1.00  0.00     0.116 C 
BRANCH   3   4
ATOM      4  N   UNL     1       3.350  -1.132  -0.174  1.00  0.00    -0.352 N 
ATOM      5  O   UNL     1       1.274  -0.514  -0.622  1.00  0.00    -0.269 OA
ATOM      6  C   UNL     1       2.304  -0.276   0.021  1.00  0.00     0.251 C 
ATOM      7  H   UNL     1       3.108  -1.900  -0.741  1.00  0.00     0.163 HD
BRANCH   6   8
ATOM      8  C   UNL     1       2.297   0.871   0.967  1.00  0.00     0.039 A 
ATOM      9  C   UNL     1       3.429   1.480   1.510  1.00  0.00     0.014 A 
ATOM     10  C   UNL     1       1.031   1.386   1.309  1.00  0.00     0.014 A 
ATOM     11  C   UNL     1       3.301   2.529   2.419  1.00  0.00     0.010 A 
ATOM     12  C   UNL     1       0.898   2.451   2.196  1.00  0.00     0.010 A 
ATOM     13  C   UNL     1       2.038   3.014   2.767  1.00  0.00    -0.014 A 
BRANCH  13  14
ATOM     14  C   UNL     1       1.969   4.226   3.584  1.00  0.00     0.031 A 
ATOM     15  C   UNL     1       2.491   5.468   2.942  1.00  0.00     0.074 A 
ATOM     16  C   UNL     1       1.315   4.323   4.758  1.00  0.00     0.049 A 
ATOM     17  N   UNL     1       3.400   6.280   3.377  1.00  0.00    -0.248 NA
ATOM     18  C   UNL     1       1.945   5.826   1.622  1.00  0.00     0.031 C 
ATOM     19  C   UNL     1       0.456   3.316   5.383  1.00  0.00     0.029 A 
ATOM     20  N   UNL     1       1.184   5.408   5.582  1.00  0.00    -0.354 N 
ATOM     21  C   UNL     1       3.427   7.342   2.475  1.00  0.00     0.074 A 
ATOM     22  C   UNL     1       2.596   6.958   1.362  1.00  0.00     0.031 C 
ATOM     23  C   UNL     1      -0.274   3.905   6.356  1.00  0.00     0.029 A 
ATOM     24  C   UNL     1       0.148   5.290   6.497  1.00  0.00     0.049 A 
ATOM     25  H   UNL     1       1.769   6.197   5.529  1.00  0.00     0.167 HD
ATOM     26  C   UNL     1       3.950   8.558   2.796  1.00  0.00     0.031 A 
ATOM     27  C   UNL     1      -0.377   6.269   7.272  1.00  0.00     0.031 A 
ATOM     28  C   UNL     1       4.842   8.500   3.921  1.00  0.00     0.049 A 
ATOM     29  C   UNL     1       0.581   7.392   7.331  1.00  0.00     0.074 A 
ATOM     30  C   UNL     1       5.993   7.804   4.232  1.00  0.00     0.029 A 
ATOM     31  N   UNL     1       4.417   9.054   5.103  1.00  0.00    -0.354 N 
ATOM     32  N   UNL     1       1.698   7.368   7.996  1.00  0.00    -0.248 NA
ATOM     33  C   UNL     1       0.448   8.480   6.376  1.00  0.00     0.031 C 
ATOM     34  C   UNL     1       5.930   7.586   5.640  1.00  0.00     0.029 A 
ATOM     35  C   UNL     1       4.755   8.182   6.101  1.00  0.00     0.049 A 
ATOM     36  H   UNL     1       3.955   9.917   5.211  1.00  0.00     0.167 HD
ATOM     37  C   UNL     1       2.566   8.154   7.255  1.00  0.00     0.074 A 
ATOM     38  C   UNL     1       1.707   8.924   6.362  1.00  0.00     0.031 C 
ATOM     39  C   UNL     1       3.907   7.893   7.234  1.00  0.00     0.031 A 
BRANCH  26  40
ATOM     40  C   UNL     1       3.329   9.861   2.340  1.00  0.00    -0.014 A 
ATOM     41  C   UNL     1       3.960  11.073   2.678  1.00  0.00     0.009 A 
ATOM     42  C   UNL     1       2.005   9.950   1.867  1.00  0.00     0.009 A 
ATOM     43  C   UNL     1       3.272  12.292   2.630  1.00  0.00     0.001 A 
ATOM     44  C   UNL     1       1.332  11.172   1.770  1.00  0.00     0.001 A 
ATOM     45  C   UNL     1       1.955  12.339   2.184  1.00  0.00     0.000 A 
ENDBRANCH  26  40
BRANCH  27  46
ATOM     46  C   UNL     1      -1.741   6.387   7.828  1.00  0.00    -0.014 A 
ATOM     47  C   UNL     1      -2.010   7.266   8.889  1.00  0.00     0.009 A 
ATOM     48  C   UNL     1      -2.838   5.816   7.158  1.00  0.00     0.009 A 
ATOM     49  C   UNL     1      -3.327   7.585   9.245  1.00  0.00     0.001 A 
ATOM     50  C   UNL     1      -4.152   6.124   7.520  1.00  0.00     0.001 A 
ATOM     51  C   UNL     1      -4.396   7.021   8.554  1.00  0.00     0.000 A 
ENDBRANCH  27  46
BRANCH  39  52
ATOM     52  C   UNL     1       4.471   6.976   8.288  1.00  0.00    -0.014 A 
ATOM     53  C   UNL     1       4.014   5.661   8.482  1.00  0.00     0.009 A 
ATOM     54  C   UNL     1       5.582   7.409   9.027  1.00  0.00     0.009 A 
ATOM     55  C   UNL     1       4.618   4.824   9.424  1.00  0.00     0.001 A 
ATOM     56  C   UNL     1       6.204   6.564   9.948  1.00  0.00     0.001 A 
ATOM     57  C   UNL     1       5.715   5.276  10.154  1.00  0.00     0.000 A 
ENDBRANCH  39  52
ENDBRANCH  13  14
ENDBRANCH   6   8
ENDBRANCH   3   4
ENDBRANCH   2   3
ENDBRANCH   1   2
BRANCH   1  58
ATOM     58  C   UNL     1       4.594  -4.120   1.286  1.00  0.00     0.116 C 
BRANCH  58  59
ATOM     59  N   UNL     1       6.003  -4.368   1.013  1.00  0.00    -0.356 N 
ATOM     60  C   UNL     1       6.631  -5.584   0.977  1.00  0.00     0.224 C 
ATOM     61  H   UNL     1       6.563  -3.578   0.836  1.00  0.00     0.163 HD
ATOM     62  O   UNL     1       7.530  -5.746   0.146  1.00  0.00    -0.275 OA
BRANCH  60  63
ATOM     63  C   UNL     1       6.152  -6.690   1.890  1.00  0.00     0.098 C 
ATOM     64  C   UNL     1       6.122  -6.400   3.412  1.00  0.00     0.098 C 
ATOM     65  C   UNL     1       6.764  -8.108   1.642  1.00  0.00     0.025 C 
ATOM     66  C   UNL     1       6.373  -7.727   4.191  1.00  0.00     0.025 C 
ATOM     67  C   UNL     1       7.960  -8.394   2.529  1.00  0.00    -0.027 C 
ATOM     68  C   UNL     1       5.703  -9.120   2.155  1.00  0.00     0.009 C 
ATOM     69  C   UNL     1       7.744  -8.242   3.845  1.00  0.00    -0.027 C 
ATOM     70  C   UNL     1       5.386  -8.806   3.647  1.00  0.00     0.009 C 
BRANCH  64  71
ATOM     71  C   UNL     1       6.775  -5.153   4.056  1.00  0.00     0.228 C 
ATOM     72  O   UNL     1       6.016  -4.355   4.633  1.00  0.00    -0.274 OA
ATOM     73  N   UNL     1       8.097  -4.876   4.222  1.00  0.00    -0.326 N 
ATOM     74  H   UNL     1       8.269  -4.067   4.755  1.00  0.00     0.169 HD
BRANCH  73  75
ATOM     75  C   UNL     1       9.254  -5.515   3.783  1.00  0.00     0.041 A 
ATOM     76  C   UNL     1      10.150  -6.005   4.732  1.00  0.00     0.026 A 
ATOM     77  C   UNL     1       9.575  -5.616   2.438  1.00  0.00     0.026 A 
ATOM     78  C   UNL     1      11.217  -6.814   4.327  1.00  0.00     0.008 A 
ATOM     79  C   UNL     1      10.645  -6.410   2.022  1.00  0.00     0.008 A 
ATOM     80  C   UNL     1      11.423  -7.087   2.967  1.00  0.00    -0.026 A 
BRANCH  80  81
ATOM     81  C   UNL     1      12.418  -8.126   2.522  1.00  0.00     0.181 C 
BRANCH  81  82
ATOM     82  N   UNL     1      13.683  -7.547   2.131  1.00  0.00    -0.249 N 
ATOM     83  C   UNL     1      14.646  -7.038   2.946  1.00  0.00     0.220 A 
ATOM     84  N   UNL     1      14.099  -7.575   0.849  1.00  0.00    -0.160 NA
ATOM     85  N   UNL     1      15.693  -6.701   2.230  1.00  0.00    -0.224 NA
ATOM     86  C   UNL     1      15.316  -7.037   0.960  1.00  0.00     0.246 A 
ENDBRANCH  81  82
ENDBRANCH  80  81
ENDBRANCH  73  75
ENDBRANCH  64  71
ENDBRANCH  60  63
ENDBRANCH  58  59
ENDBRANCH   1  58
TORSDOF 15
