REMARK SMILES C[C@@H](C(=O)NCCCCNC(=O)c1ccc(-c2c3nc(c(-c4ccccc4)c4ccc([nH]4)c(-c4ccccc4)c4nc(c(-c5ccccc5)c5ccc2[nH]5)C=C4)C=C3)cc1)N1C(=O)/C(=C/c2ccc(-c3ccc([N+](=O)[O-])cc3Cl)o2)SC1=S
REMARK SMILES IDX 6 1 5 2 3 3 4 4 2 6 1 7 61 8 62 9 82 10 63 11 64 12 81 13
REMARK SMILES IDX 83 14 65 15 66 16 67 17 80 18 68 19 69 20 70 21 71 22 78 23
REMARK SMILES IDX 72 24 77 25 79 26 73 27 74 28 75 29 76 30 7 31 8 32 9 33
REMARK SMILES IDX 10 34 11 35 12 37 13 38 14 39 60 40 15 41 59 42 16 43 17 44
REMARK SMILES IDX 18 45 53 46 19 47 58 48 52 49 54 50 20 51 57 52 51 53 50 54
REMARK SMILES IDX 21 56 43 57 28 58 42 59 29 60 32 61 41 62 55 63 30 64 31 65
REMARK SMILES IDX 40 67 56 68 33 69 22 70 23 71 27 72 24 73 26 74 25 75 44 76
REMARK SMILES IDX 45 77 49 78 46 79 48 80 47 81 34 82 35 83 39 84 36 85 38 86
REMARK SMILES IDX 37 87
REMARK H PARENT 5 5 10 36 54 55 32 66
REMARK Flexibility Score: inf
ROOT
ATOM      1  C   UNL     1       3.295   1.900   0.503  1.00  0.00     0.116 C 
ENDROOT
BRANCH   1   2
ATOM      2  N   UNL     1       2.195   2.460  -0.262  1.00  0.00    -0.354 N 
ATOM      3  C   UNL     1       0.894   2.037  -0.342  1.00  0.00     0.242 C 
ATOM      4  O   UNL     1       0.184   2.504  -1.235  1.00  0.00    -0.273 OA
ATOM      5  H   UNL     1       2.414   3.255  -0.800  1.00  0.00     0.163 HD
BRANCH   3   6
ATOM      6  C   UNL     1       0.371   0.991   0.672  1.00  0.00     0.178 C 
ATOM      7  C   UNL     1       0.866  -0.375   0.182  1.00  0.00     0.042 C 
BRANCH   6   8
ATOM      8  N   UNL     1      -1.105   1.127   0.802  1.00  0.00    -0.281 N 
ATOM      9  C   UNL     1      -1.954   0.043   0.677  1.00  0.00     0.267 C 
ATOM     10  C   UNL     1      -1.722   2.298   1.216  1.00  0.00     0.149 C 
ATOM     11  O   UNL     1      -1.649  -1.138   0.580  1.00  0.00    -0.268 OA
ATOM     12  C   UNL     1      -3.372   0.468   0.749  1.00  0.00     0.084 C 
ATOM     13  S   UNL     1      -3.470   2.151   1.033  1.00  0.00    -0.054 SA
ATOM     14  S   UNL     1      -1.026   3.684   1.840  1.00  0.00    -0.052 S 
ATOM     15  C   UNL     1      -4.349  -0.437   0.616  1.00  0.00     0.068 C 
BRANCH  15  16
ATOM     16  C   UNL     1      -5.721  -0.102   0.553  1.00  0.00     0.128 A 
ATOM     17  C   UNL     1      -6.399   0.588  -0.444  1.00  0.00     0.051 A 
ATOM     18  O   UNL     1      -6.641  -0.497   1.495  1.00  0.00    -0.457 OA
ATOM     19  C   UNL     1      -7.764   0.625  -0.088  1.00  0.00     0.051 A 
ATOM     20  C   UNL     1      -7.859  -0.021   1.123  1.00  0.00     0.136 A 
BRANCH  20  21
ATOM     21  C   UNL     1      -8.972  -0.300   2.016  1.00  0.00     0.036 A 
ATOM     22  C   UNL     1     -10.102  -0.947   1.485  1.00  0.00     0.020 A 
ATOM     23  C   UNL     1      -8.994   0.112   3.361  1.00  0.00     0.058 A 
ATOM     24  C   UNL     1     -11.240  -1.161   2.267  1.00  0.00     0.086 A 
ATOM     25  C   UNL     1     -10.131  -0.097   4.151  1.00  0.00     0.106 A 
ATOM     26  Cl  UNL     1      -7.671   0.950   4.098  1.00  0.00    -0.083 Cl
ATOM     27  C   UNL     1     -11.253  -0.722   3.595  1.00  0.00     0.270 A 
BRANCH  27  28
ATOM     28  N   UNL     1     -12.466  -0.893   4.404  1.00  0.00     0.062 N 
ATOM     29  O   UNL     1     -13.443  -1.433   3.867  1.00  0.00    -0.258 OA
ATOM     30  O   UNL     1     -12.443  -0.478   5.571  1.00  0.00    -0.258 OA
ENDBRANCH  27  28
ENDBRANCH  20  21
ENDBRANCH  15  16
ENDBRANCH   6   8
ENDBRANCH   3   6
ENDBRANCH   1   2
BRANCH   1  31
ATOM     31  C   UNL     1       4.224   1.086  -0.403  1.00  0.00     0.023 C 
BRANCH  31  32
ATOM     32  C   UNL     1       5.048   1.927  -1.378  1.00  0.00     0.023 C 
BRANCH  32  33
ATOM     33  C   UNL     1       6.054   2.855  -0.714  1.00  0.00     0.116 C 
BRANCH  33  34
ATOM     34  N   UNL     1       7.078   2.138   0.033  1.00  0.00    -0.352 N 
ATOM     35  C   UNL     1       8.419   2.425   0.118  1.00  0.00     0.251 C 
ATOM     36  H   UNL     1       6.772   1.351   0.539  1.00  0.00     0.163 HD
ATOM     37  O   UNL     1       9.193   1.663   0.689  1.00  0.00    -0.269 OA
BRANCH  35  38
ATOM     38  C   UNL     1       8.921   3.653  -0.527  1.00  0.00     0.039 A 
ATOM     39  C   UNL     1       9.977   3.562  -1.436  1.00  0.00     0.014 A 
ATOM     40  C   UNL     1       8.292   4.876  -0.281  1.00  0.00     0.014 A 
ATOM     41  C   UNL     1      10.359   4.693  -2.160  1.00  0.00     0.010 A 
ATOM     42  C   UNL     1       8.628   5.981  -1.051  1.00  0.00     0.010 A 
ATOM     43  C   UNL     1       9.661   5.899  -1.998  1.00  0.00    -0.014 A 
BRANCH  43  44
ATOM     44  C   UNL     1       9.982   7.107  -2.795  1.00  0.00     0.031 A 
ATOM     45  C   UNL     1      10.477   8.341  -2.098  1.00  0.00     0.074 A 
ATOM     46  C   UNL     1       9.712   7.135  -4.114  1.00  0.00     0.049 A 
ATOM     47  N   UNL     1      10.636   9.550  -2.570  1.00  0.00    -0.248 NA
ATOM     48  C   UNL     1      10.799   8.201  -0.669  1.00  0.00     0.031 C 
ATOM     49  C   UNL     1       9.195   6.014  -4.901  1.00  0.00     0.029 A 
ATOM     50  N   UNL     1       9.809   8.162  -5.018  1.00  0.00    -0.354 N 
ATOM     51  C   UNL     1      11.032  10.323  -1.487  1.00  0.00     0.074 A 
ATOM     52  C   UNL     1      11.059   9.454  -0.331  1.00  0.00     0.031 C 
ATOM     53  C   UNL     1       9.023   6.414  -6.171  1.00  0.00     0.029 A 
ATOM     54  C   UNL     1       9.376   7.827  -6.277  1.00  0.00     0.049 A 
ATOM     55  H   UNL     1      10.155   9.054  -4.787  1.00  0.00     0.167 HD
ATOM     56  C   UNL     1      11.351  11.638  -1.459  1.00  0.00     0.031 A 
ATOM     57  C   UNL     1       9.255   8.578  -7.388  1.00  0.00     0.031 A 
ATOM     58  C   UNL     1      11.349  12.494  -2.614  1.00  0.00     0.049 A 
ATOM     59  C   UNL     1       9.635  10.030  -7.341  1.00  0.00     0.074 A 
ATOM     60  C   UNL     1      11.725  13.823  -2.704  1.00  0.00     0.029 A 
ATOM     61  N   UNL     1      10.953  12.101  -3.882  1.00  0.00    -0.354 N 
ATOM     62  N   UNL     1      10.058  10.738  -6.322  1.00  0.00    -0.248 NA
ATOM     63  C   UNL     1       9.529  10.784  -8.598  1.00  0.00     0.031 C 
ATOM     64  C   UNL     1      11.520  14.244  -4.022  1.00  0.00     0.029 A 
ATOM     65  C   UNL     1      11.060  13.165  -4.760  1.00  0.00     0.049 A 
ATOM     66  H   UNL     1      10.642  11.198  -4.123  1.00  0.00     0.167 HD
ATOM     67  C   UNL     1      10.293  12.013  -6.819  1.00  0.00     0.074 A 
ATOM     68  C   UNL     1       9.971  11.980  -8.231  1.00  0.00     0.031 C 
ATOM     69  C   UNL     1      10.740  13.111  -6.163  1.00  0.00     0.031 A 
BRANCH  56  70
ATOM     70  C   UNL     1      11.710  12.226  -0.124  1.00  0.00    -0.014 A 
ATOM     71  C   UNL     1      12.912  11.894   0.522  1.00  0.00     0.009 A 
ATOM     72  C   UNL     1      10.829  13.124   0.499  1.00  0.00     0.009 A 
ATOM     73  C   UNL     1      13.201  12.411   1.786  1.00  0.00     0.001 A 
ATOM     74  C   UNL     1      11.135  13.662   1.750  1.00  0.00     0.001 A 
ATOM     75  C   UNL     1      12.313  13.296   2.398  1.00  0.00     0.000 A 
ENDBRANCH  56  70
BRANCH  57  76
ATOM     76  C   UNL     1       8.760   7.957  -8.643  1.00  0.00    -0.014 A 
ATOM     77  C   UNL     1       9.651   7.662  -9.685  1.00  0.00     0.009 A 
ATOM     78  C   UNL     1       7.403   7.631  -8.792  1.00  0.00     0.009 A 
ATOM     79  C   UNL     1       9.190   7.062 -10.859  1.00  0.00     0.001 A 
ATOM     80  C   UNL     1       6.950   7.011  -9.959  1.00  0.00     0.001 A 
ATOM     81  C   UNL     1       7.842   6.733 -10.993  1.00  0.00     0.000 A 
ENDBRANCH  57  76
BRANCH  69  82
ATOM     82  C   UNL     1      10.949  14.359  -6.971  1.00  0.00    -0.014 A 
ATOM     83  C   UNL     1       9.867  15.150  -7.383  1.00  0.00     0.009 A 
ATOM     84  C   UNL     1      12.255  14.780  -7.268  1.00  0.00     0.009 A 
ATOM     85  C   UNL     1      10.089  16.330  -8.096  1.00  0.00     0.001 A 
ATOM     86  C   UNL     1      12.475  15.971  -7.960  1.00  0.00     0.001 A 
ATOM     87  C   UNL     1      11.391  16.742  -8.378  1.00  0.00     0.000 A 
ENDBRANCH  69  82
ENDBRANCH  43  44
ENDBRANCH  35  38
ENDBRANCH  33  34
ENDBRANCH  32  33
ENDBRANCH  31  32
ENDBRANCH   1  31
TORSDOF 15
