REMARK SMILES O=C(NCCCCNC(=O)[C@H]1CS[C@H](c2nc3ccccc3s2)[NH2+]1)c1ccc(-c2c3nc(c(-c4ccccc4)c4ccc([nH]4)c(-c4ccccc4)c4nc(c(-c5ccccc5)c5ccc2[nH]5)C=C4)C=C3)cc1
REMARK SMILES IDX 5 1 4 2 3 3 1 4 2 5 25 7 26 8 72 9 27 10 71 11 28 12 29 13
REMARK SMILES IDX 30 14 65 15 31 16 70 17 64 18 66 19 32 20 69 21 63 22 62 23
REMARK SMILES IDX 33 25 55 26 40 27 54 28 41 29 44 30 53 31 67 32 42 33 43 34
REMARK SMILES IDX 52 36 68 37 45 38 34 39 35 40 39 41 36 42 38 43 37 44 56 45
REMARK SMILES IDX 57 46 61 47 58 48 60 49 59 50 46 51 47 52 51 53 48 54 50 55
REMARK SMILES IDX 49 56 6 57 7 58 8 59 9 60 10 62 11 63 12 64 24 65 13 66
REMARK SMILES IDX 14 67 15 70 16 71 23 72 17 73 22 74 18 75 21 76 19 77 20 78
REMARK H PARENT 3 6 66 24 44 35 8 61 24 68 24 69
REMARK Flexibility Score: inf
ROOT
ATOM      1  C   UNL     1       4.943  -1.774  -2.002  1.00  0.00     0.023 C 
ENDROOT
BRANCH   1   2
ATOM      2  C   UNL     1       4.583  -0.681  -1.004  1.00  0.00     0.116 C 
BRANCH   2   3
ATOM      3  N   UNL     1       3.161  -0.375  -0.961  1.00  0.00    -0.352 N 
ATOM      4  O   UNL     1       1.175   0.065   0.032  1.00  0.00    -0.269 OA
ATOM      5  C   UNL     1       2.386  -0.092   0.138  1.00  0.00     0.251 C 
ATOM      6  H   UNL     1       2.695  -0.371  -1.829  1.00  0.00     0.163 HD
BRANCH   5   7
ATOM      7  C   UNL     1       3.034  -0.019   1.461  1.00  0.00     0.039 A 
ATOM      8  C   UNL     1       4.178   0.762   1.639  1.00  0.00     0.014 A 
ATOM      9  C   UNL     1       2.525  -0.788   2.509  1.00  0.00     0.014 A 
ATOM     10  C   UNL     1       4.893   0.665   2.825  1.00  0.00     0.010 A 
ATOM     11  C   UNL     1       3.203  -0.823   3.729  1.00  0.00     0.010 A 
ATOM     12  C   UNL     1       4.409  -0.121   3.884  1.00  0.00    -0.014 A 
BRANCH  12  13
ATOM     13  C   UNL     1       5.153  -0.144   5.165  1.00  0.00     0.031 A 
ATOM     14  C   UNL     1       5.820  -1.396   5.659  1.00  0.00     0.074 A 
ATOM     15  C   UNL     1       5.246   1.000   5.868  1.00  0.00     0.049 A 
ATOM     16  N   UNL     1       6.527  -1.573   6.747  1.00  0.00    -0.248 NA
ATOM     17  C   UNL     1       5.673  -2.605   4.835  1.00  0.00     0.031 C 
ATOM     18  C   UNL     1       4.636   2.276   5.485  1.00  0.00     0.029 A 
ATOM     19  N   UNL     1       5.904   1.282   7.035  1.00  0.00    -0.354 N 
ATOM     20  C   UNL     1       6.889  -2.913   6.752  1.00  0.00     0.074 A 
ATOM     21  C   UNL     1       6.312  -3.510   5.566  1.00  0.00     0.031 C 
ATOM     22  C   UNL     1       4.992   3.216   6.372  1.00  0.00     0.029 A 
ATOM     23  C   UNL     1       5.799   2.597   7.416  1.00  0.00     0.049 A 
ATOM     24  H   UNL     1       6.404   0.609   7.551  1.00  0.00     0.167 HD
ATOM     25  C   UNL     1       7.635  -3.583   7.663  1.00  0.00     0.031 A 
ATOM     26  C   UNL     1       6.285   3.236   8.495  1.00  0.00     0.031 A 
ATOM     27  C   UNL     1       8.211  -2.984   8.839  1.00  0.00     0.049 A 
ATOM     28  C   UNL     1       7.089   2.464   9.496  1.00  0.00     0.074 A 
ATOM     29  C   UNL     1       9.008  -3.574   9.805  1.00  0.00     0.029 A 
ATOM     30  N   UNL     1       8.048  -1.658   9.210  1.00  0.00    -0.354 N 
ATOM     31  N   UNL     1       7.441   1.202   9.472  1.00  0.00    -0.248 NA
ATOM     32  C   UNL     1       7.558   3.204  10.674  1.00  0.00     0.031 C 
ATOM     33  C   UNL     1       9.291  -2.615  10.784  1.00  0.00     0.029 A 
ATOM     34  C   UNL     1       8.710  -1.417  10.403  1.00  0.00     0.049 A 
ATOM     35  H   UNL     1       7.538  -0.988   8.701  1.00  0.00     0.167 HD
ATOM     36  C   UNL     1       8.181   0.996  10.627  1.00  0.00     0.074 A 
ATOM     37  C   UNL     1       8.246   2.270  11.316  1.00  0.00     0.031 C 
ATOM     38  C   UNL     1       8.751  -0.147  11.079  1.00  0.00     0.031 A 
BRANCH  25  39
ATOM     39  C   UNL     1       7.850  -5.054   7.440  1.00  0.00    -0.014 A 
ATOM     40  C   UNL     1       8.729  -5.523   6.452  1.00  0.00     0.009 A 
ATOM     41  C   UNL     1       7.201  -5.984   8.269  1.00  0.00     0.009 A 
ATOM     42  C   UNL     1       8.933  -6.895   6.280  1.00  0.00     0.001 A 
ATOM     43  C   UNL     1       7.424  -7.353   8.110  1.00  0.00     0.001 A 
ATOM     44  C   UNL     1       8.285  -7.808   7.112  1.00  0.00     0.000 A 
ENDBRANCH  25  39
BRANCH  26  45
ATOM     45  C   UNL     1       6.005   4.681   8.678  1.00  0.00    -0.014 A 
ATOM     46  C   UNL     1       7.021   5.632   8.512  1.00  0.00     0.009 A 
ATOM     47  C   UNL     1       4.706   5.117   8.987  1.00  0.00     0.009 A 
ATOM     48  C   UNL     1       6.745   6.992   8.665  1.00  0.00     0.001 A 
ATOM     49  C   UNL     1       4.428   6.479   9.112  1.00  0.00     0.001 A 
ATOM     50  C   UNL     1       5.449   7.414   8.958  1.00  0.00     0.000 A 
ENDBRANCH  26  45
BRANCH  38  51
ATOM     51  C   UNL     1       9.506  -0.058  12.373  1.00  0.00    -0.014 A 
ATOM     52  C   UNL     1       8.830   0.042  13.598  1.00  0.00     0.009 A 
ATOM     53  C   UNL     1      10.908  -0.094  12.366  1.00  0.00     0.009 A 
ATOM     54  C   UNL     1       9.547   0.138  14.792  1.00  0.00     0.001 A 
ATOM     55  C   UNL     1      11.622  -0.022  13.562  1.00  0.00     0.001 A 
ATOM     56  C   UNL     1      10.941   0.103  14.773  1.00  0.00     0.000 A 
ENDBRANCH  38  51
ENDBRANCH  12  13
ENDBRANCH   5   7
ENDBRANCH   2   3
ENDBRANCH   1   2
BRANCH   1  57
ATOM     57  C   UNL     1       4.486  -1.519  -3.437  1.00  0.00     0.023 C 
BRANCH  57  58
ATOM     58  C   UNL     1       4.879  -0.155  -3.995  1.00  0.00     0.116 C 
BRANCH  58  59
ATOM     59  N   UNL     1       6.311  -0.028  -4.189  1.00  0.00    -0.351 N 
ATOM     60  C   UNL     1       7.090  -0.046  -5.307  1.00  0.00     0.279 C 
ATOM     61  H   UNL     1       6.817   0.095  -3.353  1.00  0.00     0.163 HD
ATOM     62  O   UNL     1       8.311   0.012  -5.133  1.00  0.00    -0.268 OA
BRANCH  60  63
ATOM     63  C   UNL     1       6.509  -0.167  -6.728  1.00  0.00     0.284 C 
ATOM     64  C   UNL     1       6.029  -1.583  -7.020  1.00  0.00     0.151 C 
ATOM     65  N   UNL     1       5.508   0.890  -7.011  1.00  0.00    -0.319 N 
ATOM     66  S   UNL     1       4.254  -1.454  -7.257  1.00  0.00    -0.085 SA
ATOM     67  C   UNL     1       4.337   0.312  -7.686  1.00  0.00     0.303 C 
ATOM     68  H   UNL     1       5.928   1.599  -7.613  1.00  0.00     0.348 HD
ATOM     69  H   UNL     1       5.211   1.311  -6.131  1.00  0.00     0.348 HD
BRANCH  67  70
ATOM     70  C   UNL     1       4.297   0.497  -9.192  1.00  0.00     0.163 A 
ATOM     71  N   UNL     1       3.317   0.038  -9.947  1.00  0.00    -0.234 NA
ATOM     72  S   UNL     1       5.518   1.364 -10.044  1.00  0.00    -0.112 S 
ATOM     73  C   UNL     1       3.569   0.301 -11.279  1.00  0.00     0.082 A 
ATOM     74  C   UNL     1       4.731   1.028 -11.533  1.00  0.00     0.055 A 
ATOM     75  C   UNL     1       2.766  -0.102 -12.363  1.00  0.00     0.030 A 
ATOM     76  C   UNL     1       5.118   1.377 -12.836  1.00  0.00     0.021 A 
ATOM     77  C   UNL     1       3.149   0.227 -13.667  1.00  0.00     0.002 A 
ATOM     78  C   UNL     1       4.309   0.959 -13.898  1.00  0.00     0.002 A 
ENDBRANCH  67  70
ENDBRANCH  60  63
ENDBRANCH  58  59
ENDBRANCH  57  58
ENDBRANCH   1  57
TORSDOF 12
