REMARK SMILES C[C@@H](C(=O)NCCCCNC(=O)c1ccc(-c2c3nc(c(-c4ccccc4)c4ccc([nH]4)c(-c4ccccc4)c4nc(c(-c5ccccc5)c5ccc2[nH]5)C=C4)C=C3)cc1)c1ccc(-c2ccn(C(F)F)c(=O)c2)cc1
REMARK SMILES IDX 7 1 6 2 5 3 3 4 4 5 2 7 1 8 61 9 62 10 76 11 63 12 75 13
REMARK SMILES IDX 64 14 65 15 66 16 74 17 67 18 72 19 68 20 73 21 69 22 70 23
REMARK SMILES IDX 71 24 8 25 9 26 10 27 11 28 12 30 13 31 14 32 60 33 15 34
REMARK SMILES IDX 59 35 16 36 17 37 18 38 53 39 19 40 58 41 52 42 54 43 20 44
REMARK SMILES IDX 57 45 51 46 50 47 21 49 43 50 28 51 42 52 29 53 32 54 41 55
REMARK SMILES IDX 55 56 30 57 31 58 40 60 56 61 33 62 22 63 23 64 27 65 24 66
REMARK SMILES IDX 26 67 25 68 44 69 45 70 49 71 46 72 48 73 47 74 34 75 35 76
REMARK SMILES IDX 39 77 36 78 38 79 37 80
REMARK H PARENT 5 6 10 29 54 48 32 59
REMARK Flexibility Score: inf
ROOT
ATOM      1  C   UNL     1       4.274   0.790  -0.843  1.00  0.00     0.023 C 
ENDROOT
BRANCH   1   2
ATOM      2  C   UNL     1       3.423   1.805  -0.073  1.00  0.00     0.116 C 
BRANCH   2   3
ATOM      3  N   UNL     1       2.345   2.317  -0.896  1.00  0.00    -0.356 N 
ATOM      4  C   UNL     1       1.021   1.973  -0.931  1.00  0.00     0.227 C 
ATOM      5  O   UNL     1       0.350   2.470  -1.837  1.00  0.00    -0.274 OA
ATOM      6  H   UNL     1       2.606   3.023  -1.529  1.00  0.00     0.163 HD
BRANCH   4   7
ATOM      7  C   UNL     1       0.433   1.039   0.147  1.00  0.00     0.105 C 
ATOM      8  C   UNL     1       0.935  -0.393  -0.079  1.00  0.00     0.023 C 
BRANCH   7   9
ATOM      9  C   UNL     1      -1.097   1.126   0.245  1.00  0.00    -0.036 A 
ATOM     10  C   UNL     1      -1.726   2.375   0.408  1.00  0.00     0.005 A 
ATOM     11  C   UNL     1      -1.915  -0.013   0.199  1.00  0.00     0.005 A 
ATOM     12  C   UNL     1      -3.123   2.482   0.475  1.00  0.00     0.009 A 
ATOM     13  C   UNL     1      -3.303   0.090   0.280  1.00  0.00     0.009 A 
ATOM     14  C   UNL     1      -3.919   1.337   0.403  1.00  0.00    -0.018 A 
BRANCH  14  15
ATOM     15  C   UNL     1      -5.390   1.385   0.415  1.00  0.00    -0.011 A 
ATOM     16  C   UNL     1      -6.179   0.789   1.476  1.00  0.00     0.027 A 
ATOM     17  C   UNL     1      -6.012   1.881  -0.667  1.00  0.00     0.080 A 
ATOM     18  C   UNL     1      -7.505   0.672   1.350  1.00  0.00     0.095 A 
ATOM     19  C   UNL     1      -7.492   1.789  -0.805  1.00  0.00     0.255 A 
ATOM     20  N   UNL     1      -8.157   1.144   0.227  1.00  0.00    -0.258 N 
ATOM     21  O   UNL     1      -8.018   2.250  -1.813  1.00  0.00    -0.269 OA
BRANCH  20  22
ATOM     22  C   UNL     1      -9.575   0.956   0.072  1.00  0.00     0.451 C 
ATOM     23  F   UNL     1     -10.219   2.139  -0.067  1.00  0.00    -0.185 F 
ATOM     24  F   UNL     1      -9.847   0.198  -1.019  1.00  0.00    -0.185 F 
ENDBRANCH  20  22
ENDBRANCH  14  15
ENDBRANCH   7   9
ENDBRANCH   4   7
ENDBRANCH   2   3
ENDBRANCH   1   2
BRANCH   1  25
ATOM     25  C   UNL     1       5.067   1.371  -2.014  1.00  0.00     0.023 C 
BRANCH  25  26
ATOM     26  C   UNL     1       6.081   2.439  -1.634  1.00  0.00     0.116 C 
BRANCH  26  27
ATOM     27  N   UNL     1       7.106   1.954  -0.721  1.00  0.00    -0.352 N 
ATOM     28  C   UNL     1       8.451   2.240  -0.727  1.00  0.00     0.251 C 
ATOM     29  H   UNL     1       6.798   1.346  -0.011  1.00  0.00     0.163 HD
ATOM     30  O   UNL     1       9.220   1.673   0.040  1.00  0.00    -0.269 OA
BRANCH  28  31
ATOM     31  C   UNL     1       8.961   3.219  -1.706  1.00  0.00     0.039 A 
ATOM     32  C   UNL     1      10.006   2.849  -2.557  1.00  0.00     0.014 A 
ATOM     33  C   UNL     1       8.349   4.468  -1.829  1.00  0.00     0.014 A 
ATOM     34  C   UNL     1      10.385   3.706  -3.592  1.00  0.00     0.010 A 
ATOM     35  C   UNL     1       8.682   5.289  -2.898  1.00  0.00     0.010 A 
ATOM     36  C   UNL     1       9.696   4.911  -3.794  1.00  0.00    -0.014 A 
BRANCH  36  37
ATOM     37  C   UNL     1       9.994   5.806  -4.938  1.00  0.00     0.031 A 
ATOM     38  C   UNL     1      10.502   7.194  -4.680  1.00  0.00     0.074 A 
ATOM     39  C   UNL     1       9.683   5.420  -6.190  1.00  0.00     0.049 A 
ATOM     40  N   UNL     1      10.645   8.191  -5.516  1.00  0.00    -0.248 NA
ATOM     41  C   UNL     1      10.857   7.514  -3.289  1.00  0.00     0.031 C 
ATOM     42  C   UNL     1       9.140   4.114  -6.567  1.00  0.00     0.029 A 
ATOM     43  N   UNL     1       9.747   6.110  -7.374  1.00  0.00    -0.354 N 
ATOM     44  C   UNL     1      11.063   9.267  -4.744  1.00  0.00     0.074 A 
ATOM     45  C   UNL     1      11.122   8.809  -3.373  1.00  0.00     0.031 C 
ATOM     46  C   UNL     1       8.920   4.097  -7.891  1.00  0.00     0.029 A 
ATOM     47  C   UNL     1       9.265   5.402  -8.447  1.00  0.00     0.049 A 
ATOM     48  H   UNL     1      10.105   7.024  -7.448  1.00  0.00     0.167 HD
ATOM     49  C   UNL     1      11.377  10.522  -5.143  1.00  0.00     0.031 A 
ATOM     50  C   UNL     1       9.095   5.768  -9.732  1.00  0.00     0.031 A 
ATOM     51  C   UNL     1      11.342  10.967  -6.509  1.00  0.00     0.049 A 
ATOM     52  C   UNL     1       9.474   7.157 -10.159  1.00  0.00     0.074 A 
ATOM     53  C   UNL     1      11.719  12.194  -7.026  1.00  0.00     0.029 A 
ATOM     54  N   UNL     1      10.903  10.199  -7.576  1.00  0.00    -0.354 N 
ATOM     55  N   UNL     1       9.931   8.146  -9.431  1.00  0.00    -0.248 NA
ATOM     56  C   UNL     1       9.321   7.477 -11.585  1.00  0.00     0.031 C 
ATOM     57  C   UNL     1      11.470  12.182  -8.403  1.00  0.00     0.029 A 
ATOM     58  C   UNL     1      10.981  10.932  -8.748  1.00  0.00     0.049 A 
ATOM     59  H   UNL     1      10.584   9.270  -7.511  1.00  0.00     0.167 HD
ATOM     60  C   UNL     1      10.143   9.198 -10.312  1.00  0.00     0.074 A 
ATOM     61  C   UNL     1       9.771   8.724 -11.629  1.00  0.00     0.031 C 
ATOM     62  C   UNL     1      10.608  10.444 -10.051  1.00  0.00     0.031 A 
BRANCH  49  63
ATOM     63  C   UNL     1      11.764  11.502  -4.073  1.00  0.00    -0.014 A 
ATOM     64  C   UNL     1      12.981  11.390  -3.383  1.00  0.00     0.009 A 
ATOM     65  C   UNL     1      10.893  12.554  -3.748  1.00  0.00     0.009 A 
ATOM     66  C   UNL     1      13.297  12.281  -2.356  1.00  0.00     0.001 A 
ATOM     67  C   UNL     1      11.224  13.462  -2.741  1.00  0.00     0.001 A 
ATOM     68  C   UNL     1      12.419  13.317  -2.037  1.00  0.00     0.000 A 
ENDBRANCH  49  63
BRANCH  50  69
ATOM     69  C   UNL     1       8.540   4.793 -10.704  1.00  0.00    -0.014 A 
ATOM     70  C   UNL     1       9.381   4.162 -11.633  1.00  0.00     0.009 A 
ATOM     71  C   UNL     1       7.177   4.460 -10.682  1.00  0.00     0.009 A 
ATOM     72  C   UNL     1       8.863   3.226 -12.531  1.00  0.00     0.001 A 
ATOM     73  C   UNL     1       6.667   3.508 -11.567  1.00  0.00     0.001 A 
ATOM     74  C   UNL     1       7.509   2.895 -12.493  1.00  0.00     0.000 A 
ENDBRANCH  50  69
BRANCH  62  75
ATOM     75  C   UNL     1      10.775  11.376 -11.216  1.00  0.00    -0.014 A 
ATOM     76  C   UNL     1       9.670  12.002 -11.810  1.00  0.00     0.009 A 
ATOM     77  C   UNL     1      12.065  11.677 -11.681  1.00  0.00     0.009 A 
ATOM     78  C   UNL     1       9.853  12.900 -12.864  1.00  0.00     0.001 A 
ATOM     79  C   UNL     1      12.246  12.592 -12.719  1.00  0.00     0.001 A 
ATOM     80  C   UNL     1      11.140  13.199 -13.312  1.00  0.00     0.000 A 
ENDBRANCH  62  75
ENDBRANCH  36  37
ENDBRANCH  28  31
ENDBRANCH  26  27
ENDBRANCH  25  26
ENDBRANCH   1  25
TORSDOF 14
