REMARK SMILES Cc1cc(-n2nc(C)c(C(=O)NCCCCNC(=O)c3ccc(-c4c5nc(c(-c6ccccc6)c6ccc([nH]6)c(-c6ccccc6)c6nc(c(-c7ccccc7)c7ccc4[nH]7)C=C6)C=C5)cc3)c2Cl)nc(C)n1
REMARK SMILES IDX 15 1 14 2 13 3 12 4 10 5 11 6 9 8 5 9 6 10 68 11 7 12 69 13
REMARK SMILES IDX 8 14 4 15 1 16 2 17 3 18 73 19 71 20 70 21 72 22 16 23 17 24
REMARK SMILES IDX 18 25 19 27 20 28 21 29 67 30 22 31 66 32 23 33 24 34 25 35
REMARK SMILES IDX 60 36 26 37 65 38 59 39 61 40 27 41 64 42 58 43 57 44 28 46
REMARK SMILES IDX 50 47 35 48 49 49 36 50 39 51 48 52 62 53 37 54 38 55 47 57
REMARK SMILES IDX 63 58 40 59 29 60 30 61 34 62 31 63 33 64 32 65 51 66 52 67
REMARK SMILES IDX 56 68 53 69 55 70 54 71 41 72 42 73 46 74 43 75 45 76 44 77
REMARK H PARENT 12 7 17 26 61 45 39 56
REMARK Flexibility Score: inf
ROOT
ATOM      1  C   UNL     1      -7.257  -0.065   4.935  1.00  0.00     0.023 C 
ENDROOT
BRANCH   1   2
ATOM      2  C   UNL     1      -5.742   0.049   4.726  1.00  0.00     0.023 C 
BRANCH   2   3
ATOM      3  C   UNL     1      -4.962   0.616   5.921  1.00  0.00     0.116 C 
BRANCH   3   4
ATOM      4  N   UNL     1      -4.509  -0.440   6.798  1.00  0.00    -0.352 N 
ATOM      5  C   UNL     1      -3.364  -1.181   6.912  1.00  0.00     0.256 C 
ATOM      6  O   UNL     1      -3.405  -1.997   7.837  1.00  0.00    -0.269 OA
ATOM      7  H   UNL     1      -5.184  -0.684   7.472  1.00  0.00     0.163 HD
BRANCH   5   8
ATOM      8  C   UNL     1      -2.160  -1.049   6.091  1.00  0.00     0.100 A 
ATOM      9  N   UNL     1      -0.517  -0.502   4.679  1.00  0.00    -0.203 N 
ATOM     10  N   UNL     1       0.029  -1.493   5.409  1.00  0.00    -0.170 NA
ATOM     11  C   UNL     1      -1.866  -0.377   4.922  1.00  0.00     0.147 A 
ATOM     12  C   UNL     1      -0.916  -1.762   6.327  1.00  0.00     0.074 A 
ATOM     13  Cl  UNL     1      -2.774   0.380   3.684  1.00  0.00    -0.061 Cl
ATOM     14  C   UNL     1      -0.570  -2.762   7.381  1.00  0.00     0.070 C 
BRANCH   9  15
ATOM     15  C   UNL     1       0.220   0.227   3.711  1.00  0.00     0.159 A 
ATOM     16  C   UNL     1       1.083  -0.208   0.118  1.00  0.00     0.067 C 
ATOM     17  C   UNL     1       0.885   0.371   1.486  1.00  0.00     0.043 A 
ATOM     18  C   UNL     1       0.591  -0.440   2.562  1.00  0.00     0.072 A 
ATOM     19  N   UNL     1       0.939   1.719   1.581  1.00  0.00    -0.238 NA
ATOM     20  C   UNL     1       0.624   2.271   2.765  1.00  0.00     0.128 A 
ATOM     21  N   UNL     1       0.216   1.577   3.834  1.00  0.00    -0.214 NA
ATOM     22  C   UNL     1       0.640   3.762   2.884  1.00  0.00     0.090 C 
ENDBRANCH   9  15
ENDBRANCH   5   8
ENDBRANCH   3   4
ENDBRANCH   2   3
ENDBRANCH   1   2
BRANCH   1  23
ATOM     23  C   UNL     1      -7.965   1.280   5.052  1.00  0.00     0.116 C 
BRANCH  23  24
ATOM     24  N   UNL     1      -7.774   2.123   3.875  1.00  0.00    -0.352 N 
ATOM     25  C   UNL     1      -8.106   3.453   3.728  1.00  0.00     0.251 C 
ATOM     26  H   UNL     1      -7.360   1.690   3.094  1.00  0.00     0.163 HD
ATOM     27  O   UNL     1      -8.244   3.962   2.626  1.00  0.00    -0.269 OA
BRANCH  25  28
ATOM     28  C   UNL     1      -8.259   4.264   4.944  1.00  0.00     0.039 A 
ATOM     29  C   UNL     1      -9.342   5.133   5.101  1.00  0.00     0.014 A 
ATOM     30  C   UNL     1      -7.282   4.132   5.931  1.00  0.00     0.014 A 
ATOM     31  C   UNL     1      -9.462   5.842   6.291  1.00  0.00     0.010 A 
ATOM     32  C   UNL     1      -7.460   4.740   7.146  1.00  0.00     0.010 A 
ATOM     33  C   UNL     1      -8.515   5.637   7.303  1.00  0.00    -0.014 A 
BRANCH  33  34
ATOM     34  C   UNL     1      -8.610   6.342   8.568  1.00  0.00     0.031 A 
ATOM     35  C   UNL     1      -9.740   5.949   9.454  1.00  0.00     0.074 A 
ATOM     36  C   UNL     1      -7.592   7.111   9.005  1.00  0.00     0.049 A 
ATOM     37  N   UNL     1     -10.704   6.689   9.892  1.00  0.00    -0.248 NA
ATOM     38  C   UNL     1      -9.851   4.533   9.842  1.00  0.00     0.031 C 
ATOM     39  C   UNL     1      -6.263   7.300   8.408  1.00  0.00     0.029 A 
ATOM     40  N   UNL     1      -7.496   7.794  10.171  1.00  0.00    -0.354 N 
ATOM     41  C   UNL     1     -11.477   5.877  10.718  1.00  0.00     0.074 A 
ATOM     42  C   UNL     1     -10.980   4.534  10.552  1.00  0.00     0.031 C 
ATOM     43  C   UNL     1      -5.432   7.846   9.325  1.00  0.00     0.029 A 
ATOM     44  C   UNL     1      -6.209   8.198  10.499  1.00  0.00     0.049 A 
ATOM     45  H   UNL     1      -8.276   7.989  10.739  1.00  0.00     0.167 HD
ATOM     46  C   UNL     1     -12.364   6.382  11.621  1.00  0.00     0.031 A 
ATOM     47  C   UNL     1      -5.826   8.729  11.686  1.00  0.00     0.031 A 
ATOM     48  C   UNL     1     -12.623   7.777  11.403  1.00  0.00     0.049 A 
ATOM     49  C   UNL     1      -7.057   9.233  12.343  1.00  0.00     0.074 A 
ATOM     50  C   UNL     1     -13.212   8.505  10.389  1.00  0.00     0.029 A 
ATOM     51  N   UNL     1     -11.878   8.676  12.130  1.00  0.00    -0.354 N 
ATOM     52  N   UNL     1      -7.781  10.207  11.871  1.00  0.00    -0.248 NA
ATOM     53  C   UNL     1      -7.726   8.360  13.294  1.00  0.00     0.031 C 
ATOM     54  C   UNL     1     -12.405   9.675  10.265  1.00  0.00     0.029 A 
ATOM     55  C   UNL     1     -11.416   9.623  11.251  1.00  0.00     0.049 A 
ATOM     56  H   UNL     1     -11.708   8.645  13.099  1.00  0.00     0.167 HD
ATOM     57  C   UNL     1      -9.091   9.835  12.132  1.00  0.00     0.074 A 
ATOM     58  C   UNL     1      -8.991   8.739  13.093  1.00  0.00     0.031 C 
ATOM     59  C   UNL     1     -10.118  10.256  11.337  1.00  0.00     0.031 A 
BRANCH  46  60
ATOM     60  C   UNL     1     -12.761   5.681  12.889  1.00  0.00    -0.014 A 
ATOM     61  C   UNL     1     -13.862   6.147  13.628  1.00  0.00     0.009 A 
ATOM     62  C   UNL     1     -11.940   4.718  13.507  1.00  0.00     0.009 A 
ATOM     63  C   UNL     1     -14.116   5.680  14.925  1.00  0.00     0.001 A 
ATOM     64  C   UNL     1     -12.213   4.222  14.784  1.00  0.00     0.001 A 
ATOM     65  C   UNL     1     -13.293   4.716  15.501  1.00  0.00     0.000 A 
ENDBRANCH  46  60
BRANCH  47  66
ATOM     66  C   UNL     1      -4.576   8.492  12.446  1.00  0.00    -0.014 A 
ATOM     67  C   UNL     1      -4.309   9.248  13.600  1.00  0.00     0.009 A 
ATOM     68  C   UNL     1      -3.812   7.330  12.236  1.00  0.00     0.009 A 
ATOM     69  C   UNL     1      -3.373   8.814  14.548  1.00  0.00     0.001 A 
ATOM     70  C   UNL     1      -2.869   6.901  13.178  1.00  0.00     0.001 A 
ATOM     71  C   UNL     1      -2.670   7.630  14.347  1.00  0.00     0.000 A 
ENDBRANCH  47  66
BRANCH  59  72
ATOM     72  C   UNL     1      -9.812  11.281  10.270  1.00  0.00    -0.014 A 
ATOM     73  C   UNL     1      -9.014  10.995   9.146  1.00  0.00     0.009 A 
ATOM     74  C   UNL     1     -10.511  12.495  10.296  1.00  0.00     0.009 A 
ATOM     75  C   UNL     1      -8.922  11.899   8.082  1.00  0.00     0.001 A 
ATOM     76  C   UNL     1     -10.432  13.390   9.226  1.00  0.00     0.001 A 
ATOM     77  C   UNL     1      -9.640  13.092   8.118  1.00  0.00     0.000 A 
ENDBRANCH  59  72
ENDBRANCH  33  34
ENDBRANCH  25  28
ENDBRANCH  23  24
ENDBRANCH   1  23
TORSDOF 12
