REMARK SMILES C/C(=N/OCc1ccccc1Nc1c(Cl)cccc1Cl)C(=O)NCCCCNC(=O)c1ccc(-c2c3nc(c(-c4ccccc4)c4ccc([nH]4)c(-c4ccccc4)c4nc(c(-c5ccccc5)c5ccc2[nH]5)C=C4)C=C3)cc1
REMARK SMILES IDX 24 1 23 2 21 3 22 4 2 6 1 7 3 8 4 9 5 10 6 11 7 12 11 13
REMARK SMILES IDX 8 14 10 15 9 16 12 17 13 19 14 20 19 21 15 22 16 23 18 24
REMARK SMILES IDX 20 25 17 26 25 27 26 28 27 29 28 30 29 31 30 33 31 34 32 35
REMARK SMILES IDX 78 36 33 37 77 38 34 39 35 40 36 41 71 42 37 43 76 44 70 45
REMARK SMILES IDX 72 46 38 47 75 48 69 49 68 50 39 52 61 53 46 54 60 55 47 56
REMARK SMILES IDX 50 57 59 58 73 59 48 60 49 61 58 63 74 64 51 65 40 66 41 67
REMARK SMILES IDX 45 68 42 69 44 70 43 71 62 72 63 73 67 74 64 75 66 76 65 77
REMARK SMILES IDX 52 78 53 79 57 80 54 81 56 82 55 83
REMARK H PARENT 23 5 12 18 28 32 72 51 50 62
REMARK Flexibility Score: inf
ROOT
ATOM      1  C   UNL     1       0.140   3.090  -3.301  1.00  0.00     0.116 C 
ENDROOT
BRANCH   1   2
ATOM      2  N   UNL     1       0.577   3.102  -1.926  1.00  0.00    -0.351 N 
ATOM      3  C   UNL     1       0.487   2.142  -0.951  1.00  0.00     0.268 C 
ATOM      4  O   UNL     1       0.682   2.499   0.213  1.00  0.00    -0.268 OA
ATOM      5  H   UNL     1       1.012   3.938  -1.640  1.00  0.00     0.163 HD
BRANCH   3   6
ATOM      6  C   UNL     1       0.308   0.649  -1.181  1.00  0.00     0.141 C 
ATOM      7  C   UNL     1       1.141  -0.200  -0.240  1.00  0.00     0.077 C 
ATOM      8  N   UNL     1      -0.461  -0.020  -1.988  1.00  0.00    -0.086 NA
BRANCH   8   9
ATOM      9  O   UNL     1      -1.223   0.716  -2.883  1.00  0.00    -0.390 OA
BRANCH   9  10
ATOM     10  C   UNL     1      -1.776  -0.145  -3.901  1.00  0.00     0.302 C 
BRANCH  10  11
ATOM     11  C   UNL     1      -0.731  -0.838  -4.760  1.00  0.00     0.016 A 
ATOM     12  C   UNL     1      -0.080  -1.959  -4.199  1.00  0.00     0.009 A 
ATOM     13  C   UNL     1      -0.406  -0.454  -6.078  1.00  0.00     0.045 A 
ATOM     14  C   UNL     1       0.885  -2.675  -4.902  1.00  0.00     0.001 A 
ATOM     15  C   UNL     1       0.561  -1.206  -6.777  1.00  0.00     0.026 A 
ATOM     16  C   UNL     1       1.206  -2.297  -6.195  1.00  0.00     0.002 A 
BRANCH  13  17
ATOM     17  N   UNL     1      -1.049   0.630  -6.720  1.00  0.00    -0.353 N 
ATOM     18  H   UNL     1      -1.506   1.274  -6.131  1.00  0.00     0.167 HD
BRANCH  17  19
ATOM     19  C   UNL     1      -1.114   0.900  -8.114  1.00  0.00     0.076 A 
ATOM     20  C   UNL     1      -0.498   2.057  -8.638  1.00  0.00     0.066 A 
ATOM     21  C   UNL     1      -1.678  -0.005  -9.039  1.00  0.00     0.066 A 
ATOM     22  Cl  UNL     1       0.302   3.182  -7.591  1.00  0.00    -0.082 Cl
ATOM     23  C   UNL     1      -0.462   2.307 -10.015  1.00  0.00     0.023 A 
ATOM     24  C   UNL     1      -1.631   0.242 -10.418  1.00  0.00     0.023 A 
ATOM     25  Cl  UNL     1      -2.509  -1.438  -8.531  1.00  0.00    -0.082 Cl
ATOM     26  C   UNL     1      -1.024   1.397 -10.906  1.00  0.00     0.003 A 
ENDBRANCH  17  19
ENDBRANCH  13  17
ENDBRANCH  10  11
ENDBRANCH   9  10
ENDBRANCH   8   9
ENDBRANCH   3   6
ENDBRANCH   1   2
BRANCH   1  27
ATOM     27  C   UNL     1      -1.355   3.433  -3.363  1.00  0.00     0.023 C 
BRANCH  27  28
ATOM     28  C   UNL     1      -1.670   4.929  -3.367  1.00  0.00     0.023 C 
BRANCH  28  29
ATOM     29  C   UNL     1      -1.300   5.633  -4.663  1.00  0.00     0.116 C 
BRANCH  29  30
ATOM     30  N   UNL     1      -1.974   5.083  -5.830  1.00  0.00    -0.352 N 
ATOM     31  C   UNL     1      -2.215   5.682  -7.045  1.00  0.00     0.251 C 
ATOM     32  H   UNL     1      -2.300   4.158  -5.738  1.00  0.00     0.163 HD
ATOM     33  O   UNL     1      -2.820   5.094  -7.924  1.00  0.00    -0.269 OA
BRANCH  31  34
ATOM     34  C   UNL     1      -1.793   7.084  -7.234  1.00  0.00     0.039 A 
ATOM     35  C   UNL     1      -2.752   8.005  -7.662  1.00  0.00     0.014 A 
ATOM     36  C   UNL     1      -0.499   7.498  -6.914  1.00  0.00     0.014 A 
ATOM     37  C   UNL     1      -2.435   9.361  -7.688  1.00  0.00     0.010 A 
ATOM     38  C   UNL     1      -0.207   8.856  -6.869  1.00  0.00     0.010 A 
ATOM     39  C   UNL     1      -1.176   9.799  -7.246  1.00  0.00    -0.014 A 
BRANCH  39  40
ATOM     40  C   UNL     1      -0.864  11.244  -7.156  1.00  0.00     0.031 A 
ATOM     41  C   UNL     1       0.198  11.841  -8.032  1.00  0.00     0.074 A 
ATOM     42  C   UNL     1      -1.497  12.002  -6.240  1.00  0.00     0.049 A 
ATOM     43  N   UNL     1       0.638  13.072  -8.069  1.00  0.00    -0.248 NA
ATOM     44  C   UNL     1       0.874  10.930  -8.970  1.00  0.00     0.031 C 
ATOM     45  C   UNL     1      -2.512  11.525  -5.296  1.00  0.00     0.029 A 
ATOM     46  N   UNL     1      -1.375  13.337  -5.949  1.00  0.00    -0.354 N 
ATOM     47  C   UNL     1       1.650  13.080  -9.019  1.00  0.00     0.074 A 
ATOM     48  C   UNL     1       1.792  11.724  -9.500  1.00  0.00     0.031 C 
ATOM     49  C   UNL     1      -2.942  12.559  -4.554  1.00  0.00     0.029 A 
ATOM     50  C   UNL     1      -2.211  13.760  -4.945  1.00  0.00     0.049 A 
ATOM     51  H   UNL     1      -0.748  13.935  -6.417  1.00  0.00     0.167 HD
ATOM     52  C   UNL     1       2.382  14.127  -9.466  1.00  0.00     0.031 A 
ATOM     53  C   UNL     1      -2.370  14.980  -4.401  1.00  0.00     0.031 A 
ATOM     54  C   UNL     1       2.229  15.478  -9.000  1.00  0.00     0.049 A 
ATOM     55  C   UNL     1      -1.549  16.126  -4.919  1.00  0.00     0.074 A 
ATOM     56  C   UNL     1       2.878  16.619  -9.436  1.00  0.00     0.029 A 
ATOM     57  N   UNL     1       1.363  15.868  -7.991  1.00  0.00    -0.354 N 
ATOM     58  N   UNL     1      -0.647  16.131  -5.870  1.00  0.00    -0.248 NA
ATOM     59  C   UNL     1      -1.777  17.437  -4.294  1.00  0.00     0.031 C 
ATOM     60  C   UNL     1       2.432  17.696  -8.662  1.00  0.00     0.029 A 
ATOM     61  C   UNL     1       1.474  17.230  -7.775  1.00  0.00     0.049 A 
ATOM     62  H   UNL     1       0.757  15.266  -7.501  1.00  0.00     0.167 HD
ATOM     63  C   UNL     1      -0.214  17.447  -5.973  1.00  0.00     0.074 A 
ATOM     64  C   UNL     1      -0.965  18.213  -4.999  1.00  0.00     0.031 C 
ATOM     65  C   UNL     1       0.721  17.973  -6.800  1.00  0.00     0.031 A 
BRANCH  52  66
ATOM     66  C   UNL     1       3.418  13.842 -10.515  1.00  0.00    -0.014 A 
ATOM     67  C   UNL     1       3.048  13.529 -11.833  1.00  0.00     0.009 A 
ATOM     68  C   UNL     1       4.781  13.906 -10.188  1.00  0.00     0.009 A 
ATOM     69  C   UNL     1       4.022  13.250 -12.793  1.00  0.00     0.001 A 
ATOM     70  C   UNL     1       5.753  13.652 -11.157  1.00  0.00     0.001 A 
ATOM     71  C   UNL     1       5.373  13.315 -12.456  1.00  0.00     0.000 A 
ENDBRANCH  52  66
BRANCH  53  72
ATOM     72  C   UNL     1      -3.365  15.188  -3.317  1.00  0.00    -0.014 A 
ATOM     73  C   UNL     1      -4.557  15.883  -3.574  1.00  0.00     0.009 A 
ATOM     74  C   UNL     1      -3.127  14.700  -2.024  1.00  0.00     0.009 A 
ATOM     75  C   UNL     1      -5.480  16.105  -2.550  1.00  0.00     0.001 A 
ATOM     76  C   UNL     1      -4.063  14.904  -1.008  1.00  0.00     0.001 A 
ATOM     77  C   UNL     1      -5.234  15.613  -1.269  1.00  0.00     0.000 A 
ENDBRANCH  53  72
BRANCH  65  78
ATOM     78  C   UNL     1       0.965  19.451  -6.701  1.00  0.00    -0.014 A 
ATOM     79  C   UNL     1       1.680  19.996  -5.625  1.00  0.00     0.009 A 
ATOM     80  C   UNL     1       0.508  20.300  -7.721  1.00  0.00     0.009 A 
ATOM     81  C   UNL     1       1.908  21.372  -5.557  1.00  0.00     0.001 A 
ATOM     82  C   UNL     1       0.760  21.671  -7.662  1.00  0.00     0.001 A 
ATOM     83  C   UNL     1       1.453  22.206  -6.577  1.00  0.00     0.000 A 
ENDBRANCH  65  78
ENDBRANCH  39  40
ENDBRANCH  31  34
ENDBRANCH  29  30
ENDBRANCH  28  29
ENDBRANCH  27  28
ENDBRANCH   1  27
TORSDOF 16
