REMARK SMILES CCC(CC)(NC(=O)NCCc1nccs1)C(=O)NCCCCNC(=O)c1ccc(-c2c3nc(c(-c4ccccc4)c4ccc([nH]4)c(-c4ccccc4)c4nc(c(-c5ccccc5)c5ccc2[nH]5)C=C4)C=C3)cc1
REMARK SMILES IDX 20 1 19 2 17 3 18 4 3 6 2 7 1 8 4 9 5 10 6 11 7 12 8 14 9 15
REMARK SMILES IDX 10 17 11 18 12 19 13 20 16 21 14 22 15 23 21 24 22 25 23 26
REMARK SMILES IDX 24 27 25 28 26 30 27 31 28 32 74 33 29 34 73 35 30 36 31 37
REMARK SMILES IDX 32 38 67 39 33 40 72 41 66 42 68 43 34 44 71 45 65 46 64 47
REMARK SMILES IDX 35 49 57 50 42 51 56 52 43 53 46 54 55 55 69 56 44 57 45 58
REMARK SMILES IDX 54 60 70 61 47 62 36 63 37 64 41 65 38 66 40 67 39 68 58 69
REMARK SMILES IDX 59 70 63 71 60 72 62 73 61 74 48 75 49 76 53 77 50 78 52 79
REMARK SMILES IDX 51 80
REMARK H PARENT 19 5 6 13 9 16 24 29 68 48 46 59
REMARK Flexibility Score: inf
ROOT
ATOM      1  C   UNL     1       1.807  -5.444   0.988  1.00  0.00     0.116 C 
ENDROOT
BRANCH   1   2
ATOM      2  N   UNL     1       2.581  -4.204   1.014  1.00  0.00    -0.354 N 
ATOM      3  C   UNL     1       2.324  -2.916   0.603  1.00  0.00     0.245 C 
ATOM      4  O   UNL     1       3.104  -2.047   1.010  1.00  0.00    -0.272 OA
ATOM      5  H   UNL     1       3.476  -4.314   1.409  1.00  0.00     0.163 HD
BRANCH   3   6
ATOM      6  C   UNL     1       1.060  -2.548  -0.224  1.00  0.00     0.120 C 
BRANCH   6   7
ATOM      7  C   UNL     1       1.010  -1.141  -0.890  1.00  0.00     0.035 C 
ATOM      8  C   UNL     1       1.122   0.083   0.010  1.00  0.00     0.007 C 
ENDBRANCH   6   7
BRANCH   6   9
ATOM      9  C   UNL     1      -0.118  -2.654   0.810  1.00  0.00     0.035 C 
ATOM     10  C   UNL     1      -1.537  -2.575   0.266  1.00  0.00     0.007 C 
ENDBRANCH   6   9
BRANCH   6  11
ATOM     11  N   UNL     1       0.966  -3.550  -1.306  1.00  0.00    -0.324 N 
ATOM     12  C   UNL     1       1.763  -3.964  -2.299  1.00  0.00     0.315 C 
ATOM     13  H   UNL     1       0.108  -4.032  -1.292  1.00  0.00     0.166 HD
ATOM     14  O   UNL     1       1.256  -4.745  -3.112  1.00  0.00    -0.249 OA
ATOM     15  N   UNL     1       3.061  -3.689  -2.465  1.00  0.00    -0.338 N 
ATOM     16  H   UNL     1       3.481  -4.343  -3.069  1.00  0.00     0.165 HD
BRANCH  15  17
ATOM     17  C   UNL     1       4.040  -2.701  -2.012  1.00  0.00     0.125 C 
BRANCH  17  18
ATOM     18  C   UNL     1       5.147  -3.189  -1.072  1.00  0.00     0.089 C 
BRANCH  18  19
ATOM     19  C   UNL     1       6.214  -4.062  -1.662  1.00  0.00     0.094 A 
ATOM     20  N   UNL     1       6.449  -5.293  -1.250  1.00  0.00    -0.250 NA
ATOM     21  S   UNL     1       7.359  -3.442  -2.787  1.00  0.00    -0.127 S 
ATOM     22  C   UNL     1       7.597  -5.782  -1.838  1.00  0.00     0.123 A 
ATOM     23  C   UNL     1       8.233  -4.915  -2.698  1.00  0.00     0.087 A 
ENDBRANCH  18  19
ENDBRANCH  17  18
ENDBRANCH  15  17
ENDBRANCH   6  11
ENDBRANCH   3   6
ENDBRANCH   1   2
BRANCH   1  24
ATOM     24  C   UNL     1       2.124  -6.478  -0.094  1.00  0.00     0.023 C 
BRANCH  24  25
ATOM     25  C   UNL     1       3.586  -6.752  -0.415  1.00  0.00     0.023 C 
BRANCH  25  26
ATOM     26  C   UNL     1       4.479  -7.084   0.770  1.00  0.00     0.116 C 
BRANCH  26  27
ATOM     27  N   UNL     1       4.056  -8.289   1.462  1.00  0.00    -0.352 N 
ATOM     28  C   UNL     1       4.809  -9.349   1.902  1.00  0.00     0.251 C 
ATOM     29  H   UNL     1       3.091  -8.355   1.642  1.00  0.00     0.163 HD
ATOM     30  O   UNL     1       4.249 -10.355   2.329  1.00  0.00    -0.269 OA
BRANCH  28  31
ATOM     31  C   UNL     1       6.289  -9.303   1.853  1.00  0.00     0.039 A 
ATOM     32  C   UNL     1       6.976 -10.457   1.463  1.00  0.00     0.014 A 
ATOM     33  C   UNL     1       7.004  -8.165   2.237  1.00  0.00     0.014 A 
ATOM     34  C   UNL     1       8.373 -10.461   1.426  1.00  0.00     0.010 A 
ATOM     35  C   UNL     1       8.397  -8.150   2.146  1.00  0.00     0.010 A 
ATOM     36  C   UNL     1       9.095  -9.302   1.753  1.00  0.00    -0.014 A 
BRANCH  36  37
ATOM     37  C   UNL     1      10.578  -9.291   1.706  1.00  0.00     0.031 A 
ATOM     38  C   UNL     1      11.379  -9.166   2.974  1.00  0.00     0.074 A 
ATOM     39  C   UNL     1      11.210  -9.356   0.519  1.00  0.00     0.049 A 
ATOM     40  N   UNL     1      12.679  -9.118   3.127  1.00  0.00    -0.248 NA
ATOM     41  C   UNL     1      10.620  -9.068   4.230  1.00  0.00     0.031 C 
ATOM     42  C   UNL     1      10.554  -9.456  -0.786  1.00  0.00     0.029 A 
ATOM     43  N   UNL     1      12.550  -9.347   0.220  1.00  0.00    -0.354 N 
ATOM     44  C   UNL     1      12.892  -8.972   4.492  1.00  0.00     0.074 A 
ATOM     45  C   UNL     1      11.589  -8.896   5.118  1.00  0.00     0.031 C 
ATOM     46  C   UNL     1      11.494  -9.519  -1.744  1.00  0.00     0.029 A 
ATOM     47  C   UNL     1      12.814  -9.433  -1.125  1.00  0.00     0.049 A 
ATOM     48  H   UNL     1      13.254  -9.284   0.904  1.00  0.00     0.167 HD
ATOM     49  C   UNL     1      14.065  -8.921   5.169  1.00  0.00     0.031 A 
ATOM     50  C   UNL     1      13.986  -9.441  -1.787  1.00  0.00     0.031 A 
ATOM     51  C   UNL     1      15.363  -9.002   4.554  1.00  0.00     0.049 A 
ATOM     52  C   UNL     1      15.274  -9.363  -1.016  1.00  0.00     0.074 A 
ATOM     53  C   UNL     1      16.607  -9.010   5.163  1.00  0.00     0.029 A 
ATOM     54  N   UNL     1      15.586  -9.083   3.189  1.00  0.00    -0.354 N 
ATOM     55  N   UNL     1      15.458  -9.287   0.279  1.00  0.00    -0.248 NA
ATOM     56  C   UNL     1      16.516  -9.384  -1.802  1.00  0.00     0.031 C 
ATOM     57  C   UNL     1      17.584  -9.049   4.162  1.00  0.00     0.029 A 
ATOM     58  C   UNL     1      16.947  -9.116   2.934  1.00  0.00     0.049 A 
ATOM     59  H   UNL     1      14.882  -9.112   2.502  1.00  0.00     0.167 HD
ATOM     60  C   UNL     1      16.834  -9.277   0.465  1.00  0.00     0.074 A 
ATOM     61  C   UNL     1      17.437  -9.368  -0.848  1.00  0.00     0.031 C 
ATOM     62  C   UNL     1      17.535  -9.201   1.623  1.00  0.00     0.031 A 
BRANCH  49  63
ATOM     63  C   UNL     1      13.994  -8.760   6.662  1.00  0.00    -0.014 A 
ATOM     64  C   UNL     1      13.561  -9.810   7.486  1.00  0.00     0.009 A 
ATOM     65  C   UNL     1      14.400  -7.554   7.254  1.00  0.00     0.009 A 
ATOM     66  C   UNL     1      13.500  -9.643   8.871  1.00  0.00     0.001 A 
ATOM     67  C   UNL     1      14.364  -7.399   8.641  1.00  0.00     0.001 A 
ATOM     68  C   UNL     1      13.905  -8.440   9.447  1.00  0.00     0.000 A 
ENDBRANCH  49  63
BRANCH  50  69
ATOM     69  C   UNL     1      13.997  -9.540  -3.269  1.00  0.00    -0.014 A 
ATOM     70  C   UNL     1      14.411 -10.724  -3.899  1.00  0.00     0.009 A 
ATOM     71  C   UNL     1      13.595  -8.453  -4.059  1.00  0.00     0.009 A 
ATOM     72  C   UNL     1      14.443 -10.808  -5.292  1.00  0.00     0.001 A 
ATOM     73  C   UNL     1      13.604  -8.549  -5.452  1.00  0.00     0.001 A 
ATOM     74  C   UNL     1      14.036  -9.723  -6.067  1.00  0.00     0.000 A 
ENDBRANCH  50  69
BRANCH  62  75
ATOM     75  C   UNL     1      19.034  -9.241   1.523  1.00  0.00    -0.014 A 
ATOM     76  C   UNL     1      19.761  -8.139   1.048  1.00  0.00     0.009 A 
ATOM     77  C   UNL     1      19.729 -10.385   1.946  1.00  0.00     0.009 A 
ATOM     78  C   UNL     1      21.154  -8.194   0.970  1.00  0.00     0.001 A 
ATOM     79  C   UNL     1      21.122 -10.427   1.891  1.00  0.00     0.001 A 
ATOM     80  C   UNL     1      21.833  -9.335   1.395  1.00  0.00     0.000 A 
ENDBRANCH  62  75
ENDBRANCH  36  37
ENDBRANCH  28  31
ENDBRANCH  26  27
ENDBRANCH  25  26
ENDBRANCH  24  25
ENDBRANCH   1  24
TORSDOF 17
