REMARK SMILES O=C(NCCCCNC(=O)c1oc2cccc3c2c1CCC3)c1ccc(-c2c3nc(c(-c4ccccc4)c4ccc([nH]4)c(-c4ccccc4)c4nc(c(-c5ccccc5)c5ccc2[nH]5)C=C4)C=C3)cc1
REMARK SMILES IDX 4 1 3 2 1 3 2 4 23 6 24 7 70 8 25 9 69 10 26 11 27 12 28 13
REMARK SMILES IDX 63 14 29 15 68 16 62 17 64 18 30 19 67 20 61 21 60 22 31 24
REMARK SMILES IDX 53 25 38 26 52 27 39 28 42 29 51 30 65 31 40 32 41 33 50 35
REMARK SMILES IDX 66 36 43 37 32 38 33 39 37 40 34 41 36 42 35 43 54 44 55 45
REMARK SMILES IDX 59 46 56 47 58 48 57 49 44 50 45 51 49 52 46 53 48 54 47 55
REMARK SMILES IDX 5 56 6 57 7 58 8 59 9 60 10 62 11 63 12 64 19 65 13 66 18 67
REMARK SMILES IDX 20 68 14 69 17 70 21 71 15 72 16 73 22 74
REMARK H PARENT 3 5 64 23 42 34 8 61
REMARK Flexibility Score: inf
ROOT
ATOM      1  C   UNL     1       4.852  -0.812  -0.875  1.00  0.00     0.116 C 
ENDROOT
BRANCH   1   2
ATOM      2  N   UNL     1       3.466  -0.429  -1.084  1.00  0.00    -0.352 N 
ATOM      3  O   UNL     1       1.386   0.306  -0.720  1.00  0.00    -0.269 OA
ATOM      4  C   UNL     1       2.472  -0.011  -0.236  1.00  0.00     0.251 C 
ATOM      5  H   UNL     1       3.182  -0.480  -2.026  1.00  0.00     0.163 HD
BRANCH   4   6
ATOM      6  C   UNL     1       2.628  -0.003   1.237  1.00  0.00     0.039 A 
ATOM      7  C   UNL     1       3.825   0.308   1.879  1.00  0.00     0.014 A 
ATOM      8  C   UNL     1       1.497  -0.317   2.007  1.00  0.00     0.014 A 
ATOM      9  C   UNL     1       3.933   0.163   3.257  1.00  0.00     0.010 A 
ATOM     10  C   UNL     1       1.588  -0.409   3.396  1.00  0.00     0.010 A 
ATOM     11  C   UNL     1       2.820  -0.213   4.019  1.00  0.00    -0.014 A 
BRANCH  11  12
ATOM     12  C   UNL     1       3.010  -0.283   5.469  1.00  0.00     0.031 A 
ATOM     13  C   UNL     1       3.448   0.974   6.148  1.00  0.00     0.074 A 
ATOM     14  C   UNL     1       2.711  -1.342   6.244  1.00  0.00     0.049 A 
ATOM     15  N   UNL     1       4.489   1.172   6.894  1.00  0.00    -0.248 NA
ATOM     16  C   UNL     1       2.607   2.163   5.950  1.00  0.00     0.031 C 
ATOM     17  C   UNL     1       1.954  -2.542   5.892  1.00  0.00     0.029 A 
ATOM     18  N   UNL     1       2.952  -1.496   7.580  1.00  0.00    -0.354 N 
ATOM     19  C   UNL     1       4.386   2.482   7.353  1.00  0.00     0.074 A 
ATOM     20  C   UNL     1       3.238   3.065   6.701  1.00  0.00     0.031 C 
ATOM     21  C   UNL     1       1.608  -3.189   7.028  1.00  0.00     0.029 A 
ATOM     22  C   UNL     1       2.233  -2.523   8.161  1.00  0.00     0.049 A 
ATOM     23  H   UNL     1       3.581  -0.928   8.082  1.00  0.00     0.167 HD
ATOM     24  C   UNL     1       5.166   3.009   8.335  1.00  0.00     0.031 A 
ATOM     25  C   UNL     1       2.100  -2.761   9.486  1.00  0.00     0.031 A 
ATOM     26  C   UNL     1       6.327   2.229   8.637  1.00  0.00     0.049 A 
ATOM     27  C   UNL     1       3.202  -2.082  10.203  1.00  0.00     0.074 A 
ATOM     28  C   UNL     1       7.487   1.889   7.973  1.00  0.00     0.029 A 
ATOM     29  N   UNL     1       6.279   1.430   9.750  1.00  0.00    -0.354 N 
ATOM     30  N   UNL     1       4.455  -2.428  10.129  1.00  0.00    -0.248 NA
ATOM     31  C   UNL     1       2.950  -0.802  10.850  1.00  0.00     0.031 C 
ATOM     32  C   UNL     1       7.865   0.618   8.495  1.00  0.00     0.029 A 
ATOM     33  C   UNL     1       6.894   0.247   9.427  1.00  0.00     0.049 A 
ATOM     34  H   UNL     1       5.878   1.662  10.619  1.00  0.00     0.167 HD
ATOM     35  C   UNL     1       5.165  -1.264  10.368  1.00  0.00     0.074 A 
ATOM     36  C   UNL     1       4.201  -0.348  10.960  1.00  0.00     0.031 C 
ATOM     37  C   UNL     1       6.391  -1.056   9.806  1.00  0.00     0.031 A 
BRANCH  24  38
ATOM     38  C   UNL     1       4.724   4.144   9.210  1.00  0.00    -0.014 A 
ATOM     39  C   UNL     1       5.673   4.931   9.880  1.00  0.00     0.009 A 
ATOM     40  C   UNL     1       3.372   4.317   9.565  1.00  0.00     0.009 A 
ATOM     41  C   UNL     1       5.283   5.862  10.850  1.00  0.00     0.001 A 
ATOM     42  C   UNL     1       2.977   5.268  10.508  1.00  0.00     0.001 A 
ATOM     43  C   UNL     1       3.935   6.035  11.158  1.00  0.00     0.000 A 
ENDBRANCH  24  38
BRANCH  25  44
ATOM     44  C   UNL     1       0.948  -3.353  10.198  1.00  0.00    -0.014 A 
ATOM     45  C   UNL     1       1.080  -3.796  11.523  1.00  0.00     0.009 A 
ATOM     46  C   UNL     1      -0.351  -3.256   9.666  1.00  0.00     0.009 A 
ATOM     47  C   UNL     1      -0.049  -4.094  12.297  1.00  0.00     0.001 A 
ATOM     48  C   UNL     1      -1.477  -3.567  10.433  1.00  0.00     0.001 A 
ATOM     49  C   UNL     1      -1.326  -3.970  11.755  1.00  0.00     0.000 A 
ENDBRANCH  25  44
BRANCH  37  50
ATOM     50  C   UNL     1       7.098  -2.248   9.216  1.00  0.00    -0.014 A 
ATOM     51  C   UNL     1       6.590  -2.939   8.103  1.00  0.00     0.009 A 
ATOM     52  C   UNL     1       8.372  -2.590   9.693  1.00  0.00     0.009 A 
ATOM     53  C   UNL     1       7.325  -3.964   7.500  1.00  0.00     0.001 A 
ATOM     54  C   UNL     1       9.114  -3.603   9.079  1.00  0.00     0.001 A 
ATOM     55  C   UNL     1       8.589  -4.291   7.986  1.00  0.00     0.000 A 
ENDBRANCH  37  50
ENDBRANCH  11  12
ENDBRANCH   4   6
ENDBRANCH   1   2
BRANCH   1  56
ATOM     56  C   UNL     1       5.072  -2.106  -0.090  1.00  0.00     0.023 C 
BRANCH  56  57
ATOM     57  C   UNL     1       4.529  -3.374  -0.750  1.00  0.00     0.023 C 
BRANCH  57  58
ATOM     58  C   UNL     1       4.953  -3.584  -2.198  1.00  0.00     0.116 C 
BRANCH  58  59
ATOM     59  N   UNL     1       6.390  -3.665  -2.377  1.00  0.00    -0.349 N 
ATOM     60  C   UNL     1       7.080  -4.399  -3.324  1.00  0.00     0.287 C 
ATOM     61  H   UNL     1       6.938  -3.135  -1.753  1.00  0.00     0.163 HD
ATOM     62  O   UNL     1       8.301  -4.399  -3.280  1.00  0.00    -0.266 OA
BRANCH  60  63
ATOM     63  C   UNL     1       6.297  -5.143  -4.285  1.00  0.00     0.195 A 
ATOM     64  O   UNL     1       6.435  -6.519  -4.295  1.00  0.00    -0.451 OA
ATOM     65  C   UNL     1       5.330  -4.768  -5.201  1.00  0.00     0.012 A 
ATOM     66  C   UNL     1       5.491  -7.016  -5.147  1.00  0.00     0.135 A 
ATOM     67  C   UNL     1       4.801  -5.968  -5.703  1.00  0.00     0.028 A 
ATOM     68  C   UNL     1       4.743  -3.476  -5.659  1.00  0.00     0.041 C 
ATOM     69  C   UNL     1       5.192  -8.339  -5.433  1.00  0.00     0.048 A 
ATOM     70  C   UNL     1       3.740  -6.145  -6.589  1.00  0.00    -0.037 A 
ATOM     71  C   UNL     1       3.986  -3.665  -7.009  1.00  0.00     0.010 C 
ATOM     72  C   UNL     1       4.109  -8.539  -6.311  1.00  0.00     0.004 A 
ATOM     73  C   UNL     1       3.387  -7.467  -6.873  1.00  0.00     0.004 A 
ATOM     74  C   UNL     1       3.035  -4.902  -7.059  1.00  0.00     0.036 C 
ENDBRANCH  60  63
ENDBRANCH  58  59
ENDBRANCH  57  58
ENDBRANCH  56  57
ENDBRANCH   1  56
TORSDOF 11
