REMARK SMILES O=C(CSc1nnc(-c2ccncc2)s1)Nc1cccc(C(=O)NCCCCNC(=O)c2ccc(-c3c4nc(c(-c5ccccc5)c5ccc([nH]5)c(-c5ccccc5)c5nc(c(-c6ccccc6)c6ccc3[nH]6)C=C5)C=C4)cc2)c1
REMARK SMILES IDX 25 1 24 2 22 3 23 4 21 6 17 7 18 8 80 9 19 10 20 11 16 12
REMARK SMILES IDX 1 13 2 14 3 16 4 17 5 18 6 19 15 20 7 21 8 22 9 23 10 24
REMARK SMILES IDX 14 25 11 26 13 27 12 28 26 29 27 30 28 31 29 32 30 33 31 35
REMARK SMILES IDX 32 36 33 37 79 38 34 39 78 40 35 41 36 42 37 43 72 44 38 45
REMARK SMILES IDX 77 46 71 47 73 48 39 49 76 50 70 51 69 52 40 54 62 55 47 56
REMARK SMILES IDX 61 57 48 58 51 59 60 60 74 61 49 62 50 63 59 65 75 66 52 67
REMARK SMILES IDX 41 68 42 69 46 70 43 71 45 72 44 73 63 74 64 75 68 76 65 77
REMARK SMILES IDX 67 78 66 79 53 80 54 81 58 82 55 83 57 84 56 85
REMARK H PARENT 24 5 16 15 29 34 73 53 51 64
REMARK Flexibility Score: inf
ROOT
ATOM      1  C   UNL     1       0.229  -3.046  -1.195  1.00  0.00     0.116 C 
ENDROOT
BRANCH   1   2
ATOM      2  N   UNL     1      -0.519  -3.953  -0.332  1.00  0.00    -0.352 N 
ATOM      3  C   UNL     1      -0.389  -4.186   1.024  1.00  0.00     0.251 C 
ATOM      4  O   UNL     1      -1.113  -5.015   1.570  1.00  0.00    -0.269 OA
ATOM      5  H   UNL     1      -1.222  -4.475  -0.782  1.00  0.00     0.163 HD
BRANCH   3   6
ATOM      6  C   UNL     1       0.671  -3.504   1.810  1.00  0.00     0.041 A 
ATOM      7  C   UNL     1       2.204  -1.647   2.013  1.00  0.00     0.041 A 
ATOM      8  C   UNL     1       2.949  -2.378   2.944  1.00  0.00     0.026 A 
ATOM      9  C   UNL     1       0.995  -2.170   1.566  1.00  0.00     0.040 A 
ATOM     10  C   UNL     1       2.535  -3.658   3.332  1.00  0.00     0.003 A 
ATOM     11  C   UNL     1       1.415  -4.238   2.736  1.00  0.00     0.014 A 
BRANCH   7  12
ATOM     12  N   UNL     1       2.779  -0.483   1.460  1.00  0.00    -0.325 N 
ATOM     13  O   UNL     1       1.237   0.057  -0.204  1.00  0.00    -0.274 OA
ATOM     14  C   UNL     1       2.314   0.234   0.367  1.00  0.00     0.234 C 
ATOM     15  H   UNL     1       3.594  -0.144   1.895  1.00  0.00     0.169 HD
BRANCH  14  16
ATOM     16  C   UNL     1       3.317   1.183  -0.269  1.00  0.00     0.177 C 
BRANCH  16  17
ATOM     17  S   UNL     1       4.486   1.966   0.861  1.00  0.00    -0.084 SA
BRANCH  17  18
ATOM     18  C   UNL     1       3.378   2.889   1.840  1.00  0.00     0.175 A 
ATOM     19  N   UNL     1       2.619   2.303   2.735  1.00  0.00    -0.131 NA
ATOM     20  S   UNL     1       3.233   4.590   1.776  1.00  0.00    -0.086 S 
ATOM     21  N   UNL     1       1.897   3.216   3.471  1.00  0.00    -0.137 NA
ATOM     22  C   UNL     1       2.125   4.457   3.088  1.00  0.00     0.148 A 
BRANCH  22  23
ATOM     23  C   UNL     1       1.614   5.643   3.764  1.00  0.00     0.015 A 
ATOM     24  C   UNL     1       0.958   6.668   3.079  1.00  0.00     0.031 A 
ATOM     25  C   UNL     1       1.780   5.754   5.148  1.00  0.00     0.031 A 
ATOM     26  C   UNL     1       0.515   7.761   3.805  1.00  0.00     0.111 A 
ATOM     27  C   UNL     1       1.311   6.889   5.781  1.00  0.00     0.111 A 
ATOM     28  N   UNL     1       0.686   7.897   5.138  1.00  0.00    -0.265 NA
ENDBRANCH  22  23
ENDBRANCH  17  18
ENDBRANCH  16  17
ENDBRANCH  14  16
ENDBRANCH   7  12
ENDBRANCH   3   6
ENDBRANCH   1   2
BRANCH   1  29
ATOM     29  C   UNL     1       0.586  -3.610  -2.563  1.00  0.00     0.023 C 
BRANCH  29  30
ATOM     30  C   UNL     1      -0.584  -3.981  -3.463  1.00  0.00     0.023 C 
BRANCH  30  31
ATOM     31  C   UNL     1      -1.650  -2.908  -3.642  1.00  0.00     0.116 C 
BRANCH  31  32
ATOM     32  N   UNL     1      -1.150  -1.667  -4.217  1.00  0.00    -0.352 N 
ATOM     33  C   UNL     1      -1.569  -0.985  -5.340  1.00  0.00     0.251 C 
ATOM     34  H   UNL     1      -0.400  -1.253  -3.732  1.00  0.00     0.163 HD
ATOM     35  O   UNL     1      -0.969   0.006  -5.726  1.00  0.00    -0.269 OA
BRANCH  33  36
ATOM     36  C   UNL     1      -2.732  -1.488  -6.107  1.00  0.00     0.039 A 
ATOM     37  C   UNL     1      -2.619  -1.622  -7.494  1.00  0.00     0.014 A 
ATOM     38  C   UNL     1      -3.909  -1.863  -5.459  1.00  0.00     0.014 A 
ATOM     39  C   UNL     1      -3.650  -2.229  -8.216  1.00  0.00     0.010 A 
ATOM     40  C   UNL     1      -4.897  -2.542  -6.165  1.00  0.00     0.010 A 
ATOM     41  C   UNL     1      -4.774  -2.742  -7.549  1.00  0.00    -0.014 A 
BRANCH  41  42
ATOM     42  C   UNL     1      -5.833  -3.499  -8.264  1.00  0.00     0.031 A 
ATOM     43  C   UNL     1      -7.242  -2.975  -8.290  1.00  0.00     0.074 A 
ATOM     44  C   UNL     1      -5.552  -4.701  -8.806  1.00  0.00     0.049 A 
ATOM     45  N   UNL     1      -8.329  -3.548  -8.741  1.00  0.00    -0.248 NA
ATOM     46  C   UNL     1      -7.461  -1.643  -7.703  1.00  0.00     0.031 C 
ATOM     47  C   UNL     1      -4.236  -5.343  -8.821  1.00  0.00     0.029 A 
ATOM     48  N   UNL     1      -6.369  -5.606  -9.437  1.00  0.00    -0.354 N 
ATOM     49  C   UNL     1      -9.362  -2.663  -8.464  1.00  0.00     0.074 A 
ATOM     50  C   UNL     1      -8.780  -1.534  -7.771  1.00  0.00     0.031 C 
ATOM     51  C   UNL     1      -4.331  -6.526  -9.451  1.00  0.00     0.029 A 
ATOM     52  C   UNL     1      -5.719  -6.746  -9.844  1.00  0.00     0.049 A 
ATOM     53  H   UNL     1      -7.330  -5.453  -9.585  1.00  0.00     0.167 HD
ATOM     54  C   UNL     1     -10.677  -2.769  -8.772  1.00  0.00     0.031 A 
ATOM     55  C   UNL     1      -6.188  -7.851 -10.454  1.00  0.00     0.031 A 
ATOM     56  C   UNL     1     -11.256  -3.877  -9.480  1.00  0.00     0.049 A 
ATOM     57  C   UNL     1      -7.652  -7.947 -10.783  1.00  0.00     0.074 A 
ATOM     58  C   UNL     1     -12.568  -4.050  -9.886  1.00  0.00     0.029 A 
ATOM     59  N   UNL     1     -10.556  -5.000  -9.894  1.00  0.00    -0.354 N 
ATOM     60  N   UNL     1      -8.607  -7.079 -10.556  1.00  0.00    -0.248 NA
ATOM     61  C   UNL     1      -8.098  -9.174 -11.458  1.00  0.00     0.031 C 
ATOM     62  C   UNL     1     -12.669  -5.295 -10.516  1.00  0.00     0.029 A 
ATOM     63  C   UNL     1     -11.412  -5.876 -10.540  1.00  0.00     0.049 A 
ATOM     64  H   UNL     1      -9.595  -5.152  -9.749  1.00  0.00     0.167 HD
ATOM     65  C   UNL     1      -9.761  -7.641 -11.088  1.00  0.00     0.074 A 
ATOM     66  C   UNL     1      -9.385  -8.919 -11.655  1.00  0.00     0.031 C 
ATOM     67  C   UNL     1     -11.019  -7.139 -11.107  1.00  0.00     0.031 A 
BRANCH  54  68
ATOM     68  C   UNL     1     -11.577  -1.649  -8.333  1.00  0.00    -0.014 A 
ATOM     69  C   UNL     1     -11.520  -0.389  -8.950  1.00  0.00     0.009 A 
ATOM     70  C   UNL     1     -12.505  -1.861  -7.302  1.00  0.00     0.009 A 
ATOM     71  C   UNL     1     -12.347   0.648  -8.515  1.00  0.00     0.001 A 
ATOM     72  C   UNL     1     -13.350  -0.830  -6.888  1.00  0.00     0.001 A 
ATOM     73  C   UNL     1     -13.263   0.426  -7.487  1.00  0.00     0.000 A 
ENDBRANCH  54  68
BRANCH  55  74
ATOM     74  C   UNL     1      -5.261  -8.954 -10.815  1.00  0.00    -0.014 A 
ATOM     75  C   UNL     1      -4.913  -9.171 -12.158  1.00  0.00     0.009 A 
ATOM     76  C   UNL     1      -4.727  -9.797  -9.829  1.00  0.00     0.009 A 
ATOM     77  C   UNL     1      -4.068 -10.226 -12.507  1.00  0.00     0.001 A 
ATOM     78  C   UNL     1      -3.862 -10.836 -10.180  1.00  0.00     0.001 A 
ATOM     79  C   UNL     1      -3.540 -11.055 -11.519  1.00  0.00     0.000 A 
ENDBRANCH  55  74
BRANCH  67  80
ATOM     80  C   UNL     1     -12.073  -7.950 -11.804  1.00  0.00    -0.014 A 
ATOM     81  C   UNL     1     -12.612  -9.104 -11.215  1.00  0.00     0.009 A 
ATOM     82  C   UNL     1     -12.567  -7.521 -13.046  1.00  0.00     0.009 A 
ATOM     83  C   UNL     1     -13.610  -9.827 -11.871  1.00  0.00     0.001 A 
ATOM     84  C   UNL     1     -13.581  -8.233 -13.687  1.00  0.00     0.001 A 
ATOM     85  C   UNL     1     -14.097  -9.389 -13.103  1.00  0.00     0.000 A 
ENDBRANCH  67  80
ENDBRANCH  41  42
ENDBRANCH  33  36
ENDBRANCH  31  32
ENDBRANCH  30  31
ENDBRANCH  29  30
ENDBRANCH   1  29
TORSDOF 16
