REMARK SMILES Cc1cc(C(=O)NCCCCNC(=O)c2ccc(-c3c4nc(c(-c5ccccc5)c5ccc([nH]5)c(-c5ccccc5)c5nc(c(-c6ccccc6)c6ccc3[nH]6)C=C5)C=C4)cc2)ccc1NS(=O)(=O)c1c(F)cccc1F
REMARK SMILES IDX 9 1 8 2 7 3 5 4 6 5 4 7 1 8 2 9 3 10 65 11 64 12 63 13 66 14
REMARK SMILES IDX 67 16 68 17 69 18 70 19 71 20 76 21 72 22 73 23 75 24 77 25
REMARK SMILES IDX 74 26 10 27 11 28 12 29 13 30 14 32 15 33 16 34 62 35 17 36
REMARK SMILES IDX 61 37 18 38 19 39 20 40 55 41 21 42 60 43 54 44 56 45 22 46
REMARK SMILES IDX 59 47 53 48 52 49 23 51 45 52 30 53 44 54 31 55 34 56 43 57
REMARK SMILES IDX 57 58 32 59 33 60 42 62 58 63 35 64 24 65 25 66 29 67 26 68
REMARK SMILES IDX 28 69 27 70 46 71 47 72 51 73 48 74 50 75 49 76 36 77 37 78
REMARK SMILES IDX 41 79 38 80 40 81 39 82
REMARK H PARENT 7 6 66 15 12 31 56 50 34 61
REMARK Flexibility Score: inf
ROOT
ATOM      1  C   UNL     1      -4.613  -1.097  -1.375  1.00  0.00     0.023 C 
ENDROOT
BRANCH   1   2
ATOM      2  C   UNL     1      -4.114  -1.435   0.036  1.00  0.00     0.116 C 
BRANCH   2   3
ATOM      3  N   UNL     1      -3.083  -2.465   0.080  1.00  0.00    -0.352 N 
ATOM      4  C   UNL     1      -1.723  -2.441   0.291  1.00  0.00     0.251 C 
ATOM      5  O   UNL     1      -1.113  -3.508   0.232  1.00  0.00    -0.269 OA
ATOM      6  H   UNL     1      -3.435  -3.371  -0.076  1.00  0.00     0.163 HD
BRANCH   4   7
ATOM      7  C   UNL     1      -0.950  -1.187   0.497  1.00  0.00     0.040 A 
ATOM      8  C   UNL     1       2.497   0.057  -0.506  1.00  0.00     0.046 C 
ATOM      9  C   UNL     1       1.059   0.085  -0.061  1.00  0.00    -0.026 A 
ATOM     10  C   UNL     1       0.341  -1.123  -0.044  1.00  0.00     0.019 A 
ATOM     11  C   UNL     1       0.418   1.250   0.383  1.00  0.00     0.052 A 
ATOM     12  C   UNL     1      -0.721   1.122   1.179  1.00  0.00     0.028 A 
ATOM     13  C   UNL     1      -1.404  -0.099   1.237  1.00  0.00     0.016 A 
BRANCH  11  14
ATOM     14  N   UNL     1       0.883   2.498  -0.127  1.00  0.00    -0.279 N 
ATOM     15  H   UNL     1       1.696   2.466  -0.681  1.00  0.00     0.180 HD
BRANCH  14  16
ATOM     16  S   UNL     1       0.207   4.009   0.108  1.00  0.00     0.267 S 
ATOM     17  O   UNL     1       0.370   4.299   1.527  1.00  0.00    -0.201 OA
ATOM     18  O   UNL     1       0.787   4.855  -0.900  1.00  0.00    -0.201 OA
BRANCH  16  19
ATOM     19  C   UNL     1      -1.514   3.940  -0.218  1.00  0.00     0.158 A 
ATOM     20  C   UNL     1      -2.333   4.842   0.452  1.00  0.00     0.146 A 
ATOM     21  C   UNL     1      -2.096   2.962  -1.010  1.00  0.00     0.146 A 
ATOM     22  F   UNL     1      -1.817   5.862   1.151  1.00  0.00    -0.205 F 
ATOM     23  C   UNL     1      -3.721   4.717   0.412  1.00  0.00     0.041 A 
ATOM     24  C   UNL     1      -3.485   2.810  -1.036  1.00  0.00     0.041 A 
ATOM     25  F   UNL     1      -1.360   2.117  -1.743  1.00  0.00    -0.205 F 
ATOM     26  C   UNL     1      -4.301   3.676  -0.308  1.00  0.00     0.006 A 
ENDBRANCH  16  19
ENDBRANCH  14  16
ENDBRANCH  11  14
ENDBRANCH   4   7
ENDBRANCH   2   3
ENDBRANCH   1   2
BRANCH   1  27
ATOM     27  C   UNL     1      -5.439  -2.182  -2.072  1.00  0.00     0.023 C 
BRANCH  27  28
ATOM     28  C   UNL     1      -6.800  -2.462  -1.438  1.00  0.00     0.116 C 
BRANCH  28  29
ATOM     29  N   UNL     1      -7.888  -1.584  -1.861  1.00  0.00    -0.352 N 
ATOM     30  C   UNL     1      -9.185  -1.486  -1.380  1.00  0.00     0.251 C 
ATOM     31  H   UNL     1      -7.667  -0.970  -2.599  1.00  0.00     0.163 HD
ATOM     32  O   UNL     1      -9.983  -0.735  -1.936  1.00  0.00    -0.269 OA
BRANCH  30  33
ATOM     33  C   UNL     1      -9.572  -2.152  -0.107  1.00  0.00     0.039 A 
ATOM     34  C   UNL     1     -10.332  -1.410   0.807  1.00  0.00     0.014 A 
ATOM     35  C   UNL     1      -8.985  -3.346   0.294  1.00  0.00     0.014 A 
ATOM     36  C   UNL     1     -10.222  -1.686   2.167  1.00  0.00     0.010 A 
ATOM     37  C   UNL     1      -8.774  -3.551   1.642  1.00  0.00     0.010 A 
ATOM     38  C   UNL     1      -9.310  -2.658   2.571  1.00  0.00    -0.014 A 
BRANCH  38  39
ATOM     39  C   UNL     1      -8.712  -2.680   3.901  1.00  0.00     0.031 A 
ATOM     40  C   UNL     1      -9.024  -3.778   4.845  1.00  0.00     0.074 A 
ATOM     41  C   UNL     1      -7.773  -1.753   4.212  1.00  0.00     0.049 A 
ATOM     42  N   UNL     1      -8.874  -3.703   6.126  1.00  0.00    -0.248 NA
ATOM     43  C   UNL     1      -9.587  -5.055   4.413  1.00  0.00     0.031 C 
ATOM     44  C   UNL     1      -6.867  -1.777   5.361  1.00  0.00     0.029 A 
ATOM     45  N   UNL     1      -7.521  -0.496   3.649  1.00  0.00    -0.354 N 
ATOM     46  C   UNL     1      -8.980  -4.981   6.627  1.00  0.00     0.074 A 
ATOM     47  C   UNL     1      -9.548  -5.756   5.549  1.00  0.00     0.031 C 
ATOM     48  C   UNL     1      -6.439  -0.526   5.597  1.00  0.00     0.029 A 
ATOM     49  C   UNL     1      -7.202   0.348   4.723  1.00  0.00     0.049 A 
ATOM     50  H   UNL     1      -7.559  -0.255   2.696  1.00  0.00     0.167 HD
ATOM     51  C   UNL     1      -8.415  -5.275   7.834  1.00  0.00     0.031 A 
ATOM     52  C   UNL     1      -7.983   1.384   5.161  1.00  0.00     0.031 A 
ATOM     53  C   UNL     1      -7.910  -4.072   8.501  1.00  0.00     0.049 A 
ATOM     54  C   UNL     1      -8.383   1.262   6.626  1.00  0.00     0.074 A 
ATOM     55  C   UNL     1      -6.638  -3.552   8.674  1.00  0.00     0.029 A 
ATOM     56  N   UNL     1      -8.799  -3.061   8.851  1.00  0.00    -0.354 N 
ATOM     57  N   UNL     1      -8.316   0.146   7.301  1.00  0.00    -0.248 NA
ATOM     58  C   UNL     1      -8.940   2.352   7.428  1.00  0.00     0.031 C 
ATOM     59  C   UNL     1      -6.769  -2.187   9.043  1.00  0.00     0.029 A 
ATOM     60  C   UNL     1      -8.118  -1.891   9.127  1.00  0.00     0.049 A 
ATOM     61  H   UNL     1      -9.777  -3.165   8.895  1.00  0.00     0.167 HD
ATOM     62  C   UNL     1      -8.791   0.338   8.570  1.00  0.00     0.074 A 
ATOM     63  C   UNL     1      -9.165   1.740   8.606  1.00  0.00     0.031 C 
ATOM     64  C   UNL     1      -8.850  -0.680   9.478  1.00  0.00     0.031 A 
BRANCH  51  65
ATOM     65  C   UNL     1      -8.039  -6.681   8.264  1.00  0.00    -0.014 A 
ATOM     66  C   UNL     1      -7.028  -6.865   9.227  1.00  0.00     0.009 A 
ATOM     67  C   UNL     1      -8.568  -7.861   7.714  1.00  0.00     0.009 A 
ATOM     68  C   UNL     1      -6.510  -8.132   9.539  1.00  0.00     0.001 A 
ATOM     69  C   UNL     1      -8.040  -9.129   7.997  1.00  0.00     0.001 A 
ATOM     70  C   UNL     1      -6.998  -9.264   8.901  1.00  0.00     0.000 A 
ENDBRANCH  51  65
BRANCH  52  71
ATOM     71  C   UNL     1      -8.837   2.011   4.119  1.00  0.00    -0.014 A 
ATOM     72  C   UNL     1      -8.215   2.740   3.088  1.00  0.00     0.009 A 
ATOM     73  C   UNL     1     -10.171   1.615   3.949  1.00  0.00     0.009 A 
ATOM     74  C   UNL     1      -8.867   2.956   1.870  1.00  0.00     0.001 A 
ATOM     75  C   UNL     1     -10.824   1.842   2.731  1.00  0.00     0.001 A 
ATOM     76  C   UNL     1     -10.160   2.476   1.681  1.00  0.00     0.000 A 
ENDBRANCH  52  71
BRANCH  64  77
ATOM     77  C   UNL     1      -9.548  -0.635  10.814  1.00  0.00    -0.014 A 
ATOM     78  C   UNL     1     -10.627   0.207  11.110  1.00  0.00     0.009 A 
ATOM     79  C   UNL     1      -9.203  -1.595  11.794  1.00  0.00     0.009 A 
ATOM     80  C   UNL     1     -11.300   0.122  12.338  1.00  0.00     0.001 A 
ATOM     81  C   UNL     1      -9.899  -1.712  12.999  1.00  0.00     0.001 A 
ATOM     82  C   UNL     1     -10.944  -0.844  13.276  1.00  0.00     0.000 A 
ENDBRANCH  64  77
ENDBRANCH  38  39
ENDBRANCH  30  33
ENDBRANCH  28  29
ENDBRANCH  27  28
ENDBRANCH   1  27
TORSDOF 14
