REMARK SMILES O=C(NCCCCNC(=O)c1ccc(C[NH2+][C@@H]2CCCc3sccc32)nc1)c1ccc(-c2c3nc(c(-c4ccccc4)c4ccc([nH]4)c(-c4ccccc4)c4nc(c(-c5ccccc5)c5ccc2[nH]5)C=C4)C=C3)cc1
REMARK SMILES IDX 6 1 5 2 4 3 3 4 1 5 2 6 28 8 29 9 75 10 30 11 74 12 31 13
REMARK SMILES IDX 32 14 33 15 68 16 34 17 73 18 67 19 69 20 35 21 72 22 66 23
REMARK SMILES IDX 65 24 36 26 58 27 43 28 57 29 44 30 47 31 56 32 70 33 45 34
REMARK SMILES IDX 46 35 55 37 71 38 48 39 37 40 38 41 42 42 39 43 41 44 40 45
REMARK SMILES IDX 59 46 60 47 64 48 61 49 63 50 62 51 49 52 50 53 54 54 51 55
REMARK SMILES IDX 53 56 52 57 7 58 8 59 9 60 10 62 11 63 12 64 27 65 13 66
REMARK SMILES IDX 26 67 14 68 15 69 16 70 17 73 18 74 25 75 19 76 21 77 24 78
REMARK SMILES IDX 20 79 22 80 23 81
REMARK H PARENT 3 7 69 25 47 36 8 61 16 71 16 72
REMARK Flexibility Score: inf
ROOT
ATOM      1  C   UNL     1       4.500  -3.069  -2.316  1.00  0.00     0.023 C 
ENDROOT
BRANCH   1   2
ATOM      2  C   UNL     1       4.951  -2.436  -1.002  1.00  0.00     0.023 C 
BRANCH   2   3
ATOM      3  C   UNL     1       4.653  -0.949  -0.856  1.00  0.00     0.116 C 
BRANCH   3   4
ATOM      4  N   UNL     1       3.233  -0.635  -0.893  1.00  0.00    -0.352 N 
ATOM      5  O   UNL     1       1.268   0.194  -0.147  1.00  0.00    -0.269 OA
ATOM      6  C   UNL     1       2.485   0.116  -0.015  1.00  0.00     0.251 C 
ATOM      7  H   UNL     1       2.736  -1.014  -1.654  1.00  0.00     0.163 HD
BRANCH   6   8
ATOM      8  C   UNL     1       3.151   0.796   1.117  1.00  0.00     0.039 A 
ATOM      9  C   UNL     1       4.329   1.518   0.921  1.00  0.00     0.014 A 
ATOM     10  C   UNL     1       2.606   0.677   2.399  1.00  0.00     0.014 A 
ATOM     11  C   UNL     1       5.052   1.964   2.021  1.00  0.00     0.010 A 
ATOM     12  C   UNL     1       3.290   1.207   3.497  1.00  0.00     0.010 A 
ATOM     13  C   UNL     1       4.545   1.811   3.322  1.00  0.00    -0.014 A 
BRANCH  13  14
ATOM     14  C   UNL     1       5.342   2.309   4.472  1.00  0.00     0.031 A 
ATOM     15  C   UNL     1       5.905   1.365   5.501  1.00  0.00     0.074 A 
ATOM     16  C   UNL     1       5.612   3.627   4.552  1.00  0.00     0.049 A 
ATOM     17  N   UNL     1       6.687   1.631   6.518  1.00  0.00    -0.248 NA
ATOM     18  C   UNL     1       5.541  -0.055   5.381  1.00  0.00     0.031 C 
ATOM     19  C   UNL     1       5.122   4.646   3.619  1.00  0.00     0.029 A 
ATOM     20  N   UNL     1       6.391   4.330   5.433  1.00  0.00    -0.354 N 
ATOM     21  C   UNL     1       6.883   0.421   7.174  1.00  0.00     0.074 A 
ATOM     22  C   UNL     1       6.126  -0.577   6.450  1.00  0.00     0.031 C 
ATOM     23  C   UNL     1       5.670   5.828   3.935  1.00  0.00     0.029 A 
ATOM     24  C   UNL     1       6.500   5.663   5.122  1.00  0.00     0.049 A 
ATOM     25  H   UNL     1       6.831   3.919   6.213  1.00  0.00     0.167 HD
ATOM     26  C   UNL     1       7.629   0.165   8.276  1.00  0.00     0.031 A 
ATOM     27  C   UNL     1       7.191   6.648   5.723  1.00  0.00     0.031 A 
ATOM     28  C   UNL     1       8.400   1.151   8.987  1.00  0.00     0.049 A 
ATOM     29  C   UNL     1       8.006   6.336   6.942  1.00  0.00     0.074 A 
ATOM     30  C   UNL     1       9.220   0.975  10.089  1.00  0.00     0.029 A 
ATOM     31  N   UNL     1       8.445   2.498   8.667  1.00  0.00    -0.354 N 
ATOM     32  N   UNL     1       8.204   5.180   7.527  1.00  0.00    -0.248 NA
ATOM     33  C   UNL     1       8.690   7.467   7.583  1.00  0.00     0.031 C 
ATOM     34  C   UNL     1       9.729   2.224  10.461  1.00  0.00     0.029 A 
ATOM     35  C   UNL     1       9.261   3.170   9.563  1.00  0.00     0.049 A 
ATOM     36  H   UNL     1       7.968   2.916   7.915  1.00  0.00     0.167 HD
ATOM     37  C   UNL     1       9.046   5.441   8.599  1.00  0.00     0.074 A 
ATOM     38  C   UNL     1       9.338   6.861   8.569  1.00  0.00     0.031 C 
ATOM     39  C   UNL     1       9.533   4.582   9.526  1.00  0.00     0.031 A 
BRANCH  26  40
ATOM     40  C   UNL     1       7.625  -1.243   8.804  1.00  0.00    -0.014 A 
ATOM     41  C   UNL     1       8.326  -2.271   8.154  1.00  0.00     0.009 A 
ATOM     42  C   UNL     1       6.944  -1.534   9.997  1.00  0.00     0.009 A 
ATOM     43  C   UNL     1       8.319  -3.568   8.672  1.00  0.00     0.001 A 
ATOM     44  C   UNL     1       6.958  -2.827  10.525  1.00  0.00     0.001 A 
ATOM     45  C   UNL     1       7.638  -3.844   9.858  1.00  0.00     0.000 A 
ENDBRANCH  26  40
BRANCH  27  46
ATOM     46  C   UNL     1       7.146   8.023   5.167  1.00  0.00    -0.014 A 
ATOM     47  C   UNL     1       8.267   8.564   4.519  1.00  0.00     0.009 A 
ATOM     48  C   UNL     1       5.977   8.793   5.264  1.00  0.00     0.009 A 
ATOM     49  C   UNL     1       8.221   9.857   3.992  1.00  0.00     0.001 A 
ATOM     50  C   UNL     1       5.926  10.075   4.714  1.00  0.00     0.001 A 
ATOM     51  C   UNL     1       7.050  10.608   4.085  1.00  0.00     0.000 A 
ENDBRANCH  27  46
BRANCH  39  52
ATOM     52  C   UNL     1      10.448   5.157  10.567  1.00  0.00    -0.014 A 
ATOM     53  C   UNL     1       9.948   5.944  11.616  1.00  0.00     0.009 A 
ATOM     54  C   UNL     1      11.825   4.897  10.504  1.00  0.00     0.009 A 
ATOM     55  C   UNL     1      10.816   6.489  12.563  1.00  0.00     0.001 A 
ATOM     56  C   UNL     1      12.688   5.424  11.466  1.00  0.00     0.001 A 
ATOM     57  C   UNL     1      12.184   6.227  12.489  1.00  0.00     0.000 A 
ENDBRANCH  39  52
ENDBRANCH  13  14
ENDBRANCH   6   8
ENDBRANCH   3   4
ENDBRANCH   2   3
ENDBRANCH   1   2
BRANCH   1  58
ATOM     58  C   UNL     1       4.938  -2.333  -3.580  1.00  0.00     0.116 C 
BRANCH  58  59
ATOM     59  N   UNL     1       6.385  -2.224  -3.696  1.00  0.00    -0.352 N 
ATOM     60  C   UNL     1       7.207  -2.725  -4.675  1.00  0.00     0.252 C 
ATOM     61  H   UNL     1       6.834  -1.723  -2.977  1.00  0.00     0.163 HD
ATOM     62  O   UNL     1       8.427  -2.642  -4.582  1.00  0.00    -0.269 OA
BRANCH  60  63
ATOM     63  C   UNL     1       6.602  -3.396  -5.829  1.00  0.00     0.058 A 
ATOM     64  C   UNL     1       5.746  -2.725  -6.700  1.00  0.00     0.017 A 
ATOM     65  C   UNL     1       6.817  -4.750  -6.005  1.00  0.00     0.125 A 
ATOM     66  C   UNL     1       5.065  -3.460  -7.665  1.00  0.00     0.030 A 
ATOM     67  N   UNL     1       6.158  -5.487  -6.929  1.00  0.00    -0.255 NA
ATOM     68  C   UNL     1       5.270  -4.842  -7.730  1.00  0.00     0.094 A 
BRANCH  68  69
ATOM     69  C   UNL     1       4.422  -5.690  -8.661  1.00  0.00     0.318 C 
BRANCH  69  70
ATOM     70  N   UNL     1       4.854  -5.616 -10.059  1.00  0.00    -0.335 N 
ATOM     71  H   UNL     1       5.842  -5.865 -10.101  1.00  0.00     0.347 HD
ATOM     72  H   UNL     1       4.671  -4.663 -10.371  1.00  0.00     0.347 HD
BRANCH  70  73
ATOM     73  C   UNL     1       4.118  -6.503 -10.967  1.00  0.00     0.215 C 
ATOM     74  C   UNL     1       2.575  -6.405 -10.867  1.00  0.00     0.071 C 
ATOM     75  C   UNL     1       4.585  -7.934 -10.840  1.00  0.00     0.023 A 
ATOM     76  C   UNL     1       1.894  -7.457 -11.755  1.00  0.00     0.012 C 
ATOM     77  C   UNL     1       3.720  -8.999 -11.034  1.00  0.00     0.014 A 
ATOM     78  C   UNL     1       5.918  -8.401 -10.603  1.00  0.00     0.022 A 
ATOM     79  C   UNL     1       2.252  -8.884 -11.308  1.00  0.00     0.047 C 
ATOM     80  S   UNL     1       4.489 -10.512 -10.908  1.00  0.00    -0.148 S 
ATOM     81  C   UNL     1       6.004  -9.777 -10.615  1.00  0.00     0.065 A 
ENDBRANCH  70  73
ENDBRANCH  69  70
ENDBRANCH  68  69
ENDBRANCH  60  63
ENDBRANCH  58  59
ENDBRANCH   1  58
TORSDOF 14
