REMARK SMILES Cc1nc(C[C@H](C(=O)NCCCCNC(=O)c2ccc(-c3c4nc(c(-c5ccccc5)c5ccc([nH]5)c(-c5ccccc5)c5nc(c(-c6ccccc6)c6ccc3[nH]6)C=C5)C=C4)cc2)c2ccccc2Br)cs1
REMARK SMILES IDX 11 1 10 2 9 3 7 4 8 5 6 7 5 8 4 9 1 10 2 11 3 12 73 13 72 14
REMARK SMILES IDX 65 15 66 16 70 17 67 18 69 19 71 20 68 21 12 22 13 23 14 24
REMARK SMILES IDX 15 25 16 27 17 28 18 29 64 30 19 31 63 32 20 33 21 34 22 35
REMARK SMILES IDX 57 36 23 37 62 38 56 39 58 40 24 41 61 42 55 43 54 44 25 46
REMARK SMILES IDX 47 47 32 48 46 49 33 50 36 51 45 52 59 53 34 54 35 55 44 57
REMARK SMILES IDX 60 58 37 59 26 60 27 61 31 62 28 63 30 64 29 65 48 66 49 67
REMARK SMILES IDX 53 68 50 69 52 70 51 71 38 72 39 73 43 74 40 75 42 76 41 77
REMARK H PARENT 9 6 14 26 58 45 36 56
REMARK Flexibility Score: inf
ROOT
ATOM      1  C   UNL     1       2.723  -5.577   0.944  1.00  0.00     0.023 C 
ENDROOT
BRANCH   1   2
ATOM      2  C   UNL     1       1.654  -4.683   0.314  1.00  0.00     0.116 C 
BRANCH   2   3
ATOM      3  N   UNL     1       1.848  -3.298   0.685  1.00  0.00    -0.356 N 
ATOM      4  C   UNL     1       2.554  -2.313   0.056  1.00  0.00     0.227 C 
ATOM      5  O   UNL     1       2.586  -1.219   0.626  1.00  0.00    -0.274 OA
ATOM      6  H   UNL     1       1.403  -3.024   1.520  1.00  0.00     0.163 HD
BRANCH   4   7
ATOM      7  C   UNL     1       3.200  -2.543  -1.329  1.00  0.00     0.115 C 
BRANCH   7   8
ATOM      8  C   UNL     1       3.642  -1.173  -1.890  1.00  0.00     0.075 C 
BRANCH   8   9
ATOM      9  C   UNL     1       4.203  -1.084  -3.279  1.00  0.00     0.053 A 
ATOM     10  C   UNL     1       5.470   1.369  -5.685  1.00  0.00     0.079 C 
ATOM     11  C   UNL     1       5.023   0.168  -4.932  1.00  0.00     0.090 A 
ATOM     12  N   UNL     1       4.512   0.199  -3.722  1.00  0.00    -0.247 NA
ATOM     13  S   UNL     1       5.154  -1.391  -5.631  1.00  0.00    -0.127 S 
ATOM     14  C   UNL     1       4.475  -2.068  -4.209  1.00  0.00     0.090 A 
ENDBRANCH   8   9
ENDBRANCH   7   8
BRANCH   7  15
ATOM     15  C   UNL     1       4.274  -3.635  -1.329  1.00  0.00    -0.021 A 
ATOM     16  C   UNL     1       4.018  -4.791  -2.108  1.00  0.00     0.006 A 
ATOM     17  C   UNL     1       5.473  -3.606  -0.596  1.00  0.00     0.021 A 
ATOM     18  C   UNL     1       4.900  -5.872  -2.140  1.00  0.00     0.000 A 
ATOM     19  C   UNL     1       6.363  -4.691  -0.643  1.00  0.00     0.016 A 
ATOM     20  Br  UNL     1       5.976  -2.185   0.556  1.00  0.00    -0.051 Br
ATOM     21  C   UNL     1       6.075  -5.822  -1.405  1.00  0.00     0.001 A 
ENDBRANCH   7  15
ENDBRANCH   4   7
ENDBRANCH   2   3
ENDBRANCH   1   2
BRANCH   1  22
ATOM     22  C   UNL     1       2.377  -6.093   2.339  1.00  0.00     0.023 C 
BRANCH  22  23
ATOM     23  C   UNL     1       1.222  -7.085   2.372  1.00  0.00     0.116 C 
BRANCH  23  24
ATOM     24  N   UNL     1       1.460  -8.285   1.583  1.00  0.00    -0.352 N 
ATOM     25  C   UNL     1       0.954  -9.549   1.786  1.00  0.00     0.251 C 
ATOM     26  H   UNL     1       2.058  -8.179   0.808  1.00  0.00     0.163 HD
ATOM     27  O   UNL     1       1.300 -10.485   1.084  1.00  0.00    -0.269 OA
BRANCH  25  28
ATOM     28  C   UNL     1       0.020  -9.760   2.911  1.00  0.00     0.039 A 
ATOM     29  C   UNL     1       0.312 -10.756   3.845  1.00  0.00     0.014 A 
ATOM     30  C   UNL     1      -1.090  -8.928   3.079  1.00  0.00     0.014 A 
ATOM     31  C   UNL     1      -0.469 -10.867   4.995  1.00  0.00     0.010 A 
ATOM     32  C   UNL     1      -1.823  -8.994   4.258  1.00  0.00     0.010 A 
ATOM     33  C   UNL     1      -1.515  -9.959   5.229  1.00  0.00    -0.014 A 
BRANCH  33  34
ATOM     34  C   UNL     1      -2.295  -9.993   6.489  1.00  0.00     0.031 A 
ATOM     35  C   UNL     1      -3.761 -10.323   6.457  1.00  0.00     0.074 A 
ATOM     36  C   UNL     1      -1.702  -9.656   7.651  1.00  0.00     0.049 A 
ATOM     37  N   UNL     1      -4.625 -10.334   7.439  1.00  0.00    -0.248 NA
ATOM     38  C   UNL     1      -4.336 -10.657   5.144  1.00  0.00     0.031 C 
ATOM     39  C   UNL     1      -0.297  -9.270   7.808  1.00  0.00     0.029 A 
ATOM     40  N   UNL     1      -2.212  -9.577   8.922  1.00  0.00    -0.354 N 
ATOM     41  C   UNL     1      -5.846 -10.654   6.861  1.00  0.00     0.074 A 
ATOM     42  C   UNL     1      -5.621 -10.786   5.438  1.00  0.00     0.031 C 
ATOM     43  C   UNL     1      -0.053  -9.020   9.105  1.00  0.00     0.029 A 
ATOM     44  C   UNL     1      -1.288  -9.194   9.863  1.00  0.00     0.049 A 
ATOM     45  H   UNL     1      -3.151  -9.775   9.139  1.00  0.00     0.167 HD
ATOM     46  C   UNL     1      -7.044 -10.843   7.462  1.00  0.00     0.031 A 
ATOM     47  C   UNL     1      -1.421  -9.002  11.189  1.00  0.00     0.031 A 
ATOM     48  C   UNL     1      -7.265 -10.734   8.878  1.00  0.00     0.049 A 
ATOM     49  C   UNL     1      -2.760  -9.227  11.832  1.00  0.00     0.074 A 
ATOM     50  C   UNL     1      -8.430 -10.964   9.589  1.00  0.00     0.029 A 
ATOM     51  N   UNL     1      -6.298 -10.368   9.800  1.00  0.00    -0.354 N 
ATOM     52  N   UNL     1      -3.891  -9.594  11.280  1.00  0.00    -0.248 NA
ATOM     53  C   UNL     1      -2.837  -9.021  13.286  1.00  0.00     0.031 C 
ATOM     54  C   UNL     1      -8.176 -10.702  10.939  1.00  0.00     0.029 A 
ATOM     55  C   UNL     1      -6.842 -10.351  11.072  1.00  0.00     0.049 A 
ATOM     56  H   UNL     1      -5.362 -10.152   9.582  1.00  0.00     0.167 HD
ATOM     57  C   UNL     1      -4.806  -9.688  12.319  1.00  0.00     0.074 A 
ATOM     58  C   UNL     1      -4.096  -9.354  13.537  1.00  0.00     0.031 C 
ATOM     59  C   UNL     1      -6.119 -10.021  12.271  1.00  0.00     0.031 A 
BRANCH  46  60
ATOM     60  C   UNL     1      -8.209 -11.191   6.580  1.00  0.00    -0.014 A 
ATOM     61  C   UNL     1      -8.310 -12.456   5.981  1.00  0.00     0.009 A 
ATOM     62  C   UNL     1      -9.232 -10.254   6.370  1.00  0.00     0.009 A 
ATOM     63  C   UNL     1      -9.396 -12.765   5.160  1.00  0.00     0.001 A 
ATOM     64  C   UNL     1     -10.330 -10.575   5.569  1.00  0.00     0.001 A 
ATOM     65  C   UNL     1     -10.406 -11.825   4.958  1.00  0.00     0.000 A 
ENDBRANCH  46  60
BRANCH  47  66
ATOM     66  C   UNL     1      -0.251  -8.593  12.006  1.00  0.00    -0.014 A 
ATOM     67  C   UNL     1       0.353  -9.506  12.885  1.00  0.00     0.009 A 
ATOM     68  C   UNL     1       0.259  -7.289  11.925  1.00  0.00     0.009 A 
ATOM     69  C   UNL     1       1.426  -9.112  13.687  1.00  0.00     0.001 A 
ATOM     70  C   UNL     1       1.349  -6.905  12.711  1.00  0.00     0.001 A 
ATOM     71  C   UNL     1       1.925  -7.813  13.598  1.00  0.00     0.000 A 
ENDBRANCH  47  66
BRANCH  59  72
ATOM     72  C   UNL     1      -6.860 -10.073  13.574  1.00  0.00    -0.014 A 
ATOM     73  C   UNL     1      -7.235  -8.898  14.244  1.00  0.00     0.009 A 
ATOM     74  C   UNL     1      -7.224 -11.315  14.117  1.00  0.00     0.009 A 
ATOM     75  C   UNL     1      -7.935  -8.968  15.450  1.00  0.00     0.001 A 
ATOM     76  C   UNL     1      -7.945 -11.381  15.309  1.00  0.00     0.001 A 
ATOM     77  C   UNL     1      -8.293 -10.208  15.978  1.00  0.00     0.000 A 
ENDBRANCH  59  72
ENDBRANCH  33  34
ENDBRANCH  25  28
ENDBRANCH  23  24
ENDBRANCH  22  23
ENDBRANCH   1  22
TORSDOF 14
