REMARK SMILES CC[C@H](Oc1cccc(/C=C2\SC(=S)N(NC(=O)c3cccc(O)c3)C2=O)c1)C(=O)NCCCCNC(=O)c1ccc(-c2c3nc(c(-c4ccccc4)c4ccc([nH]4)c(-c4ccccc4)c4nc(c(-c5ccccc5)c5ccc2[nH]5)C=C4)C=C3)cc1
REMARK SMILES IDX 29 1 30 2 31 3 3 5 2 6 1 7 4 8 5 9 6 10 28 11 7 12 9 13 8 14
REMARK SMILES IDX 10 15 11 16 12 17 26 18 13 19 15 20 27 21 14 22 16 23 17 24
REMARK SMILES IDX 18 26 19 27 20 28 25 29 21 30 23 31 22 32 24 33 32 35 33 36
REMARK SMILES IDX 34 37 35 38 36 39 37 40 38 42 39 43 40 44 86 45 41 46 85 47
REMARK SMILES IDX 42 48 43 49 44 50 79 51 45 52 84 53 78 54 80 55 46 56 83 57
REMARK SMILES IDX 77 58 76 59 47 61 69 62 54 63 68 64 55 65 58 66 67 67 81 68
REMARK SMILES IDX 56 69 57 70 66 72 82 73 59 74 48 75 49 76 53 77 50 78 52 79
REMARK SMILES IDX 51 80 70 81 71 82 75 83 72 84 74 85 73 86 60 87 61 88 65 89
REMARK SMILES IDX 62 90 64 91 63 92
REMARK H PARENT 31 4 16 25 24 34 36 41 80 60 58 71
REMARK Flexibility Score: inf
ROOT
ATOM      1  C   UNL     1       0.447  -0.068   3.673  1.00  0.00     0.261 C 
ATOM      2  O   UNL     1       1.226  -0.284   4.606  1.00  0.00    -0.271 OA
ATOM      3  N   UNL     1      -0.883  -0.317   3.883  1.00  0.00    -0.353 N 
ATOM      4  H   UNL     1      -1.111  -0.697   4.763  1.00  0.00     0.163 HD
ENDROOT
BRANCH   1   5
ATOM      5  C   UNL     1       0.951   0.514   2.333  1.00  0.00     0.261 C 
BRANCH   5   6
ATOM      6  C   UNL     1       0.453   1.975   2.181  1.00  0.00     0.052 C 
ATOM      7  C   UNL     1      -0.276   2.376   0.902  1.00  0.00     0.008 C 
ENDBRANCH   5   6
BRANCH   5   8
ATOM      8  O   UNL     1       0.554  -0.410   1.319  1.00  0.00    -0.481 OA
BRANCH   8   9
ATOM      9  C   UNL     1       1.088  -0.288   0.068  1.00  0.00     0.121 A 
ATOM     10  C   UNL     1       2.238   0.418  -0.270  1.00  0.00     0.046 A 
ATOM     11  C   UNL     1       0.321  -0.890  -0.935  1.00  0.00     0.054 A 
ATOM     12  C   UNL     1       2.575   0.578  -1.613  1.00  0.00     0.004 A 
ATOM     13  C   UNL     1       0.600  -0.675  -2.288  1.00  0.00    -0.021 A 
ATOM     14  C   UNL     1       1.756   0.048  -2.612  1.00  0.00     0.008 A 
BRANCH  13  15
ATOM     15  C   UNL     1      -0.246  -1.153  -3.398  1.00  0.00     0.029 C 
ATOM     16  C   UNL     1      -1.571  -1.357  -3.446  1.00  0.00     0.082 C 
ATOM     17  S   UNL     1      -2.752  -1.236  -2.199  1.00  0.00    -0.052 SA
ATOM     18  C   UNL     1      -2.230  -1.783  -4.715  1.00  0.00     0.285 C 
ATOM     19  C   UNL     1      -3.978  -2.058  -3.148  1.00  0.00     0.168 C 
ATOM     20  N   UNL     1      -3.478  -2.305  -4.412  1.00  0.00    -0.198 N 
ATOM     21  O   UNL     1      -1.728  -1.638  -5.822  1.00  0.00    -0.266 OA
ATOM     22  S   UNL     1      -5.489  -2.440  -2.557  1.00  0.00    -0.050 S 
BRANCH  20  23
ATOM     23  N   UNL     1      -4.285  -2.906  -5.388  1.00  0.00    -0.255 N 
ATOM     24  C   UNL     1      -3.940  -3.957  -6.211  1.00  0.00     0.270 C 
ATOM     25  H   UNL     1      -5.193  -2.541  -5.497  1.00  0.00     0.192 HD
ATOM     26  O   UNL     1      -4.775  -4.445  -6.969  1.00  0.00    -0.267 OA
BRANCH  24  27
ATOM     27  C   UNL     1      -2.555  -4.471  -6.252  1.00  0.00     0.045 A 
ATOM     28  C   UNL     1      -1.902  -4.441  -7.492  1.00  0.00     0.014 A 
ATOM     29  C   UNL     1      -1.893  -4.933  -5.109  1.00  0.00     0.060 A 
ATOM     30  C   UNL     1      -0.562  -4.811  -7.581  1.00  0.00     0.005 A 
ATOM     31  C   UNL     1      -0.551  -5.289  -5.215  1.00  0.00     0.116 A 
ATOM     32  C   UNL     1       0.118  -5.223  -6.436  1.00  0.00     0.046 A 
BRANCH  31  33
ATOM     33  O   UNL     1       0.167  -5.697  -4.130  1.00  0.00    -0.508 OA
ATOM     34  H   UNL     1       1.069  -5.932  -4.227  1.00  0.00     0.293 HD
ENDBRANCH  31  33
ENDBRANCH  24  27
ENDBRANCH  20  23
ENDBRANCH  13  15
ENDBRANCH   8   9
ENDBRANCH   5   8
ENDBRANCH   1   5
BRANCH   3  35
ATOM     35  C   UNL     1      -2.000  -0.097   2.988  1.00  0.00     0.116 C 
BRANCH  35  36
ATOM     36  C   UNL     1      -2.766  -1.374   2.666  1.00  0.00     0.023 C 
BRANCH  36  37
ATOM     37  C   UNL     1      -3.588  -1.945   3.821  1.00  0.00     0.023 C 
BRANCH  37  38
ATOM     38  C   UNL     1      -4.559  -0.974   4.487  1.00  0.00     0.116 C 
BRANCH  38  39
ATOM     39  N   UNL     1      -5.487  -0.343   3.562  1.00  0.00    -0.352 N 
ATOM     40  C   UNL     1      -6.815  -0.035   3.740  1.00  0.00     0.251 C 
ATOM     41  H   UNL     1      -5.111  -0.102   2.684  1.00  0.00     0.163 HD
ATOM     42  O   UNL     1      -7.466   0.440   2.815  1.00  0.00    -0.269 OA
BRANCH  40  43
ATOM     43  C   UNL     1      -7.472  -0.315   5.035  1.00  0.00     0.039 A 
ATOM     44  C   UNL     1      -8.712  -0.959   5.030  1.00  0.00     0.014 A 
ATOM     45  C   UNL     1      -6.870   0.043   6.244  1.00  0.00     0.014 A 
ATOM     46  C   UNL     1      -9.318  -1.305   6.240  1.00  0.00     0.010 A 
ATOM     47  C   UNL     1      -7.443  -0.360   7.448  1.00  0.00     0.010 A 
ATOM     48  C   UNL     1      -8.672  -1.037   7.457  1.00  0.00    -0.014 A 
BRANCH  48  49
ATOM     49  C   UNL     1      -9.269  -1.454   8.750  1.00  0.00     0.031 A 
ATOM     50  C   UNL     1      -9.722  -0.420   9.742  1.00  0.00     0.074 A 
ATOM     51  C   UNL     1      -9.349  -2.763   9.058  1.00  0.00     0.049 A 
ATOM     52  N   UNL     1     -10.228  -0.590  10.938  1.00  0.00    -0.248 NA
ATOM     53  C   UNL     1      -9.561   0.989   9.351  1.00  0.00     0.031 C 
ATOM     54  C   UNL     1      -8.905  -3.866   8.203  1.00  0.00     0.029 A 
ATOM     55  N   UNL     1      -9.830  -3.386  10.182  1.00  0.00    -0.354 N 
ATOM     56  C   UNL     1     -10.421   0.687  11.450  1.00  0.00     0.074 A 
ATOM     57  C   UNL     1      -9.941   1.620  10.452  1.00  0.00     0.031 C 
ATOM     58  C   UNL     1      -9.165  -5.031   8.819  1.00  0.00     0.029 A 
ATOM     59  C   UNL     1      -9.764  -4.756  10.122  1.00  0.00     0.049 A 
ATOM     60  H   UNL     1     -10.190  -2.897  10.957  1.00  0.00     0.167 HD
ATOM     61  C   UNL     1     -10.964   1.054  12.635  1.00  0.00     0.031 A 
ATOM     62  C   UNL     1     -10.148  -5.688  11.014  1.00  0.00     0.031 A 
ATOM     63  C   UNL     1     -11.466   0.133  13.617  1.00  0.00     0.049 A 
ATOM     64  C   UNL     1     -10.765  -5.256  12.314  1.00  0.00     0.074 A 
ATOM     65  C   UNL     1     -12.097   0.410  14.818  1.00  0.00     0.029 A 
ATOM     66  N   UNL     1     -11.396  -1.247  13.510  1.00  0.00    -0.354 N 
ATOM     67  N   UNL     1     -11.003  -4.045  12.753  1.00  0.00    -0.248 NA
ATOM     68  C   UNL     1     -11.178  -6.325  13.235  1.00  0.00     0.031 C 
ATOM     69  C   UNL     1     -12.379  -0.805  15.454  1.00  0.00     0.029 A 
ATOM     70  C   UNL     1     -11.959  -1.836  14.630  1.00  0.00     0.049 A 
ATOM     71  H   UNL     1     -11.005  -1.736  12.751  1.00  0.00     0.167 HD
ATOM     72  C   UNL     1     -11.619  -4.205  13.987  1.00  0.00     0.074 A 
ATOM     73  C   UNL     1     -11.726  -5.630  14.222  1.00  0.00     0.031 C 
ATOM     74  C   UNL     1     -12.060  -3.255  14.846  1.00  0.00     0.031 A 
BRANCH  61  75
ATOM     75  C   UNL     1     -11.035   2.525  12.929  1.00  0.00    -0.014 A 
ATOM     76  C   UNL     1     -11.943   3.358  12.256  1.00  0.00     0.009 A 
ATOM     77  C   UNL     1     -10.192   3.083  13.902  1.00  0.00     0.009 A 
ATOM     78  C   UNL     1     -11.977   4.728  12.523  1.00  0.00     0.001 A 
ATOM     79  C   UNL     1     -10.246   4.449  14.185  1.00  0.00     0.001 A 
ATOM     80  C   UNL     1     -11.130   5.272  13.488  1.00  0.00     0.000 A 
ENDBRANCH  61  75
BRANCH  62  81
ATOM     81  C   UNL     1     -10.001  -7.129  10.692  1.00  0.00    -0.014 A 
ATOM     82  C   UNL     1     -11.129  -7.896  10.362  1.00  0.00     0.009 A 
ATOM     83  C   UNL     1      -8.741  -7.746  10.717  1.00  0.00     0.009 A 
ATOM     84  C   UNL     1     -11.001  -9.259  10.086  1.00  0.00     0.001 A 
ATOM     85  C   UNL     1      -8.614  -9.104  10.419  1.00  0.00     0.001 A 
ATOM     86  C   UNL     1      -9.744  -9.861  10.112  1.00  0.00     0.000 A 
ENDBRANCH  62  81
BRANCH  74  87
ATOM     87  C   UNL     1     -12.731  -3.730  16.102  1.00  0.00    -0.014 A 
ATOM     88  C   UNL     1     -11.989  -4.266  17.165  1.00  0.00     0.009 A 
ATOM     89  C   UNL     1     -14.123  -3.611  16.232  1.00  0.00     0.009 A 
ATOM     90  C   UNL     1     -12.634  -4.702  18.324  1.00  0.00     0.001 A 
ATOM     91  C   UNL     1     -14.762  -4.027  17.400  1.00  0.00     0.001 A 
ATOM     92  C   UNL     1     -14.018  -4.580  18.441  1.00  0.00     0.000 A 
ENDBRANCH  74  87
ENDBRANCH  48  49
ENDBRANCH  40  43
ENDBRANCH  38  39
ENDBRANCH  37  38
ENDBRANCH  36  37
ENDBRANCH  35  36
ENDBRANCH   3  35
TORSDOF 18
