REMARK SMILES CCOC(=O)C1=NN(c2ccc(C)cc2Cl)[C@@](C)(C(=O)NCCCCNC(=O)c2ccc(-c3c4nc(c(-c5ccccc5)c5ccc([nH]5)c(-c5ccccc5)c5nc(c(-c6ccccc6)c6ccc3[nH]6)C=C5)C=C4)cc2)C1
REMARK SMILES IDX 23 1 22 2 21 3 19 4 20 5 17 7 6 8 7 9 77 10 8 11 18 12 4 13
REMARK SMILES IDX 5 14 3 15 2 16 1 17 9 18 10 19 15 20 11 21 14 22 16 23 12 24
REMARK SMILES IDX 13 25 24 26 25 27 26 28 27 29 28 31 29 32 30 33 76 34 31 35
REMARK SMILES IDX 75 36 32 37 33 38 34 39 69 40 35 41 74 42 68 43 70 44 36 45
REMARK SMILES IDX 73 46 67 47 66 48 37 50 59 51 44 52 58 53 45 54 48 55 57 56
REMARK SMILES IDX 71 57 46 58 47 59 56 61 72 62 49 63 38 64 39 65 43 66 40 67
REMARK SMILES IDX 42 68 41 69 60 70 61 71 65 72 62 73 64 74 63 75 50 76 51 77
REMARK SMILES IDX 55 78 52 79 54 80 53 81
REMARK H PARENT 21 6 26 30 70 49 48 60
REMARK Flexibility Score: inf
ROOT
ATOM      1  C   UNL     1       4.966  -0.183  -9.395  1.00  0.00     0.023 C 
ENDROOT
BRANCH   1   2
ATOM      2  C   UNL     1       5.558  -1.006  -8.252  1.00  0.00     0.116 C 
BRANCH   2   3
ATOM      3  N   UNL     1       5.704  -0.228  -7.040  1.00  0.00    -0.354 N 
ATOM      4  C   UNL     1       5.201  -0.358  -5.782  1.00  0.00     0.248 C 
ATOM      5  O   UNL     1       5.498   0.576  -5.023  1.00  0.00    -0.272 OA
ATOM      6  H   UNL     1       6.288   0.557  -7.148  1.00  0.00     0.163 HD
BRANCH   4   7
ATOM      7  C   UNL     1       4.354  -1.569  -5.275  1.00  0.00     0.144 C 
ATOM      8  C   UNL     1       2.857  -0.770  -3.691  1.00  0.00     0.149 C 
ATOM      9  N   UNL     1       2.141  -0.872  -4.766  1.00  0.00    -0.169 NA
ATOM     10  C   UNL     1       4.197  -1.419  -3.734  1.00  0.00     0.106 C 
ATOM     11  N   UNL     1       2.933  -1.479  -5.705  1.00  0.00    -0.248 N 
ATOM     12  C   UNL     1       5.019  -2.923  -5.518  1.00  0.00     0.048 C 
BRANCH   8  13
ATOM     13  C   UNL     1       2.390  -0.100  -2.423  1.00  0.00     0.354 C 
ATOM     14  O   UNL     1       3.177   0.397  -1.638  1.00  0.00    -0.245 OA
BRANCH  13  15
ATOM     15  O   UNL     1       1.052  -0.189  -2.304  1.00  0.00    -0.461 OA
BRANCH  15  16
ATOM     16  C   UNL     1       0.486   0.474  -1.165  1.00  0.00     0.230 C 
ATOM     17  C   UNL     1       0.584  -0.402   0.070  1.00  0.00     0.049 C 
ENDBRANCH  15  16
ENDBRANCH  13  15
ENDBRANCH   8  13
BRANCH  11  18
ATOM     18  C   UNL     1       2.425  -1.638  -6.991  1.00  0.00     0.079 A 
ATOM     19  C   UNL     1       2.493  -2.897  -7.613  1.00  0.00     0.030 A 
ATOM     20  C   UNL     1       1.792  -0.607  -7.720  1.00  0.00     0.066 A 
ATOM     21  C   UNL     1       2.021  -3.113  -8.915  1.00  0.00     0.006 A 
ATOM     22  C   UNL     1       1.305  -0.826  -9.021  1.00  0.00     0.026 A 
ATOM     23  Cl  UNL     1       1.685   1.022  -7.130  1.00  0.00    -0.082 Cl
ATOM     24  C   UNL     1       1.422  -2.078  -9.631  1.00  0.00    -0.049 A 
ATOM     25  C   UNL     1       0.967  -2.278 -11.047  1.00  0.00     0.044 C 
ENDBRANCH  11  18
ENDBRANCH   4   7
ENDBRANCH   2   3
ENDBRANCH   1   2
BRANCH   1  26
ATOM     26  C   UNL     1       5.841   0.959  -9.916  1.00  0.00     0.023 C 
BRANCH  26  27
ATOM     27  C   UNL     1       7.224   0.556 -10.420  1.00  0.00     0.116 C 
BRANCH  27  28
ATOM     28  N   UNL     1       7.175  -0.449 -11.470  1.00  0.00    -0.352 N 
ATOM     29  C   UNL     1       7.853  -0.502 -12.662  1.00  0.00     0.251 C 
ATOM     30  H   UNL     1       6.566  -1.203 -11.300  1.00  0.00     0.163 HD
ATOM     31  O   UNL     1       7.584  -1.377 -13.480  1.00  0.00    -0.269 OA
BRANCH  29  32
ATOM     32  C   UNL     1       8.886   0.506 -12.982  1.00  0.00     0.039 A 
ATOM     33  C   UNL     1       8.858   1.110 -14.244  1.00  0.00     0.014 A 
ATOM     34  C   UNL     1       9.887   0.837 -12.065  1.00  0.00     0.014 A 
ATOM     35  C   UNL     1       9.790   2.100 -14.561  1.00  0.00     0.010 A 
ATOM     36  C   UNL     1      10.802   1.844 -12.372  1.00  0.00     0.010 A 
ATOM     37  C   UNL     1      10.753   2.487 -13.617  1.00  0.00    -0.014 A 
BRANCH  37  38
ATOM     38  C   UNL     1      11.713   3.575 -13.908  1.00  0.00     0.031 A 
ATOM     39  C   UNL     1      13.160   3.261 -14.147  1.00  0.00     0.074 A 
ATOM     40  C   UNL     1      11.296   4.854 -13.883  1.00  0.00     0.049 A 
ATOM     41  N   UNL     1      14.175   4.083 -14.237  1.00  0.00    -0.248 NA
ATOM     42  C   UNL     1      13.515   1.840 -14.279  1.00  0.00     0.031 C 
ATOM     43  C   UNL     1       9.924   5.297 -13.632  1.00  0.00     0.029 A 
ATOM     44  N   UNL     1      11.999   6.018 -14.056  1.00  0.00    -0.354 N 
ATOM     45  C   UNL     1      15.296   3.279 -14.376  1.00  0.00     0.074 A 
ATOM     46  C   UNL     1      14.835   1.905 -14.394  1.00  0.00     0.031 C 
ATOM     47  C   UNL     1       9.884   6.639 -13.671  1.00  0.00     0.029 A 
ATOM     48  C   UNL     1      11.228   7.146 -13.931  1.00  0.00     0.049 A 
ATOM     49  H   UNL     1      12.964   6.043 -14.251  1.00  0.00     0.167 HD
ATOM     50  C   UNL     1      16.595   3.650 -14.461  1.00  0.00     0.031 A 
ATOM     51  C   UNL     1      11.569   8.444 -14.007  1.00  0.00     0.031 A 
ATOM     52  C   UNL     1      17.059   5.009 -14.490  1.00  0.00     0.049 A 
ATOM     53  C   UNL     1      12.998   8.828 -14.243  1.00  0.00     0.074 A 
ATOM     54  C   UNL     1      18.360   5.482 -14.550  1.00  0.00     0.029 A 
ATOM     55  N   UNL     1      16.230   6.118 -14.489  1.00  0.00    -0.354 N 
ATOM     56  N   UNL     1      14.053   8.056 -14.323  1.00  0.00    -0.248 NA
ATOM     57  C   UNL     1      13.281  10.262 -14.399  1.00  0.00     0.031 C 
ATOM     58  C   UNL     1      18.315   6.881 -14.604  1.00  0.00     0.029 A 
ATOM     59  C   UNL     1      16.987   7.274 -14.578  1.00  0.00     0.049 A 
ATOM     60  H   UNL     1      15.248   6.089 -14.434  1.00  0.00     0.167 HD
ATOM     61  C   UNL     1      15.128   8.909 -14.525  1.00  0.00     0.074 A 
ATOM     62  C   UNL     1      14.596  10.256 -14.575  1.00  0.00     0.031 C 
ATOM     63  C   UNL     1      16.441   8.602 -14.643  1.00  0.00     0.031 A 
BRANCH  50  64
ATOM     64  C   UNL     1      17.606   2.548 -14.498  1.00  0.00    -0.014 A 
ATOM     65  C   UNL     1      17.989   1.966 -15.714  1.00  0.00     0.009 A 
ATOM     66  C   UNL     1      18.182   2.091 -13.304  1.00  0.00     0.009 A 
ATOM     67  C   UNL     1      18.924   0.929 -15.730  1.00  0.00     0.001 A 
ATOM     68  C   UNL     1      19.118   1.056 -13.324  1.00  0.00     0.001 A 
ATOM     69  C   UNL     1      19.485   0.474 -14.537  1.00  0.00     0.000 A 
ENDBRANCH  50  64
BRANCH  51  70
ATOM     70  C   UNL     1      10.528   9.483 -13.849  1.00  0.00    -0.014 A 
ATOM     71  C   UNL     1       9.847   9.976 -14.972  1.00  0.00     0.009 A 
ATOM     72  C   UNL     1      10.203   9.972 -12.577  1.00  0.00     0.009 A 
ATOM     73  C   UNL     1       8.861  10.952 -14.822  1.00  0.00     0.001 A 
ATOM     74  C   UNL     1       9.214  10.946 -12.431  1.00  0.00     0.001 A 
ATOM     75  C   UNL     1       8.546  11.436 -13.553  1.00  0.00     0.000 A 
ENDBRANCH  51  70
BRANCH  63  76
ATOM     76  C   UNL     1      17.384   9.747 -14.842  1.00  0.00    -0.014 A 
ATOM     77  C   UNL     1      17.949  10.398 -13.736  1.00  0.00     0.009 A 
ATOM     78  C   UNL     1      17.723  10.168 -16.135  1.00  0.00     0.009 A 
ATOM     79  C   UNL     1      18.831  11.464 -13.922  1.00  0.00     0.001 A 
ATOM     80  C   UNL     1      18.602  11.236 -16.318  1.00  0.00     0.001 A 
ATOM     81  C   UNL     1      19.154  11.884 -15.213  1.00  0.00     0.000 A 
ENDBRANCH  63  76
ENDBRANCH  37  38
ENDBRANCH  29  32
ENDBRANCH  27  28
ENDBRANCH  26  27
ENDBRANCH   1  26
TORSDOF 15
