REMARK SMILES CC[C@@H](C)[C@@H](C(=O)NCCCCNC(=O)c1ccc(-c2c3nc(c(-c4ccccc4)c4ccc([nH]4)c(-c4ccccc4)c4nc(c(-c5ccccc5)c5ccc2[nH]5)C=C4)C=C3)cc1)N1C(=O)/C(=C/c2ccc(O)cc2)SC1=S
REMARK SMILES IDX 10 1 9 2 8 3 6 4 7 5 5 7 3 8 4 9 2 10 1 11 64 12 65 13 77 14
REMARK SMILES IDX 66 15 67 16 76 17 78 18 68 19 69 20 70 21 75 22 71 23 74 24
REMARK SMILES IDX 72 25 73 26 11 28 12 29 13 30 14 31 15 33 16 34 17 35 63 36
REMARK SMILES IDX 18 37 62 38 19 39 20 40 21 41 56 42 22 43 61 44 55 45 57 46
REMARK SMILES IDX 23 47 60 48 54 49 53 50 24 52 46 53 31 54 45 55 32 56 35 57
REMARK SMILES IDX 44 58 58 59 33 60 34 61 43 63 59 64 36 65 25 66 26 67 30 68
REMARK SMILES IDX 27 69 29 70 28 71 47 72 48 73 52 74 49 75 51 76 50 77 37 78
REMARK SMILES IDX 38 79 42 80 39 81 41 82 40 83
REMARK H PARENT 8 6 73 27 13 32 57 51 35 62
REMARK Flexibility Score: inf
ROOT
ATOM      1  C   UNL     1       0.344  -1.983  -2.469  1.00  0.00     0.023 C 
ENDROOT
BRANCH   1   2
ATOM      2  C   UNL     1      -0.153  -3.148  -1.600  1.00  0.00     0.116 C 
BRANCH   2   3
ATOM      3  N   UNL     1       0.964  -3.858  -1.000  1.00  0.00    -0.354 N 
ATOM      4  C   UNL     1       1.409  -3.917   0.293  1.00  0.00     0.243 C 
ATOM      5  O   UNL     1       2.462  -4.531   0.486  1.00  0.00    -0.273 OA
ATOM      6  H   UNL     1       1.495  -4.391  -1.636  1.00  0.00     0.163 HD
BRANCH   4   7
ATOM      7  C   UNL     1       0.593  -3.297   1.465  1.00  0.00     0.184 C 
BRANCH   7   8
ATOM      8  C   UNL     1       0.878  -1.781   1.762  1.00  0.00     0.018 C 
ATOM      9  C   UNL     1       0.006  -1.284   2.923  1.00  0.00     0.010 C 
BRANCH   8  10
ATOM     10  C   UNL     1       0.702  -0.869   0.548  1.00  0.00     0.002 C 
ATOM     11  C   UNL     1       1.154   0.572   0.723  1.00  0.00     0.004 C 
ENDBRANCH   8  10
ENDBRANCH   7   8
BRANCH   7  12
ATOM     12  N   UNL     1       0.847  -4.195   2.639  1.00  0.00    -0.280 N 
ATOM     13  C   UNL     1       1.868  -3.925   3.533  1.00  0.00     0.266 C 
ATOM     14  C   UNL     1       0.214  -5.411   2.833  1.00  0.00     0.149 C 
ATOM     15  O   UNL     1       2.712  -3.040   3.470  1.00  0.00    -0.268 OA
ATOM     16  C   UNL     1       1.837  -4.873   4.667  1.00  0.00     0.081 C 
ATOM     17  S   UNL     1       0.818  -6.191   4.302  1.00  0.00    -0.054 SA
ATOM     18  S   UNL     1      -0.968  -6.122   1.889  1.00  0.00    -0.052 S 
ATOM     19  C   UNL     1       2.522  -4.588   5.780  1.00  0.00     0.029 C 
BRANCH  19  20
ATOM     20  C   UNL     1       2.707  -5.433   6.956  1.00  0.00    -0.024 A 
ATOM     21  C   UNL     1       2.182  -5.056   8.197  1.00  0.00     0.012 A 
ATOM     22  C   UNL     1       3.537  -6.555   6.863  1.00  0.00     0.012 A 
ATOM     23  C   UNL     1       2.495  -5.798   9.337  1.00  0.00     0.047 A 
ATOM     24  C   UNL     1       3.855  -7.292   8.003  1.00  0.00     0.047 A 
ATOM     25  C   UNL     1       3.335  -6.902   9.233  1.00  0.00     0.115 A 
BRANCH  25  26
ATOM     26  O   UNL     1       3.646  -7.577  10.375  1.00  0.00    -0.508 OA
ATOM     27  H   UNL     1       3.287  -7.300  11.195  1.00  0.00     0.293 HD
ENDBRANCH  25  26
ENDBRANCH  19  20
ENDBRANCH   7  12
ENDBRANCH   4   7
ENDBRANCH   2   3
ENDBRANCH   1   2
BRANCH   1  28
ATOM     28  C   UNL     1       0.708  -2.354  -3.896  1.00  0.00     0.023 C 
BRANCH  28  29
ATOM     29  C   UNL     1      -0.486  -2.693  -4.765  1.00  0.00     0.116 C 
BRANCH  29  30
ATOM     30  N   UNL     1      -1.411  -1.576  -4.926  1.00  0.00    -0.352 N 
ATOM     31  C   UNL     1      -1.848  -0.971  -6.082  1.00  0.00     0.251 C 
ATOM     32  H   UNL     1      -1.774  -1.203  -4.090  1.00  0.00     0.163 HD
ATOM     33  O   UNL     1      -2.528   0.047  -6.042  1.00  0.00    -0.269 OA
BRANCH  31  34
ATOM     34  C   UNL     1      -1.440  -1.550  -7.375  1.00  0.00     0.039 A 
ATOM     35  C   UNL     1      -0.842  -0.727  -8.331  1.00  0.00     0.014 A 
ATOM     36  C   UNL     1      -1.539  -2.927  -7.579  1.00  0.00     0.014 A 
ATOM     37  C   UNL     1      -0.237  -1.308  -9.446  1.00  0.00     0.010 A 
ATOM     38  C   UNL     1      -0.841  -3.509  -8.626  1.00  0.00     0.010 A 
ATOM     39  C   UNL     1      -0.175  -2.706  -9.565  1.00  0.00    -0.014 A 
BRANCH  39  40
ATOM     40  C   UNL     1       0.595  -3.365 -10.648  1.00  0.00     0.031 A 
ATOM     41  C   UNL     1      -0.108  -4.279 -11.611  1.00  0.00     0.074 A 
ATOM     42  C   UNL     1       1.935  -3.222 -10.700  1.00  0.00     0.049 A 
ATOM     43  N   UNL     1       0.399  -5.036 -12.550  1.00  0.00    -0.248 NA
ATOM     44  C   UNL     1      -1.571  -4.385 -11.478  1.00  0.00     0.031 C 
ATOM     45  C   UNL     1       2.741  -2.404  -9.789  1.00  0.00     0.029 A 
ATOM     46  N   UNL     1       2.859  -3.775 -11.550  1.00  0.00    -0.354 N 
ATOM     47  C   UNL     1      -0.676  -5.721 -13.099  1.00  0.00     0.074 A 
ATOM     48  C   UNL     1      -1.854  -5.337 -12.354  1.00  0.00     0.031 C 
ATOM     49  C   UNL     1       4.032  -2.488 -10.148  1.00  0.00     0.029 A 
ATOM     50  C   UNL     1       4.153  -3.401 -11.279  1.00  0.00     0.049 A 
ATOM     51  H   UNL     1       2.617  -4.383 -12.286  1.00  0.00     0.167 HD
ATOM     52  C   UNL     1      -0.687  -6.579 -14.145  1.00  0.00     0.031 A 
ATOM     53  C   UNL     1       5.309  -3.765 -11.865  1.00  0.00     0.031 A 
ATOM     54  C   UNL     1       0.482  -6.944 -14.897  1.00  0.00     0.049 A 
ATOM     55  C   UNL     1       5.273  -4.735 -13.013  1.00  0.00     0.074 A 
ATOM     56  C   UNL     1       0.566  -7.745 -16.021  1.00  0.00     0.029 A 
ATOM     57  N   UNL     1       1.772  -6.536 -14.595  1.00  0.00    -0.354 N 
ATOM     58  N   UNL     1       4.237  -5.309 -13.575  1.00  0.00    -0.248 NA
ATOM     59  C   UNL     1       6.564  -5.105 -13.609  1.00  0.00     0.031 C 
ATOM     60  C   UNL     1       1.915  -7.869 -16.366  1.00  0.00     0.029 A 
ATOM     61  C   UNL     1       2.664  -7.098 -15.491  1.00  0.00     0.049 A 
ATOM     62  H   UNL     1       2.016  -5.935 -13.854  1.00  0.00     0.167 HD
ATOM     63  C   UNL     1       4.749  -6.093 -14.601  1.00  0.00     0.074 A 
ATOM     64  C   UNL     1       6.185  -5.903 -14.598  1.00  0.00     0.031 C 
ATOM     65  C   UNL     1       4.090  -6.901 -15.467  1.00  0.00     0.031 A 
BRANCH  52  66
ATOM     66  C   UNL     1      -2.007  -7.183 -14.534  1.00  0.00    -0.014 A 
ATOM     67  C   UNL     1      -3.021  -6.404 -15.116  1.00  0.00     0.009 A 
ATOM     68  C   UNL     1      -2.228  -8.555 -14.345  1.00  0.00     0.009 A 
ATOM     69  C   UNL     1      -4.242  -6.982 -15.468  1.00  0.00     0.001 A 
ATOM     70  C   UNL     1      -3.439  -9.136 -14.726  1.00  0.00     0.001 A 
ATOM     71  C   UNL     1      -4.448  -8.348 -15.277  1.00  0.00     0.000 A 
ENDBRANCH  52  66
BRANCH  53  72
ATOM     72  C   UNL     1       6.602  -3.215 -11.377  1.00  0.00    -0.014 A 
ATOM     73  C   UNL     1       7.334  -2.312 -12.163  1.00  0.00     0.009 A 
ATOM     74  C   UNL     1       7.117  -3.597 -10.128  1.00  0.00     0.009 A 
ATOM     75  C   UNL     1       8.566  -1.824 -11.721  1.00  0.00     0.001 A 
ATOM     76  C   UNL     1       8.335  -3.084  -9.675  1.00  0.00     0.001 A 
ATOM     77  C   UNL     1       9.063  -2.207 -10.476  1.00  0.00     0.000 A 
ENDBRANCH  53  72
BRANCH  65  78
ATOM     78  C   UNL     1       4.911  -7.627 -16.493  1.00  0.00    -0.014 A 
ATOM     79  C   UNL     1       5.719  -8.717 -16.134  1.00  0.00     0.009 A 
ATOM     80  C   UNL     1       4.827  -7.255 -17.843  1.00  0.00     0.009 A 
ATOM     81  C   UNL     1       6.446  -9.405 -17.108  1.00  0.00     0.001 A 
ATOM     82  C   UNL     1       5.531  -7.963 -18.817  1.00  0.00     0.001 A 
ATOM     83  C   UNL     1       6.345  -9.032 -18.448  1.00  0.00     0.000 A 
ENDBRANCH  65  78
ENDBRANCH  39  40
ENDBRANCH  31  34
ENDBRANCH  29  30
ENDBRANCH  28  29
ENDBRANCH   1  28
TORSDOF 16
