REMARK SMILES CC(C)c1ncc(SC[C@H](O)CO)c(C(=O)NCCCCNC(=O)c2ccc(-c3c4nc(c(-c5ccccc5)c5ccc([nH]5)c(-c5ccccc5)c5nc(c(-c6ccccc6)c6ccc3[nH]6)C=C5)C=C4)cc2)n1
REMARK SMILES IDX 18 1 17 2 15 3 16 4 14 6 4 7 5 8 73 9 6 10 7 11 2 12 1 13
REMARK SMILES IDX 3 14 8 15 9 16 10 17 12 18 13 19 11 21 19 23 20 24 21 25
REMARK SMILES IDX 22 26 23 27 24 29 25 30 26 31 72 32 27 33 71 34 28 35 29 36
REMARK SMILES IDX 30 37 65 38 31 39 70 40 64 41 66 42 32 43 69 44 63 45 62 46
REMARK SMILES IDX 33 48 55 49 40 50 54 51 41 52 44 53 53 54 67 55 42 56 43 57
REMARK SMILES IDX 52 59 68 60 45 61 34 62 35 63 39 64 36 65 38 66 37 67 56 68
REMARK SMILES IDX 57 69 61 70 58 71 60 72 59 73 46 74 47 75 51 76 48 77 50 78
REMARK SMILES IDX 49 79
REMARK H PARENT 17 5 13 20 11 22 22 28 66 47 44 58
REMARK Flexibility Score: inf
ROOT
ATOM      1  C   UNL     1      -2.929  -3.012  -4.066  1.00  0.00     0.116 C 
ENDROOT
BRANCH   1   2
ATOM      2  N   UNL     1      -2.672  -4.410  -3.844  1.00  0.00    -0.351 N 
ATOM      3  C   UNL     1      -2.911  -5.257  -2.791  1.00  0.00     0.271 C 
ATOM      4  O   UNL     1      -2.362  -6.361  -2.892  1.00  0.00    -0.267 OA
ATOM      5  H   UNL     1      -2.232  -4.852  -4.606  1.00  0.00     0.163 HD
BRANCH   3   6
ATOM      6  C   UNL     1      -3.845  -5.025  -1.622  1.00  0.00     0.145 A 
ATOM      7  C   UNL     1      -5.205  -6.306  -0.220  1.00  0.00     0.131 A 
ATOM      8  N   UNL     1      -5.431  -5.278   0.602  1.00  0.00    -0.240 NA
ATOM      9  N   UNL     1      -4.487  -6.202  -1.343  1.00  0.00    -0.226 NA
ATOM     10  C   UNL     1      -4.800  -4.128   0.303  1.00  0.00     0.130 A 
ATOM     11  C   UNL     1      -3.985  -3.908  -0.803  1.00  0.00     0.057 A 
BRANCH   7  12
ATOM     12  C   UNL     1      -5.695  -7.683   0.168  1.00  0.00     0.051 C 
ATOM     13  C   UNL     1      -5.909  -7.821   1.678  1.00  0.00     0.016 C 
ATOM     14  C   UNL     1      -6.965  -8.039  -0.598  1.00  0.00     0.016 C 
ENDBRANCH   7  12
BRANCH  11  15
ATOM     15  S   UNL     1      -3.099  -2.383  -0.752  1.00  0.00    -0.119 SA
BRANCH  15  16
ATOM     16  C   UNL     1      -4.263  -1.058  -1.318  1.00  0.00     0.109 C 
BRANCH  16  17
ATOM     17  C   UNL     1      -5.799  -1.084  -1.334  1.00  0.00     0.150 C 
BRANCH  17  18
ATOM     18  C   UNL     1      -6.508  -2.280  -1.965  1.00  0.00     0.188 C 
BRANCH  18  19
ATOM     19  O   UNL     1      -7.863  -1.903  -2.237  1.00  0.00    -0.394 OA
ATOM     20  H   UNL     1      -8.300  -1.646  -1.409  1.00  0.00     0.210 HD
ENDBRANCH  18  19
ENDBRANCH  17  18
BRANCH  17  21
ATOM     21  O   UNL     1      -6.308  -0.886  -0.011  1.00  0.00    -0.390 OA
ATOM     22  H   UNL     1      -6.069  -1.645   0.544  1.00  0.00     0.211 HD
ENDBRANCH  17  21
ENDBRANCH  16  17
ENDBRANCH  15  16
ENDBRANCH  11  15
ENDBRANCH   3   6
ENDBRANCH   1   2
BRANCH   1  23
ATOM     23  C   UNL     1      -1.681  -2.206  -3.693  1.00  0.00     0.023 C 
BRANCH  23  24
ATOM     24  C   UNL     1      -0.697  -1.978  -4.834  1.00  0.00     0.023 C 
BRANCH  24  25
ATOM     25  C   UNL     1      -1.222  -1.089  -5.953  1.00  0.00     0.116 C 
BRANCH  25  26
ATOM     26  N   UNL     1      -1.723   0.202  -5.498  1.00  0.00    -0.352 N 
ATOM     27  C   UNL     1      -1.639   1.427  -6.121  1.00  0.00     0.251 C 
ATOM     28  H   UNL     1      -2.184   0.198  -4.628  1.00  0.00     0.163 HD
ATOM     29  O   UNL     1      -2.055   2.436  -5.576  1.00  0.00    -0.269 OA
BRANCH  27  30
ATOM     30  C   UNL     1      -0.987   1.499  -7.443  1.00  0.00     0.039 A 
ATOM     31  C   UNL     1       0.049   2.415  -7.633  1.00  0.00     0.014 A 
ATOM     32  C   UNL     1      -1.341   0.600  -8.451  1.00  0.00     0.014 A 
ATOM     33  C   UNL     1       0.792   2.370  -8.812  1.00  0.00     0.010 A 
ATOM     34  C   UNL     1      -0.547   0.500  -9.585  1.00  0.00     0.010 A 
ATOM     35  C   UNL     1       0.529   1.382  -9.774  1.00  0.00    -0.014 A 
BRANCH  35  36
ATOM     36  C   UNL     1       1.366   1.244 -10.989  1.00  0.00     0.031 A 
ATOM     37  C   UNL     1       0.750   1.442 -12.345  1.00  0.00     0.074 A 
ATOM     38  C   UNL     1       2.651   0.857 -10.875  1.00  0.00     0.049 A 
ATOM     39  N   UNL     1       1.287   1.278 -13.527  1.00  0.00    -0.248 NA
ATOM     40  C   UNL     1      -0.666   1.843 -12.377  1.00  0.00     0.031 C 
ATOM     41  C   UNL     1       3.350   0.580  -9.617  1.00  0.00     0.029 A 
ATOM     42  N   UNL     1       3.598   0.620 -11.839  1.00  0.00    -0.354 N 
ATOM     43  C   UNL     1       0.270   1.529 -14.438  1.00  0.00     0.074 A 
ATOM     44  C   UNL     1      -0.927   1.807 -13.675  1.00  0.00     0.031 C 
ATOM     45  C   UNL     1       4.622   0.240  -9.886  1.00  0.00     0.029 A 
ATOM     46  C   UNL     1       4.817   0.239 -11.332  1.00  0.00     0.049 A 
ATOM     47  H   UNL     1       3.422   0.715 -12.803  1.00  0.00     0.167 HD
ATOM     48  C   UNL     1       0.330   1.549 -15.789  1.00  0.00     0.031 A 
ATOM     49  C   UNL     1       5.963  -0.078 -11.964  1.00  0.00     0.031 A 
ATOM     50  C   UNL     1       1.526   1.303 -16.546  1.00  0.00     0.049 A 
ATOM     51  C   UNL     1       6.009  -0.028 -13.465  1.00  0.00     0.074 A 
ATOM     52  C   UNL     1       1.708   1.365 -17.916  1.00  0.00     0.029 A 
ATOM     53  N   UNL     1       2.748   0.953 -15.993  1.00  0.00    -0.354 N 
ATOM     54  N   UNL     1       5.056   0.279 -14.311  1.00  0.00    -0.248 NA
ATOM     55  C   UNL     1       7.295  -0.356 -14.097  1.00  0.00     0.031 C 
ATOM     56  C   UNL     1       3.033   1.018 -18.196  1.00  0.00     0.029 A 
ATOM     57  C   UNL     1       3.686   0.783 -16.996  1.00  0.00     0.049 A 
ATOM     58  H   UNL     1       2.923   0.843 -15.031  1.00  0.00     0.167 HD
ATOM     59  C   UNL     1       5.633   0.208 -15.572  1.00  0.00     0.074 A 
ATOM     60  C   UNL     1       7.021  -0.157 -15.379  1.00  0.00     0.031 C 
ATOM     61  C   UNL     1       5.064   0.427 -16.782  1.00  0.00     0.031 A 
BRANCH  48  62
ATOM     62  C   UNL     1      -0.940   1.852 -16.531  1.00  0.00    -0.014 A 
ATOM     63  C   UNL     1      -1.496   3.142 -16.521  1.00  0.00     0.009 A 
ATOM     64  C   UNL     1      -1.577   0.843 -17.268  1.00  0.00     0.009 A 
ATOM     65  C   UNL     1      -2.684   3.405 -17.204  1.00  0.00     0.001 A 
ATOM     66  C   UNL     1      -2.751   1.116 -17.974  1.00  0.00     0.001 A 
ATOM     67  C   UNL     1      -3.308   2.393 -17.933  1.00  0.00     0.000 A 
ENDBRANCH  48  62
BRANCH  49  68
ATOM     68  C   UNL     1       7.171  -0.445 -11.181  1.00  0.00    -0.014 A 
ATOM     69  C   UNL     1       8.256   0.441 -11.097  1.00  0.00     0.009 A 
ATOM     70  C   UNL     1       7.252  -1.682 -10.525  1.00  0.00     0.009 A 
ATOM     71  C   UNL     1       9.409   0.084 -10.395  1.00  0.00     0.001 A 
ATOM     72  C   UNL     1       8.397  -2.026  -9.802  1.00  0.00     0.001 A 
ATOM     73  C   UNL     1       9.478  -1.148  -9.746  1.00  0.00     0.000 A 
ENDBRANCH  49  68
BRANCH  61  74
ATOM     74  C   UNL     1       5.952   0.316 -17.987  1.00  0.00    -0.014 A 
ATOM     75  C   UNL     1       6.376  -0.932 -18.465  1.00  0.00     0.009 A 
ATOM     76  C   UNL     1       6.330   1.478 -18.677  1.00  0.00     0.009 A 
ATOM     77  C   UNL     1       7.187  -1.013 -19.599  1.00  0.00     0.001 A 
ATOM     78  C   UNL     1       7.120   1.392 -19.824  1.00  0.00     0.001 A 
ATOM     79  C   UNL     1       7.554   0.148 -20.279  1.00  0.00     0.000 A 
ENDBRANCH  61  74
ENDBRANCH  35  36
ENDBRANCH  27  30
ENDBRANCH  25  26
ENDBRANCH  24  25
ENDBRANCH  23  24
ENDBRANCH   1  23
TORSDOF 18
