REMARK SMILES Cc1cc(CC(=O)C(=O)NCCCCNC(=O)c2ccc(-c3c4nc(c(-c5ccccc5)c5ccc([nH]5)c(-c5ccccc5)c5nc(c(-c6ccccc6)c6ccc3[nH]6)C=C5)C=C4)cc2)cc2cn[nH]c12
REMARK SMILES IDX 12 1 11 2 10 3 8 4 9 5 6 7 7 8 5 9 4 10 1 11 2 12 3 13 71 14
REMARK SMILES IDX 67 15 70 16 66 17 68 18 69 19 13 21 14 22 15 23 16 24 17 26
REMARK SMILES IDX 18 27 19 28 65 29 20 30 64 31 21 32 22 33 23 34 58 35 24 36
REMARK SMILES IDX 63 37 57 38 59 39 25 40 62 41 56 42 55 43 26 45 48 46 33 47
REMARK SMILES IDX 47 48 34 49 37 50 46 51 60 52 35 53 36 54 45 56 61 57 38 58
REMARK SMILES IDX 27 59 28 60 32 61 29 62 31 63 30 64 49 65 50 66 54 67 51 68
REMARK SMILES IDX 53 69 52 70 39 71 40 72 44 73 41 74 43 75 42 76
REMARK H PARENT 10 6 70 20 15 25 59 44 37 55
REMARK Flexibility Score: inf
ROOT
ATOM      1  C   UNL     1      -3.309   8.226   1.541  1.00  0.00     0.023 C 
ENDROOT
BRANCH   1   2
ATOM      2  C   UNL     1      -3.159   6.865   2.231  1.00  0.00     0.116 C 
BRANCH   2   3
ATOM      3  N   UNL     1      -2.842   5.815   1.278  1.00  0.00    -0.349 N 
ATOM      4  C   UNL     1      -1.642   5.207   0.983  1.00  0.00     0.287 C 
ATOM      5  O   UNL     1      -1.580   4.436   0.031  1.00  0.00    -0.266 OA
ATOM      6  H   UNL     1      -3.611   5.484   0.759  1.00  0.00     0.163 HD
BRANCH   4   7
ATOM      7  C   UNL     1      -0.378   5.475   1.816  1.00  0.00     0.224 C 
ATOM      8  O   UNL     1      -0.293   6.446   2.561  1.00  0.00    -0.288 OA
BRANCH   7   9
ATOM      9  C   UNL     1       0.791   4.543   1.586  1.00  0.00     0.122 C 
BRANCH   9  10
ATOM     10  C   UNL     1       0.513   3.078   1.833  1.00  0.00    -0.039 A 
ATOM     11  C   UNL     1       0.966  -0.188  -0.109  1.00  0.00     0.047 C 
ATOM     12  C   UNL     1       0.599   0.757   0.996  1.00  0.00    -0.025 A 
ATOM     13  C   UNL     1       0.817   2.139   0.834  1.00  0.00     0.009 A 
ATOM     14  C   UNL     1       0.062   0.367   2.232  1.00  0.00     0.068 A 
ATOM     15  C   UNL     1      -0.239   1.263   3.253  1.00  0.00     0.020 A 
ATOM     16  N   UNL     1      -0.276  -0.866   2.733  1.00  0.00    -0.278 N 
ATOM     17  C   UNL     1      -0.004   2.637   3.063  1.00  0.00     0.016 A 
ATOM     18  C   UNL     1      -0.741   0.455   4.298  1.00  0.00     0.143 A 
ATOM     19  N   UNL     1      -0.773  -0.841   3.982  1.00  0.00    -0.183 NA
ATOM     20  H   UNL     1      -0.163  -1.698   2.220  1.00  0.00     0.190 HD
ENDBRANCH   9  10
ENDBRANCH   7   9
ENDBRANCH   4   7
ENDBRANCH   2   3
ENDBRANCH   1   2
BRANCH   1  21
ATOM     21  C   UNL     1      -4.505   8.351   0.580  1.00  0.00     0.023 C 
BRANCH  21  22
ATOM     22  C   UNL     1      -5.868   8.149   1.231  1.00  0.00     0.116 C 
BRANCH  22  23
ATOM     23  N   UNL     1      -6.152   9.143   2.259  1.00  0.00    -0.352 N 
ATOM     24  C   UNL     1      -7.281   9.271   3.041  1.00  0.00     0.251 C 
ATOM     25  H   UNL     1      -5.445   9.810   2.415  1.00  0.00     0.163 HD
ATOM     26  O   UNL     1      -7.547  10.336   3.578  1.00  0.00    -0.269 OA
BRANCH  24  27
ATOM     27  C   UNL     1      -8.162   8.105   3.242  1.00  0.00     0.039 A 
ATOM     28  C   UNL     1      -9.549   8.271   3.328  1.00  0.00     0.014 A 
ATOM     29  C   UNL     1      -7.587   6.844   3.402  1.00  0.00     0.014 A 
ATOM     30  C   UNL     1     -10.353   7.152   3.524  1.00  0.00     0.010 A 
ATOM     31  C   UNL     1      -8.382   5.727   3.487  1.00  0.00     0.010 A 
ATOM     32  C   UNL     1      -9.758   5.885   3.597  1.00  0.00    -0.014 A 
BRANCH  32  33
ATOM     33  C   UNL     1     -10.578   4.689   3.709  1.00  0.00     0.031 A 
ATOM     34  C   UNL     1     -11.456   4.424   2.542  1.00  0.00     0.074 A 
ATOM     35  C   UNL     1     -10.406   3.775   4.684  1.00  0.00     0.049 A 
ATOM     36  N   UNL     1     -12.744   4.491   2.499  1.00  0.00    -0.248 NA
ATOM     37  C   UNL     1     -10.825   4.165   1.237  1.00  0.00     0.031 C 
ATOM     38  C   UNL     1      -9.362   3.723   5.713  1.00  0.00     0.029 A 
ATOM     39  N   UNL     1     -11.085   2.615   4.886  1.00  0.00    -0.354 N 
ATOM     40  C   UNL     1     -13.107   4.105   1.212  1.00  0.00     0.074 A 
ATOM     41  C   UNL     1     -11.891   4.075   0.439  1.00  0.00     0.031 C 
ATOM     42  C   UNL     1      -9.341   2.490   6.272  1.00  0.00     0.029 A 
ATOM     43  C   UNL     1     -10.468   1.731   5.762  1.00  0.00     0.049 A 
ATOM     44  H   UNL     1     -11.944   2.418   4.448  1.00  0.00     0.167 HD
ATOM     45  C   UNL     1     -14.345   3.611   0.939  1.00  0.00     0.031 A 
ATOM     46  C   UNL     1     -10.849   0.453   6.007  1.00  0.00     0.031 A 
ATOM     47  C   UNL     1     -15.258   3.820   2.031  1.00  0.00     0.049 A 
ATOM     48  C   UNL     1     -12.271   0.346   5.602  1.00  0.00     0.074 A 
ATOM     49  C   UNL     1     -15.774   4.924   2.677  1.00  0.00     0.029 A 
ATOM     50  N   UNL     1     -15.459   2.752   2.873  1.00  0.00    -0.354 N 
ATOM     51  N   UNL     1     -13.239   0.981   6.198  1.00  0.00    -0.248 NA
ATOM     52  C   UNL     1     -12.568  -0.136   4.263  1.00  0.00     0.031 C 
ATOM     53  C   UNL     1     -15.826   4.549   4.051  1.00  0.00     0.029 A 
ATOM     54  C   UNL     1     -15.400   3.223   4.156  1.00  0.00     0.049 A 
ATOM     55  H   UNL     1     -15.617   1.819   2.602  1.00  0.00     0.167 HD
ATOM     56  C   UNL     1     -14.096   1.355   5.173  1.00  0.00     0.074 A 
ATOM     57  C   UNL     1     -13.689   0.549   4.024  1.00  0.00     0.031 C 
ATOM     58  C   UNL     1     -14.861   2.479   5.273  1.00  0.00     0.031 A 
BRANCH  45  59
ATOM     59  C   UNL     1     -14.627   2.582  -0.123  1.00  0.00    -0.014 A 
ATOM     60  C   UNL     1     -15.963   2.236  -0.393  1.00  0.00     0.009 A 
ATOM     61  C   UNL     1     -13.632   1.741  -0.655  1.00  0.00     0.009 A 
ATOM     62  C   UNL     1     -16.285   1.077  -1.107  1.00  0.00     0.001 A 
ATOM     63  C   UNL     1     -13.948   0.605  -1.403  1.00  0.00     0.001 A 
ATOM     64  C   UNL     1     -15.276   0.259  -1.608  1.00  0.00     0.000 A 
ENDBRANCH  45  59
BRANCH  46  65
ATOM     65  C   UNL     1     -10.011  -0.745   6.251  1.00  0.00    -0.014 A 
ATOM     66  C   UNL     1     -10.612  -1.960   6.627  1.00  0.00     0.009 A 
ATOM     67  C   UNL     1      -8.671  -0.788   5.824  1.00  0.00     0.009 A 
ATOM     68  C   UNL     1      -9.924  -3.176   6.508  1.00  0.00     0.001 A 
ATOM     69  C   UNL     1      -7.981  -2.002   5.715  1.00  0.00     0.001 A 
ATOM     70  C   UNL     1      -8.616  -3.198   6.034  1.00  0.00     0.000 A 
ENDBRANCH  46  65
BRANCH  58  71
ATOM     71  C   UNL     1     -14.942   3.174   6.608  1.00  0.00    -0.014 A 
ATOM     72  C   UNL     1     -13.859   3.875   7.166  1.00  0.00     0.009 A 
ATOM     73  C   UNL     1     -16.209   3.321   7.190  1.00  0.00     0.009 A 
ATOM     74  C   UNL     1     -14.049   4.716   8.269  1.00  0.00     0.001 A 
ATOM     75  C   UNL     1     -16.400   4.173   8.279  1.00  0.00     0.001 A 
ATOM     76  C   UNL     1     -15.322   4.875   8.814  1.00  0.00     0.000 A 
ENDBRANCH  58  71
ENDBRANCH  32  33
ENDBRANCH  24  27
ENDBRANCH  22  23
ENDBRANCH  21  22
ENDBRANCH   1  21
TORSDOF 13
