REMARK SMILES COc1ccccc1[C@@H]1C[N@@H+](Cc2cc3c(cc2C)OCO3)C[C@H]1C(=O)NCCCCNC(=O)c1ccc(-c2c3nc(c(-c4ccccc4)c4ccc([nH]4)c(-c4ccccc4)c4nc(c(-c5ccccc5)c5ccc2[nH]5)C=C4)C=C3)cc1
REMARK SMILES IDX 29 1 28 2 27 3 25 4 26 5 24 7 9 8 10 9 11 10 23 11 8 13 3 14
REMARK SMILES IDX 4 15 5 16 7 17 6 18 2 19 1 20 12 21 13 22 14 23 18 24 15 25
REMARK SMILES IDX 17 26 19 27 16 28 22 29 20 30 21 31 30 32 31 33 32 34 33 35
REMARK SMILES IDX 34 37 35 38 36 39 82 40 37 41 81 42 38 43 39 44 40 45 75 46
REMARK SMILES IDX 41 47 80 48 74 49 76 50 42 51 79 52 73 53 72 54 43 56 65 57
REMARK SMILES IDX 50 58 64 59 51 60 54 61 63 62 77 63 52 64 53 65 62 67 78 68
REMARK SMILES IDX 55 69 44 70 45 71 49 72 46 73 48 74 47 75 66 76 67 77 71 78
REMARK SMILES IDX 68 79 70 80 69 81 56 82 57 83 61 84 58 85 60 86 59 87
REMARK H PARENT 27 6 11 12 32 36 76 55 54 66
REMARK Flexibility Score: inf
ROOT
ATOM      1  C   UNL     1       6.137   2.550  -3.139  1.00  0.00     0.023 C 
ENDROOT
BRANCH   1   2
ATOM      2  C   UNL     1       5.213   3.158  -2.043  1.00  0.00     0.116 C 
BRANCH   2   3
ATOM      3  N   UNL     1       3.781   2.624  -1.955  1.00  0.00    -0.356 N 
ATOM      4  C   UNL     1       2.825   1.796  -1.465  1.00  0.00     0.229 C 
ATOM      5  O   UNL     1       1.718   2.228  -1.879  1.00  0.00    -0.275 OA
ATOM      6  H   UNL     1       3.291   3.182  -2.602  1.00  0.00     0.163 HD
BRANCH   4   7
ATOM      7  C   UNL     1       2.667   0.474  -0.585  1.00  0.00     0.146 C 
ATOM      8  C   UNL     1       2.482  -0.894  -1.305  1.00  0.00     0.096 C 
ATOM      9  C   UNL     1       2.726  -1.963  -0.216  1.00  0.00     0.272 C 
ATOM     10  N   UNL     1       3.687  -1.387   0.727  1.00  0.00    -0.330 N 
ATOM     11  C   UNL     1       3.401   0.072   0.722  1.00  0.00     0.276 C 
ATOM     12  H   UNL     1       3.586  -1.678   1.699  1.00  0.00     0.348 HD
BRANCH   8  13
ATOM     13  C   UNL     1       1.292  -1.264  -2.182  1.00  0.00     0.004 A 
ATOM     14  C   UNL     1       0.011  -1.631  -1.733  1.00  0.00     0.122 A 
ATOM     15  C   UNL     1      -0.915  -2.220  -2.610  1.00  0.00     0.047 A 
ATOM     16  C   UNL     1      -0.587  -2.459  -3.943  1.00  0.00     0.004 A 
ATOM     17  C   UNL     1       1.581  -1.490  -3.550  1.00  0.00     0.008 A 
ATOM     18  C   UNL     1       0.665  -2.095  -4.414  1.00  0.00     0.001 A 
BRANCH  14  19
ATOM     19  O   UNL     1      -0.352  -1.671  -0.414  1.00  0.00    -0.496 OA
ATOM     20  C   UNL     1      -0.641  -0.394   0.139  1.00  0.00     0.278 C 
ENDBRANCH  14  19
ENDBRANCH   8  13
BRANCH  10  21
ATOM     21  C   UNL     1       5.067  -1.930   0.581  1.00  0.00     0.299 C 
BRANCH  21  22
ATOM     22  C   UNL     1       5.728  -1.700  -0.766  1.00  0.00     0.013 A 
ATOM     23  C   UNL     1       6.039  -2.716  -1.703  1.00  0.00     0.060 A 
ATOM     24  C   UNL     1       5.798  -0.385  -1.189  1.00  0.00    -0.038 A 
ATOM     25  C   UNL     1       6.158  -2.361  -3.039  1.00  0.00     0.166 A 
ATOM     26  C   UNL     1       5.443  -0.186  -2.510  1.00  0.00     0.054 A 
ATOM     27  C   UNL     1       6.192   0.716  -0.254  1.00  0.00     0.045 C 
ATOM     28  C   UNL     1       5.746  -1.130  -3.434  1.00  0.00     0.166 A 
ATOM     29  O   UNL     1       6.523  -3.104  -4.117  1.00  0.00    -0.454 OA
ATOM     30  O   UNL     1       5.699  -0.946  -4.773  1.00  0.00    -0.454 OA
ATOM     31  C   UNL     1       6.457  -2.099  -5.168  1.00  0.00     0.468 C 
ENDBRANCH  21  22
ENDBRANCH  10  21
ENDBRANCH   4   7
ENDBRANCH   2   3
ENDBRANCH   1   2
BRANCH   1  32
ATOM     32  C   UNL     1       7.411   3.234  -3.621  1.00  0.00     0.023 C 
BRANCH  32  33
ATOM     33  C   UNL     1       8.477   3.331  -2.529  1.00  0.00     0.116 C 
BRANCH  33  34
ATOM     34  N   UNL     1       9.401   2.185  -2.435  1.00  0.00    -0.352 N 
ATOM     35  C   UNL     1      10.671   1.959  -2.954  1.00  0.00     0.251 C 
ATOM     36  H   UNL     1       9.050   1.435  -1.902  1.00  0.00     0.163 HD
ATOM     37  O   UNL     1      11.266   0.924  -2.730  1.00  0.00    -0.269 OA
BRANCH  35  38
ATOM     38  C   UNL     1      11.265   2.969  -3.855  1.00  0.00     0.039 A 
ATOM     39  C   UNL     1      11.781   2.590  -5.097  1.00  0.00     0.014 A 
ATOM     40  C   UNL     1      11.158   4.308  -3.528  1.00  0.00     0.014 A 
ATOM     41  C   UNL     1      11.999   3.568  -6.074  1.00  0.00     0.010 A 
ATOM     42  C   UNL     1      11.159   5.235  -4.551  1.00  0.00     0.010 A 
ATOM     43  C   UNL     1      11.587   4.889  -5.842  1.00  0.00    -0.014 A 
BRANCH  43  44
ATOM     44  C   UNL     1      11.588   5.951  -6.887  1.00  0.00     0.031 A 
ATOM     45  C   UNL     1      12.173   7.304  -6.557  1.00  0.00     0.074 A 
ATOM     46  C   UNL     1      10.927   5.780  -8.050  1.00  0.00     0.049 A 
ATOM     47  N   UNL     1      12.021   8.448  -7.174  1.00  0.00    -0.248 NA
ATOM     48  C   UNL     1      12.941   7.402  -5.303  1.00  0.00     0.031 C 
ATOM     49  C   UNL     1      10.224   4.566  -8.475  1.00  0.00     0.029 A 
ATOM     50  N   UNL     1      10.724   6.654  -9.091  1.00  0.00    -0.354 N 
ATOM     51  C   UNL     1      12.573   9.400  -6.325  1.00  0.00     0.074 A 
ATOM     52  C   UNL     1      12.981   8.712  -5.123  1.00  0.00     0.031 C 
ATOM     53  C   UNL     1       9.717   4.755  -9.705  1.00  0.00     0.029 A 
ATOM     54  C   UNL     1      10.011   6.116 -10.136  1.00  0.00     0.049 A 
ATOM     55  H   UNL     1      11.060   7.580  -9.089  1.00  0.00     0.167 HD
ATOM     56  C   UNL     1      12.769  10.723  -6.539  1.00  0.00     0.031 A 
ATOM     57  C   UNL     1       9.637   6.660 -11.309  1.00  0.00     0.031 A 
ATOM     58  C   UNL     1      12.495  11.369  -7.790  1.00  0.00     0.049 A 
ATOM     59  C   UNL     1      10.007   8.087 -11.602  1.00  0.00     0.074 A 
ATOM     60  C   UNL     1      12.798  12.660  -8.181  1.00  0.00     0.029 A 
ATOM     61  N   UNL     1      11.888  10.749  -8.872  1.00  0.00    -0.354 N 
ATOM     62  N   UNL     1      10.596   8.962 -10.822  1.00  0.00    -0.248 NA
ATOM     63  C   UNL     1       9.676   8.598 -12.940  1.00  0.00     0.031 C 
ATOM     64  C   UNL     1      12.354  12.828  -9.498  1.00  0.00     0.029 A 
ATOM     65  C   UNL     1      11.810  11.630  -9.935  1.00  0.00     0.049 A 
ATOM     66  H   UNL     1      11.561   9.821  -8.882  1.00  0.00     0.167 HD
ATOM     67  C   UNL     1      10.729  10.117 -11.581  1.00  0.00     0.074 A 
ATOM     68  C   UNL     1      10.172   9.827 -12.887  1.00  0.00     0.031 C 
ATOM     69  C   UNL     1      11.264  11.312 -11.229  1.00  0.00     0.031 A 
BRANCH  56  70
ATOM     70  C   UNL     1      13.335  11.530  -5.401  1.00  0.00    -0.014 A 
ATOM     71  C   UNL     1      14.631  11.301  -4.907  1.00  0.00     0.009 A 
ATOM     72  C   UNL     1      12.547  12.518  -4.790  1.00  0.00     0.009 A 
ATOM     73  C   UNL     1      15.093  11.982  -3.780  1.00  0.00     0.001 A 
ATOM     74  C   UNL     1      13.029  13.230  -3.689  1.00  0.00     0.001 A 
ATOM     75  C   UNL     1      14.292  12.947  -3.172  1.00  0.00     0.000 A 
ENDBRANCH  56  70
BRANCH  57  76
ATOM     76  C   UNL     1       8.926   5.830 -12.317  1.00  0.00    -0.014 A 
ATOM     77  C   UNL     1       9.611   5.359 -13.449  1.00  0.00     0.009 A 
ATOM     78  C   UNL     1       7.579   5.479 -12.146  1.00  0.00     0.009 A 
ATOM     79  C   UNL     1       8.956   4.571 -14.399  1.00  0.00     0.001 A 
ATOM     80  C   UNL     1       6.933   4.670 -13.085  1.00  0.00     0.001 A 
ATOM     81  C   UNL     1       7.620   4.222 -14.213  1.00  0.00     0.000 A 
ENDBRANCH  57  76
BRANCH  69  82
ATOM     82  C   UNL     1      11.310  12.384 -12.277  1.00  0.00    -0.014 A 
ATOM     83  C   UNL     1      10.153  13.083 -12.652  1.00  0.00     0.009 A 
ATOM     84  C   UNL     1      12.543  12.746 -12.842  1.00  0.00     0.009 A 
ATOM     85  C   UNL     1      10.229  14.114 -13.590  1.00  0.00     0.001 A 
ATOM     86  C   UNL     1      12.619  13.793 -13.760  1.00  0.00     0.001 A 
ATOM     87  C   UNL     1      11.461  14.472 -14.137  1.00  0.00     0.000 A 
ENDBRANCH  69  82
ENDBRANCH  43  44
ENDBRANCH  35  38
ENDBRANCH  33  34
ENDBRANCH  32  33
ENDBRANCH   1  32
TORSDOF 15
