REMARK SMILES COc1ccc(NC(=O)C[C@@H](C[NH+]2CCOCC2)C(=O)NCCCCNC(=O)c2ccc(-c3c4nc(c(-c5ccccc5)c5ccc([nH]5)c(-c5ccccc5)c5nc(c(-c6ccccc6)c6ccc3[nH]6)C=C5)C=C4)cc2)cc1
REMARK SMILES IDX 22 1 21 2 19 3 20 4 11 6 10 7 8 8 7 9 9 11 6 12 3 13 4 14
REMARK SMILES IDX 78 15 5 16 77 17 2 18 1 19 12 20 13 21 14 22 18 23 15 25
REMARK SMILES IDX 17 26 16 27 23 28 24 29 25 30 26 31 27 32 28 34 29 35 30 36
REMARK SMILES IDX 76 37 31 38 75 39 32 40 33 41 34 42 69 43 35 44 74 45 68 46
REMARK SMILES IDX 70 47 36 48 73 49 67 50 66 51 37 53 59 54 44 55 58 56 45 57
REMARK SMILES IDX 48 58 57 59 71 60 46 61 47 62 56 64 72 65 49 66 38 67 39 68
REMARK SMILES IDX 43 69 40 70 42 71 41 72 60 73 61 74 65 75 62 76 64 77 63 78
REMARK SMILES IDX 50 79 51 80 55 81 52 82 54 83 53 84
REMARK H PARENT 21 5 7 10 13 24 26 33 70 52 48 63
REMARK Flexibility Score: inf
ROOT
ATOM      1  C   UNL     1      -4.489  -4.316  -3.893  1.00  0.00     0.116 C 
ENDROOT
BRANCH   1   2
ATOM      2  N   UNL     1      -3.521  -5.147  -4.641  1.00  0.00    -0.356 N 
ATOM      3  C   UNL     1      -2.236  -5.556  -4.683  1.00  0.00     0.229 C 
ATOM      4  O   UNL     1      -2.134  -6.516  -5.478  1.00  0.00    -0.275 OA
ATOM      5  H   UNL     1      -3.997  -5.561  -5.397  1.00  0.00     0.163 HD
BRANCH   3   6
ATOM      6  C   UNL     1      -0.896  -5.131  -3.943  1.00  0.00     0.142 C 
BRANCH   6   7
ATOM      7  C   UNL     1       0.288  -5.339  -4.954  1.00  0.00     0.119 C 
BRANCH   7   8
ATOM      8  C   UNL     1       1.565  -4.651  -5.437  1.00  0.00     0.225 C 
ATOM      9  N   UNL     1       2.586  -4.028  -4.833  1.00  0.00    -0.326 N 
ATOM     10  H   UNL     1       3.276  -3.801  -5.497  1.00  0.00     0.169 HD
ATOM     11  O   UNL     1       1.770  -4.719  -6.670  1.00  0.00    -0.275 OA
BRANCH   9  12
ATOM     12  C   UNL     1       2.987  -3.598  -3.573  1.00  0.00     0.041 A 
ATOM     13  C   UNL     1       3.464  -2.168  -1.232  1.00  0.00     0.119 A 
ATOM     14  C   UNL     1       2.785  -3.388  -1.183  1.00  0.00     0.048 A 
ATOM     15  C   UNL     1       4.065  -1.746  -2.408  1.00  0.00     0.048 A 
ATOM     16  C   UNL     1       2.556  -4.117  -2.364  1.00  0.00     0.030 A 
ATOM     17  C   UNL     1       3.837  -2.472  -3.575  1.00  0.00     0.030 A 
BRANCH  13  18
ATOM     18  O   UNL     1       3.524  -1.369  -0.125  1.00  0.00    -0.497 OA
ATOM     19  C   UNL     1       2.432  -0.438  -0.115  1.00  0.00     0.278 C 
ENDBRANCH  13  18
ENDBRANCH   9  12
ENDBRANCH   7   8
ENDBRANCH   6   7
BRANCH   6  20
ATOM     20  C   UNL     1      -0.827  -4.072  -2.834  1.00  0.00     0.276 C 
BRANCH  20  21
ATOM     21  N   UNL     1      -0.965  -2.638  -2.990  1.00  0.00    -0.330 N 
ATOM     22  C   UNL     1      -2.002  -2.204  -3.878  1.00  0.00     0.291 C 
ATOM     23  C   UNL     1       0.145  -1.706  -3.099  1.00  0.00     0.291 C 
ATOM     24  H   UNL     1      -1.192  -2.562  -1.999  1.00  0.00     0.348 HD
ATOM     25  C   UNL     1      -1.532  -2.054  -5.314  1.00  0.00     0.221 C 
ATOM     26  C   UNL     1       0.498  -1.206  -4.520  1.00  0.00     0.221 C 
ATOM     27  O   UNL     1      -0.641  -0.943  -5.351  1.00  0.00    -0.370 OA
ENDBRANCH  20  21
ENDBRANCH   6  20
ENDBRANCH   3   6
ENDBRANCH   1   2
BRANCH   1  28
ATOM     28  C   UNL     1      -4.985  -3.104  -4.734  1.00  0.00     0.023 C 
BRANCH  28  29
ATOM     29  C   UNL     1      -5.860  -2.055  -4.029  1.00  0.00     0.023 C 
BRANCH  29  30
ATOM     30  C   UNL     1      -5.290  -1.347  -2.796  1.00  0.00     0.116 C 
BRANCH  30  31
ATOM     31  N   UNL     1      -4.573  -0.100  -3.064  1.00  0.00    -0.352 N 
ATOM     32  C   UNL     1      -4.653   1.131  -2.435  1.00  0.00     0.251 C 
ATOM     33  H   UNL     1      -3.932  -0.143  -3.810  1.00  0.00     0.163 HD
ATOM     34  O   UNL     1      -3.879   2.029  -2.706  1.00  0.00    -0.269 OA
BRANCH  32  35
ATOM     35  C   UNL     1      -5.779   1.383  -1.514  1.00  0.00     0.039 A 
ATOM     36  C   UNL     1      -6.676   2.400  -1.855  1.00  0.00     0.014 A 
ATOM     37  C   UNL     1      -6.034   0.535  -0.439  1.00  0.00     0.014 A 
ATOM     38  C   UNL     1      -7.909   2.467  -1.209  1.00  0.00     0.010 A 
ATOM     39  C   UNL     1      -7.298   0.547   0.139  1.00  0.00     0.010 A 
ATOM     40  C   UNL     1      -8.261   1.487  -0.267  1.00  0.00    -0.014 A 
BRANCH  40  41
ATOM     41  C   UNL     1      -9.649   1.386   0.251  1.00  0.00     0.031 A 
ATOM     42  C   UNL     1      -9.921   1.523   1.721  1.00  0.00     0.074 A 
ATOM     43  C   UNL     1     -10.655   1.075  -0.593  1.00  0.00     0.049 A 
ATOM     44  N   UNL     1     -11.051   1.386   2.366  1.00  0.00    -0.248 NA
ATOM     45  C   UNL     1      -8.765   1.818   2.582  1.00  0.00     0.031 C 
ATOM     46  C   UNL     1     -10.521   0.852  -2.035  1.00  0.00     0.029 A 
ATOM     47  N   UNL     1     -11.994   0.883  -0.354  1.00  0.00    -0.354 N 
ATOM     48  C   UNL     1     -10.738   1.552   3.708  1.00  0.00     0.074 A 
ATOM     49  C   UNL     1      -9.307   1.747   3.789  1.00  0.00     0.031 C 
ATOM     50  C   UNL     1     -11.731   0.590  -2.556  1.00  0.00     0.029 A 
ATOM     51  C   UNL     1     -12.719   0.586  -1.483  1.00  0.00     0.049 A 
ATOM     52  H   UNL     1     -12.396   0.952   0.541  1.00  0.00     0.167 HD
ATOM     53  C   UNL     1     -11.568   1.564   4.777  1.00  0.00     0.031 A 
ATOM     54  C   UNL     1     -14.033   0.338  -1.640  1.00  0.00     0.031 A 
ATOM     55  C   UNL     1     -12.993   1.394   4.699  1.00  0.00     0.049 A 
ATOM     56  C   UNL     1     -14.937   0.372  -0.440  1.00  0.00     0.074 A 
ATOM     57  C   UNL     1     -13.926   1.462   5.719  1.00  0.00     0.029 A 
ATOM     58  N   UNL     1     -13.692   1.122   3.534  1.00  0.00    -0.354 N 
ATOM     59  N   UNL     1     -14.636   0.608   0.814  1.00  0.00    -0.248 NA
ATOM     60  C   UNL     1     -16.365   0.117  -0.680  1.00  0.00     0.031 C 
ATOM     61  C   UNL     1     -15.187   1.189   5.177  1.00  0.00     0.029 A 
ATOM     62  C   UNL     1     -15.043   0.999   3.812  1.00  0.00     0.049 A 
ATOM     63  H   UNL     1     -13.288   1.030   2.641  1.00  0.00     0.167 HD
ATOM     64  C   UNL     1     -15.838   0.556   1.507  1.00  0.00     0.074 A 
ATOM     65  C   UNL     1     -16.874   0.279   0.533  1.00  0.00     0.031 C 
ATOM     66  C   UNL     1     -16.062   0.724   2.833  1.00  0.00     0.031 A 
BRANCH  53  67
ATOM     67  C   UNL     1     -10.941   1.770   6.127  1.00  0.00    -0.014 A 
ATOM     68  C   UNL     1     -10.392   3.010   6.492  1.00  0.00     0.009 A 
ATOM     69  C   UNL     1     -10.907   0.714   7.050  1.00  0.00     0.009 A 
ATOM     70  C   UNL     1      -9.782   3.175   7.736  1.00  0.00     0.001 A 
ATOM     71  C   UNL     1     -10.322   0.890   8.305  1.00  0.00     0.001 A 
ATOM     72  C   UNL     1      -9.750   2.116   8.642  1.00  0.00     0.000 A 
ENDBRANCH  53  67
BRANCH  54  73
ATOM     73  C   UNL     1     -14.584   0.063  -2.993  1.00  0.00    -0.014 A 
ATOM     74  C   UNL     1     -15.373   1.024  -3.644  1.00  0.00     0.009 A 
ATOM     75  C   UNL     1     -14.332  -1.158  -3.636  1.00  0.00     0.009 A 
ATOM     76  C   UNL     1     -15.919   0.758  -4.902  1.00  0.00     0.001 A 
ATOM     77  C   UNL     1     -14.858  -1.410  -4.906  1.00  0.00     0.001 A 
ATOM     78  C   UNL     1     -15.657  -0.456  -5.533  1.00  0.00     0.000 A 
ENDBRANCH  54  73
BRANCH  66  79
ATOM     79  C   UNL     1     -17.486   0.645   3.304  1.00  0.00    -0.014 A 
ATOM     80  C   UNL     1     -18.160  -0.583   3.383  1.00  0.00     0.009 A 
ATOM     81  C   UNL     1     -18.145   1.813   3.718  1.00  0.00     0.009 A 
ATOM     82  C   UNL     1     -19.478  -0.635   3.841  1.00  0.00     0.001 A 
ATOM     83  C   UNL     1     -19.453   1.754   4.199  1.00  0.00     0.001 A 
ATOM     84  C   UNL     1     -20.121   0.532   4.253  1.00  0.00     0.000 A 
ENDBRANCH  66  79
ENDBRANCH  40  41
ENDBRANCH  32  35
ENDBRANCH  30  31
ENDBRANCH  29  30
ENDBRANCH  28  29
ENDBRANCH   1  28
TORSDOF 17
