REMARK SMILES O=C(NCCCCNC(=O)c1ccc(-c2c3nc(c(-c4ccccc4)c4ccc([nH]4)c(-c4ccccc4)c4nc(c(-c5ccccc5)c5ccc2[nH]5)C=C4)C=C3)cc1)C1=Cc2cc(Cl)cc(-c3ccc(CO)cc3)c2O[C@@H]1C(F)(F)F
REMARK SMILES IDX 5 1 4 2 3 3 1 4 2 5 59 7 60 8 77 9 61 10 76 11 62 12 75 13
REMARK SMILES IDX 63 14 66 15 64 16 65 17 78 18 79 19 80 20 81 21 67 22 68 23
REMARK SMILES IDX 74 24 69 25 73 26 70 27 71 28 72 29 6 31 7 32 8 33 9 34
REMARK SMILES IDX 10 36 11 37 12 38 58 39 13 40 57 41 14 42 15 43 16 44 51 45
REMARK SMILES IDX 17 46 56 47 50 48 52 49 18 50 55 51 49 52 48 53 19 55 41 56
REMARK SMILES IDX 26 57 40 58 27 59 30 60 39 61 53 62 28 63 29 64 38 66 54 67
REMARK SMILES IDX 31 68 20 69 21 70 25 71 22 72 24 73 23 74 42 75 43 76 47 77
REMARK SMILES IDX 44 78 46 79 45 80 32 81 33 82 37 83 34 84 36 85 35 86
REMARK H PARENT 3 6 72 30 8 35 52 54 30 65
REMARK Flexibility Score: inf
ROOT
ATOM      1  C   UNL     1       4.314   1.071  -3.252  1.00  0.00     0.023 C 
ENDROOT
BRANCH   1   2
ATOM      2  C   UNL     1       3.507   1.127  -1.948  1.00  0.00     0.116 C 
BRANCH   2   3
ATOM      3  N   UNL     1       2.533   0.042  -1.808  1.00  0.00    -0.352 N 
ATOM      4  O   UNL     1       1.160  -1.386  -0.751  1.00  0.00    -0.270 OA
ATOM      5  C   UNL     1       2.252  -0.824  -0.783  1.00  0.00     0.251 C 
ATOM      6  H   UNL     1       1.971  -0.092  -2.605  1.00  0.00     0.163 HD
BRANCH   5   7
ATOM      7  C   UNL     1       3.197  -1.020   0.341  1.00  0.00     0.067 C 
ATOM      8  C   UNL     1       4.484  -1.287   0.093  1.00  0.00     0.025 C 
ATOM      9  C   UNL     1       2.833  -0.339   1.626  1.00  0.00     0.314 C 
ATOM     10  C   UNL     1       5.423  -0.290   0.598  1.00  0.00     0.019 A 
ATOM     11  O   UNL     1       3.646   0.839   1.843  1.00  0.00    -0.475 OA
ATOM     12  C   UNL     1       6.695  -0.255   0.023  1.00  0.00     0.032 A 
ATOM     13  C   UNL     1       4.923   0.815   1.323  1.00  0.00     0.135 A 
ATOM     14  C   UNL     1       7.442   0.912   0.107  1.00  0.00     0.042 A 
ATOM     15  C   UNL     1       5.657   2.010   1.361  1.00  0.00     0.026 A 
ATOM     16  Cl  UNL     1       8.936   1.023  -0.738  1.00  0.00    -0.084 Cl
ATOM     17  C   UNL     1       6.928   2.035   0.754  1.00  0.00     0.033 A 
BRANCH   9  18
ATOM     18  C   UNL     1       2.918  -1.337   2.805  1.00  0.00     0.429 C 
ATOM     19  F   UNL     1       2.496  -0.775   3.963  1.00  0.00    -0.167 F 
ATOM     20  F   UNL     1       2.139  -2.427   2.593  1.00  0.00    -0.167 F 
ATOM     21  F   UNL     1       4.177  -1.791   3.019  1.00  0.00    -0.167 F 
ENDBRANCH   9  18
BRANCH  15  22
ATOM     22  C   UNL     1       5.073   3.290   1.783  1.00  0.00    -0.015 A 
ATOM     23  C   UNL     1       4.318   4.037   0.862  1.00  0.00     0.009 A 
ATOM     24  C   UNL     1       5.361   3.861   3.025  1.00  0.00     0.009 A 
ATOM     25  C   UNL     1       3.944   5.352   1.133  1.00  0.00     0.007 A 
ATOM     26  C   UNL     1       4.979   5.178   3.304  1.00  0.00     0.007 A 
ATOM     27  C   UNL     1       4.301   5.945   2.347  1.00  0.00    -0.023 A 
BRANCH  27  28
ATOM     28  C   UNL     1       4.035   7.409   2.565  1.00  0.00     0.191 C 
BRANCH  28  29
ATOM     29  O   UNL     1       4.968   8.176   1.810  1.00  0.00    -0.392 OA
ATOM     30  H   UNL     1       5.870   7.963   2.098  1.00  0.00     0.211 HD
ENDBRANCH  28  29
ENDBRANCH  27  28
ENDBRANCH  15  22
ENDBRANCH   5   7
ENDBRANCH   2   3
ENDBRANCH   1   2
BRANCH   1  31
ATOM     31  C   UNL     1       4.392   2.407  -4.007  1.00  0.00     0.023 C 
BRANCH  31  32
ATOM     32  C   UNL     1       4.942   3.614  -3.247  1.00  0.00     0.116 C 
BRANCH  32  33
ATOM     33  N   UNL     1       6.373   3.592  -2.993  1.00  0.00    -0.352 N 
ATOM     34  C   UNL     1       7.234   4.672  -2.939  1.00  0.00     0.251 C 
ATOM     35  H   UNL     1       6.776   2.707  -2.842  1.00  0.00     0.163 HD
ATOM     36  O   UNL     1       8.438   4.508  -2.744  1.00  0.00    -0.269 OA
BRANCH  34  37
ATOM     37  C   UNL     1       6.713   6.036  -3.192  1.00  0.00     0.039 A 
ATOM     38  C   UNL     1       7.268   6.786  -4.232  1.00  0.00     0.014 A 
ATOM     39  C   UNL     1       5.615   6.530  -2.480  1.00  0.00     0.014 A 
ATOM     40  C   UNL     1       6.638   7.962  -4.650  1.00  0.00     0.010 A 
ATOM     41  C   UNL     1       4.956   7.674  -2.932  1.00  0.00     0.010 A 
ATOM     42  C   UNL     1       5.433   8.371  -4.052  1.00  0.00    -0.014 A 
BRANCH  42  43
ATOM     43  C   UNL     1       4.592   9.417  -4.694  1.00  0.00     0.031 A 
ATOM     44  C   UNL     1       4.327  10.738  -4.037  1.00  0.00     0.074 A 
ATOM     45  C   UNL     1       3.988   9.127  -5.865  1.00  0.00     0.049 A 
ATOM     46  N   UNL     1       3.633  11.754  -4.488  1.00  0.00    -0.248 NA
ATOM     47  C   UNL     1       4.895  10.940  -2.697  1.00  0.00     0.031 C 
ATOM     48  C   UNL     1       4.095   7.850  -6.577  1.00  0.00     0.029 A 
ATOM     49  N   UNL     1       3.155   9.878  -6.658  1.00  0.00    -0.354 N 
ATOM     50  C   UNL     1       3.685  12.720  -3.493  1.00  0.00     0.074 A 
ATOM     51  C   UNL     1       4.437  12.147  -2.394  1.00  0.00     0.031 C 
ATOM     52  C   UNL     1       3.376   7.915  -7.708  1.00  0.00     0.029 A 
ATOM     53  C   UNL     1       2.734   9.223  -7.789  1.00  0.00     0.049 A 
ATOM     54  H   UNL     1       2.886  10.799  -6.436  1.00  0.00     0.167 HD
ATOM     55  C   UNL     1       3.170  13.974  -3.498  1.00  0.00     0.031 A 
ATOM     56  C   UNL     1       1.920   9.620  -8.786  1.00  0.00     0.031 A 
ATOM     57  C   UNL     1       2.398  14.536  -4.577  1.00  0.00     0.049 A 
ATOM     58  C   UNL     1       1.343  11.004  -8.763  1.00  0.00     0.074 A 
ATOM     59  C   UNL     1       1.900  15.823  -4.703  1.00  0.00     0.029 A 
ATOM     60  N   UNL     1       1.989  13.840  -5.704  1.00  0.00    -0.354 N 
ATOM     61  N   UNL     1       1.503  11.947  -7.867  1.00  0.00    -0.248 NA
ATOM     62  C   UNL     1       0.482  11.382  -9.893  1.00  0.00     0.031 C 
ATOM     63  C   UNL     1       1.140  15.887  -5.877  1.00  0.00     0.029 A 
ATOM     64  C   UNL     1       1.208  14.656  -6.509  1.00  0.00     0.049 A 
ATOM     65  H   UNL     1       2.218  12.904  -5.903  1.00  0.00     0.167 HD
ATOM     66  C   UNL     1       0.771  13.034  -8.328  1.00  0.00     0.074 A 
ATOM     67  C   UNL     1       0.185  12.640  -9.593  1.00  0.00     0.031 C 
ATOM     68  C   UNL     1       0.603  14.248  -7.750  1.00  0.00     0.031 A 
BRANCH  55  69
ATOM     69  C   UNL     1       3.421  14.822  -2.282  1.00  0.00    -0.014 A 
ATOM     70  C   UNL     1       4.705  15.312  -1.994  1.00  0.00     0.009 A 
ATOM     71  C   UNL     1       2.359  15.158  -1.428  1.00  0.00     0.009 A 
ATOM     72  C   UNL     1       4.929  16.083  -0.851  1.00  0.00     0.001 A 
ATOM     73  C   UNL     1       2.581  15.951  -0.301  1.00  0.00     0.001 A 
ATOM     74  C   UNL     1       3.867  16.403  -0.007  1.00  0.00     0.000 A 
ENDBRANCH  55  69
BRANCH  56  75
ATOM     75  C   UNL     1       1.617   8.684  -9.898  1.00  0.00    -0.014 A 
ATOM     76  C   UNL     1       2.201   8.863 -11.160  1.00  0.00     0.009 A 
ATOM     77  C   UNL     1       0.770   7.584  -9.689  1.00  0.00     0.009 A 
ATOM     78  C   UNL     1       1.934   7.965 -12.195  1.00  0.00     0.001 A 
ATOM     79  C   UNL     1       0.524   6.674 -10.719  1.00  0.00     0.001 A 
ATOM     80  C   UNL     1       1.102   6.868 -11.972  1.00  0.00     0.000 A 
ENDBRANCH  56  75
BRANCH  68  81
ATOM     81  C   UNL     1      -0.261  15.237  -8.480  1.00  0.00    -0.014 A 
ATOM     82  C   UNL     1      -1.657  15.086  -8.521  1.00  0.00     0.009 A 
ATOM     83  C   UNL     1       0.321  16.349  -9.108  1.00  0.00     0.009 A 
ATOM     84  C   UNL     1      -2.448  16.015  -9.200  1.00  0.00     0.001 A 
ATOM     85  C   UNL     1      -0.475  17.290  -9.764  1.00  0.00     0.001 A 
ATOM     86  C   UNL     1      -1.858  17.117  -9.817  1.00  0.00     0.000 A 
ENDBRANCH  68  81
ENDBRANCH  42  43
ENDBRANCH  34  37
ENDBRANCH  32  33
ENDBRANCH  31  32
ENDBRANCH   1  31
TORSDOF 15
