REMARK SMILES C[C@H](CC(=O)NCCCCNC(=O)c1ccc(-c2c3nc(c(-c4ccccc4)c4ccc([nH]4)c(-c4ccccc4)c4nc(c(-c5ccccc5)c5ccc2[nH]5)C=C4)C=C3)cc1)N1C(=O)S/C(=C\c2ccc(Cl)cc2)C1=O
REMARK SMILES IDX 8 1 7 2 6 3 4 4 5 5 3 7 2 8 1 9 62 10 63 11 75 12 64 13
REMARK SMILES IDX 65 14 66 15 76 16 67 17 68 18 69 19 74 20 70 21 73 22 71 23
REMARK SMILES IDX 72 24 9 25 10 26 11 27 12 28 13 30 14 31 15 32 61 33 16 34
REMARK SMILES IDX 60 35 17 36 18 37 19 38 54 39 20 40 59 41 53 42 55 43 21 44
REMARK SMILES IDX 58 45 52 46 51 47 22 49 44 50 29 51 43 52 30 53 33 54 42 55
REMARK SMILES IDX 56 56 31 57 32 58 41 60 57 61 34 62 23 63 24 64 28 65 25 66
REMARK SMILES IDX 27 67 26 68 45 69 46 70 50 71 47 72 49 73 48 74 35 75 36 76
REMARK SMILES IDX 40 77 37 78 39 79 38 80
REMARK H PARENT 6 6 11 29 55 48 33 59
REMARK Flexibility Score: inf
ROOT
ATOM      1  C   UNL     1      -2.846  -0.105   0.477  1.00  0.00     0.023 C 
ENDROOT
BRANCH   1   2
ATOM      2  C   UNL     1      -1.732   0.321   1.416  1.00  0.00     0.116 C 
BRANCH   2   3
ATOM      3  N   UNL     1      -0.727  -0.718   1.451  1.00  0.00    -0.356 N 
ATOM      4  C   UNL     1       0.306  -0.923   0.584  1.00  0.00     0.222 C 
ATOM      5  O   UNL     1       0.916  -1.990   0.646  1.00  0.00    -0.275 OA
ATOM      6  H   UNL     1      -0.796  -1.359   2.195  1.00  0.00     0.163 HD
BRANCH   4   7
ATOM      7  C   UNL     1       0.730   0.183  -0.365  1.00  0.00     0.125 C 
BRANCH   7   8
ATOM      8  C   UNL     1       0.518  -0.056  -1.875  1.00  0.00     0.101 C 
ATOM      9  C   UNL     1       1.348  -1.236  -2.387  1.00  0.00     0.032 C 
BRANCH   8  10
ATOM     10  N   UNL     1      -0.886  -0.027  -2.339  1.00  0.00    -0.265 N 
ATOM     11  C   UNL     1      -1.585  -1.136  -2.744  1.00  0.00     0.293 C 
ATOM     12  C   UNL     1      -1.607   1.157  -2.322  1.00  0.00     0.268 C 
ATOM     13  O   UNL     1      -1.243  -2.309  -2.700  1.00  0.00    -0.261 OA
ATOM     14  S   UNL     1      -3.186  -0.686  -3.312  1.00  0.00    -0.022 SA
ATOM     15  C   UNL     1      -3.033   0.910  -2.705  1.00  0.00     0.083 C 
ATOM     16  O   UNL     1      -1.192   2.241  -1.936  1.00  0.00    -0.268 OA
ATOM     17  C   UNL     1      -4.004   1.789  -2.404  1.00  0.00     0.029 C 
BRANCH  17  18
ATOM     18  C   UNL     1      -5.470   1.592  -2.412  1.00  0.00    -0.024 A 
ATOM     19  C   UNL     1      -6.305   2.650  -2.794  1.00  0.00     0.009 A 
ATOM     20  C   UNL     1      -6.067   0.434  -1.890  1.00  0.00     0.009 A 
ATOM     21  C   UNL     1      -7.699   2.539  -2.686  1.00  0.00     0.021 A 
ATOM     22  C   UNL     1      -7.456   0.319  -1.782  1.00  0.00     0.021 A 
ATOM     23  C   UNL     1      -8.268   1.373  -2.182  1.00  0.00     0.041 A 
ATOM     24  Cl  UNL     1      -9.977   1.239  -2.036  1.00  0.00    -0.084 Cl
ENDBRANCH  17  18
ENDBRANCH   8  10
ENDBRANCH   7   8
ENDBRANCH   4   7
ENDBRANCH   2   3
ENDBRANCH   1   2
BRANCH   1  25
ATOM     25  C   UNL     1      -3.916  -0.971   1.105  1.00  0.00     0.023 C 
BRANCH  25  26
ATOM     26  C   UNL     1      -4.755  -0.238   2.128  1.00  0.00     0.116 C 
BRANCH  26  27
ATOM     27  N   UNL     1      -5.303   1.031   1.657  1.00  0.00    -0.352 N 
ATOM     28  C   UNL     1      -6.590   1.505   1.734  1.00  0.00     0.251 C 
ATOM     29  H   UNL     1      -4.657   1.633   1.222  1.00  0.00     0.163 HD
ATOM     30  O   UNL     1      -6.894   2.581   1.231  1.00  0.00    -0.269 OA
BRANCH  28  31
ATOM     31  C   UNL     1      -7.605   0.681   2.412  1.00  0.00     0.039 A 
ATOM     32  C   UNL     1      -8.857   0.503   1.822  1.00  0.00     0.014 A 
ATOM     33  C   UNL     1      -7.282   0.039   3.608  1.00  0.00     0.014 A 
ATOM     34  C   UNL     1      -9.768  -0.373   2.407  1.00  0.00     0.010 A 
ATOM     35  C   UNL     1      -8.124  -0.933   4.108  1.00  0.00     0.010 A 
ATOM     36  C   UNL     1      -9.396  -1.102   3.545  1.00  0.00    -0.014 A 
BRANCH  36  37
ATOM     37  C   UNL     1     -10.369  -1.902   4.312  1.00  0.00     0.031 A 
ATOM     38  C   UNL     1     -10.718  -1.427   5.696  1.00  0.00     0.074 A 
ATOM     39  C   UNL     1     -10.862  -3.049   3.815  1.00  0.00     0.049 A 
ATOM     40  N   UNL     1     -11.407  -2.024   6.631  1.00  0.00    -0.248 NA
ATOM     41  C   UNL     1     -10.162  -0.121   6.102  1.00  0.00     0.031 C 
ATOM     42  C   UNL     1     -10.570  -3.604   2.493  1.00  0.00     0.029 A 
ATOM     43  N   UNL     1     -11.715  -3.957   4.381  1.00  0.00    -0.354 N 
ATOM     44  C   UNL     1     -11.327  -1.187   7.737  1.00  0.00     0.074 A 
ATOM     45  C   UNL     1     -10.461  -0.087   7.388  1.00  0.00     0.031 C 
ATOM     46  C   UNL     1     -11.260  -4.748   2.339  1.00  0.00     0.029 A 
ATOM     47  C   UNL     1     -12.006  -5.021   3.563  1.00  0.00     0.049 A 
ATOM     48  H   UNL     1     -12.086  -3.857   5.287  1.00  0.00     0.167 HD
ATOM     49  C   UNL     1     -11.952  -1.304   8.930  1.00  0.00     0.031 A 
ATOM     50  C   UNL     1     -12.789  -6.090   3.793  1.00  0.00     0.031 A 
ATOM     51  C   UNL     1     -12.847  -2.380   9.243  1.00  0.00     0.049 A 
ATOM     52  C   UNL     1     -13.486  -6.193   5.125  1.00  0.00     0.074 A 
ATOM     53  C   UNL     1     -13.579  -2.590  10.396  1.00  0.00     0.029 A 
ATOM     54  N   UNL     1     -13.142  -3.424   8.377  1.00  0.00    -0.354 N 
ATOM     55  N   UNL     1     -13.435  -5.380   6.154  1.00  0.00    -0.248 NA
ATOM     56  C   UNL     1     -14.360  -7.357   5.319  1.00  0.00     0.031 C 
ATOM     57  C   UNL     1     -14.288  -3.786  10.242  1.00  0.00     0.029 A 
ATOM     58  C   UNL     1     -14.039  -4.289   8.973  1.00  0.00     0.049 A 
ATOM     59  H   UNL     1     -12.767  -3.531   7.474  1.00  0.00     0.167 HD
ATOM     60  C   UNL     1     -14.293  -5.915   7.105  1.00  0.00     0.074 A 
ATOM     61  C   UNL     1     -14.866  -7.111   6.519  1.00  0.00     0.031 C 
ATOM     62  C   UNL     1     -14.585  -5.468   8.352  1.00  0.00     0.031 A 
BRANCH  49  63
ATOM     63  C   UNL     1     -11.676  -0.240   9.955  1.00  0.00    -0.014 A 
ATOM     64  C   UNL     1     -12.104   1.086   9.767  1.00  0.00     0.009 A 
ATOM     65  C   UNL     1     -10.951  -0.558  11.112  1.00  0.00     0.009 A 
ATOM     66  C   UNL     1     -11.765   2.079  10.688  1.00  0.00     0.001 A 
ATOM     67  C   UNL     1     -10.645   0.430  12.050  1.00  0.00     0.001 A 
ATOM     68  C   UNL     1     -11.039   1.749  11.831  1.00  0.00     0.000 A 
ENDBRANCH  49  63
BRANCH  50  69
ATOM     69  C   UNL     1     -12.984  -7.124   2.744  1.00  0.00    -0.014 A 
ATOM     70  C   UNL     1     -14.227  -7.265   2.107  1.00  0.00     0.009 A 
ATOM     71  C   UNL     1     -11.938  -7.987   2.381  1.00  0.00     0.009 A 
ATOM     72  C   UNL     1     -14.430  -8.270   1.158  1.00  0.00     0.001 A 
ATOM     73  C   UNL     1     -12.135  -8.972   1.409  1.00  0.00     0.001 A 
ATOM     74  C   UNL     1     -13.383  -9.120   0.808  1.00  0.00     0.000 A 
ENDBRANCH  50  69
BRANCH  62  75
ATOM     75  C   UNL     1     -15.594  -6.258   9.136  1.00  0.00    -0.014 A 
ATOM     76  C   UNL     1     -15.287  -7.525   9.653  1.00  0.00     0.009 A 
ATOM     77  C   UNL     1     -16.860  -5.706   9.385  1.00  0.00     0.009 A 
ATOM     78  C   UNL     1     -16.246  -8.245  10.366  1.00  0.00     0.001 A 
ATOM     79  C   UNL     1     -17.805  -6.412  10.128  1.00  0.00     0.001 A 
ATOM     80  C   UNL     1     -17.501  -7.686  10.607  1.00  0.00     0.000 A 
ENDBRANCH  62  75
ENDBRANCH  36  37
ENDBRANCH  28  31
ENDBRANCH  26  27
ENDBRANCH  25  26
ENDBRANCH   1  25
TORSDOF 14
