REMARK SMILES CC(C)[C@H]([NH2+]Cc1ccc(O)cn1)C(=O)NCCCCNC(=O)c1ccc(-c2c3nc(c(-c4ccccc4)c4ccc([nH]4)c(-c4ccccc4)c4nc(c(-c5ccccc5)c5ccc2[nH]5)C=C4)C=C3)cc1
REMARK SMILES IDX 17 1 16 2 14 3 15 4 4 6 2 7 1 8 3 9 5 10 6 13 7 14 8 15
REMARK SMILES IDX 13 16 9 17 12 18 10 19 11 20 18 22 19 23 20 24 21 25 22 26
REMARK SMILES IDX 23 28 24 29 25 30 71 31 26 32 70 33 27 34 28 35 29 36 64 37
REMARK SMILES IDX 30 38 69 39 63 40 65 41 31 42 68 43 62 44 61 45 32 47 54 48
REMARK SMILES IDX 39 49 53 50 40 51 43 52 52 53 66 54 41 55 42 56 51 58 67 59
REMARK SMILES IDX 44 60 33 61 34 62 38 63 35 64 37 65 36 66 55 67 56 68 60 69
REMARK SMILES IDX 57 70 59 71 58 72 45 73 46 74 50 75 47 76 49 77 48 78
REMARK H PARENT 16 5 5 11 5 12 11 21 21 27 65 46 43 57
REMARK Flexibility Score: inf
ROOT
ATOM      1  C   UNL     1      -0.777   2.058   3.649  1.00  0.00     0.116 C 
ENDROOT
BRANCH   1   2
ATOM      2  N   UNL     1      -1.415   2.739   2.549  1.00  0.00    -0.351 N 
ATOM      3  C   UNL     1      -1.483   2.397   1.233  1.00  0.00     0.278 C 
ATOM      4  O   UNL     1      -1.990   3.231   0.475  1.00  0.00    -0.268 OA
ATOM      5  H   UNL     1      -1.869   3.579   2.786  1.00  0.00     0.163 HD
BRANCH   3   6
ATOM      6  C   UNL     1      -0.945   1.045   0.683  1.00  0.00     0.275 C 
BRANCH   6   7
ATOM      7  C   UNL     1      -1.641  -0.235   1.238  1.00  0.00     0.051 C 
ATOM      8  C   UNL     1      -3.098  -0.005   1.665  1.00  0.00     0.014 C 
ATOM      9  C   UNL     1      -1.628  -1.359   0.189  1.00  0.00     0.014 C 
ENDBRANCH   6   7
BRANCH   6  10
ATOM     10  N   UNL     1       0.539   1.075   0.579  1.00  0.00    -0.331 N 
ATOM     11  H   UNL     1       0.841   2.015   0.835  1.00  0.00     0.347 HD
ATOM     12  H   UNL     1       0.730   0.792  -0.382  1.00  0.00     0.347 HD
BRANCH  10  13
ATOM     13  C   UNL     1       1.307   0.137   1.392  1.00  0.00     0.318 C 
BRANCH  13  14
ATOM     14  C   UNL     1       2.821   0.295   1.297  1.00  0.00     0.095 A 
ATOM     15  C   UNL     1       3.463   1.408   1.846  1.00  0.00     0.033 A 
ATOM     16  N   UNL     1       3.521  -0.733   0.756  1.00  0.00    -0.251 NA
ATOM     17  C   UNL     1       4.856   1.462   1.870  1.00  0.00     0.050 A 
ATOM     18  C   UNL     1       4.874  -0.648   0.775  1.00  0.00     0.157 A 
ATOM     19  C   UNL     1       5.573   0.411   1.328  1.00  0.00     0.133 A 
BRANCH  19  20
ATOM     20  O   UNL     1       6.934   0.391   1.336  1.00  0.00    -0.506 OA
ATOM     21  H   UNL     1       7.410   1.106   1.710  1.00  0.00     0.293 HD
ENDBRANCH  19  20
ENDBRANCH  13  14
ENDBRANCH  10  13
ENDBRANCH   6  10
ENDBRANCH   3   6
ENDBRANCH   1   2
BRANCH   1  22
ATOM     22  C   UNL     1       0.615   2.627   3.890  1.00  0.00     0.023 C 
BRANCH  22  23
ATOM     23  C   UNL     1       0.666   3.868   4.776  1.00  0.00     0.023 C 
BRANCH  23  24
ATOM     24  C   UNL     1       0.101   3.680   6.176  1.00  0.00     0.116 C 
BRANCH  24  25
ATOM     25  N   UNL     1       0.691   2.568   6.905  1.00  0.00    -0.352 N 
ATOM     26  C   UNL     1       0.853   2.428   8.263  1.00  0.00     0.251 C 
ATOM     27  H   UNL     1       1.016   1.819   6.354  1.00  0.00     0.163 HD
ATOM     28  O   UNL     1       1.450   1.462   8.719  1.00  0.00    -0.269 OA
BRANCH  26  29
ATOM     29  C   UNL     1       0.347   3.486   9.163  1.00  0.00     0.039 A 
ATOM     30  C   UNL     1       1.197   3.980  10.153  1.00  0.00     0.014 A 
ATOM     31  C   UNL     1      -0.933   4.021   8.997  1.00  0.00     0.014 A 
ATOM     32  C   UNL     1       0.788   5.064  10.930  1.00  0.00     0.010 A 
ATOM     33  C   UNL     1      -1.305   5.154   9.712  1.00  0.00     0.010 A 
ATOM     34  C   UNL     1      -0.450   5.685  10.686  1.00  0.00    -0.014 A 
BRANCH  34  35
ATOM     35  C   UNL     1      -0.840   6.904  11.434  1.00  0.00     0.031 A 
ATOM     36  C   UNL     1      -2.025   6.890  12.356  1.00  0.00     0.074 A 
ATOM     37  C   UNL     1      -0.144   8.042  11.245  1.00  0.00     0.049 A 
ATOM     38  N   UNL     1      -2.477   7.846  13.129  1.00  0.00    -0.248 NA
ATOM     39  C   UNL     1      -2.826   5.656  12.397  1.00  0.00     0.031 C 
ATOM     40  C   UNL     1       0.977   8.207  10.315  1.00  0.00     0.029 A 
ATOM     41  N   UNL     1      -0.271   9.275  11.833  1.00  0.00    -0.354 N 
ATOM     42  C   UNL     1      -3.616   7.333  13.735  1.00  0.00     0.074 A 
ATOM     43  C   UNL     1      -3.821   6.005  13.199  1.00  0.00     0.031 C 
ATOM     44  C   UNL     1       1.463   9.453  10.430  1.00  0.00     0.029 A 
ATOM     45  C   UNL     1       0.677  10.179  11.421  1.00  0.00     0.049 A 
ATOM     46  H   UNL     1      -0.975   9.490  12.487  1.00  0.00     0.167 HD
ATOM     47  C   UNL     1      -4.409   7.905  14.672  1.00  0.00     0.031 A 
ATOM     48  C   UNL     1       0.901  11.447  11.814  1.00  0.00     0.031 A 
ATOM     49  C   UNL     1      -4.198   9.220  15.215  1.00  0.00     0.049 A 
ATOM     50  C   UNL     1       0.040  12.043  12.890  1.00  0.00     0.074 A 
ATOM     51  C   UNL     1      -4.901   9.864  16.218  1.00  0.00     0.029 A 
ATOM     52  N   UNL     1      -3.208  10.094  14.795  1.00  0.00    -0.354 N 
ATOM     53  N   UNL     1      -0.974  11.508  13.527  1.00  0.00    -0.248 NA
ATOM     54  C   UNL     1       0.373  13.408  13.319  1.00  0.00     0.031 C 
ATOM     55  C   UNL     1      -4.362  11.146  16.375  1.00  0.00     0.029 A 
ATOM     56  C   UNL     1      -3.291  11.280  15.506  1.00  0.00     0.049 A 
ATOM     57  H   UNL     1      -2.543   9.901  14.094  1.00  0.00     0.167 HD
ATOM     58  C   UNL     1      -1.385  12.461  14.449  1.00  0.00     0.074 A 
ATOM     59  C   UNL     1      -0.497  13.597  14.301  1.00  0.00     0.031 C 
ATOM     60  C   UNL     1      -2.406  12.402  15.339  1.00  0.00     0.031 A 
BRANCH  47  61
ATOM     61  C   UNL     1      -5.579   7.101  15.167  1.00  0.00    -0.014 A 
ATOM     62  C   UNL     1      -5.392   5.962  15.968  1.00  0.00     0.009 A 
ATOM     63  C   UNL     1      -6.886   7.497  14.845  1.00  0.00     0.009 A 
ATOM     64  C   UNL     1      -6.489   5.214  16.402  1.00  0.00     0.001 A 
ATOM     65  C   UNL     1      -7.982   6.763  15.305  1.00  0.00     0.001 A 
ATOM     66  C   UNL     1      -7.782   5.617  16.073  1.00  0.00     0.000 A 
ENDBRANCH  47  61
BRANCH  48  67
ATOM     67  C   UNL     1       2.026  12.217  11.223  1.00  0.00    -0.014 A 
ATOM     68  C   UNL     1       3.182  12.477  11.975  1.00  0.00     0.009 A 
ATOM     69  C   UNL     1       1.953  12.688   9.903  1.00  0.00     0.009 A 
ATOM     70  C   UNL     1       4.232  13.215  11.426  1.00  0.00     0.001 A 
ATOM     71  C   UNL     1       3.017  13.403   9.348  1.00  0.00     0.001 A 
ATOM     72  C   UNL     1       4.151  13.674  10.113  1.00  0.00     0.000 A 
ENDBRANCH  48  67
BRANCH  60  73
ATOM     73  C   UNL     1      -2.595  13.592  16.236  1.00  0.00    -0.014 A 
ATOM     74  C   UNL     1      -3.093  14.807  15.741  1.00  0.00     0.009 A 
ATOM     75  C   UNL     1      -2.283  13.489  17.600  1.00  0.00     0.009 A 
ATOM     76  C   UNL     1      -3.234  15.909  16.587  1.00  0.00     0.001 A 
ATOM     77  C   UNL     1      -2.452  14.583  18.449  1.00  0.00     0.001 A 
ATOM     78  C   UNL     1      -2.916  15.795  17.940  1.00  0.00     0.000 A 
ENDBRANCH  60  73
ENDBRANCH  34  35
ENDBRANCH  26  29
ENDBRANCH  24  25
ENDBRANCH  23  24
ENDBRANCH  22  23
ENDBRANCH   1  22
TORSDOF 16
