REMARK SMILES CCC[NH2+]C[C@H]1CCC[N@@H+](Cc2ccc(C(=O)NCCCCNC(=O)c3ccc(-c4c5nc(c(-c6ccccc6)c6ccc([nH]6)c(-c6ccccc6)c6nc(c(-c7ccccc7)c7ccc4[nH]7)C=C6)C=C5)cc3)cc2)C1
REMARK SMILES IDX 16 1 17 2 18 3 15 5 12 6 13 7 75 8 14 9 74 10 11 11 10 12
REMARK SMILES IDX 6 13 7 14 76 15 8 16 9 17 5 19 4 20 3 23 2 24 1 25 19 26
REMARK SMILES IDX 20 27 21 28 22 29 23 30 24 31 25 33 26 34 27 35 73 36 28 37
REMARK SMILES IDX 72 38 29 39 30 40 31 41 66 42 32 43 71 44 65 45 67 46 33 47
REMARK SMILES IDX 70 48 64 49 63 50 34 52 56 53 41 54 55 55 42 56 45 57 54 58
REMARK SMILES IDX 68 59 43 60 44 61 53 63 69 64 46 65 35 66 36 67 40 68 37 69
REMARK SMILES IDX 39 70 38 71 57 72 58 73 62 74 59 75 61 76 60 77 47 78 48 79
REMARK SMILES IDX 52 80 49 81 51 82 50 83
REMARK H PARENT 18 4 10 18 4 21 4 22 23 32 67 51 45 62
REMARK Flexibility Score: inf
ROOT
ATOM      1  C   UNL     1       8.627   6.956  -0.663  1.00  0.00     0.251 C 
ATOM      2  O   UNL     1       9.244   8.016  -0.749  1.00  0.00    -0.269 OA
ATOM      3  N   UNL     1       9.333   5.777  -0.698  1.00  0.00    -0.352 N 
ATOM      4  H   UNL     1      10.287   5.877  -0.921  1.00  0.00     0.163 HD
ENDROOT
BRANCH   1   5
ATOM      5  C   UNL     1       7.154   6.989  -0.478  1.00  0.00     0.039 A 
ATOM      6  C   UNL     1       4.374   7.104   0.003  1.00  0.00     0.006 A 
ATOM      7  C   UNL     1       5.239   8.031   0.600  1.00  0.00     0.010 A 
ATOM      8  C   UNL     1       4.912   6.183  -0.907  1.00  0.00     0.010 A 
ATOM      9  C   UNL     1       6.617   7.977   0.357  1.00  0.00     0.014 A 
ATOM     10  C   UNL     1       6.288   6.123  -1.147  1.00  0.00     0.014 A 
BRANCH   6  11
ATOM     11  C   UNL     1       2.895   7.067   0.358  1.00  0.00     0.299 C 
BRANCH  11  12
ATOM     12  N   UNL     1       2.502   6.146   1.450  1.00  0.00    -0.331 N 
ATOM     13  C   UNL     1       2.356   3.742   2.226  1.00  0.00     0.099 C 
ATOM     14  C   UNL     1       2.936   4.172   3.580  1.00  0.00     0.021 C 
ATOM     15  C   UNL     1       2.766   4.736   1.122  1.00  0.00     0.271 C 
ATOM     16  C   UNL     1       2.594   5.630   3.867  1.00  0.00     0.062 C 
ATOM     17  C   UNL     1       3.085   6.534   2.739  1.00  0.00     0.262 C 
ATOM     18  H   UNL     1       1.490   6.232   1.548  1.00  0.00     0.348 HD
BRANCH  13  19
ATOM     19  C   UNL     1       2.691   2.248   1.946  1.00  0.00     0.269 C 
BRANCH  19  20
ATOM     20  N   UNL     1       3.497   1.897   0.777  1.00  0.00    -0.346 N 
ATOM     21  H   UNL     1       3.340   0.911   0.566  1.00  0.00     0.346 HD
ATOM     22  H   UNL     1       3.201   2.516   0.023  1.00  0.00     0.346 HD
BRANCH  20  23
ATOM     23  C   UNL     1       4.928   2.104   0.951  1.00  0.00     0.260 C 
BRANCH  23  24
ATOM     24  C   UNL     1       5.732   1.698  -0.291  1.00  0.00     0.058 C 
ATOM     25  C   UNL     1       5.191   2.229  -1.613  1.00  0.00     0.010 C 
ENDBRANCH  23  24
ENDBRANCH  20  23
ENDBRANCH  19  20
ENDBRANCH  13  19
ENDBRANCH  11  12
ENDBRANCH   6  11
ENDBRANCH   1   5
BRANCH   3  26
ATOM     26  C   UNL     1       8.908   4.409  -0.461  1.00  0.00     0.116 C 
BRANCH  26  27
ATOM     27  C   UNL     1       8.908   3.592  -1.755  1.00  0.00     0.023 C 
BRANCH  27  28
ATOM     28  C   UNL     1      10.287   3.119  -2.219  1.00  0.00     0.023 C 
BRANCH  28  29
ATOM     29  C   UNL     1      10.968   2.099  -1.310  1.00  0.00     0.116 C 
BRANCH  29  30
ATOM     30  N   UNL     1      10.236   0.848  -1.179  1.00  0.00    -0.352 N 
ATOM     31  C   UNL     1      10.726  -0.438  -1.078  1.00  0.00     0.251 C 
ATOM     32  H   UNL     1       9.255   0.930  -1.159  1.00  0.00     0.163 HD
ATOM     33  O   UNL     1       9.965  -1.389  -1.058  1.00  0.00    -0.269 OA
BRANCH  31  34
ATOM     34  C   UNL     1      12.191  -0.659  -1.040  1.00  0.00     0.039 A 
ATOM     35  C   UNL     1      12.745  -1.629  -1.880  1.00  0.00     0.014 A 
ATOM     36  C   UNL     1      13.015   0.102  -0.209  1.00  0.00     0.014 A 
ATOM     37  C   UNL     1      14.133  -1.777  -1.947  1.00  0.00     0.010 A 
ATOM     38  C   UNL     1      14.399   0.003  -0.328  1.00  0.00     0.010 A 
ATOM     39  C   UNL     1      14.972  -0.931  -1.204  1.00  0.00    -0.014 A 
BRANCH  39  40
ATOM     40  C   UNL     1      16.449  -0.989  -1.345  1.00  0.00     0.031 A 
ATOM     41  C   UNL     1      17.310  -1.384  -0.178  1.00  0.00     0.074 A 
ATOM     42  C   UNL     1      17.023  -0.609  -2.504  1.00  0.00     0.049 A 
ATOM     43  N   UNL     1      18.616  -1.428  -0.092  1.00  0.00    -0.248 NA
ATOM     44  C   UNL     1      16.613  -1.751   1.064  1.00  0.00     0.031 C 
ATOM     45  C   UNL     1      16.307  -0.162  -3.700  1.00  0.00     0.029 A 
ATOM     46  N   UNL     1      18.347  -0.530  -2.861  1.00  0.00    -0.354 N 
ATOM     47  C   UNL     1      18.895  -1.804   1.215  1.00  0.00     0.074 A 
ATOM     48  C   UNL     1      17.626  -1.933   1.898  1.00  0.00     0.031 C 
ATOM     49  C   UNL     1      17.197   0.115  -4.667  1.00  0.00     0.029 A 
ATOM     50  C   UNL     1      18.544  -0.096  -4.149  1.00  0.00     0.049 A 
ATOM     51  H   UNL     1      19.084  -0.762  -2.251  1.00  0.00     0.167 HD
ATOM     52  C   UNL     1      20.098  -2.038   1.793  1.00  0.00     0.031 A 
ATOM     53  C   UNL     1      19.683   0.112  -4.837  1.00  0.00     0.031 A 
ATOM     54  C   UNL     1      21.360  -1.926   1.112  1.00  0.00     0.049 A 
ATOM     55  C   UNL     1      21.005  -0.147  -4.172  1.00  0.00     0.074 A 
ATOM     56  C   UNL     1      22.627  -2.211   1.593  1.00  0.00     0.029 A 
ATOM     57  N   UNL     1      21.517  -1.489  -0.194  1.00  0.00    -0.354 N 
ATOM     58  N   UNL     1      21.249  -0.574  -2.958  1.00  0.00    -0.248 NA
ATOM     59  C   UNL     1      22.209   0.096  -4.980  1.00  0.00     0.031 C 
ATOM     60  C   UNL     1      23.554  -1.900   0.592  1.00  0.00     0.029 A 
ATOM     61  C   UNL     1      22.860  -1.472  -0.528  1.00  0.00     0.049 A 
ATOM     62  H   UNL     1      20.781  -1.230  -0.795  1.00  0.00     0.167 HD
ATOM     63  C   UNL     1      22.631  -0.678  -2.864  1.00  0.00     0.074 A 
ATOM     64  C   UNL     1      23.170  -0.280  -4.148  1.00  0.00     0.031 C 
ATOM     65  C   UNL     1      23.384  -1.071  -1.808  1.00  0.00     0.031 A 
BRANCH  52  66
ATOM     66  C   UNL     1      20.100  -2.428   3.244  1.00  0.00    -0.014 A 
ATOM     67  C   UNL     1      19.626  -3.682   3.663  1.00  0.00     0.009 A 
ATOM     68  C   UNL     1      20.603  -1.538   4.205  1.00  0.00     0.009 A 
ATOM     69  C   UNL     1      19.616  -4.018   5.018  1.00  0.00     0.001 A 
ATOM     70  C   UNL     1      20.619  -1.888   5.557  1.00  0.00     0.001 A 
ATOM     71  C   UNL     1      20.115  -3.123   5.963  1.00  0.00     0.000 A 
ENDBRANCH  52  66
BRANCH  53  72
ATOM     72  C   UNL     1      19.623   0.567  -6.250  1.00  0.00    -0.014 A 
ATOM     73  C   UNL     1      19.948  -0.316  -7.291  1.00  0.00     0.009 A 
ATOM     74  C   UNL     1      19.243   1.880  -6.567  1.00  0.00     0.009 A 
ATOM     75  C   UNL     1      19.914   0.112  -8.620  1.00  0.00     0.001 A 
ATOM     76  C   UNL     1      19.185   2.298  -7.898  1.00  0.00     0.001 A 
ATOM     77  C   UNL     1      19.528   1.417  -8.922  1.00  0.00     0.000 A 
ENDBRANCH  53  72
BRANCH  65  78
ATOM     78  C   UNL     1      24.872  -1.122  -2.007  1.00  0.00    -0.014 A 
ATOM     79  C   UNL     1      25.639   0.051  -2.079  1.00  0.00     0.009 A 
ATOM     80  C   UNL     1      25.520  -2.365  -2.084  1.00  0.00     0.009 A 
ATOM     81  C   UNL     1      27.022  -0.020  -2.256  1.00  0.00     0.001 A 
ATOM     82  C   UNL     1      26.905  -2.433  -2.233  1.00  0.00     0.001 A 
ATOM     83  C   UNL     1      27.654  -1.262  -2.328  1.00  0.00     0.000 A 
ENDBRANCH  65  78
ENDBRANCH  39  40
ENDBRANCH  31  34
ENDBRANCH  29  30
ENDBRANCH  28  29
ENDBRANCH  27  28
ENDBRANCH  26  27
ENDBRANCH   3  26
TORSDOF 17
