REMARK SMILES CN(CC1CCC1)C(=O)N(CC(=O)NCCCCNC(=O)c1ccc(-c2c3nc(c(-c4ccccc4)c4ccc([nH]4)c(-c4ccccc4)c4nc(c(-c5ccccc5)c5ccc2[nH]5)C=C4)C=C3)cc1)C(C)(C)C
REMARK SMILES IDX 15 1 14 2 12 3 13 4 11 6 10 7 8 8 9 9 2 10 1 11 3 12 4 13
REMARK SMILES IDX 5 14 7 15 6 16 70 17 71 18 72 19 73 20 16 21 17 22 18 23
REMARK SMILES IDX 19 24 20 25 21 27 22 28 23 29 69 30 24 31 68 32 25 33 26 34
REMARK SMILES IDX 27 35 62 36 28 37 67 38 61 39 63 40 29 41 66 42 60 43 59 44
REMARK SMILES IDX 30 46 52 47 37 48 51 49 38 50 41 51 50 52 64 53 39 54 40 55
REMARK SMILES IDX 49 57 65 58 42 59 31 60 32 61 36 62 33 63 35 64 34 65 53 66
REMARK SMILES IDX 54 67 58 68 55 69 57 70 56 71 43 72 44 73 48 74 45 75 47 76
REMARK SMILES IDX 46 77
REMARK H PARENT 14 5 19 26 63 45 41 56
REMARK Flexibility Score: inf
ROOT
ATOM      1  C   UNL     1      -2.095  -2.301  -2.425  1.00  0.00     0.116 C 
ENDROOT
BRANCH   1   2
ATOM      2  N   UNL     1      -2.509  -3.677  -2.210  1.00  0.00    -0.355 N 
ATOM      3  C   UNL     1      -1.982  -4.672  -1.444  1.00  0.00     0.239 C 
ATOM      4  O   UNL     1      -2.734  -5.630  -1.218  1.00  0.00    -0.273 OA
ATOM      5  H   UNL     1      -3.318  -3.937  -2.708  1.00  0.00     0.163 HD
BRANCH   3   6
ATOM      6  C   UNL     1      -0.613  -4.612  -0.731  1.00  0.00     0.221 C 
BRANCH   6   7
ATOM      7  N   UNL     1       0.507  -3.883  -1.326  1.00  0.00    -0.311 N 
BRANCH   7   8
ATOM      8  C   UNL     1       0.910  -2.586  -0.992  1.00  0.00     0.320 C 
ATOM      9  O   UNL     1       1.726  -2.001  -1.718  1.00  0.00    -0.248 OA
BRANCH   8  10
ATOM     10  N   UNL     1       0.358  -1.851   0.059  1.00  0.00    -0.327 N 
ATOM     11  C   UNL     1       0.670  -0.421   0.017  1.00  0.00     0.148 C 
BRANCH  10  12
ATOM     12  C   UNL     1      -0.249  -2.288   1.329  1.00  0.00     0.124 C 
BRANCH  12  13
ATOM     13  C   UNL     1      -1.762  -2.322   1.150  1.00  0.00     0.008 C 
ATOM     14  C   UNL     1      -2.557  -3.269   2.097  1.00  0.00     0.005 C 
ATOM     15  C   UNL     1      -2.749  -1.216   1.625  1.00  0.00     0.005 C 
ATOM     16  C   UNL     1      -3.776  -2.370   1.800  1.00  0.00     0.001 C 
ENDBRANCH  12  13
ENDBRANCH  10  12
ENDBRANCH   8  10
ENDBRANCH   7   8
BRANCH   7  17
ATOM     17  C   UNL     1       1.126  -4.543  -2.563  1.00  0.00     0.037 C 
ATOM     18  C   UNL     1       0.665  -3.843  -3.859  1.00  0.00     0.034 C 
ATOM     19  C   UNL     1       2.670  -4.550  -2.500  1.00  0.00     0.034 C 
ATOM     20  C   UNL     1       0.730  -6.040  -2.744  1.00  0.00     0.034 C 
ENDBRANCH   7  17
ENDBRANCH   6   7
ENDBRANCH   3   6
ENDBRANCH   1   2
BRANCH   1  21
ATOM     21  C   UNL     1      -2.325  -1.796  -3.843  1.00  0.00     0.023 C 
BRANCH  21  22
ATOM     22  C   UNL     1      -3.777  -1.817  -4.296  1.00  0.00     0.023 C 
BRANCH  22  23
ATOM     23  C   UNL     1      -4.738  -1.105  -3.355  1.00  0.00     0.116 C 
BRANCH  23  24
ATOM     24  N   UNL     1      -4.439   0.314  -3.217  1.00  0.00    -0.352 N 
ATOM     25  C   UNL     1      -5.173   1.402  -3.631  1.00  0.00     0.251 C 
ATOM     26  H   UNL     1      -3.592   0.524  -2.762  1.00  0.00     0.163 HD
ATOM     27  O   UNL     1      -4.702   2.528  -3.595  1.00  0.00    -0.269 OA
BRANCH  25  28
ATOM     28  C   UNL     1      -6.538   1.181  -4.149  1.00  0.00     0.039 A 
ATOM     29  C   UNL     1      -6.904   1.746  -5.372  1.00  0.00     0.014 A 
ATOM     30  C   UNL     1      -7.427   0.364  -3.449  1.00  0.00     0.014 A 
ATOM     31  C   UNL     1      -8.138   1.416  -5.936  1.00  0.00     0.010 A 
ATOM     32  C   UNL     1      -8.605  -0.044  -4.058  1.00  0.00     0.010 A 
ATOM     33  C   UNL     1      -8.976   0.482  -5.304  1.00  0.00    -0.014 A 
BRANCH  33  34
ATOM     34  C   UNL     1     -10.255   0.044  -5.915  1.00  0.00     0.031 A 
ATOM     35  C   UNL     1     -11.551   0.301  -5.199  1.00  0.00     0.074 A 
ATOM     36  C   UNL     1     -10.245  -0.654  -7.067  1.00  0.00     0.049 A 
ATOM     37  N   UNL     1     -12.763  -0.073  -5.522  1.00  0.00    -0.248 NA
ATOM     38  C   UNL     1     -11.470   1.049  -3.933  1.00  0.00     0.031 C 
ATOM     39  C   UNL     1      -9.051  -1.008  -7.839  1.00  0.00     0.029 A 
ATOM     40  N   UNL     1     -11.279  -1.198  -7.787  1.00  0.00    -0.354 N 
ATOM     41  C   UNL     1     -13.579   0.371  -4.490  1.00  0.00     0.074 A 
ATOM     42  C   UNL     1     -12.720   0.985  -3.503  1.00  0.00     0.031 C 
ATOM     43  C   UNL     1      -9.424  -1.675  -8.943  1.00  0.00     0.029 A 
ATOM     44  C   UNL     1     -10.874  -1.835  -8.935  1.00  0.00     0.049 A 
ATOM     45  H   UNL     1     -12.221  -1.137  -7.508  1.00  0.00     0.167 HD
ATOM     46  C   UNL     1     -14.927   0.298  -4.382  1.00  0.00     0.031 A 
ATOM     47  C   UNL     1     -11.592  -2.478  -9.875  1.00  0.00     0.031 A 
ATOM     48  C   UNL     1     -15.782  -0.302  -5.369  1.00  0.00     0.049 A 
ATOM     49  C   UNL     1     -13.086  -2.562  -9.728  1.00  0.00     0.074 A 
ATOM     50  C   UNL     1     -17.163  -0.376  -5.384  1.00  0.00     0.029 A 
ATOM     51  N   UNL     1     -15.333  -0.934  -6.519  1.00  0.00    -0.354 N 
ATOM     52  N   UNL     1     -13.851  -2.079  -8.779  1.00  0.00    -0.248 NA
ATOM     53  C   UNL     1     -13.814  -3.273 -10.788  1.00  0.00     0.031 C 
ATOM     54  C   UNL     1     -17.548  -1.098  -6.519  1.00  0.00     0.029 A 
ATOM     55  C   UNL     1     -16.409  -1.423  -7.239  1.00  0.00     0.049 A 
ATOM     56  H   UNL     1     -14.389  -1.022  -6.783  1.00  0.00     0.167 HD
ATOM     57  C   UNL     1     -15.152  -2.401  -9.141  1.00  0.00     0.074 A 
ATOM     58  C   UNL     1     -15.072  -3.111 -10.402  1.00  0.00     0.031 C 
ATOM     59  C   UNL     1     -16.310  -2.130  -8.491  1.00  0.00     0.031 A 
BRANCH  46  60
ATOM     60  C   UNL     1     -15.546   0.878  -3.140  1.00  0.00    -0.014 A 
ATOM     61  C   UNL     1     -15.533   2.262  -2.896  1.00  0.00     0.009 A 
ATOM     62  C   UNL     1     -16.146   0.030  -2.197  1.00  0.00     0.009 A 
ATOM     63  C   UNL     1     -16.060   2.778  -1.711  1.00  0.00     0.001 A 
ATOM     64  C   UNL     1     -16.704   0.553  -1.028  1.00  0.00     0.001 A 
ATOM     65  C   UNL     1     -16.648   1.923  -0.780  1.00  0.00     0.000 A 
ENDBRANCH  46  60
BRANCH  47  66
ATOM     66  C   UNL     1     -10.910  -3.062 -11.059  1.00  0.00    -0.014 A 
ATOM     67  C   UNL     1     -11.051  -2.465 -12.321  1.00  0.00     0.009 A 
ATOM     68  C   UNL     1     -10.107  -4.206 -10.936  1.00  0.00     0.009 A 
ATOM     69  C   UNL     1     -10.419  -3.013 -13.439  1.00  0.00     0.001 A 
ATOM     70  C   UNL     1      -9.454  -4.736 -12.051  1.00  0.00     0.001 A 
ATOM     71  C   UNL     1      -9.616  -4.144 -13.302  1.00  0.00     0.000 A 
ENDBRANCH  47  66
BRANCH  59  72
ATOM     72  C   UNL     1     -17.587  -2.570  -9.148  1.00  0.00    -0.014 A 
ATOM     73  C   UNL     1     -17.956  -3.923  -9.196  1.00  0.00     0.009 A 
ATOM     74  C   UNL     1     -18.456  -1.608  -9.688  1.00  0.00     0.009 A 
ATOM     75  C   UNL     1     -19.156  -4.306  -9.799  1.00  0.00     0.001 A 
ATOM     76  C   UNL     1     -19.667  -1.990 -10.263  1.00  0.00     0.001 A 
ATOM     77  C   UNL     1     -20.012  -3.339 -10.326  1.00  0.00     0.000 A 
ENDBRANCH  59  72
ENDBRANCH  33  34
ENDBRANCH  25  28
ENDBRANCH  23  24
ENDBRANCH  22  23
ENDBRANCH  21  22
ENDBRANCH   1  21
TORSDOF 17
