REMARK SMILES CC[C@@H](C)C[C@@H](C)[NH2+]Cc1ccc(C(=O)NCCCCNC(=O)c2ccc(-c3c4nc(c(-c5ccccc5)c5ccc([nH]5)c(-c5ccccc5)c5nc(c(-c6ccccc6)c6ccc3[nH]6)C=C5)C=C4)cc2)cn1
REMARK SMILES IDX 14 1 15 2 16 3 13 5 10 6 11 7 73 8 12 9 72 10 9 11 8 12 6 15
REMARK SMILES IDX 7 16 5 17 3 18 4 19 2 20 1 21 17 22 18 23 19 24 20 25 21 26
REMARK SMILES IDX 22 27 23 29 24 30 25 31 71 32 26 33 70 34 27 35 28 36 29 37
REMARK SMILES IDX 64 38 30 39 69 40 63 41 65 42 31 43 68 44 62 45 61 46 32 48
REMARK SMILES IDX 54 49 39 50 53 51 40 52 43 53 52 54 66 55 41 56 42 57 51 59
REMARK SMILES IDX 67 60 44 61 33 62 34 63 38 64 35 65 37 66 36 67 55 68 56 69
REMARK SMILES IDX 60 70 57 71 59 72 58 73 45 74 46 75 50 76 47 77 49 78 48 79
REMARK H PARENT 16 4 8 13 8 14 21 28 65 47 43 58
REMARK Flexibility Score: inf
ROOT
ATOM      1  C   UNL     1       6.625   2.378  -6.226  1.00  0.00     0.252 C 
ATOM      2  O   UNL     1       7.136   1.263  -6.129  1.00  0.00    -0.269 OA
ATOM      3  N   UNL     1       7.455   3.468  -6.226  1.00  0.00    -0.352 N 
ATOM      4  H   UNL     1       8.405   3.258  -6.074  1.00  0.00     0.163 HD
ENDROOT
BRANCH   1   5
ATOM      5  C   UNL     1       5.154   2.484  -6.347  1.00  0.00     0.058 A 
ATOM      6  C   UNL     1       2.402   2.297  -6.417  1.00  0.00     0.094 A 
ATOM      7  C   UNL     1       2.984   3.453  -5.904  1.00  0.00     0.030 A 
ATOM      8  N   UNL     1       3.134   1.292  -6.966  1.00  0.00    -0.255 NA
ATOM      9  C   UNL     1       4.375   3.523  -5.837  1.00  0.00     0.017 A 
ATOM     10  C   UNL     1       4.484   1.406  -6.912  1.00  0.00     0.125 A 
BRANCH   6  11
ATOM     11  C   UNL     1       0.936   2.008  -6.153  1.00  0.00     0.318 C 
BRANCH  11  12
ATOM     12  N   UNL     1       0.722   0.712  -5.484  1.00  0.00    -0.339 N 
ATOM     13  H   UNL     1      -0.261   0.463  -5.595  1.00  0.00     0.346 HD
ATOM     14  H   UNL     1       1.370   0.063  -5.929  1.00  0.00     0.346 HD
BRANCH  12  15
ATOM     15  C   UNL     1       1.040   0.667  -4.043  1.00  0.00     0.179 C 
ATOM     16  C   UNL     1       2.536   0.772  -3.720  1.00  0.00     0.075 C 
BRANCH  15  17
ATOM     17  C   UNL     1       0.459  -0.669  -3.514  1.00  0.00     0.068 C 
BRANCH  17  18
ATOM     18  C   UNL     1       0.806  -1.040  -2.051  1.00  0.00    -0.009 C 
ATOM     19  C   UNL     1       0.190  -2.404  -1.716  1.00  0.00     0.008 C 
BRANCH  18  20
ATOM     20  C   UNL     1       0.362   0.044  -1.050  1.00  0.00    -0.000 C 
ATOM     21  C   UNL     1       0.937  -0.162   0.346  1.00  0.00     0.004 C 
ENDBRANCH  18  20
ENDBRANCH  17  18
ENDBRANCH  15  17
ENDBRANCH  12  15
ENDBRANCH  11  12
ENDBRANCH   6  11
ENDBRANCH   1   5
BRANCH   3  22
ATOM     22  C   UNL     1       7.172   4.875  -6.413  1.00  0.00     0.116 C 
BRANCH  22  23
ATOM     23  C   UNL     1       7.234   5.620  -5.079  1.00  0.00     0.023 C 
BRANCH  23  24
ATOM     24  C   UNL     1       8.655   5.937  -4.604  1.00  0.00     0.023 C 
BRANCH  24  25
ATOM     25  C   UNL     1       9.468   6.808  -5.555  1.00  0.00     0.116 C 
BRANCH  25  26
ATOM     26  N   UNL     1       8.816   8.065  -5.886  1.00  0.00    -0.352 N 
ATOM     27  C   UNL     1       9.400   9.260  -6.236  1.00  0.00     0.251 C 
ATOM     28  H   UNL     1       7.832   8.060  -5.855  1.00  0.00     0.163 HD
ATOM     29  O   UNL     1       8.723  10.265  -6.390  1.00  0.00    -0.269 OA
BRANCH  27  30
ATOM     30  C   UNL     1      10.868   9.319  -6.377  1.00  0.00     0.039 A 
ATOM     31  C   UNL     1      11.570  10.299  -5.673  1.00  0.00     0.014 A 
ATOM     32  C   UNL     1      11.545   8.382  -7.161  1.00  0.00     0.014 A 
ATOM     33  C   UNL     1      12.964  10.298  -5.702  1.00  0.00     0.010 A 
ATOM     34  C   UNL     1      12.935   8.342  -7.136  1.00  0.00     0.010 A 
ATOM     35  C   UNL     1      13.656   9.298  -6.405  1.00  0.00    -0.014 A 
BRANCH  35  36
ATOM     36  C   UNL     1      15.136   9.231  -6.382  1.00  0.00     0.031 A 
ATOM     37  C   UNL     1      15.920   9.452  -7.644  1.00  0.00     0.074 A 
ATOM     38  C   UNL     1      15.769   8.902  -5.239  1.00  0.00     0.049 A 
ATOM     39  N   UNL     1      17.212   9.376  -7.836  1.00  0.00    -0.248 NA
ATOM     40  C   UNL     1      15.149   9.774  -8.856  1.00  0.00     0.031 C 
ATOM     41  C   UNL     1      15.117   8.620  -3.958  1.00  0.00     0.029 A 
ATOM     42  N   UNL     1      17.105   8.742  -4.974  1.00  0.00    -0.354 N 
ATOM     43  C   UNL     1      17.406   9.621  -9.189  1.00  0.00     0.074 A 
ATOM     44  C   UNL     1      16.098   9.803  -9.779  1.00  0.00     0.031 C 
ATOM     45  C   UNL     1      16.057   8.348  -3.038  1.00  0.00     0.029 A 
ATOM     46  C   UNL     1      17.371   8.401  -3.671  1.00  0.00     0.049 A 
ATOM     47  H   UNL     1      17.807   8.860  -5.654  1.00  0.00     0.167 HD
ATOM     48  C   UNL     1      18.570   9.706  -9.876  1.00  0.00     0.031 A 
ATOM     49  C   UNL     1      18.542   8.156  -3.055  1.00  0.00     0.031 A 
ATOM     50  C   UNL     1      19.870   9.542  -9.286  1.00  0.00     0.049 A 
ATOM     51  C   UNL     1      19.820   8.257  -3.840  1.00  0.00     0.074 A 
ATOM     52  C   UNL     1      21.111   9.672  -9.885  1.00  0.00     0.029 A 
ATOM     53  N   UNL     1      20.098   9.212  -7.959  1.00  0.00    -0.354 N 
ATOM     54  N   UNL     1      19.990   8.560  -5.104  1.00  0.00    -0.248 NA
ATOM     55  C   UNL     1      21.067   7.993  -3.108  1.00  0.00     0.031 C 
ATOM     56  C   UNL     1      22.090   9.377  -8.929  1.00  0.00     0.029 A 
ATOM     57  C   UNL     1      21.458   9.113  -7.725  1.00  0.00     0.049 A 
ATOM     58  H   UNL     1      19.395   9.069  -7.284  1.00  0.00     0.167 HD
ATOM     59  C   UNL     1      21.363   8.550  -5.312  1.00  0.00     0.074 A 
ATOM     60  C   UNL     1      21.979   8.224  -4.042  1.00  0.00     0.031 C 
ATOM     61  C   UNL     1      22.052   8.790  -6.454  1.00  0.00     0.031 A 
BRANCH  48  62
ATOM     62  C   UNL     1      18.481   9.985 -11.350  1.00  0.00    -0.014 A 
ATOM     63  C   UNL     1      18.091  11.246 -11.828  1.00  0.00     0.009 A 
ATOM     64  C   UNL     1      18.820   8.983 -12.272  1.00  0.00     0.009 A 
ATOM     65  C   UNL     1      18.005  11.486 -13.201  1.00  0.00     0.001 A 
ATOM     66  C   UNL     1      18.759   9.234 -13.644  1.00  0.00     0.001 A 
ATOM     67  C   UNL     1      18.343  10.482 -14.107  1.00  0.00     0.000 A 
ENDBRANCH  48  62
BRANCH  49  68
ATOM     68  C   UNL     1      18.567   7.815  -1.609  1.00  0.00    -0.014 A 
ATOM     69  C   UNL     1      19.047   8.741  -0.671  1.00  0.00     0.009 A 
ATOM     70  C   UNL     1      18.118   6.564  -1.161  1.00  0.00     0.009 A 
ATOM     71  C   UNL     1      19.102   8.411   0.685  1.00  0.00     0.001 A 
ATOM     72  C   UNL     1      18.149   6.246   0.199  1.00  0.00     0.001 A 
ATOM     73  C   UNL     1      18.650   7.165   1.119  1.00  0.00     0.000 A 
ENDBRANCH  49  68
BRANCH  61  74
ATOM     74  C   UNL     1      23.551   8.743  -6.372  1.00  0.00    -0.014 A 
ATOM     75  C   UNL     1      24.236   7.524  -6.258  1.00  0.00     0.009 A 
ATOM     76  C   UNL     1      24.287   9.935  -6.452  1.00  0.00     0.009 A 
ATOM     77  C   UNL     1      25.630   7.503  -6.194  1.00  0.00     0.001 A 
ATOM     78  C   UNL     1      25.682   9.909  -6.414  1.00  0.00     0.001 A 
ATOM     79  C   UNL     1      26.351   8.694  -6.277  1.00  0.00     0.000 A 
ENDBRANCH  61  74
ENDBRANCH  35  36
ENDBRANCH  27  30
ENDBRANCH  25  26
ENDBRANCH  24  25
ENDBRANCH  23  24
ENDBRANCH  22  23
ENDBRANCH   3  22
TORSDOF 17
