REMARK SMILES CCCC[C@@H](C)[NH2+]Cc1ccc(C(=O)NCCCCNC(=O)c2ccc(-c3c4nc(c(-c5ccccc5)c5ccc([nH]5)c(-c5ccccc5)c5nc(c(-c6ccccc6)c6ccc3[nH]6)C=C5)C=C4)cc2)cn1
REMARK SMILES IDX 13 1 14 2 15 3 12 5 9 6 10 7 72 8 11 9 71 10 8 11 7 12 5 15
REMARK SMILES IDX 6 16 4 17 3 18 2 19 1 20 16 21 17 22 18 23 19 24 20 25 21 26
REMARK SMILES IDX 22 28 23 29 24 30 70 31 25 32 69 33 26 34 27 35 28 36 63 37
REMARK SMILES IDX 29 38 68 39 62 40 64 41 30 42 67 43 61 44 60 45 31 47 53 48
REMARK SMILES IDX 38 49 52 50 39 51 42 52 51 53 65 54 40 55 41 56 50 58 66 59
REMARK SMILES IDX 43 60 32 61 33 62 37 63 34 64 36 65 35 66 54 67 55 68 59 69
REMARK SMILES IDX 56 70 58 71 57 72 44 73 45 74 49 75 46 76 48 77 47 78
REMARK H PARENT 15 4 7 13 7 14 20 27 64 46 42 57
REMARK Flexibility Score: inf
ROOT
ATOM      1  C   UNL     1      -5.253   3.731   5.872  1.00  0.00     0.252 C 
ATOM      2  O   UNL     1      -5.550   4.777   6.445  1.00  0.00    -0.269 OA
ATOM      3  N   UNL     1      -5.286   2.555   6.585  1.00  0.00    -0.352 N 
ATOM      4  H   UNL     1      -5.622   2.649   7.505  1.00  0.00     0.163 HD
ENDROOT
BRANCH   1   5
ATOM      5  C   UNL     1      -4.812   3.789   4.464  1.00  0.00     0.058 A 
ATOM      6  C   UNL     1      -3.631   3.949   1.982  1.00  0.00     0.094 A 
ATOM      7  C   UNL     1      -4.526   2.912   2.238  1.00  0.00     0.030 A 
ATOM      8  N   UNL     1      -3.410   4.955   2.871  1.00  0.00    -0.255 NA
ATOM      9  C   UNL     1      -5.139   2.846   3.491  1.00  0.00     0.017 A 
ATOM     10  C   UNL     1      -4.009   4.856   4.083  1.00  0.00     0.125 A 
BRANCH   6  11
ATOM     11  C   UNL     1      -2.729   3.905   0.765  1.00  0.00     0.318 C 
BRANCH  11  12
ATOM     12  N   UNL     1      -1.293   3.918   1.102  1.00  0.00    -0.339 N 
ATOM     13  H   UNL     1      -0.768   4.088   0.244  1.00  0.00     0.346 HD
ATOM     14  H   UNL     1      -1.171   4.648   1.804  1.00  0.00     0.346 HD
BRANCH  12  15
ATOM     15  C   UNL     1      -0.784   2.674   1.710  1.00  0.00     0.179 C 
ATOM     16  C   UNL     1      -0.961   2.644   3.234  1.00  0.00     0.075 C 
BRANCH  15  17
ATOM     17  C   UNL     1       0.717   2.587   1.347  1.00  0.00     0.065 C 
BRANCH  17  18
ATOM     18  C   UNL     1       1.451   1.333   1.850  1.00  0.00     0.006 C 
BRANCH  18  19
ATOM     19  C   UNL     1       0.887   0.000   1.352  1.00  0.00    -0.003 C 
ATOM     20  C   UNL     1       1.063  -0.193  -0.146  1.00  0.00     0.004 C 
ENDBRANCH  18  19
ENDBRANCH  17  18
ENDBRANCH  15  17
ENDBRANCH  12  15
ENDBRANCH  11  12
ENDBRANCH   6  11
ENDBRANCH   1   5
BRANCH   3  21
ATOM     21  C   UNL     1      -4.912   1.198   6.221  1.00  0.00     0.116 C 
BRANCH  21  22
ATOM     22  C   UNL     1      -3.820   0.608   7.112  1.00  0.00     0.023 C 
BRANCH  22  23
ATOM     23  C   UNL     1      -4.205   0.340   8.566  1.00  0.00     0.023 C 
BRANCH  23  24
ATOM     24  C   UNL     1      -5.457  -0.504   8.790  1.00  0.00     0.116 C 
BRANCH  24  25
ATOM     25  N   UNL     1      -5.433  -1.794   8.118  1.00  0.00    -0.352 N 
ATOM     26  C   UNL     1      -5.904  -3.009   8.561  1.00  0.00     0.251 C 
ATOM     27  H   UNL     1      -5.024  -1.799   7.223  1.00  0.00     0.163 HD
ATOM     28  O   UNL     1      -5.748  -4.018   7.878  1.00  0.00    -0.269 OA
BRANCH  26  29
ATOM     29  C   UNL     1      -6.556  -3.108   9.885  1.00  0.00     0.039 A 
ATOM     30  C   UNL     1      -6.134  -4.106  10.769  1.00  0.00     0.014 A 
ATOM     31  C   UNL     1      -7.550  -2.204  10.267  1.00  0.00     0.014 A 
ATOM     32  C   UNL     1      -6.647  -4.142  12.067  1.00  0.00     0.010 A 
ATOM     33  C   UNL     1      -8.010  -2.200  11.581  1.00  0.00     0.010 A 
ATOM     34  C   UNL     1      -7.556  -3.163  12.497  1.00  0.00    -0.014 A 
BRANCH  34  35
ATOM     35  C   UNL     1      -8.028  -3.112  13.904  1.00  0.00     0.031 A 
ATOM     36  C   UNL     1      -9.480  -3.330  14.225  1.00  0.00     0.074 A 
ATOM     37  C   UNL     1      -7.162  -2.794  14.886  1.00  0.00     0.049 A 
ATOM     38  N   UNL     1     -10.090  -3.256  15.381  1.00  0.00    -0.248 NA
ATOM     39  C   UNL     1     -10.368  -3.646  13.095  1.00  0.00     0.031 C 
ATOM     40  C   UNL     1      -5.736  -2.514  14.704  1.00  0.00     0.029 A 
ATOM     41  N   UNL     1      -7.359  -2.643  16.237  1.00  0.00    -0.354 N 
ATOM     42  C   UNL     1     -11.432  -3.495  15.116  1.00  0.00     0.074 A 
ATOM     43  C   UNL     1     -11.555  -3.672  13.685  1.00  0.00     0.031 C 
ATOM     44  C   UNL     1      -5.184  -2.249  15.900  1.00  0.00     0.029 A 
ATOM     45  C   UNL     1      -6.220  -2.305  16.925  1.00  0.00     0.049 A 
ATOM     46  H   UNL     1      -8.235  -2.766  16.670  1.00  0.00     0.167 HD
ATOM     47  C   UNL     1     -12.467  -3.578  15.984  1.00  0.00     0.031 A 
ATOM     48  C   UNL     1      -6.030  -2.061  18.236  1.00  0.00     0.031 A 
ATOM     49  C   UNL     1     -12.346  -3.417  17.408  1.00  0.00     0.049 A 
ATOM     50  C   UNL     1      -7.195  -2.160  19.180  1.00  0.00     0.074 A 
ATOM     51  C   UNL     1     -13.327  -3.545  18.377  1.00  0.00     0.029 A 
ATOM     52  N   UNL     1     -11.171  -3.094  18.068  1.00  0.00    -0.354 N 
ATOM     53  N   UNL     1      -8.445  -2.457  18.920  1.00  0.00    -0.248 NA
ATOM     54  C   UNL     1      -6.919  -1.902  20.601  1.00  0.00     0.031 C 
ATOM     55  C   UNL     1     -12.753  -3.256  19.620  1.00  0.00     0.029 A 
ATOM     56  C   UNL     1     -11.406  -2.997  19.429  1.00  0.00     0.049 A 
ATOM     57  H   UNL     1     -10.299  -2.954  17.633  1.00  0.00     0.167 HD
ATOM     58  C   UNL     1      -9.098  -2.447  20.146  1.00  0.00     0.074 A 
ATOM     59  C   UNL     1      -8.104  -2.130  21.150  1.00  0.00     0.031 C 
ATOM     60  C   UNL     1     -10.405  -2.682  20.415  1.00  0.00     0.031 A 
BRANCH  47  61
ATOM     61  C   UNL     1     -13.829  -3.853  15.410  1.00  0.00    -0.014 A 
ATOM     62  C   UNL     1     -14.152  -5.112  14.879  1.00  0.00     0.009 A 
ATOM     63  C   UNL     1     -14.810  -2.850  15.426  1.00  0.00     0.009 A 
ATOM     64  C   UNL     1     -15.419  -5.348  14.341  1.00  0.00     0.001 A 
ATOM     65  C   UNL     1     -16.085  -3.098  14.913  1.00  0.00     0.001 A 
ATOM     66  C   UNL     1     -16.385  -4.343  14.362  1.00  0.00     0.000 A 
ENDBRANCH  47  61
BRANCH  48  67
ATOM     67  C   UNL     1      -4.676  -1.719  18.742  1.00  0.00    -0.014 A 
ATOM     68  C   UNL     1      -3.950  -2.644  19.509  1.00  0.00     0.009 A 
ATOM     69  C   UNL     1      -4.104  -0.467  18.468  1.00  0.00     0.009 A 
ATOM     70  C   UNL     1      -2.691  -2.312  20.014  1.00  0.00     0.001 A 
ATOM     71  C   UNL     1      -2.833  -0.147  18.953  1.00  0.00     0.001 A 
ATOM     72  C   UNL     1      -2.132  -1.066  19.732  1.00  0.00     0.000 A 
ENDBRANCH  48  67
BRANCH  60  73
ATOM     73  C   UNL     1     -10.828  -2.638  21.856  1.00  0.00    -0.014 A 
ATOM     74  C   UNL     1     -10.940  -1.421  22.545  1.00  0.00     0.009 A 
ATOM     75  C   UNL     1     -11.157  -3.831  22.518  1.00  0.00     0.009 A 
ATOM     76  C   UNL     1     -11.345  -1.403  23.881  1.00  0.00     0.001 A 
ATOM     77  C   UNL     1     -11.587  -3.807  23.846  1.00  0.00     0.001 A 
ATOM     78  C   UNL     1     -11.672  -2.595  24.528  1.00  0.00     0.000 A 
ENDBRANCH  60  73
ENDBRANCH  34  35
ENDBRANCH  26  29
ENDBRANCH  24  25
ENDBRANCH  23  24
ENDBRANCH  22  23
ENDBRANCH  21  22
ENDBRANCH   3  21
TORSDOF 17
