REMARK SMILES Cc1ccc(-c2nn(CCC(=O)NCCCCNC(=O)c3ccc(-c4c5nc(c(-c6ccccc6)c6ccc([nH]6)c(-c6ccccc6)c6nc(c(-c7ccccc7)c7ccc4[nH]7)C=C6)C=C5)cc3)c(=O)c3noc(C)c23)cc1C
REMARK SMILES IDX 15 1 14 2 13 3 11 4 12 5 10 7 9 8 8 9 6 10 7 11 76 12 71 13
REMARK SMILES IDX 74 14 69 15 72 16 73 17 75 18 70 19 5 20 1 21 2 22 3 23
REMARK SMILES IDX 78 24 4 25 77 26 79 27 16 28 17 29 18 30 19 31 20 33 21 34
REMARK SMILES IDX 22 35 68 36 23 37 67 38 24 39 25 40 26 41 61 42 27 43 66 44
REMARK SMILES IDX 60 45 62 46 28 47 65 48 59 49 58 50 29 52 51 53 36 54 50 55
REMARK SMILES IDX 37 56 40 57 49 58 63 59 38 60 39 61 48 63 64 64 41 65 30 66
REMARK SMILES IDX 31 67 35 68 32 69 34 70 33 71 52 72 53 73 57 74 54 75 56 76
REMARK SMILES IDX 55 77 42 78 43 79 47 80 44 81 46 82 45 83
REMARK H PARENT 13 6 18 32 62 51 40 62
REMARK Flexibility Score: inf
ROOT
ATOM      1  C   UNL     1      -5.430  -4.594   0.914  1.00  0.00     0.023 C 
ENDROOT
BRANCH   1   2
ATOM      2  C   UNL     1      -5.221  -5.083  -0.516  1.00  0.00     0.116 C 
BRANCH   2   3
ATOM      3  N   UNL     1      -6.452  -4.965  -1.275  1.00  0.00    -0.356 N 
ATOM      4  C   UNL     1      -6.822  -4.041  -2.206  1.00  0.00     0.221 C 
ATOM      5  O   UNL     1      -7.989  -4.051  -2.603  1.00  0.00    -0.275 OA
ATOM      6  H   UNL     1      -7.123  -5.660  -1.089  1.00  0.00     0.163 HD
BRANCH   4   7
ATOM      7  C   UNL     1      -5.820  -3.063  -2.784  1.00  0.00     0.124 C 
BRANCH   7   8
ATOM      8  C   UNL     1      -5.919  -1.667  -2.175  1.00  0.00     0.158 C 
BRANCH   8   9
ATOM      9  N   UNL     1      -5.095  -1.487  -0.977  1.00  0.00    -0.227 N 
ATOM     10  C   UNL     1      -2.909  -1.104  -0.182  1.00  0.00     0.104 A 
ATOM     11  N   UNL     1      -3.718  -1.236  -1.199  1.00  0.00    -0.169 NA
ATOM     12  C   UNL     1      -3.397  -1.330   1.145  1.00  0.00     0.078 A 
ATOM     13  C   UNL     1      -4.775  -1.389   1.384  1.00  0.00     0.183 A 
ATOM     14  C   UNL     1      -2.816  -1.571   2.365  1.00  0.00     0.143 A 
ATOM     15  C   UNL     1      -5.730  -1.397   0.289  1.00  0.00     0.296 A 
ATOM     16  N   UNL     1      -5.048  -1.574   2.680  1.00  0.00    -0.074 NA
ATOM     17  O   UNL     1      -3.808  -1.696   3.296  1.00  0.00    -0.360 OA
ATOM     18  C   UNL     1      -1.439  -1.772   2.859  1.00  0.00     0.091 C 
ATOM     19  O   UNL     1      -6.943  -1.408   0.450  1.00  0.00    -0.265 OA
BRANCH  10  20
ATOM     20  C   UNL     1      -1.572  -0.506  -0.328  1.00  0.00     0.003 A 
ATOM     21  C   UNL     1       2.179   1.577   0.011  1.00  0.00     0.044 C 
ATOM     22  C   UNL     1       0.890   0.814  -0.144  1.00  0.00    -0.048 A 
ATOM     23  C   UNL     1      -0.307   1.543  -0.206  1.00  0.00     0.004 A 
ATOM     24  C   UNL     1       0.850  -0.598  -0.207  1.00  0.00    -0.048 A 
ATOM     25  C   UNL     1      -1.531   0.890  -0.296  1.00  0.00     0.011 A 
ATOM     26  C   UNL     1      -0.395  -1.254  -0.310  1.00  0.00     0.014 A 
ATOM     27  C   UNL     1       2.089  -1.447  -0.096  1.00  0.00     0.044 C 
ENDBRANCH  10  20
ENDBRANCH   8   9
ENDBRANCH   7   8
ENDBRANCH   4   7
ENDBRANCH   2   3
ENDBRANCH   1   2
BRANCH   1  28
ATOM     28  C   UNL     1      -5.579  -5.658   2.003  1.00  0.00     0.023 C 
BRANCH  28  29
ATOM     29  C   UNL     1      -4.314  -6.464   2.317  1.00  0.00     0.116 C 
BRANCH  29  30
ATOM     30  N   UNL     1      -3.173  -5.616   2.634  1.00  0.00    -0.352 N 
ATOM     31  C   UNL     1      -2.225  -5.686   3.616  1.00  0.00     0.251 C 
ATOM     32  H   UNL     1      -3.065  -4.848   2.027  1.00  0.00     0.163 HD
ATOM     33  O   UNL     1      -1.412  -4.769   3.720  1.00  0.00    -0.269 OA
BRANCH  31  34
ATOM     34  C   UNL     1      -2.137  -6.819   4.554  1.00  0.00     0.039 A 
ATOM     35  C   UNL     1      -1.836  -6.527   5.891  1.00  0.00     0.014 A 
ATOM     36  C   UNL     1      -2.225  -8.146   4.129  1.00  0.00     0.014 A 
ATOM     37  C   UNL     1      -1.676  -7.559   6.812  1.00  0.00     0.010 A 
ATOM     38  C   UNL     1      -2.072  -9.179   5.054  1.00  0.00     0.010 A 
ATOM     39  C   UNL     1      -1.820  -8.890   6.402  1.00  0.00    -0.014 A 
BRANCH  39  40
ATOM     40  C   UNL     1      -1.855  -9.920   7.457  1.00  0.00     0.031 A 
ATOM     41  C   UNL     1      -3.049 -10.825   7.376  1.00  0.00     0.074 A 
ATOM     42  C   UNL     1      -0.720 -10.396   8.013  1.00  0.00     0.049 A 
ATOM     43  N   UNL     1      -3.126 -11.837   6.559  1.00  0.00    -0.248 NA
ATOM     44  C   UNL     1      -4.331 -10.469   7.988  1.00  0.00     0.031 C 
ATOM     45  C   UNL     1       0.507 -10.671   7.254  1.00  0.00     0.029 A 
ATOM     46  N   UNL     1      -0.493 -10.966   9.245  1.00  0.00    -0.354 N 
ATOM     47  C   UNL     1      -4.453 -12.233   6.512  1.00  0.00     0.074 A 
ATOM     48  C   UNL     1      -5.162 -11.357   7.418  1.00  0.00     0.031 C 
ATOM     49  C   UNL     1       1.277 -11.514   7.972  1.00  0.00     0.029 A 
ATOM     50  C   UNL     1       0.670 -11.731   9.284  1.00  0.00     0.049 A 
ATOM     51  H   UNL     1      -1.091 -10.845  10.018  1.00  0.00     0.167 HD
ATOM     52  C   UNL     1      -4.892 -13.261   5.736  1.00  0.00     0.031 A 
ATOM     53  C   UNL     1       0.821 -12.845  10.055  1.00  0.00     0.031 A 
ATOM     54  C   UNL     1      -3.875 -13.940   4.990  1.00  0.00     0.049 A 
ATOM     55  C   UNL     1       0.064 -13.854   9.222  1.00  0.00     0.074 A 
ATOM     56  C   UNL     1      -3.382 -13.963   3.704  1.00  0.00     0.029 A 
ATOM     57  N   UNL     1      -3.093 -14.840   5.671  1.00  0.00    -0.354 N 
ATOM     58  N   UNL     1       0.483 -14.431   8.128  1.00  0.00    -0.248 NA
ATOM     59  C   UNL     1      -1.385 -13.921   9.431  1.00  0.00     0.031 C 
ATOM     60  C   UNL     1      -2.060 -14.503   3.816  1.00  0.00     0.029 A 
ATOM     61  C   UNL     1      -1.824 -14.737   5.170  1.00  0.00     0.049 A 
ATOM     62  H   UNL     1      -3.390 -15.447   6.387  1.00  0.00     0.167 HD
ATOM     63  C   UNL     1      -0.664 -14.641   7.359  1.00  0.00     0.074 A 
ATOM     64  C   UNL     1      -1.780 -14.332   8.234  1.00  0.00     0.031 C 
ATOM     65  C   UNL     1      -0.650 -14.855   6.009  1.00  0.00     0.031 A 
BRANCH  52  66
ATOM     66  C   UNL     1      -6.256 -13.836   5.764  1.00  0.00    -0.014 A 
ATOM     67  C   UNL     1      -6.432 -15.044   6.462  1.00  0.00     0.009 A 
ATOM     68  C   UNL     1      -7.293 -13.366   4.952  1.00  0.00     0.009 A 
ATOM     69  C   UNL     1      -7.595 -15.796   6.314  1.00  0.00     0.001 A 
ATOM     70  C   UNL     1      -8.469 -14.116   4.817  1.00  0.00     0.001 A 
ATOM     71  C   UNL     1      -8.611 -15.336   5.483  1.00  0.00     0.000 A 
ENDBRANCH  52  66
BRANCH  53  72
ATOM     72  C   UNL     1       0.579 -12.656  11.524  1.00  0.00    -0.014 A 
ATOM     73  C   UNL     1       1.217 -11.572  12.162  1.00  0.00     0.009 A 
ATOM     74  C   UNL     1      -0.247 -13.466  12.316  1.00  0.00     0.009 A 
ATOM     75  C   UNL     1       0.931 -11.229  13.487  1.00  0.00     0.001 A 
ATOM     76  C   UNL     1      -0.556 -13.110  13.636  1.00  0.00     0.001 A 
ATOM     77  C   UNL     1       0.015 -11.979  14.213  1.00  0.00     0.000 A 
ENDBRANCH  53  72
BRANCH  65  78
ATOM     78  C   UNL     1       0.693 -14.983   5.365  1.00  0.00    -0.014 A 
ATOM     79  C   UNL     1       1.517 -16.078   5.649  1.00  0.00     0.009 A 
ATOM     80  C   UNL     1       1.124 -14.041   4.414  1.00  0.00     0.009 A 
ATOM     81  C   UNL     1       2.727 -16.247   4.975  1.00  0.00     0.001 A 
ATOM     82  C   UNL     1       2.324 -14.222   3.724  1.00  0.00     0.001 A 
ATOM     83  C   UNL     1       3.122 -15.329   4.002  1.00  0.00     0.000 A 
ENDBRANCH  65  78
ENDBRANCH  39  40
ENDBRANCH  31  34
ENDBRANCH  29  30
ENDBRANCH  28  29
ENDBRANCH   1  28
TORSDOF 14
