REMARK SMILES Cc1cccc(C(=O)NCCCCNC(=O)c2ccc(-c3c4nc(c(-c5ccccc5)c5ccc([nH]5)c(-c5ccccc5)c5nc(c(-c6ccccc6)c6ccc3[nH]6)C=C5)C=C4)cc2)c1NC(=O)Cc1ccccc1
REMARK SMILES IDX 11 1 10 2 9 3 7 4 8 5 6 7 1 8 2 9 3 10 65 11 4 12 5 13 66 14
REMARK SMILES IDX 67 15 68 17 69 18 70 19 71 20 75 21 72 22 74 23 73 24 12 25
REMARK SMILES IDX 13 26 14 27 15 28 16 30 17 31 18 32 64 33 19 34 63 35 20 36
REMARK SMILES IDX 21 37 22 38 57 39 23 40 62 41 56 42 58 43 24 44 61 45 55 46
REMARK SMILES IDX 54 47 25 49 47 50 32 51 46 52 33 53 36 54 45 55 59 56 34 57
REMARK SMILES IDX 35 58 44 60 60 61 37 62 26 63 27 64 31 65 28 66 30 67 29 68
REMARK SMILES IDX 48 69 49 70 53 71 50 72 52 73 51 74 38 75 39 76 43 77 40 78
REMARK SMILES IDX 42 79 41 80
REMARK H PARENT 9 6 66 16 14 29 58 48 36 59
REMARK Flexibility Score: inf
ROOT
ATOM      1  C   UNL     1       2.221   3.953  -0.261  1.00  0.00     0.023 C 
ENDROOT
BRANCH   1   2
ATOM      2  C   UNL     1       1.497   3.714   1.083  1.00  0.00     0.116 C 
BRANCH   2   3
ATOM      3  N   UNL     1       0.045   3.839   1.183  1.00  0.00    -0.352 N 
ATOM      4  C   UNL     1      -0.929   2.862   1.317  1.00  0.00     0.253 C 
ATOM      5  O   UNL     1      -1.941   3.100   1.973  1.00  0.00    -0.269 OA
ATOM      6  H   UNL     1      -0.296   4.762   1.151  1.00  0.00     0.163 HD
BRANCH   4   7
ATOM      7  C   UNL     1      -0.794   1.530   0.682  1.00  0.00     0.063 A 
ATOM      8  C   UNL     1       1.862   0.049  -1.436  1.00  0.00     0.046 C 
ATOM      9  C   UNL     1       0.551   0.153  -0.708  1.00  0.00    -0.027 A 
ATOM     10  C   UNL     1       0.082  -0.989  -0.040  1.00  0.00     0.005 A 
ATOM     11  C   UNL     1      -0.131   1.366  -0.523  1.00  0.00     0.056 A 
ATOM     12  C   UNL     1      -0.918  -0.875   0.920  1.00  0.00     0.001 A 
ATOM     13  C   UNL     1      -1.286   0.398   1.350  1.00  0.00     0.016 A 
BRANCH  11  14
ATOM     14  N   UNL     1      -0.200   2.280  -1.600  1.00  0.00    -0.325 N 
ATOM     15  C   UNL     1      -1.138   3.211  -1.982  1.00  0.00     0.228 C 
ATOM     16  H   UNL     1       0.582   2.242  -2.198  1.00  0.00     0.169 HD
ATOM     17  O   UNL     1      -0.863   3.858  -3.003  1.00  0.00    -0.274 OA
BRANCH  15  18
ATOM     18  C   UNL     1      -2.504   3.391  -1.319  1.00  0.00     0.135 C 
BRANCH  18  19
ATOM     19  C   UNL     1      -2.889   4.808  -0.909  1.00  0.00    -0.039 A 
ATOM     20  C   UNL     1      -4.245   5.172  -0.864  1.00  0.00     0.004 A 
ATOM     21  C   UNL     1      -1.956   5.761  -0.490  1.00  0.00     0.004 A 
ATOM     22  C   UNL     1      -4.639   6.449  -0.444  1.00  0.00     0.000 A 
ATOM     23  C   UNL     1      -2.344   7.035  -0.066  1.00  0.00     0.000 A 
ATOM     24  C   UNL     1      -3.688   7.383  -0.045  1.00  0.00     0.000 A 
ENDBRANCH  18  19
ENDBRANCH  15  18
ENDBRANCH  11  14
ENDBRANCH   4   7
ENDBRANCH   2   3
ENDBRANCH   1   2
BRANCH   1  25
ATOM     25  C   UNL     1       1.814   5.089  -1.202  1.00  0.00     0.023 C 
BRANCH  25  26
ATOM     26  C   UNL     1       1.911   6.503  -0.652  1.00  0.00     0.116 C 
BRANCH  26  27
ATOM     27  N   UNL     1       2.974   7.318  -1.245  1.00  0.00    -0.352 N 
ATOM     28  C   UNL     1       3.363   8.601  -0.895  1.00  0.00     0.251 C 
ATOM     29  H   UNL     1       3.474   6.903  -1.985  1.00  0.00     0.163 HD
ATOM     30  O   UNL     1       4.287   9.169  -1.468  1.00  0.00    -0.269 OA
BRANCH  28  31
ATOM     31  C   UNL     1       2.731   9.218   0.292  1.00  0.00     0.039 A 
ATOM     32  C   UNL     1       3.567   9.501   1.374  1.00  0.00     0.014 A 
ATOM     33  C   UNL     1       1.348   9.162   0.447  1.00  0.00     0.014 A 
ATOM     34  C   UNL     1       3.047   9.414   2.658  1.00  0.00     0.010 A 
ATOM     35  C   UNL     1       0.847   8.991   1.722  1.00  0.00     0.010 A 
ATOM     36  C   UNL     1       1.719   9.013   2.813  1.00  0.00    -0.014 A 
BRANCH  36  37
ATOM     37  C   UNL     1       1.221   8.447   4.061  1.00  0.00     0.031 A 
ATOM     38  C   UNL     1       0.431   9.286   4.980  1.00  0.00     0.074 A 
ATOM     39  C   UNL     1       1.524   7.170   4.395  1.00  0.00     0.049 A 
ATOM     40  N   UNL     1       0.403   9.127   6.260  1.00  0.00    -0.248 NA
ATOM     41  C   UNL     1      -0.315  10.454   4.524  1.00  0.00     0.031 C 
ATOM     42  C   UNL     1       0.994   6.404   5.521  1.00  0.00     0.029 A 
ATOM     43  N   UNL     1       2.579   6.383   3.921  1.00  0.00    -0.354 N 
ATOM     44  C   UNL     1      -0.574   9.959   6.753  1.00  0.00     0.074 A 
ATOM     45  C   UNL     1      -0.880  10.856   5.666  1.00  0.00     0.031 C 
ATOM     46  C   UNL     1       1.888   5.459   5.853  1.00  0.00     0.029 A 
ATOM     47  C   UNL     1       3.067   5.673   5.029  1.00  0.00     0.049 A 
ATOM     48  H   UNL     1       2.911   6.336   2.995  1.00  0.00     0.167 HD
ATOM     49  C   UNL     1      -1.114   9.700   7.976  1.00  0.00     0.031 A 
ATOM     50  C   UNL     1       4.346   5.772   5.492  1.00  0.00     0.031 A 
ATOM     51  C   UNL     1      -0.360   8.669   8.689  1.00  0.00     0.049 A 
ATOM     52  C   UNL     1       4.423   6.208   6.941  1.00  0.00     0.074 A 
ATOM     53  C   UNL     1      -0.593   7.328   8.941  1.00  0.00     0.029 A 
ATOM     54  N   UNL     1       0.968   8.911   9.025  1.00  0.00    -0.354 N 
ATOM     55  N   UNL     1       3.431   6.751   7.590  1.00  0.00    -0.248 NA
ATOM     56  C   UNL     1       5.640   6.132   7.745  1.00  0.00     0.031 C 
ATOM     57  C   UNL     1       0.638   6.742   9.341  1.00  0.00     0.029 A 
ATOM     58  C   UNL     1       1.602   7.735   9.376  1.00  0.00     0.049 A 
ATOM     59  H   UNL     1       1.397   9.797   9.015  1.00  0.00     0.167 HD
ATOM     60  C   UNL     1       3.846   7.107   8.847  1.00  0.00     0.074 A 
ATOM     61  C   UNL     1       5.234   6.686   8.902  1.00  0.00     0.031 C 
ATOM     62  C   UNL     1       3.016   7.739   9.728  1.00  0.00     0.031 A 
BRANCH  49  63
ATOM     63  C   UNL     1      -2.465  10.204   8.444  1.00  0.00    -0.014 A 
ATOM     64  C   UNL     1      -3.022   9.687   9.630  1.00  0.00     0.009 A 
ATOM     65  C   UNL     1      -3.290  11.091   7.728  1.00  0.00     0.009 A 
ATOM     66  C   UNL     1      -4.325  10.005  10.046  1.00  0.00     0.001 A 
ATOM     67  C   UNL     1      -4.586  11.426   8.143  1.00  0.00     0.001 A 
ATOM     68  C   UNL     1      -5.110  10.873   9.299  1.00  0.00     0.000 A 
ENDBRANCH  49  63
BRANCH  50  69
ATOM     69  C   UNL     1       5.356   6.133   4.463  1.00  0.00    -0.014 A 
ATOM     70  C   UNL     1       5.665   5.190   3.464  1.00  0.00     0.009 A 
ATOM     71  C   UNL     1       5.731   7.469   4.262  1.00  0.00     0.009 A 
ATOM     72  C   UNL     1       6.237   5.591   2.253  1.00  0.00     0.001 A 
ATOM     73  C   UNL     1       6.311   7.864   3.050  1.00  0.00     0.001 A 
ATOM     74  C   UNL     1       6.530   6.934   2.035  1.00  0.00     0.000 A 
ENDBRANCH  50  69
BRANCH  62  75
ATOM     75  C   UNL     1       3.431   8.379  11.031  1.00  0.00    -0.014 A 
ATOM     76  C   UNL     1       4.729   8.823  11.318  1.00  0.00     0.009 A 
ATOM     77  C   UNL     1       2.434   8.685  11.986  1.00  0.00     0.009 A 
ATOM     78  C   UNL     1       5.024   9.493  12.514  1.00  0.00     0.001 A 
ATOM     79  C   UNL     1       2.715   9.392  13.158  1.00  0.00     0.001 A 
ATOM     80  C   UNL     1       4.017   9.787  13.428  1.00  0.00     0.000 A 
ENDBRANCH  62  75
ENDBRANCH  36  37
ENDBRANCH  28  31
ENDBRANCH  26  27
ENDBRANCH  25  26
ENDBRANCH   1  25
TORSDOF 14
