REMARK SMILES O=C(NCCCCNC(=O)[C@@H]1CN(c2nc(-c3ccccc3)no2)CC[NH2+]1)c1ccc(-c2c3nc(c(-c4ccccc4)c4ccc([nH]4)c(-c4ccccc4)c4nc(c(-c5ccccc5)c5ccc2[nH]5)C=C4)C=C3)cc1
REMARK SMILES IDX 5 1 4 2 3 3 1 4 2 5 28 7 29 8 75 9 30 10 74 11 31 12 32 13
REMARK SMILES IDX 33 14 68 15 34 16 73 17 67 18 69 19 35 20 72 21 66 22 65 23
REMARK SMILES IDX 36 25 58 26 43 27 57 28 44 29 47 30 56 31 70 32 45 33 46 34
REMARK SMILES IDX 55 36 71 37 48 38 37 39 38 40 42 41 39 42 41 43 40 44 59 45
REMARK SMILES IDX 60 46 64 47 61 48 63 49 62 50 49 51 50 52 54 53 51 54 53 55
REMARK SMILES IDX 52 56 6 57 7 58 8 59 9 60 10 62 11 63 12 64 27 65 13 66
REMARK SMILES IDX 26 67 25 70 14 71 15 72 24 73 16 74 23 75 17 76 18 77 22 78
REMARK SMILES IDX 19 79 21 80 20 81
REMARK H PARENT 3 6 69 24 47 35 8 61 27 68 27 69
REMARK Flexibility Score: inf
ROOT
ATOM      1  C   UNL     1       4.871  -1.055  -2.628  1.00  0.00     0.023 C 
ENDROOT
BRANCH   1   2
ATOM      2  C   UNL     1       4.576  -0.225  -1.385  1.00  0.00     0.116 C 
BRANCH   2   3
ATOM      3  N   UNL     1       3.156   0.011  -1.174  1.00  0.00    -0.352 N 
ATOM      4  O   UNL     1       1.210   0.041  -0.026  1.00  0.00    -0.269 OA
ATOM      5  C   UNL     1       2.431  -0.082  -0.009  1.00  0.00     0.251 C 
ATOM      6  H   UNL     1       2.645   0.272  -1.973  1.00  0.00     0.163 HD
BRANCH   5   7
ATOM      7  C   UNL     1       3.129  -0.366   1.262  1.00  0.00     0.039 A 
ATOM      8  C   UNL     1       4.289   0.331   1.606  1.00  0.00     0.014 A 
ATOM      9  C   UNL     1       2.622  -1.354   2.111  1.00  0.00     0.014 A 
ATOM     10  C   UNL     1       5.019  -0.058   2.722  1.00  0.00     0.010 A 
ATOM     11  C   UNL     1       3.316  -1.688   3.277  1.00  0.00     0.010 A 
ATOM     12  C   UNL     1       4.537  -1.065   3.575  1.00  0.00    -0.014 A 
BRANCH  12  13
ATOM     13  C   UNL     1       5.307  -1.403   4.798  1.00  0.00     0.031 A 
ATOM     14  C   UNL     1       5.955  -2.749   4.966  1.00  0.00     0.074 A 
ATOM     15  C   UNL     1       5.458  -0.457   5.744  1.00  0.00     0.049 A 
ATOM     16  N   UNL     1       6.702  -3.183   5.951  1.00  0.00    -0.248 NA
ATOM     17  C   UNL     1       5.738  -3.738   3.898  1.00  0.00     0.031 C 
ATOM     18  C   UNL     1       4.872   0.886   5.695  1.00  0.00     0.029 A 
ATOM     19  N   UNL     1       6.170  -0.466   6.915  1.00  0.00    -0.354 N 
ATOM     20  C   UNL     1       7.035  -4.492   5.630  1.00  0.00     0.074 A 
ATOM     21  C   UNL     1       6.387  -4.794   4.371  1.00  0.00     0.031 C 
ATOM     22  C   UNL     1       5.292   1.587   6.757  1.00  0.00     0.029 A 
ATOM     23  C   UNL     1       6.125   0.729   7.591  1.00  0.00     0.049 A 
ATOM     24  H   UNL     1       6.665  -1.252   7.240  1.00  0.00     0.167 HD
ATOM     25  C   UNL     1       7.816  -5.361   6.317  1.00  0.00     0.031 A 
ATOM     26  C   UNL     1       6.683   1.094   8.758  1.00  0.00     0.031 A 
ATOM     27  C   UNL     1       8.456  -5.063   7.572  1.00  0.00     0.049 A 
ATOM     28  C   UNL     1       7.518   0.102   9.510  1.00  0.00     0.074 A 
ATOM     29  C   UNL     1       9.270  -5.877   8.341  1.00  0.00     0.029 A 
ATOM     30  N   UNL     1       8.354  -3.854   8.242  1.00  0.00    -0.354 N 
ATOM     31  N   UNL     1       7.836  -1.126   9.181  1.00  0.00    -0.248 NA
ATOM     32  C   UNL     1       8.073   0.548  10.795  1.00  0.00     0.031 C 
ATOM     33  C   UNL     1       9.628  -5.174   9.497  1.00  0.00     0.029 A 
ATOM     34  C   UNL     1       9.077  -3.905   9.423  1.00  0.00     0.049 A 
ATOM     35  H   UNL     1       7.843  -3.074   7.926  1.00  0.00     0.167 HD
ATOM     36  C   UNL     1       8.637  -1.597  10.211  1.00  0.00     0.074 A 
ATOM     37  C   UNL     1       8.778  -0.513  11.162  1.00  0.00     0.031 C 
ATOM     38  C   UNL     1       9.200  -2.820  10.360  1.00  0.00     0.031 A 
BRANCH  25  39
ATOM     39  C   UNL     1       8.011  -6.732   5.732  1.00  0.00    -0.014 A 
ATOM     40  C   UNL     1       8.837  -6.933   4.614  1.00  0.00     0.009 A 
ATOM     41  C   UNL     1       7.407  -7.845   6.338  1.00  0.00     0.009 A 
ATOM     42  C   UNL     1       9.031  -8.218   4.100  1.00  0.00     0.001 A 
ATOM     43  C   UNL     1       7.622  -9.130   5.837  1.00  0.00     0.001 A 
ATOM     44  C   UNL     1       8.428  -9.315   4.715  1.00  0.00     0.000 A 
ENDBRANCH  25  39
BRANCH  26  45
ATOM     45  C   UNL     1       6.452   2.461   9.292  1.00  0.00    -0.014 A 
ATOM     46  C   UNL     1       7.493   3.399   9.334  1.00  0.00     0.009 A 
ATOM     47  C   UNL     1       5.180   2.833   9.755  1.00  0.00     0.009 A 
ATOM     48  C   UNL     1       7.270   4.677   9.852  1.00  0.00     0.001 A 
ATOM     49  C   UNL     1       4.953   4.121  10.243  1.00  0.00     0.001 A 
ATOM     50  C   UNL     1       6.000   5.038  10.300  1.00  0.00     0.000 A 
ENDBRANCH  26  45
BRANCH  38  51
ATOM     51  C   UNL     1      10.035  -3.034  11.589  1.00  0.00    -0.014 A 
ATOM     52  C   UNL     1       9.442  -3.176  12.853  1.00  0.00     0.009 A 
ATOM     53  C   UNL     1      11.432  -3.103  11.477  1.00  0.00     0.009 A 
ATOM     54  C   UNL     1      10.237  -3.346  13.988  1.00  0.00     0.001 A 
ATOM     55  C   UNL     1      12.222  -3.299  12.611  1.00  0.00     0.001 A 
ATOM     56  C   UNL     1      11.624  -3.410  13.866  1.00  0.00     0.000 A 
ENDBRANCH  38  51
ENDBRANCH  12  13
ENDBRANCH   5   7
ENDBRANCH   2   3
ENDBRANCH   1   2
BRANCH   1  57
ATOM     57  C   UNL     1       4.367  -0.462  -3.946  1.00  0.00     0.023 C 
BRANCH  57  58
ATOM     58  C   UNL     1       4.808   0.976  -4.208  1.00  0.00     0.116 C 
BRANCH  58  59
ATOM     59  N   UNL     1       6.248   1.080  -4.339  1.00  0.00    -0.351 N 
ATOM     60  C   UNL     1       7.010   1.328  -5.441  1.00  0.00     0.280 C 
ATOM     61  H   UNL     1       6.753   0.952  -3.503  1.00  0.00     0.163 HD
ATOM     62  O   UNL     1       8.238   1.328  -5.308  1.00  0.00    -0.268 OA
BRANCH  60  63
ATOM     63  C   UNL     1       6.357   1.589  -6.806  1.00  0.00     0.292 C 
ATOM     64  C   UNL     1       6.656   0.368  -7.700  1.00  0.00     0.197 C 
ATOM     65  N   UNL     1       6.902   2.874  -7.345  1.00  0.00    -0.333 N 
ATOM     66  N   UNL     1       6.250   0.628  -9.080  1.00  0.00    -0.312 N 
ATOM     67  C   UNL     1       6.426   3.061  -8.729  1.00  0.00     0.283 C 
ATOM     68  H   UNL     1       7.922   2.842  -7.337  1.00  0.00     0.347 HD
ATOM     69  H   UNL     1       6.584   3.651  -6.766  1.00  0.00     0.347 HD
ATOM     70  C   UNL     1       6.736   1.873  -9.673  1.00  0.00     0.183 C 
BRANCH  66  71
ATOM     71  C   UNL     1       5.242  -0.065  -9.645  1.00  0.00     0.324 A 
ATOM     72  N   UNL     1       4.286  -0.762  -9.077  1.00  0.00    -0.171 NA
ATOM     73  O   UNL     1       5.171  -0.085 -11.012  1.00  0.00    -0.315 OA
ATOM     74  C   UNL     1       3.568  -1.218 -10.159  1.00  0.00     0.204 A 
ATOM     75  N   UNL     1       4.072  -0.867 -11.351  1.00  0.00    -0.055 NA
BRANCH  74  76
ATOM     76  C   UNL     1       2.312  -1.927 -10.029  1.00  0.00     0.023 A 
ATOM     77  C   UNL     1       2.220  -3.286 -10.348  1.00  0.00     0.012 A 
ATOM     78  C   UNL     1       1.160  -1.225  -9.649  1.00  0.00     0.012 A 
ATOM     79  C   UNL     1       0.984  -3.935 -10.295  1.00  0.00     0.001 A 
ATOM     80  C   UNL     1      -0.075  -1.873  -9.607  1.00  0.00     0.001 A 
ATOM     81  C   UNL     1      -0.163  -3.227  -9.933  1.00  0.00     0.000 A 
ENDBRANCH  74  76
ENDBRANCH  66  71
ENDBRANCH  60  63
ENDBRANCH  58  59
ENDBRANCH  57  58
ENDBRANCH   1  57
TORSDOF 13
