REMARK SMILES CCC[C@@H]1SC[C@H](C(=O)NCCCCNC(=O)c2ccc(-c3c4nc(c(-c5ccccc5)c5ccc([nH]5)c(-c5ccccc5)c5nc(c(-c6ccccc6)c6ccc3[nH]6)C=C5)C=C4)cc2)N1C(=O)C[NH+]1CCC([NH3+])CC1
REMARK SMILES IDX 11 1 10 2 8 3 9 4 7 6 4 7 5 8 66 9 6 10 3 11 2 12 1 13 67 14
REMARK SMILES IDX 68 15 69 16 70 17 71 18 76 19 72 21 75 22 73 23 74 24 12 28
REMARK SMILES IDX 13 29 14 30 15 31 16 32 17 34 18 35 19 36 65 37 20 38 64 39
REMARK SMILES IDX 21 40 22 41 23 42 58 43 24 44 63 45 57 46 59 47 25 48 62 49
REMARK SMILES IDX 56 50 55 51 26 53 48 54 33 55 47 56 34 57 37 58 46 59 60 60
REMARK SMILES IDX 35 61 36 62 45 64 61 65 38 66 27 67 28 68 32 69 29 70 31 71
REMARK SMILES IDX 30 72 49 73 50 74 54 75 51 76 53 77 52 78 39 79 40 80 44 81
REMARK SMILES IDX 41 82 43 83 42 84
REMARK H PARENT 10 5 70 20 74 25 74 26 74 27 15 33 59 52 37 63
REMARK Flexibility Score: inf
ROOT
ATOM      1  C   UNL     1      -4.061  -3.558   2.576  1.00  0.00     0.116 C 
ENDROOT
BRANCH   1   2
ATOM      2  N   UNL     1      -4.062  -2.339   3.370  1.00  0.00    -0.354 N 
ATOM      3  C   UNL     1      -3.069  -1.411   3.565  1.00  0.00     0.243 C 
ATOM      4  O   UNL     1      -3.282  -0.485   4.350  1.00  0.00    -0.273 OA
ATOM      5  H   UNL     1      -4.906  -2.150   3.841  1.00  0.00     0.163 HD
BRANCH   3   6
ATOM      6  C   UNL     1      -1.769  -1.509   2.738  1.00  0.00     0.185 C 
ATOM      7  C   UNL     1       0.516  -0.633   2.732  1.00  0.00     0.144 C 
ATOM      8  S   UNL     1      -0.392   0.510   1.637  1.00  0.00    -0.134 SA
ATOM      9  N   UNL     1      -0.508  -1.350   3.491  1.00  0.00    -0.313 N 
ATOM     10  C   UNL     1      -1.883  -0.490   1.605  1.00  0.00     0.107 C 
BRANCH   7  11
ATOM     11  C   UNL     1       1.622   0.155   3.450  1.00  0.00     0.036 C 
BRANCH  11  12
ATOM     12  C   UNL     1       3.024  -0.281   2.977  1.00  0.00    -0.000 C 
ATOM     13  C   UNL     1       3.311   0.068   1.520  1.00  0.00     0.004 C 
ENDBRANCH  11  12
ENDBRANCH   7  11
BRANCH   9  14
ATOM     14  C   UNL     1      -0.321  -2.321   4.468  1.00  0.00     0.279 C 
ATOM     15  O   UNL     1      -1.271  -3.036   4.822  1.00  0.00    -0.268 OA
BRANCH  14  16
ATOM     16  C   UNL     1       1.020  -2.584   5.136  1.00  0.00     0.363 C 
BRANCH  16  17
ATOM     17  N   UNL     1       1.974  -3.439   4.394  1.00  0.00    -0.327 N 
ATOM     18  C   UNL     1       2.589  -4.438   5.287  1.00  0.00     0.268 C 
ATOM     19  C   UNL     1       1.540  -4.075   3.148  1.00  0.00     0.268 C 
ATOM     20  H   UNL     1       2.650  -2.751   4.063  1.00  0.00     0.348 HD
ATOM     21  C   UNL     1       1.679  -5.644   5.563  1.00  0.00     0.126 C 
ATOM     22  C   UNL     1       0.624  -5.282   3.308  1.00  0.00     0.126 C 
ATOM     23  C   UNL     1       1.238  -6.307   4.255  1.00  0.00     0.192 C 
BRANCH  23  24
ATOM     24  N   UNL     1       0.272  -7.381   4.495  1.00  0.00    -0.355 N 
ATOM     25  H   UNL     1      -0.568  -6.993   4.924  1.00  0.00     0.344 HD
ATOM     26  H   UNL     1       0.683  -8.075   5.120  1.00  0.00     0.344 HD
ATOM     27  H   UNL     1       0.029  -7.824   3.609  1.00  0.00     0.344 HD
ENDBRANCH  23  24
ENDBRANCH  16  17
ENDBRANCH  14  16
ENDBRANCH   9  14
ENDBRANCH   3   6
ENDBRANCH   1   2
BRANCH   1  28
ATOM     28  C   UNL     1      -3.868  -4.819   3.422  1.00  0.00     0.023 C 
BRANCH  28  29
ATOM     29  C   UNL     1      -4.981  -5.093   4.437  1.00  0.00     0.023 C 
BRANCH  29  30
ATOM     30  C   UNL     1      -6.387  -5.189   3.854  1.00  0.00     0.116 C 
BRANCH  30  31
ATOM     31  N   UNL     1      -6.549  -6.287   2.913  1.00  0.00    -0.352 N 
ATOM     32  C   UNL     1      -7.629  -7.124   2.752  1.00  0.00     0.251 C 
ATOM     33  H   UNL     1      -5.786  -6.453   2.313  1.00  0.00     0.163 HD
ATOM     34  O   UNL     1      -7.572  -8.074   1.976  1.00  0.00    -0.269 OA
BRANCH  32  35
ATOM     35  C   UNL     1      -8.852  -6.897   3.552  1.00  0.00     0.039 A 
ATOM     36  C   UNL     1      -9.414  -7.970   4.250  1.00  0.00     0.014 A 
ATOM     37  C   UNL     1      -9.424  -5.626   3.635  1.00  0.00     0.014 A 
ATOM     38  C   UNL     1     -10.504  -7.752   5.097  1.00  0.00     0.010 A 
ATOM     39  C   UNL     1     -10.471  -5.399   4.523  1.00  0.00     0.010 A 
ATOM     40  C   UNL     1     -11.016  -6.456   5.270  1.00  0.00    -0.014 A 
BRANCH  40  41
ATOM     41  C   UNL     1     -12.120  -6.166   6.219  1.00  0.00     0.031 A 
ATOM     42  C   UNL     1     -13.434  -5.654   5.699  1.00  0.00     0.074 A 
ATOM     43  C   UNL     1     -11.915  -6.267   7.547  1.00  0.00     0.049 A 
ATOM     44  N   UNL     1     -14.453  -5.167   6.360  1.00  0.00    -0.248 NA
ATOM     45  C   UNL     1     -13.615  -5.669   4.237  1.00  0.00     0.031 C 
ATOM     46  C   UNL     1     -10.685  -6.740   8.186  1.00  0.00     0.029 A 
ATOM     47  N   UNL     1     -12.736  -5.952   8.602  1.00  0.00    -0.354 N 
ATOM     48  C   UNL     1     -15.383  -4.796   5.398  1.00  0.00     0.074 A 
ATOM     49  C   UNL     1     -14.796  -5.083   4.107  1.00  0.00     0.031 C 
ATOM     50  C   UNL     1     -10.834  -6.686   9.521  1.00  0.00     0.029 A 
ATOM     51  C   UNL     1     -12.147  -6.131   9.831  1.00  0.00     0.049 A 
ATOM     52  H   UNL     1     -13.659  -5.628   8.489  1.00  0.00     0.167 HD
ATOM     53  C   UNL     1     -16.620  -4.275   5.573  1.00  0.00     0.031 A 
ATOM     54  C   UNL     1     -12.604  -5.854  11.068  1.00  0.00     0.031 A 
ATOM     55  C   UNL     1     -17.212  -4.004   6.855  1.00  0.00     0.049 A 
ATOM     56  C   UNL     1     -13.973  -5.253  11.233  1.00  0.00     0.074 A 
ATOM     57  C   UNL     1     -18.468  -3.493   7.132  1.00  0.00     0.029 A 
ATOM     58  N   UNL     1     -16.594  -4.233   8.072  1.00  0.00    -0.354 N 
ATOM     59  N   UNL     1     -14.848  -4.927  10.314  1.00  0.00    -0.248 NA
ATOM     60  C   UNL     1     -14.420  -4.988  12.609  1.00  0.00     0.031 C 
ATOM     61  C   UNL     1     -18.599  -3.386   8.520  1.00  0.00     0.029 A 
ATOM     62  C   UNL     1     -17.442  -3.874   9.104  1.00  0.00     0.049 A 
ATOM     63  H   UNL     1     -15.686  -4.598   8.186  1.00  0.00     0.167 HD
ATOM     64  C   UNL     1     -15.960  -4.458  11.000  1.00  0.00     0.074 A 
ATOM     65  C   UNL     1     -15.653  -4.544  12.412  1.00  0.00     0.031 C 
ATOM     66  C   UNL     1     -17.133  -3.998  10.504  1.00  0.00     0.031 A 
BRANCH  53  67
ATOM     67  C   UNL     1     -17.422  -3.964   4.343  1.00  0.00    -0.014 A 
ATOM     68  C   UNL     1     -17.988  -4.991   3.572  1.00  0.00     0.009 A 
ATOM     69  C   UNL     1     -17.662  -2.629   3.981  1.00  0.00     0.009 A 
ATOM     70  C   UNL     1     -18.756  -4.688   2.446  1.00  0.00     0.001 A 
ATOM     71  C   UNL     1     -18.452  -2.328   2.870  1.00  0.00     0.001 A 
ATOM     72  C   UNL     1     -18.992  -3.357   2.101  1.00  0.00     0.000 A 
ENDBRANCH  53  67
BRANCH  54  73
ATOM     73  C   UNL     1     -11.761  -6.133  12.260  1.00  0.00    -0.014 A 
ATOM     74  C   UNL     1     -12.104  -7.163  13.149  1.00  0.00     0.009 A 
ATOM     75  C   UNL     1     -10.630  -5.348  12.536  1.00  0.00     0.009 A 
ATOM     76  C   UNL     1     -11.354  -7.378  14.308  1.00  0.00     0.001 A 
ATOM     77  C   UNL     1      -9.865  -5.584  13.680  1.00  0.00     0.001 A 
ATOM     78  C   UNL     1     -10.235  -6.590  14.571  1.00  0.00     0.000 A 
ENDBRANCH  54  73
BRANCH  66  79
ATOM     79  C   UNL     1     -18.203  -3.621  11.486  1.00  0.00    -0.014 A 
ATOM     80  C   UNL     1     -18.140  -2.425  12.215  1.00  0.00     0.009 A 
ATOM     81  C   UNL     1     -19.326  -4.452  11.631  1.00  0.00     0.009 A 
ATOM     82  C   UNL     1     -19.173  -2.079  13.088  1.00  0.00     0.001 A 
ATOM     83  C   UNL     1     -20.368  -4.091  12.486  1.00  0.00     0.001 A 
ATOM     84  C   UNL     1     -20.288  -2.908  13.218  1.00  0.00     0.000 A 
ENDBRANCH  66  79
ENDBRANCH  40  41
ENDBRANCH  32  35
ENDBRANCH  30  31
ENDBRANCH  29  30
ENDBRANCH  28  29
ENDBRANCH   1  28
TORSDOF 17
