REMARK SMILES Cc1n[nH]c(CCC(=O)NCCCCNC(=O)c2ccc(-c3c4nc(c(-c5ccccc5)c5ccc([nH]5)c(-c5ccccc5)c5nc(c(-c6ccccc6)c6ccc3[nH]6)C=C5)C=C4)cc2)c1C
REMARK SMILES IDX 12 1 11 2 10 3 8 4 9 5 7 7 6 8 5 9 1 10 2 11 3 12 66 13 4 14
REMARK SMILES IDX 67 15 13 17 14 18 15 19 16 20 17 22 18 23 19 24 65 25 20 26
REMARK SMILES IDX 64 27 21 28 22 29 23 30 58 31 24 32 63 33 57 34 59 35 25 36
REMARK SMILES IDX 62 37 56 38 55 39 26 41 48 42 33 43 47 44 34 45 37 46 46 47
REMARK SMILES IDX 60 48 35 49 36 50 45 52 61 53 38 54 27 55 28 56 32 57 29 58
REMARK SMILES IDX 31 59 30 60 49 61 50 62 54 63 51 64 53 65 52 66 39 67 40 68
REMARK SMILES IDX 44 69 41 70 43 71 42 72
REMARK H PARENT 10 6 4 16 15 21 59 40 37 51
REMARK Flexibility Score: inf
ROOT
ATOM      1  C   UNL     1      -0.142   1.563  -0.055  1.00  0.00     0.023 C 
ENDROOT
BRANCH   1   2
ATOM      2  C   UNL     1      -1.324   2.526  -0.048  1.00  0.00     0.116 C 
BRANCH   2   3
ATOM      3  N   UNL     1      -0.866   3.902  -0.179  1.00  0.00    -0.356 N 
ATOM      4  C   UNL     1      -0.521   4.605  -1.300  1.00  0.00     0.220 C 
ATOM      5  O   UNL     1       0.088   5.668  -1.149  1.00  0.00    -0.275 OA
ATOM      6  H   UNL     1      -0.793   4.401   0.666  1.00  0.00     0.163 HD
BRANCH   4   7
ATOM      7  C   UNL     1      -0.929   4.136  -2.688  1.00  0.00     0.106 C 
BRANCH   7   8
ATOM      8  C   UNL     1       0.244   3.759  -3.602  1.00  0.00     0.066 C 
BRANCH   8   9
ATOM      9  C   UNL     1       0.748   2.370  -3.380  1.00  0.00     0.039 A 
ATOM     10  C   UNL     1       2.341  -0.550  -1.837  1.00  0.00     0.069 C 
ATOM     11  C   UNL     1       1.637   0.467  -2.661  1.00  0.00     0.062 A 
ATOM     12  N   UNL     1       0.574   0.111  -3.390  1.00  0.00    -0.181 NA
ATOM     13  C   UNL     1       1.835   1.881  -2.672  1.00  0.00    -0.007 A 
ATOM     14  N   UNL     1       0.096   1.268  -3.864  1.00  0.00    -0.282 N 
ATOM     15  C   UNL     1       2.839   2.662  -1.901  1.00  0.00     0.048 C 
ATOM     16  H   UNL     1      -0.654   1.322  -4.500  1.00  0.00     0.190 HD
ENDBRANCH   8   9
ENDBRANCH   7   8
ENDBRANCH   4   7
ENDBRANCH   2   3
ENDBRANCH   1   2
BRANCH   1  17
ATOM     17  C   UNL     1       0.723   1.432   1.201  1.00  0.00     0.023 C 
BRANCH  17  18
ATOM     18  C   UNL     1       0.258   0.323   2.126  1.00  0.00     0.116 C 
BRANCH  18  19
ATOM     19  N   UNL     1       0.344  -1.038   1.557  1.00  0.00    -0.352 N 
ATOM     20  C   UNL     1      -0.179  -2.220   2.075  1.00  0.00     0.251 C 
ATOM     21  H   UNL     1       0.831  -1.120   0.706  1.00  0.00     0.163 HD
ATOM     22  O   UNL     1       0.192  -3.329   1.708  1.00  0.00    -0.269 OA
BRANCH  20  23
ATOM     23  C   UNL     1      -1.268  -2.079   3.047  1.00  0.00     0.039 A 
ATOM     24  C   UNL     1      -1.238  -2.603   4.346  1.00  0.00     0.014 A 
ATOM     25  C   UNL     1      -2.195  -1.132   2.662  1.00  0.00     0.014 A 
ATOM     26  C   UNL     1      -2.077  -2.033   5.305  1.00  0.00     0.010 A 
ATOM     27  C   UNL     1      -2.716  -0.376   3.658  1.00  0.00     0.010 A 
ATOM     28  C   UNL     1      -2.781  -0.877   4.952  1.00  0.00    -0.014 A 
BRANCH  28  29
ATOM     29  C   UNL     1      -3.518  -0.027   5.872  1.00  0.00     0.031 A 
ATOM     30  C   UNL     1      -2.708   0.572   6.966  1.00  0.00     0.074 A 
ATOM     31  C   UNL     1      -4.708   0.493   5.486  1.00  0.00     0.049 A 
ATOM     32  N   UNL     1      -2.771   0.296   8.224  1.00  0.00    -0.248 NA
ATOM     33  C   UNL     1      -1.600   1.481   6.618  1.00  0.00     0.031 C 
ATOM     34  C   UNL     1      -5.428   0.301   4.212  1.00  0.00     0.029 A 
ATOM     35  N   UNL     1      -5.431   1.476   6.069  1.00  0.00    -0.354 N 
ATOM     36  C   UNL     1      -1.887   1.169   8.853  1.00  0.00     0.074 A 
ATOM     37  C   UNL     1      -1.033   1.679   7.812  1.00  0.00     0.031 C 
ATOM     38  C   UNL     1      -6.281   1.328   4.012  1.00  0.00     0.029 A 
ATOM     39  C   UNL     1      -6.319   2.126   5.221  1.00  0.00     0.049 A 
ATOM     40  H   UNL     1      -5.336   1.711   7.020  1.00  0.00     0.167 HD
ATOM     41  C   UNL     1      -2.125   1.628  10.116  1.00  0.00     0.031 A 
ATOM     42  C   UNL     1      -6.997   3.269   5.489  1.00  0.00     0.031 A 
ATOM     43  C   UNL     1      -3.249   0.941  10.713  1.00  0.00     0.049 A 
ATOM     44  C   UNL     1      -6.990   3.426   6.969  1.00  0.00     0.074 A 
ATOM     45  C   UNL     1      -3.558  -0.384  10.955  1.00  0.00     0.029 A 
ATOM     46  N   UNL     1      -4.452   1.615  10.722  1.00  0.00    -0.354 N 
ATOM     47  N   UNL     1      -7.569   2.579   7.776  1.00  0.00    -0.248 NA
ATOM     48  C   UNL     1      -5.911   4.205   7.561  1.00  0.00     0.031 C 
ATOM     49  C   UNL     1      -4.925  -0.508  10.565  1.00  0.00     0.029 A 
ATOM     50  C   UNL     1      -5.403   0.761  10.224  1.00  0.00     0.049 A 
ATOM     51  H   UNL     1      -4.601   2.538  11.029  1.00  0.00     0.167 HD
ATOM     52  C   UNL     1      -6.655   2.386   8.805  1.00  0.00     0.074 A 
ATOM     53  C   UNL     1      -5.699   3.488   8.670  1.00  0.00     0.031 C 
ATOM     54  C   UNL     1      -6.560   1.189   9.463  1.00  0.00     0.031 A 
BRANCH  41  55
ATOM     55  C   UNL     1      -1.664   2.962  10.656  1.00  0.00    -0.014 A 
ATOM     56  C   UNL     1      -1.969   3.279  11.994  1.00  0.00     0.009 A 
ATOM     57  C   UNL     1      -1.192   4.017   9.854  1.00  0.00     0.009 A 
ATOM     58  C   UNL     1      -1.899   4.593  12.471  1.00  0.00     0.001 A 
ATOM     59  C   UNL     1      -1.079   5.324  10.340  1.00  0.00     0.001 A 
ATOM     60  C   UNL     1      -1.465   5.617  11.639  1.00  0.00     0.000 A 
ENDBRANCH  41  55
BRANCH  42  61
ATOM     61  C   UNL     1      -7.354   4.356   4.545  1.00  0.00    -0.014 A 
ATOM     62  C   UNL     1      -8.256   5.367   4.910  1.00  0.00     0.009 A 
ATOM     63  C   UNL     1      -6.619   4.545   3.357  1.00  0.00     0.009 A 
ATOM     64  C   UNL     1      -8.386   6.534   4.139  1.00  0.00     0.001 A 
ATOM     65  C   UNL     1      -6.751   5.705   2.585  1.00  0.00     0.001 A 
ATOM     66  C   UNL     1      -7.624   6.709   2.986  1.00  0.00     0.000 A 
ENDBRANCH  42  61
BRANCH  54  67
ATOM     67  C   UNL     1      -7.595   0.120   9.186  1.00  0.00    -0.014 A 
ATOM     68  C   UNL     1      -7.805  -0.446   7.914  1.00  0.00     0.009 A 
ATOM     69  C   UNL     1      -8.235  -0.478  10.281  1.00  0.00     0.009 A 
ATOM     70  C   UNL     1      -8.640  -1.557   7.744  1.00  0.00     0.001 A 
ATOM     71  C   UNL     1      -9.053  -1.599  10.116  1.00  0.00     0.001 A 
ATOM     72  C   UNL     1      -9.259  -2.136   8.848  1.00  0.00     0.000 A 
ENDBRANCH  54  67
ENDBRANCH  28  29
ENDBRANCH  20  23
ENDBRANCH  18  19
ENDBRANCH  17  18
ENDBRANCH   1  17
TORSDOF 13
