REMARK SMILES C[NH+]1CCC2(CC1)OC[C@H](C(=O)NCCCCNC(=O)c1ccc(-c3c4nc(c(-c5ccccc5)c5ccc([nH]5)c(-c5ccccc5)c5nc(c(-c6ccccc6)c6ccc3[nH]6)C=C5)C=C4)cc1)N2C(=O)c1cc(C(F)(F)F)cc(C(F)(F)F)c1
REMARK SMILES IDX 15 1 14 2 13 3 11 4 12 5 10 7 1 8 2 9 3 10 7 11 4 13 6 14
REMARK SMILES IDX 5 15 8 16 69 17 9 18 70 19 71 20 72 21 73 22 85 23 74 24
REMARK SMILES IDX 80 25 79 26 75 27 76 28 77 29 78 30 81 31 82 32 83 33 84 34
REMARK SMILES IDX 16 35 17 36 18 37 19 38 20 40 21 41 22 42 68 43 23 44 67 45
REMARK SMILES IDX 24 46 25 47 26 48 61 49 27 50 66 51 60 52 62 53 28 54 65 55
REMARK SMILES IDX 59 56 58 57 29 59 51 60 36 61 50 62 37 63 40 64 49 65 63 66
REMARK SMILES IDX 38 67 39 68 48 70 64 71 41 72 30 73 31 74 35 75 32 76 34 77
REMARK SMILES IDX 33 78 52 79 53 80 57 81 54 82 56 83 55 84 42 85 43 86 47 87
REMARK SMILES IDX 44 88 46 89 45 90
REMARK H PARENT 13 6 2 12 18 39 62 58 40 69
REMARK Flexibility Score: inf
ROOT
ATOM      1  C   UNL     1      -2.003   7.601  -4.480  1.00  0.00     0.023 C 
ENDROOT
BRANCH   1   2
ATOM      2  C   UNL     1      -1.060   7.790  -3.292  1.00  0.00     0.116 C 
BRANCH   2   3
ATOM      3  N   UNL     1      -1.446   6.923  -2.199  1.00  0.00    -0.354 N 
ATOM      4  C   UNL     1      -1.004   5.659  -1.930  1.00  0.00     0.245 C 
ATOM      5  O   UNL     1      -1.728   4.960  -1.220  1.00  0.00    -0.273 OA
ATOM      6  H   UNL     1      -2.110   7.290  -1.571  1.00  0.00     0.163 HD
BRANCH   4   7
ATOM      7  C   UNL     1       0.389   5.223  -2.426  1.00  0.00     0.203 C 
ATOM      8  C   UNL     1       1.329  -0.247   0.733  1.00  0.00     0.332 C 
ATOM      9  N   UNL     1       0.954   0.463  -0.483  1.00  0.00    -0.337 N 
ATOM     10  C   UNL     1      -0.145   1.394  -0.240  1.00  0.00     0.267 C 
ATOM     11  C   UNL     1       2.097   0.952  -1.253  1.00  0.00     0.267 C 
ATOM     12  H   UNL     1       0.557  -0.209  -1.140  1.00  0.00     0.347 HD
ATOM     13  C   UNL     1       0.267   2.832  -0.059  1.00  0.00     0.120 C 
ATOM     14  C   UNL     1       2.408   2.443  -1.243  1.00  0.00     0.120 C 
ATOM     15  C   UNL     1       1.184   3.352  -1.170  1.00  0.00     0.155 C 
ATOM     16  O   UNL     1       1.704   4.599  -0.590  1.00  0.00    -0.352 OA
ATOM     17  N   UNL     1       0.562   3.782  -2.451  1.00  0.00    -0.295 N 
ATOM     18  C   UNL     1       1.454   5.691  -1.475  1.00  0.00     0.198 C 
BRANCH  17  19
ATOM     19  C   UNL     1       0.151   3.183  -3.639  1.00  0.00     0.256 C 
ATOM     20  O   UNL     1      -0.329   3.835  -4.571  1.00  0.00    -0.269 OA
BRANCH  19  21
ATOM     21  C   UNL     1       0.308   1.753  -3.926  1.00  0.00     0.041 A 
ATOM     22  C   UNL     1       1.308   1.317  -4.806  1.00  0.00     0.027 A 
ATOM     23  C   UNL     1      -0.626   0.846  -3.438  1.00  0.00     0.027 A 
ATOM     24  C   UNL     1       1.459  -0.056  -5.079  1.00  0.00     0.057 A 
ATOM     25  C   UNL     1      -0.410  -0.531  -3.574  1.00  0.00     0.057 A 
ATOM     26  C   UNL     1       0.624  -0.973  -4.415  1.00  0.00     0.026 A 
BRANCH  24  27
ATOM     27  C   UNL     1       2.507  -0.533  -6.057  1.00  0.00     0.416 C 
ATOM     28  F   UNL     1       2.237  -0.149  -7.334  1.00  0.00    -0.166 F 
ATOM     29  F   UNL     1       3.746  -0.049  -5.770  1.00  0.00    -0.166 F 
ATOM     30  F   UNL     1       2.635  -1.889  -6.093  1.00  0.00    -0.166 F 
ENDBRANCH  24  27
BRANCH  25  31
ATOM     31  C   UNL     1      -1.215  -1.520  -2.763  1.00  0.00     0.416 C 
ATOM     32  F   UNL     1      -1.957  -2.351  -3.544  1.00  0.00    -0.166 F 
ATOM     33  F   UNL     1      -0.425  -2.331  -2.004  1.00  0.00    -0.166 F 
ATOM     34  F   UNL     1      -2.090  -0.935  -1.899  1.00  0.00    -0.166 F 
ENDBRANCH  25  31
ENDBRANCH  19  21
ENDBRANCH  17  19
ENDBRANCH   4   7
ENDBRANCH   2   3
ENDBRANCH   1   2
BRANCH   1  35
ATOM     35  C   UNL     1      -3.468   7.950  -4.185  1.00  0.00     0.023 C 
BRANCH  35  36
ATOM     36  C   UNL     1      -3.699   9.347  -3.617  1.00  0.00     0.116 C 
BRANCH  36  37
ATOM     37  N   UNL     1      -3.216  10.397  -4.498  1.00  0.00    -0.352 N 
ATOM     38  C   UNL     1      -3.843  11.551  -4.905  1.00  0.00     0.251 C 
ATOM     39  H   UNL     1      -2.308  10.263  -4.854  1.00  0.00     0.163 HD
ATOM     40  O   UNL     1      -3.338  12.252  -5.771  1.00  0.00    -0.269 OA
BRANCH  38  41
ATOM     41  C   UNL     1      -5.146  11.926  -4.315  1.00  0.00     0.039 A 
ATOM     42  C   UNL     1      -6.171  12.344  -5.166  1.00  0.00     0.014 A 
ATOM     43  C   UNL     1      -5.359  11.861  -2.936  1.00  0.00     0.014 A 
ATOM     44  C   UNL     1      -7.431  12.636  -4.640  1.00  0.00     0.010 A 
ATOM     45  C   UNL     1      -6.634  12.079  -2.422  1.00  0.00     0.010 A 
ATOM     46  C   UNL     1      -7.683  12.470  -3.268  1.00  0.00    -0.014 A 
BRANCH  46  47
ATOM     47  C   UNL     1      -9.041  12.686  -2.706  1.00  0.00     0.031 A 
ATOM     48  C   UNL     1      -9.283  13.768  -1.692  1.00  0.00     0.074 A 
ATOM     49  C   UNL     1     -10.044  11.857  -3.056  1.00  0.00     0.049 A 
ATOM     50  N   UNL     1     -10.386  14.071  -1.054  1.00  0.00    -0.248 NA
ATOM     51  C   UNL     1      -8.128  14.604  -1.325  1.00  0.00     0.031 C 
ATOM     52  C   UNL     1      -9.930  10.737  -3.992  1.00  0.00     0.029 A 
ATOM     53  N   UNL     1     -11.357  11.824  -2.656  1.00  0.00    -0.354 N 
ATOM     54  C   UNL     1     -10.053  15.112  -0.197  1.00  0.00     0.074 A 
ATOM     55  C   UNL     1      -8.637  15.357  -0.361  1.00  0.00     0.031 C 
ATOM     56  C   UNL     1     -11.127  10.140  -4.110  1.00  0.00     0.029 A 
ATOM     57  C   UNL     1     -12.080  10.806  -3.228  1.00  0.00     0.049 A 
ATOM     58  H   UNL     1     -11.743  12.468  -2.019  1.00  0.00     0.167 HD
ATOM     59  C   UNL     1     -10.855  15.811   0.641  1.00  0.00     0.031 A 
ATOM     60  C   UNL     1     -13.364  10.438  -3.055  1.00  0.00     0.031 A 
ATOM     61  C   UNL     1     -12.265  15.569   0.800  1.00  0.00     0.049 A 
ATOM     62  C   UNL     1     -14.235  11.225  -2.117  1.00  0.00     0.074 A 
ATOM     63  C   UNL     1     -13.178  16.271   1.568  1.00  0.00     0.029 A 
ATOM     64  N   UNL     1     -12.964  14.538   0.191  1.00  0.00    -0.354 N 
ATOM     65  N   UNL     1     -13.926  12.264  -1.379  1.00  0.00    -0.248 NA
ATOM     66  C   UNL     1     -15.636  10.797  -1.998  1.00  0.00     0.031 C 
ATOM     67  C   UNL     1     -14.415  15.624   1.476  1.00  0.00     0.029 A 
ATOM     68  C   UNL     1     -14.289  14.563   0.594  1.00  0.00     0.049 A 
ATOM     69  H   UNL     1     -12.576  13.885  -0.436  1.00  0.00     0.167 HD
ATOM     70  C   UNL     1     -15.098  12.629  -0.729  1.00  0.00     0.074 A 
ATOM     71  C   UNL     1     -16.127  11.711  -1.173  1.00  0.00     0.031 C 
ATOM     72  C   UNL     1     -15.303  13.637   0.154  1.00  0.00     0.031 A 
BRANCH  59  73
ATOM     73  C   UNL     1     -10.216  16.892   1.471  1.00  0.00    -0.014 A 
ATOM     74  C   UNL     1      -9.709  18.064   0.887  1.00  0.00     0.009 A 
ATOM     75  C   UNL     1     -10.142  16.745   2.865  1.00  0.00     0.009 A 
ATOM     76  C   UNL     1      -9.099  19.043   1.675  1.00  0.00     0.001 A 
ATOM     77  C   UNL     1      -9.563  17.740   3.655  1.00  0.00     0.001 A 
ATOM     78  C   UNL     1      -9.030  18.882   3.058  1.00  0.00     0.000 A 
ENDBRANCH  59  73
BRANCH  60  79
ATOM     79  C   UNL     1     -13.901   9.266  -3.795  1.00  0.00    -0.014 A 
ATOM     80  C   UNL     1     -14.828   9.438  -4.834  1.00  0.00     0.009 A 
ATOM     81  C   UNL     1     -13.475   7.967  -3.476  1.00  0.00     0.009 A 
ATOM     82  C   UNL     1     -15.332   8.333  -5.524  1.00  0.00     0.001 A 
ATOM     83  C   UNL     1     -13.957   6.866  -4.187  1.00  0.00     0.001 A 
ATOM     84  C   UNL     1     -14.892   7.049  -5.204  1.00  0.00     0.000 A 
ENDBRANCH  60  79
BRANCH  72  85
ATOM     85  C   UNL     1     -16.700  13.823   0.678  1.00  0.00    -0.014 A 
ATOM     86  C   UNL     1     -17.273  12.909   1.577  1.00  0.00     0.009 A 
ATOM     87  C   UNL     1     -17.438  14.955   0.299  1.00  0.00     0.009 A 
ATOM     88  C   UNL     1     -18.569  13.110   2.058  1.00  0.00     0.001 A 
ATOM     89  C   UNL     1     -18.720  15.170   0.806  1.00  0.00     0.001 A 
ATOM     90  C   UNL     1     -19.288  14.243   1.677  1.00  0.00     0.000 A 
ENDBRANCH  72  85
ENDBRANCH  46  47
ENDBRANCH  38  41
ENDBRANCH  36  37
ENDBRANCH  35  36
ENDBRANCH   1  35
TORSDOF 15
