REMARK SMILES CCc1c(C(=O)NCCCCNC(=O)c2ccc(-c3c4nc(c(-c5ccccc5)c5ccc([nH]5)c(-c5ccccc5)c5nc(c(-c6ccccc6)c6ccc3[nH]6)C=C5)C=C4)cc2)nnn1-c1ccc(OC)cc1
REMARK SMILES IDX 9 1 8 2 7 3 5 4 6 5 4 7 3 8 65 9 63 10 64 11 2 12 1 13 66 14
REMARK SMILES IDX 67 15 73 16 68 17 72 18 69 19 70 20 71 21 10 22 11 23 12 24
REMARK SMILES IDX 13 25 14 27 15 28 16 29 62 30 17 31 61 32 18 33 19 34 20 35
REMARK SMILES IDX 55 36 21 37 60 38 54 39 56 40 22 41 59 42 53 43 52 44 23 46
REMARK SMILES IDX 45 47 30 48 44 49 31 50 34 51 43 52 57 53 32 54 33 55 42 57
REMARK SMILES IDX 58 58 35 59 24 60 25 61 29 62 26 63 28 64 27 65 46 66 47 67
REMARK SMILES IDX 51 68 48 69 50 70 49 71 36 72 37 73 41 74 38 75 40 76 39 77
REMARK H PARENT 7 6 12 26 56 45 34 56
REMARK Flexibility Score: inf
ROOT
ATOM      1  C   UNL     1       3.738   1.899  -1.907  1.00  0.00     0.023 C 
ENDROOT
BRANCH   1   2
ATOM      2  C   UNL     1       2.577   1.221  -2.623  1.00  0.00     0.116 C 
BRANCH   2   3
ATOM      3  N   UNL     1       2.889   0.348  -3.719  1.00  0.00    -0.351 N 
ATOM      4  C   UNL     1       2.502  -0.956  -3.972  1.00  0.00     0.273 C 
ATOM      5  O   UNL     1       2.918  -1.418  -5.039  1.00  0.00    -0.267 OA
ATOM      6  H   UNL     1       3.476   0.742  -4.404  1.00  0.00     0.163 HD
BRANCH   4   7
ATOM      7  C   UNL     1       1.701  -1.797  -3.057  1.00  0.00     0.174 A 
ATOM      8  C   UNL     1       0.662  -1.583  -2.144  1.00  0.00     0.077 A 
ATOM      9  N   UNL     1       0.348  -2.865  -1.682  1.00  0.00    -0.217 N 
ATOM     10  N   UNL     1       1.987  -3.152  -3.051  1.00  0.00    -0.124 NA
ATOM     11  N   UNL     1       1.245  -3.754  -2.140  1.00  0.00    -0.061 NA
BRANCH   8  12
ATOM     12  C   UNL     1       0.007  -0.366  -1.567  1.00  0.00     0.055 C 
ATOM     13  C   UNL     1       0.518  -0.086  -0.146  1.00  0.00     0.011 C 
ENDBRANCH   8  12
BRANCH   9  14
ATOM     14  C   UNL     1      -0.643  -3.247  -0.744  1.00  0.00     0.067 A 
ATOM     15  C   UNL     1      -0.301  -4.099   0.310  1.00  0.00     0.032 A 
ATOM     16  C   UNL     1      -1.933  -2.710  -0.813  1.00  0.00     0.032 A 
ATOM     17  C   UNL     1      -1.214  -4.298   1.351  1.00  0.00     0.048 A 
ATOM     18  C   UNL     1      -2.841  -2.920   0.228  1.00  0.00     0.048 A 
ATOM     19  C   UNL     1      -2.472  -3.687   1.332  1.00  0.00     0.119 A 
BRANCH  19  20
ATOM     20  O   UNL     1      -3.247  -3.914   2.436  1.00  0.00    -0.497 OA
ATOM     21  C   UNL     1      -4.466  -3.183   2.521  1.00  0.00     0.278 C 
ENDBRANCH  19  20
ENDBRANCH   9  14
ENDBRANCH   4   7
ENDBRANCH   2   3
ENDBRANCH   1   2
BRANCH   1  22
ATOM     22  C   UNL     1       4.397   3.091  -2.594  1.00  0.00     0.023 C 
BRANCH  22  23
ATOM     23  C   UNL     1       3.456   4.219  -2.998  1.00  0.00     0.116 C 
BRANCH  23  24
ATOM     24  N   UNL     1       2.737   4.834  -1.885  1.00  0.00    -0.352 N 
ATOM     25  C   UNL     1       1.806   5.862  -1.967  1.00  0.00     0.251 C 
ATOM     26  H   UNL     1       2.931   4.484  -0.986  1.00  0.00     0.163 HD
ATOM     27  O   UNL     1       1.488   6.523  -1.002  1.00  0.00    -0.269 OA
BRANCH  25  28
ATOM     28  C   UNL     1       1.212   6.129  -3.292  1.00  0.00     0.039 A 
ATOM     29  C   UNL     1       1.278   7.400  -3.868  1.00  0.00     0.014 A 
ATOM     30  C   UNL     1       0.691   5.045  -3.992  1.00  0.00     0.014 A 
ATOM     31  C   UNL     1       0.912   7.551  -5.206  1.00  0.00     0.010 A 
ATOM     32  C   UNL     1       0.439   5.175  -5.338  1.00  0.00     0.010 A 
ATOM     33  C   UNL     1       0.524   6.428  -5.951  1.00  0.00    -0.014 A 
BRANCH  33  34
ATOM     34  C   UNL     1       0.314   6.528  -7.398  1.00  0.00     0.031 A 
ATOM     35  C   UNL     1       1.451   7.054  -8.217  1.00  0.00     0.074 A 
ATOM     36  C   UNL     1      -0.724   5.933  -8.024  1.00  0.00     0.049 A 
ATOM     37  N   UNL     1       1.445   8.057  -9.035  1.00  0.00    -0.248 NA
ATOM     38  C   UNL     1       2.764   6.402  -8.090  1.00  0.00     0.031 C 
ATOM     39  C   UNL     1      -1.771   5.087  -7.439  1.00  0.00     0.029 A 
ATOM     40  N   UNL     1      -0.968   5.836  -9.360  1.00  0.00    -0.354 N 
ATOM     41  C   UNL     1       2.703   8.087  -9.639  1.00  0.00     0.074 A 
ATOM     42  C   UNL     1       3.506   7.111  -8.945  1.00  0.00     0.031 C 
ATOM     43  C   UNL     1      -2.355   4.360  -8.415  1.00  0.00     0.029 A 
ATOM     44  C   UNL     1      -1.854   4.822  -9.696  1.00  0.00     0.049 A 
ATOM     45  H   UNL     1      -0.554   6.431 -10.026  1.00  0.00     0.167 HD
ATOM     46  C   UNL     1       2.948   8.789 -10.783  1.00  0.00     0.031 A 
ATOM     47  C   UNL     1      -2.137   4.364 -10.937  1.00  0.00     0.031 A 
ATOM     48  C   UNL     1       1.894   9.717 -11.088  1.00  0.00     0.049 A 
ATOM     49  C   UNL     1      -1.730   5.406 -11.905  1.00  0.00     0.074 A 
ATOM     50  C   UNL     1       1.329  10.800 -10.445  1.00  0.00     0.029 A 
ATOM     51  N   UNL     1       1.007   9.368 -12.078  1.00  0.00    -0.354 N 
ATOM     52  N   UNL     1      -2.326   6.558 -12.008  1.00  0.00    -0.248 NA
ATOM     53  C   UNL     1      -0.397   5.339 -12.482  1.00  0.00     0.031 C 
ATOM     54  C   UNL     1      -0.064  10.707 -10.736  1.00  0.00     0.029 A 
ATOM     55  C   UNL     1      -0.247   9.609 -11.580  1.00  0.00     0.049 A 
ATOM     56  H   UNL     1       1.229   9.014 -12.969  1.00  0.00     0.167 HD
ATOM     57  C   UNL     1      -1.304   7.463 -12.251  1.00  0.00     0.074 A 
ATOM     58  C   UNL     1      -0.165   6.643 -12.660  1.00  0.00     0.031 C 
ATOM     59  C   UNL     1      -1.389   8.758 -11.822  1.00  0.00     0.031 A 
BRANCH  46  60
ATOM     60  C   UNL     1       3.974   8.409 -11.822  1.00  0.00    -0.014 A 
ATOM     61  C   UNL     1       4.211   9.284 -12.901  1.00  0.00     0.009 A 
ATOM     62  C   UNL     1       4.505   7.111 -11.934  1.00  0.00     0.009 A 
ATOM     63  C   UNL     1       4.883   8.860 -14.054  1.00  0.00     0.001 A 
ATOM     64  C   UNL     1       5.214   6.698 -13.066  1.00  0.00     0.001 A 
ATOM     65  C   UNL     1       5.379   7.563 -14.139  1.00  0.00     0.000 A 
ENDBRANCH  46  60
BRANCH  47  66
ATOM     66  C   UNL     1      -2.570   3.015 -11.347  1.00  0.00    -0.014 A 
ATOM     67  C   UNL     1      -3.207   2.806 -12.578  1.00  0.00     0.009 A 
ATOM     68  C   UNL     1      -2.138   1.884 -10.628  1.00  0.00     0.009 A 
ATOM     69  C   UNL     1      -3.376   1.512 -13.088  1.00  0.00     0.001 A 
ATOM     70  C   UNL     1      -2.312   0.592 -11.134  1.00  0.00     0.001 A 
ATOM     71  C   UNL     1      -2.917   0.408 -12.372  1.00  0.00     0.000 A 
ENDBRANCH  47  66
BRANCH  59  72
ATOM     72  C   UNL     1      -2.710   9.239 -11.270  1.00  0.00    -0.014 A 
ATOM     73  C   UNL     1      -3.329   8.646 -10.155  1.00  0.00     0.009 A 
ATOM     74  C   UNL     1      -3.261  10.423 -11.781  1.00  0.00     0.009 A 
ATOM     75  C   UNL     1      -4.482   9.201  -9.591  1.00  0.00     0.001 A 
ATOM     76  C   UNL     1      -4.400  10.991 -11.203  1.00  0.00     0.001 A 
ATOM     77  C   UNL     1      -5.013  10.377 -10.113  1.00  0.00     0.000 A 
ENDBRANCH  59  72
ENDBRANCH  33  34
ENDBRANCH  25  28
ENDBRANCH  23  24
ENDBRANCH  22  23
ENDBRANCH   1  22
TORSDOF 14
