REMARK SMILES Cc1nc2nc(SCc3nc(-c4ccsc4)no3)nn2c(C)c1CC(=O)NCCCCNC(=O)c1ccc(-c2c3nc(c(-c4ccccc4)c4ccc([nH]4)c(-c4ccccc4)c4nc(c(-c5ccccc5)c5ccc2[nH]5)C=C4)C=C3)cc1
REMARK SMILES IDX 28 1 27 2 25 3 26 4 24 6 23 7 1 8 2 9 3 10 4 11 21 12 5 13
REMARK SMILES IDX 20 14 22 15 6 16 19 17 7 18 8 19 9 20 10 21 18 22 11 23
REMARK SMILES IDX 17 24 12 25 13 26 16 27 14 28 15 29 29 30 30 31 31 32 32 33
REMARK SMILES IDX 33 34 34 36 35 37 36 38 82 39 37 40 81 41 38 42 39 43 40 44
REMARK SMILES IDX 75 45 41 46 80 47 74 48 76 49 42 50 79 51 73 52 72 53 43 55
REMARK SMILES IDX 65 56 50 57 64 58 51 59 54 60 63 61 77 62 52 63 53 64 62 66
REMARK SMILES IDX 78 67 55 68 44 69 45 70 49 71 46 72 48 73 47 74 66 75 67 76
REMARK SMILES IDX 71 77 68 78 70 79 69 80 56 81 57 82 61 83 58 84 60 85 59 86
REMARK H PARENT 27 5 32 35 76 54 54 65
REMARK Flexibility Score: inf
ROOT
ATOM      1  C   UNL     1       3.567  -1.233   1.338  1.00  0.00     0.116 C 
ENDROOT
BRANCH   1   2
ATOM      2  N   UNL     1       3.409  -2.672   1.350  1.00  0.00    -0.356 N 
ATOM      3  C   UNL     1       2.336  -3.423   0.964  1.00  0.00     0.224 C 
ATOM      4  O   UNL     1       2.455  -4.649   0.959  1.00  0.00    -0.275 OA
ATOM      5  H   UNL     1       4.183  -3.181   1.684  1.00  0.00     0.163 HD
BRANCH   3   6
ATOM      6  C   UNL     1       1.027  -2.749   0.542  1.00  0.00     0.139 C 
BRANCH   6   7
ATOM      7  C   UNL     1       0.366  -2.023   1.684  1.00  0.00     0.004 A 
ATOM      8  C   UNL     1       0.198   0.170   0.248  1.00  0.00     0.067 C 
ATOM      9  C   UNL     1       0.058  -0.533   1.586  1.00  0.00     0.047 A 
ATOM     10  N   UNL     1      -0.337   0.218   2.574  1.00  0.00    -0.216 NA
ATOM     11  C   UNL     1      -0.559  -0.395   3.769  1.00  0.00     0.253 A 
ATOM     12  C   UNL     1       0.055  -2.587   2.876  1.00  0.00     0.049 A 
ATOM     13  N   UNL     1      -0.994   0.107   4.906  1.00  0.00    -0.183 NA
ATOM     14  N   UNL     1      -0.380  -1.768   3.920  1.00  0.00    -0.200 N 
ATOM     15  C   UNL     1       0.166  -4.050   3.214  1.00  0.00     0.067 C 
ATOM     16  C   UNL     1      -1.066  -0.978   5.723  1.00  0.00     0.211 A 
ATOM     17  N   UNL     1      -0.642  -2.120   5.194  1.00  0.00    -0.138 NA
BRANCH  16  18
ATOM     18  S   UNL     1      -1.706  -0.922   7.343  1.00  0.00    -0.074 SA
BRANCH  18  19
ATOM     19  C   UNL     1      -1.772  -2.698   7.753  1.00  0.00     0.178 C 
BRANCH  19  20
ATOM     20  C   UNL     1      -2.648  -3.547   6.891  1.00  0.00     0.237 A 
ATOM     21  N   UNL     1      -2.657  -4.859   6.751  1.00  0.00    -0.190 NA
ATOM     22  O   UNL     1      -3.566  -2.920   6.094  1.00  0.00    -0.338 OA
ATOM     23  C   UNL     1      -3.588  -5.032   5.759  1.00  0.00     0.203 A 
ATOM     24  N   UNL     1      -4.164  -3.909   5.316  1.00  0.00    -0.057 NA
BRANCH  23  25
ATOM     25  C   UNL     1      -3.897  -6.352   5.221  1.00  0.00     0.033 A 
ATOM     26  C   UNL     1      -3.776  -6.655   3.830  1.00  0.00     0.024 A 
ATOM     27  C   UNL     1      -4.365  -7.425   5.947  1.00  0.00     0.077 A 
ATOM     28  C   UNL     1      -4.184  -7.940   3.544  1.00  0.00     0.065 A 
ATOM     29  S   UNL     1      -4.697  -8.777   4.947  1.00  0.00    -0.152 S 
ENDBRANCH  23  25
ENDBRANCH  19  20
ENDBRANCH  18  19
ENDBRANCH  16  18
ENDBRANCH   6   7
ENDBRANCH   3   6
ENDBRANCH   1   2
BRANCH   1  30
ATOM     30  C   UNL     1       3.520  -0.602   2.732  1.00  0.00     0.023 C 
BRANCH  30  31
ATOM     31  C   UNL     1       4.720  -0.890   3.643  1.00  0.00     0.023 C 
BRANCH  31  32
ATOM     32  C   UNL     1       6.063  -0.441   3.089  1.00  0.00     0.116 C 
BRANCH  32  33
ATOM     33  N   UNL     1       6.158   1.006   2.881  1.00  0.00    -0.352 N 
ATOM     34  C   UNL     1       7.215   1.701   2.322  1.00  0.00     0.251 C 
ATOM     35  H   UNL     1       5.385   1.543   3.171  1.00  0.00     0.163 HD
ATOM     36  O   UNL     1       7.388   2.900   2.543  1.00  0.00    -0.269 OA
BRANCH  34  37
ATOM     37  C   UNL     1       8.120   0.976   1.420  1.00  0.00     0.039 A 
ATOM     38  C   UNL     1       9.508   1.125   1.456  1.00  0.00     0.014 A 
ATOM     39  C   UNL     1       7.520   0.075   0.545  1.00  0.00     0.014 A 
ATOM     40  C   UNL     1      10.284   0.299   0.645  1.00  0.00     0.010 A 
ATOM     41  C   UNL     1       8.280  -0.866  -0.087  1.00  0.00     0.010 A 
ATOM     42  C   UNL     1       9.656  -0.704  -0.113  1.00  0.00    -0.014 A 
BRANCH  42  43
ATOM     43  C   UNL     1      10.406  -1.668  -0.898  1.00  0.00     0.031 A 
ATOM     44  C   UNL     1      11.402  -2.450  -0.131  1.00  0.00     0.074 A 
ATOM     45  C   UNL     1      10.095  -1.971  -2.177  1.00  0.00     0.049 A 
ATOM     46  N   UNL     1      12.682  -2.313  -0.186  1.00  0.00    -0.248 NA
ATOM     47  C   UNL     1      10.942  -3.383   0.907  1.00  0.00     0.031 C 
ATOM     48  C   UNL     1       8.972  -1.500  -2.999  1.00  0.00     0.029 A 
ATOM     49  N   UNL     1      10.699  -2.869  -2.995  1.00  0.00    -0.354 N 
ATOM     50  C   UNL     1      13.213  -3.274   0.663  1.00  0.00     0.074 A 
ATOM     51  C   UNL     1      12.104  -3.785   1.431  1.00  0.00     0.031 C 
ATOM     52  C   UNL     1       8.854  -2.279  -4.100  1.00  0.00     0.029 A 
ATOM     53  C   UNL     1       9.992  -3.178  -4.150  1.00  0.00     0.049 A 
ATOM     54  H   UNL     1      11.572  -3.273  -2.785  1.00  0.00     0.167 HD
ATOM     55  C   UNL     1      14.487  -3.722   0.496  1.00  0.00     0.031 A 
ATOM     56  C   UNL     1      10.334  -4.106  -5.078  1.00  0.00     0.031 A 
ATOM     57  C   UNL     1      15.220  -2.889  -0.428  1.00  0.00     0.049 A 
ATOM     58  C   UNL     1      11.792  -4.330  -4.944  1.00  0.00     0.074 A 
ATOM     59  C   UNL     1      15.584  -1.556  -0.451  1.00  0.00     0.029 A 
ATOM     60  N   UNL     1      15.298  -3.322  -1.732  1.00  0.00    -0.354 N 
ATOM     61  N   UNL     1      12.673  -3.418  -5.240  1.00  0.00    -0.248 NA
ATOM     62  C   UNL     1      12.249  -5.370  -4.037  1.00  0.00     0.031 C 
ATOM     63  C   UNL     1      15.372  -1.143  -1.801  1.00  0.00     0.029 A 
ATOM     64  C   UNL     1      14.981  -2.260  -2.542  1.00  0.00     0.049 A 
ATOM     65  H   UNL     1      15.538  -4.230  -2.030  1.00  0.00     0.167 HD
ATOM     66  C   UNL     1      13.608  -3.494  -4.218  1.00  0.00     0.074 A 
ATOM     67  C   UNL     1      13.354  -4.781  -3.568  1.00  0.00     0.031 C 
ATOM     68  C   UNL     1      14.299  -2.387  -3.812  1.00  0.00     0.031 A 
BRANCH  55  69
ATOM     69  C   UNL     1      14.948  -5.112   0.841  1.00  0.00    -0.014 A 
ATOM     70  C   UNL     1      16.308  -5.430   0.668  1.00  0.00     0.009 A 
ATOM     71  C   UNL     1      14.069  -6.187   1.064  1.00  0.00     0.009 A 
ATOM     72  C   UNL     1      16.748  -6.759   0.643  1.00  0.00     0.001 A 
ATOM     73  C   UNL     1      14.511  -7.513   1.078  1.00  0.00     0.001 A 
ATOM     74  C   UNL     1      15.846  -7.800   0.839  1.00  0.00     0.000 A 
ENDBRANCH  55  69
BRANCH  56  75
ATOM     75  C   UNL     1       9.481  -4.984  -5.905  1.00  0.00    -0.014 A 
ATOM     76  C   UNL     1      10.012  -5.654  -7.021  1.00  0.00     0.009 A 
ATOM     77  C   UNL     1       8.234  -5.412  -5.417  1.00  0.00     0.009 A 
ATOM     78  C   UNL     1       9.346  -6.749  -7.589  1.00  0.00     0.001 A 
ATOM     79  C   UNL     1       7.570  -6.506  -5.985  1.00  0.00     0.001 A 
ATOM     80  C   UNL     1       8.136  -7.186  -7.058  1.00  0.00     0.000 A 
ENDBRANCH  56  75
BRANCH  68  81
ATOM     81  C   UNL     1      14.141  -1.122  -4.629  1.00  0.00    -0.014 A 
ATOM     82  C   UNL     1      12.905  -0.476  -4.821  1.00  0.00     0.009 A 
ATOM     83  C   UNL     1      15.296  -0.486  -5.104  1.00  0.00     0.009 A 
ATOM     84  C   UNL     1      12.825   0.746  -5.500  1.00  0.00     0.001 A 
ATOM     85  C   UNL     1      15.220   0.744  -5.764  1.00  0.00     0.001 A 
ATOM     86  C   UNL     1      13.985   1.356  -5.969  1.00  0.00     0.000 A 
ENDBRANCH  68  81
ENDBRANCH  42  43
ENDBRANCH  34  37
ENDBRANCH  32  33
ENDBRANCH  31  32
ENDBRANCH  30  31
ENDBRANCH   1  30
TORSDOF 16
