REMARK SMILES O=C(NCCCCNC(=O)c1cn(C2CN(C(=O)Nc3ccsc3)C2)nn1)c1ccc(-c2c3nc(c(-c4ccccc4)c4ccc([nH]4)c(-c4ccccc4)c4nc(c(-c5ccccc5)c5ccc2[nH]5)C=C4)C=C3)cc1
REMARK SMILES IDX 5 1 4 2 3 3 1 4 2 5 28 7 29 8 75 9 30 10 74 11 31 12 32 13
REMARK SMILES IDX 33 14 68 15 34 16 73 17 67 18 69 19 35 20 72 21 66 22 65 23
REMARK SMILES IDX 36 25 58 26 43 27 57 28 44 29 47 30 56 31 70 32 45 33 46 34
REMARK SMILES IDX 55 36 71 37 48 38 37 39 38 40 42 41 39 42 41 43 40 44 59 45
REMARK SMILES IDX 60 46 64 47 61 48 63 49 62 50 49 51 50 52 54 53 51 54 53 55
REMARK SMILES IDX 52 56 6 57 7 58 8 59 9 60 10 62 11 63 12 64 27 65 13 66
REMARK SMILES IDX 26 67 14 68 15 69 25 70 16 71 17 72 18 73 19 74 20 76 21 77
REMARK SMILES IDX 24 78 22 79 23 80
REMARK H PARENT 3 6 69 24 47 35 8 61 19 75
REMARK Flexibility Score: inf
ROOT
ATOM      1  C   UNL     1       4.945  -0.685   1.974  1.00  0.00     0.023 C 
ENDROOT
BRANCH   1   2
ATOM      2  C   UNL     1       4.657  -0.794   0.478  1.00  0.00     0.116 C 
BRANCH   2   3
ATOM      3  N   UNL     1       3.259  -0.952   0.139  1.00  0.00    -0.352 N 
ATOM      4  O   UNL     1       1.196  -0.563  -0.546  1.00  0.00    -0.269 OA
ATOM      5  C   UNL     1       2.220  -0.085  -0.054  1.00  0.00     0.251 C 
ATOM      6  H   UNL     1       2.997  -1.894   0.021  1.00  0.00     0.163 HD
BRANCH   5   7
ATOM      7  C   UNL     1       2.210   1.340   0.371  1.00  0.00     0.039 A 
ATOM      8  C   UNL     1       3.327   2.115   0.686  1.00  0.00     0.014 A 
ATOM      9  C   UNL     1       0.933   1.919   0.490  1.00  0.00     0.014 A 
ATOM     10  C   UNL     1       3.167   3.396   1.212  1.00  0.00     0.010 A 
ATOM     11  C   UNL     1       0.766   3.196   1.005  1.00  0.00     0.010 A 
ATOM     12  C   UNL     1       1.884   3.919   1.404  1.00  0.00    -0.014 A 
BRANCH  12  13
ATOM     13  C   UNL     1       1.743   5.310   1.824  1.00  0.00     0.031 A 
ATOM     14  C   UNL     1       2.202   6.287   0.796  1.00  0.00     0.074 A 
ATOM     15  C   UNL     1       1.104   5.699   2.949  1.00  0.00     0.049 A 
ATOM     16  N   UNL     1       3.177   7.130   0.887  1.00  0.00    -0.248 NA
ATOM     17  C   UNL     1       1.589   6.227  -0.542  1.00  0.00     0.031 C 
ATOM     18  C   UNL     1       0.362   4.863   3.896  1.00  0.00     0.029 A 
ATOM     19  N   UNL     1       0.888   6.958   3.429  1.00  0.00    -0.354 N 
ATOM     20  C   UNL     1       3.181   7.843  -0.310  1.00  0.00     0.074 A 
ATOM     21  C   UNL     1       2.298   7.141  -1.205  1.00  0.00     0.031 C 
ATOM     22  C   UNL     1      -0.411   5.651   4.680  1.00  0.00     0.029 A 
ATOM     23  C   UNL     1      -0.121   7.045   4.385  1.00  0.00     0.049 A 
ATOM     24  H   UNL     1       1.403   7.740   3.125  1.00  0.00     0.167 HD
ATOM     25  C   UNL     1       3.711   9.095  -0.388  1.00  0.00     0.031 A 
ATOM     26  C   UNL     1      -0.710   8.175   4.859  1.00  0.00     0.031 A 
ATOM     27  C   UNL     1       4.561   9.383   0.737  1.00  0.00     0.049 A 
ATOM     28  C   UNL     1       0.185   9.311   4.548  1.00  0.00     0.074 A 
ATOM     29  C   UNL     1       5.721   8.843   1.253  1.00  0.00     0.029 A 
ATOM     30  N   UNL     1       4.019  10.149   1.740  1.00  0.00    -0.354 N 
ATOM     31  N   UNL     1       1.342   9.484   5.115  1.00  0.00    -0.248 NA
ATOM     32  C   UNL     1      -0.007  10.000   3.283  1.00  0.00     0.031 C 
ATOM     33  C   UNL     1       5.558   8.916   2.668  1.00  0.00     0.029 A 
ATOM     34  C   UNL     1       4.351   9.566   2.932  1.00  0.00     0.049 A 
ATOM     35  H   UNL     1       3.488  10.970   1.622  1.00  0.00     0.167 HD
ATOM     36  C   UNL     1       2.171   9.894   4.082  1.00  0.00     0.074 A 
ATOM     37  C   UNL     1       1.267  10.286   3.001  1.00  0.00     0.031 C 
ATOM     38  C   UNL     1       3.505   9.601   4.100  1.00  0.00     0.031 A 
BRANCH  25  39
ATOM     39  C   UNL     1       3.099  10.204  -1.214  1.00  0.00    -0.014 A 
ATOM     40  C   UNL     1       3.712  11.471  -1.191  1.00  0.00     0.009 A 
ATOM     41  C   UNL     1       1.796  10.144  -1.742  1.00  0.00     0.009 A 
ATOM     42  C   UNL     1       3.019  12.624  -1.579  1.00  0.00     0.001 A 
ATOM     43  C   UNL     1       1.117  11.287  -2.171  1.00  0.00     0.001 A 
ATOM     44  C   UNL     1       1.717  12.533  -2.057  1.00  0.00     0.000 A 
ENDBRANCH  25  39
BRANCH  26  45
ATOM     45  C   UNL     1      -2.107   8.405   5.302  1.00  0.00    -0.014 A 
ATOM     46  C   UNL     1      -2.456   9.556   6.032  1.00  0.00     0.009 A 
ATOM     47  C   UNL     1      -3.154   7.646   4.751  1.00  0.00     0.009 A 
ATOM     48  C   UNL     1      -3.796   9.952   6.168  1.00  0.00     0.001 A 
ATOM     49  C   UNL     1      -4.491   8.040   4.886  1.00  0.00     0.001 A 
ATOM     50  C   UNL     1      -4.811   9.201   5.581  1.00  0.00     0.000 A 
ENDBRANCH  26  45
BRANCH  38  51
ATOM     51  C   UNL     1       4.093   9.049   5.374  1.00  0.00    -0.014 A 
ATOM     52  C   UNL     1       3.683   7.838   5.960  1.00  0.00     0.009 A 
ATOM     53  C   UNL     1       5.204   9.709   5.918  1.00  0.00     0.009 A 
ATOM     54  C   UNL     1       4.351   7.323   7.076  1.00  0.00     0.001 A 
ATOM     55  C   UNL     1       5.884   9.184   7.017  1.00  0.00     0.001 A 
ATOM     56  C   UNL     1       5.454   7.994   7.600  1.00  0.00     0.000 A 
ENDBRANCH  38  51
ENDBRANCH  12  13
ENDBRANCH   5   7
ENDBRANCH   2   3
ENDBRANCH   1   2
BRANCH   1  57
ATOM     57  C   UNL     1       4.442  -1.858   2.817  1.00  0.00     0.023 C 
BRANCH  57  58
ATOM     58  C   UNL     1       4.855  -3.237   2.320  1.00  0.00     0.116 C 
BRANCH  58  59
ATOM     59  N   UNL     1       6.293  -3.436   2.352  1.00  0.00    -0.351 N 
ATOM     60  C   UNL     1       7.014  -4.405   3.020  1.00  0.00     0.273 C 
ATOM     61  H   UNL     1       6.824  -2.795   1.827  1.00  0.00     0.163 HD
ATOM     62  O   UNL     1       8.232  -4.317   3.059  1.00  0.00    -0.267 OA
BRANCH  60  63
ATOM     63  C   UNL     1       6.276  -5.495   3.634  1.00  0.00     0.170 A 
ATOM     64  C   UNL     1       5.245  -6.235   3.088  1.00  0.00     0.145 A 
ATOM     65  N   UNL     1       6.539  -5.968   4.894  1.00  0.00    -0.125 NA
ATOM     66  N   UNL     1       4.887  -7.092   4.083  1.00  0.00    -0.245 N 
ATOM     67  N   UNL     1       5.666  -6.929   5.165  1.00  0.00    -0.066 NA
BRANCH  66  68
ATOM     68  C   UNL     1       3.962  -8.173   4.001  1.00  0.00     0.148 C 
ATOM     69  C   UNL     1       2.584  -7.899   3.375  1.00  0.00     0.150 C 
ATOM     70  C   UNL     1       4.225  -9.013   2.732  1.00  0.00     0.150 C 
ATOM     71  N   UNL     1       2.793  -9.181   2.693  1.00  0.00    -0.320 N 
ATOM     72  C   UNL     1       1.887  -9.931   2.020  1.00  0.00     0.322 C 
ATOM     73  O   UNL     1       0.684  -9.655   2.067  1.00  0.00    -0.248 OA
ATOM     74  N   UNL     1       2.285 -10.912   1.166  1.00  0.00    -0.307 N 
ATOM     75  H   UNL     1       1.583 -11.226   0.550  1.00  0.00     0.171 HD
BRANCH  74  76
ATOM     76  C   UNL     1       3.504 -11.546   1.014  1.00  0.00     0.053 A 
ATOM     77  C   UNL     1       4.415 -11.947   2.033  1.00  0.00     0.038 A 
ATOM     78  C   UNL     1       3.954 -11.947  -0.226  1.00  0.00     0.091 A 
ATOM     79  C   UNL     1       5.621 -12.377   1.522  1.00  0.00     0.067 A 
ATOM     80  S   UNL     1       5.574 -12.504  -0.180  1.00  0.00    -0.150 S 
ENDBRANCH  74  76
ENDBRANCH  66  68
ENDBRANCH  60  63
ENDBRANCH  58  59
ENDBRANCH  57  58
ENDBRANCH   1  57
TORSDOF 13
