REMARK SMILES C[NH+]1CCC([NH+]2CCC(Oc3ccc4ccccc4c3)(C(=O)NCCCCNC(=O)c3ccc(-c4c5nc(c(-c6ccccc6)c6ccc([nH]6)c(-c6ccccc6)c6nc(c(-c7ccccc7)c7ccc4[nH]7)C=C6)C=C5)cc3)CC2)CC1
REMARK SMILES IDX 25 1 24 2 23 3 21 4 22 5 9 7 6 8 7 9 80 10 8 12 79 13 5 14
REMARK SMILES IDX 1 15 2 16 3 17 82 18 4 20 81 21 10 22 11 23 12 24 20 25
REMARK SMILES IDX 13 26 19 27 14 28 18 29 15 30 17 31 16 32 26 33 27 34 28 35
REMARK SMILES IDX 29 36 30 38 31 39 32 40 78 41 33 42 77 43 34 44 35 45 36 46
REMARK SMILES IDX 71 47 37 48 76 49 70 50 72 51 38 52 75 53 69 54 68 55 39 57
REMARK SMILES IDX 61 58 46 59 60 60 47 61 50 62 59 63 73 64 48 65 49 66 58 68
REMARK SMILES IDX 74 69 51 70 40 71 41 72 45 73 42 74 44 75 43 76 62 77 63 78
REMARK SMILES IDX 67 79 64 80 66 81 65 82 52 83 53 84 57 85 54 86 56 87 55 88
REMARK H PARENT 23 6 6 11 2 19 28 37 72 56 50 67
REMARK Flexibility Score: inf
ROOT
ATOM      1  C   UNL     1       4.489  -1.002   5.408  1.00  0.00     0.023 C 
ENDROOT
BRANCH   1   2
ATOM      2  C   UNL     1       5.681  -1.519   4.601  1.00  0.00     0.116 C 
BRANCH   2   3
ATOM      3  N   UNL     1       5.259  -2.449   3.574  1.00  0.00    -0.353 N 
ATOM      4  C   UNL     1       5.211  -2.302   2.215  1.00  0.00     0.264 C 
ATOM      5  O   UNL     1       4.861  -3.301   1.578  1.00  0.00    -0.270 OA
ATOM      6  H   UNL     1       4.959  -3.326   3.907  1.00  0.00     0.163 HD
BRANCH   4   7
ATOM      7  C   UNL     1       5.577  -0.951   1.528  1.00  0.00     0.197 C 
ATOM      8  N   UNL     1       3.095  -0.113   0.182  1.00  0.00    -0.332 N 
ATOM      9  C   UNL     1       3.214  -0.099   1.642  1.00  0.00     0.267 C 
ATOM     10  C   UNL     1       3.920  -1.179  -0.414  1.00  0.00     0.267 C 
ATOM     11  H   UNL     1       3.469   0.777  -0.146  1.00  0.00     0.348 HD
ATOM     12  C   UNL     1       4.661   0.180   2.004  1.00  0.00     0.120 C 
ATOM     13  C   UNL     1       5.402  -1.086  -0.000  1.00  0.00     0.120 C 
BRANCH   8  14
ATOM     14  C   UNL     1       1.691  -0.131  -0.298  1.00  0.00     0.195 C 
ATOM     15  C   UNL     1      -2.618   0.069  -0.216  1.00  0.00     0.332 C 
ATOM     16  N   UNL     1      -1.200   0.018   0.135  1.00  0.00    -0.337 N 
ATOM     17  C   UNL     1      -0.487   1.178  -0.414  1.00  0.00     0.268 C 
ATOM     18  C   UNL     1      -0.590  -1.232  -0.330  1.00  0.00     0.268 C 
ATOM     19  H   UNL     1      -1.126   0.049   1.152  1.00  0.00     0.347 HD
ATOM     20  C   UNL     1       0.965   1.183   0.061  1.00  0.00     0.126 C 
ATOM     21  C   UNL     1       0.855  -1.340   0.158  1.00  0.00     0.126 C 
ENDBRANCH   8  14
BRANCH   7  22
ATOM     22  O   UNL     1       6.971  -0.828   1.912  1.00  0.00    -0.477 OA
BRANCH  22  23
ATOM     23  C   UNL     1       7.687   0.254   1.501  1.00  0.00     0.121 A 
ATOM     24  C   UNL     1       7.448   1.538   1.977  1.00  0.00     0.047 A 
ATOM     25  C   UNL     1       8.800   0.011   0.699  1.00  0.00     0.055 A 
ATOM     26  C   UNL     1       8.236   2.605   1.548  1.00  0.00     0.012 A 
ATOM     27  C   UNL     1       9.635   1.065   0.293  1.00  0.00    -0.015 A 
ATOM     28  C   UNL     1       9.329   2.385   0.700  1.00  0.00    -0.018 A 
ATOM     29  C   UNL     1      10.771   0.842  -0.500  1.00  0.00     0.009 A 
ATOM     30  C   UNL     1      10.137   3.447   0.270  1.00  0.00     0.009 A 
ATOM     31  C   UNL     1      11.578   1.907  -0.903  1.00  0.00     0.001 A 
ATOM     32  C   UNL     1      11.255   3.208  -0.528  1.00  0.00     0.001 A 
ENDBRANCH  22  23
ENDBRANCH   7  22
ENDBRANCH   4   7
ENDBRANCH   2   3
ENDBRANCH   1   2
BRANCH   1  33
ATOM     33  C   UNL     1       3.812  -2.055   6.284  1.00  0.00     0.023 C 
BRANCH  33  34
ATOM     34  C   UNL     1       4.738  -2.765   7.259  1.00  0.00     0.116 C 
BRANCH  34  35
ATOM     35  N   UNL     1       5.432  -1.850   8.151  1.00  0.00    -0.352 N 
ATOM     36  C   UNL     1       5.684  -1.983   9.493  1.00  0.00     0.251 C 
ATOM     37  H   UNL     1       5.766  -1.022   7.736  1.00  0.00     0.163 HD
ATOM     38  O   UNL     1       6.162  -1.046  10.128  1.00  0.00    -0.269 OA
BRANCH  36  39
ATOM     39  C   UNL     1       5.353  -3.249  10.178  1.00  0.00     0.039 A 
ATOM     40  C   UNL     1       4.730  -3.196  11.426  1.00  0.00     0.014 A 
ATOM     41  C   UNL     1       5.654  -4.482   9.592  1.00  0.00     0.014 A 
ATOM     42  C   UNL     1       4.376  -4.382  12.071  1.00  0.00     0.010 A 
ATOM     43  C   UNL     1       5.219  -5.658  10.192  1.00  0.00     0.010 A 
ATOM     44  C   UNL     1       4.599  -5.622  11.449  1.00  0.00    -0.014 A 
BRANCH  44  45
ATOM     45  C   UNL     1       4.234  -6.891  12.125  1.00  0.00     0.031 A 
ATOM     46  C   UNL     1       5.307  -7.878  12.500  1.00  0.00     0.074 A 
ATOM     47  C   UNL     1       2.940  -7.174  12.370  1.00  0.00     0.049 A 
ATOM     48  N   UNL     1       5.191  -9.044  13.085  1.00  0.00    -0.248 NA
ATOM     49  C   UNL     1       6.692  -7.522  12.147  1.00  0.00     0.031 C 
ATOM     50  C   UNL     1       1.802  -6.322  12.017  1.00  0.00     0.029 A 
ATOM     51  N   UNL     1       2.366  -8.260  12.980  1.00  0.00    -0.354 N 
ATOM     52  C   UNL     1       6.478  -9.561  13.154  1.00  0.00     0.074 A 
ATOM     53  C   UNL     1       7.351  -8.616  12.495  1.00  0.00     0.031 C 
ATOM     54  C   UNL     1       0.671  -6.900  12.452  1.00  0.00     0.029 A 
ATOM     55  C   UNL     1       0.999  -8.177  13.078  1.00  0.00     0.049 A 
ATOM     56  H   UNL     1       2.885  -9.026  13.317  1.00  0.00     0.167 HD
ATOM     57  C   UNL     1       6.904 -10.707  13.738  1.00  0.00     0.031 A 
ATOM     58  C   UNL     1       0.110  -9.032  13.616  1.00  0.00     0.031 A 
ATOM     59  C   UNL     1       6.038 -11.643  14.403  1.00  0.00     0.049 A 
ATOM     60  C   UNL     1       0.607 -10.301  14.252  1.00  0.00     0.074 A 
ATOM     61  C   UNL     1       6.376 -12.807  15.069  1.00  0.00     0.029 A 
ATOM     62  N   UNL     1       4.660 -11.520  14.483  1.00  0.00    -0.354 N 
ATOM     63  N   UNL     1       1.836 -10.742  14.373  1.00  0.00    -0.248 NA
ATOM     64  C   UNL     1      -0.410 -11.181  14.845  1.00  0.00     0.031 C 
ATOM     65  C   UNL     1       5.196 -13.418  15.506  1.00  0.00     0.029 A 
ATOM     66  C   UNL     1       4.129 -12.599  15.170  1.00  0.00     0.049 A 
ATOM     67  H   UNL     1       4.136 -10.776  14.107  1.00  0.00     0.167 HD
ATOM     68  C   UNL     1       1.743 -11.932  15.084  1.00  0.00     0.074 A 
ATOM     69  C   UNL     1       0.340 -12.130  15.385  1.00  0.00     0.031 C 
ATOM     70  C   UNL     1       2.730 -12.785  15.456  1.00  0.00     0.031 A 
BRANCH  57  71
ATOM     71  C   UNL     1       8.377 -11.008  13.672  1.00  0.00    -0.014 A 
ATOM     72  C   UNL     1       9.314 -10.231  14.374  1.00  0.00     0.009 A 
ATOM     73  C   UNL     1       8.835 -12.096  12.913  1.00  0.00     0.009 A 
ATOM     74  C   UNL     1      10.679 -10.511  14.283  1.00  0.00     0.001 A 
ATOM     75  C   UNL     1      10.198 -12.394  12.850  1.00  0.00     0.001 A 
ATOM     76  C   UNL     1      11.119 -11.595  13.525  1.00  0.00     0.000 A 
ENDBRANCH  57  71
BRANCH  58  77
ATOM     77  C   UNL     1      -1.342  -8.709  13.604  1.00  0.00    -0.014 A 
ATOM     78  C   UNL     1      -2.017  -8.410  14.798  1.00  0.00     0.009 A 
ATOM     79  C   UNL     1      -2.066  -8.718  12.402  1.00  0.00     0.009 A 
ATOM     80  C   UNL     1      -3.391  -8.162  14.793  1.00  0.00     0.001 A 
ATOM     81  C   UNL     1      -3.433  -8.437  12.395  1.00  0.00     0.001 A 
ATOM     82  C   UNL     1      -4.098  -8.172  13.592  1.00  0.00     0.000 A 
ENDBRANCH  58  77
BRANCH  70  83
ATOM     83  C   UNL     1       2.325 -13.986  16.267  1.00  0.00    -0.014 A 
ATOM     84  C   UNL     1       1.577 -15.033  15.706  1.00  0.00     0.009 A 
ATOM     85  C   UNL     1       2.713 -14.073  17.613  1.00  0.00     0.009 A 
ATOM     86  C   UNL     1       1.181 -16.117  16.493  1.00  0.00     0.001 A 
ATOM     87  C   UNL     1       2.348 -15.176  18.387  1.00  0.00     0.001 A 
ATOM     88  C   UNL     1       1.569 -16.189  17.830  1.00  0.00     0.000 A 
ENDBRANCH  70  83
ENDBRANCH  44  45
ENDBRANCH  36  39
ENDBRANCH  34  35
ENDBRANCH  33  34
ENDBRANCH   1  33
TORSDOF 14
