REMARK SMILES CCC(C)(C)c1ccc(O[C@H](F)C(=O)NCCCCNC(=O)c2ccc(-c3c4nc(c(-c5ccccc5)c5ccc([nH]5)c(-c5ccccc5)c5nc(c(-c6ccccc6)c6ccc3[nH]6)C=C5)C=C4)cc2)cc1
REMARK SMILES IDX 16 1 15 2 13 3 14 4 11 6 12 7 10 8 9 9 6 10 7 11 72 12 8 13
REMARK SMILES IDX 71 14 3 15 4 16 5 17 2 18 1 19 17 20 18 21 19 22 20 23 21 24
REMARK SMILES IDX 22 26 23 27 24 28 70 29 25 30 69 31 26 32 27 33 28 34 63 35
REMARK SMILES IDX 29 36 68 37 62 38 64 39 30 40 67 41 61 42 60 43 31 45 53 46
REMARK SMILES IDX 38 47 52 48 39 49 42 50 51 51 65 52 40 53 41 54 50 56 66 57
REMARK SMILES IDX 43 58 32 59 33 60 37 61 34 62 36 63 35 64 54 65 55 66 59 67
REMARK SMILES IDX 56 68 58 69 57 70 44 71 45 72 49 73 46 74 48 75 47 76
REMARK H PARENT 15 5 20 25 64 44 42 55
REMARK Flexibility Score: inf
ROOT
ATOM      1  C   UNL     1       4.512   0.829  -1.518  1.00  0.00     0.116 C 
ENDROOT
BRANCH   1   2
ATOM      2  N   UNL     1       5.619   1.339  -0.728  1.00  0.00    -0.350 N 
ATOM      3  C   UNL     1       6.955   1.033  -0.860  1.00  0.00     0.294 C 
ATOM      4  O   UNL     1       7.764   1.621  -0.137  1.00  0.00    -0.267 OA
ATOM      5  H   UNL     1       5.387   1.977  -0.015  1.00  0.00     0.163 HD
BRANCH   3   6
ATOM      6  C   UNL     1       7.386  -0.022  -1.897  1.00  0.00     0.440 C 
ATOM      7  F   UNL     1       6.629  -1.145  -1.749  1.00  0.00    -0.191 F 
BRANCH   6   8
ATOM      8  O   UNL     1       7.247   0.557  -3.198  1.00  0.00    -0.452 OA
BRANCH   8   9
ATOM      9  C   UNL     1       6.818  -0.157  -4.273  1.00  0.00     0.123 A 
ATOM     10  C   UNL     1       5.730  -1.326  -6.633  1.00  0.00    -0.042 A 
ATOM     11  C   UNL     1       6.050  -2.097  -5.503  1.00  0.00     0.008 A 
ATOM     12  C   UNL     1       6.041   0.041  -6.572  1.00  0.00     0.008 A 
ATOM     13  C   UNL     1       6.598  -1.525  -4.346  1.00  0.00     0.047 A 
ATOM     14  C   UNL     1       6.561   0.615  -5.406  1.00  0.00     0.047 A 
BRANCH  10  15
ATOM     15  C   UNL     1       5.132  -1.968  -7.900  1.00  0.00    -0.011 C 
ATOM     16  C   UNL     1       4.281  -3.223  -7.582  1.00  0.00     0.016 C 
ATOM     17  C   UNL     1       6.320  -2.417  -8.782  1.00  0.00     0.016 C 
BRANCH  15  18
ATOM     18  C   UNL     1       4.250  -0.999  -8.752  1.00  0.00     0.008 C 
ATOM     19  C   UNL     1       3.003  -0.463  -8.054  1.00  0.00     0.005 C 
ENDBRANCH  15  18
ENDBRANCH  10  15
ENDBRANCH   8   9
ENDBRANCH   6   8
ENDBRANCH   3   6
ENDBRANCH   1   2
BRANCH   1  20
ATOM     20  C   UNL     1       3.585  -0.085  -0.721  1.00  0.00     0.023 C 
BRANCH  20  21
ATOM     21  C   UNL     1       2.848   0.587   0.439  1.00  0.00     0.023 C 
BRANCH  21  22
ATOM     22  C   UNL     1       2.087   1.863   0.092  1.00  0.00     0.116 C 
BRANCH  22  23
ATOM     23  N   UNL     1       1.083   1.677  -0.943  1.00  0.00    -0.352 N 
ATOM     24  C   UNL     1      -0.187   2.189  -1.031  1.00  0.00     0.251 C 
ATOM     25  H   UNL     1       1.354   1.097  -1.690  1.00  0.00     0.163 HD
ATOM     26  O   UNL     1      -0.923   1.831  -1.952  1.00  0.00    -0.269 OA
BRANCH  24  27
ATOM     27  C   UNL     1      -0.700   3.136  -0.015  1.00  0.00     0.039 A 
ATOM     28  C   UNL     1      -2.013   2.975   0.440  1.00  0.00     0.014 A 
ATOM     29  C   UNL     1       0.082   4.183   0.483  1.00  0.00     0.014 A 
ATOM     30  C   UNL     1      -2.517   3.820   1.431  1.00  0.00     0.010 A 
ATOM     31  C   UNL     1      -0.398   4.981   1.523  1.00  0.00     0.010 A 
ATOM     32  C   UNL     1      -1.703   4.810   2.006  1.00  0.00    -0.014 A 
BRANCH  32  33
ATOM     33  C   UNL     1      -2.213   5.650   3.121  1.00  0.00     0.031 A 
ATOM     34  C   UNL     1      -2.402   7.133   2.947  1.00  0.00     0.074 A 
ATOM     35  C   UNL     1      -2.482   5.077   4.311  1.00  0.00     0.049 A 
ATOM     36  N   UNL     1      -2.885   8.007   3.796  1.00  0.00    -0.248 NA
ATOM     37  C   UNL     1      -1.977   7.716   1.665  1.00  0.00     0.031 C 
ATOM     38  C   UNL     1      -2.289   3.662   4.635  1.00  0.00     0.029 A 
ATOM     39  N   UNL     1      -2.989   5.615   5.468  1.00  0.00    -0.354 N 
ATOM     40  C   UNL     1      -2.807   9.239   3.158  1.00  0.00     0.074 A 
ATOM     41  C   UNL     1      -2.190   9.008   1.870  1.00  0.00     0.031 C 
ATOM     42  C   UNL     1      -2.715   3.435   5.887  1.00  0.00     0.029 A 
ATOM     43  C   UNL     1      -3.185   4.690   6.465  1.00  0.00     0.049 A 
ATOM     44  H   UNL     1      -3.191   6.573   5.574  1.00  0.00     0.167 HD
ATOM     45  C   UNL     1      -3.228  10.450   3.594  1.00  0.00     0.031 A 
ATOM     46  C   UNL     1      -3.701   4.831   7.700  1.00  0.00     0.031 A 
ATOM     47  C   UNL     1      -3.860  10.683   4.865  1.00  0.00     0.049 A 
ATOM     48  C   UNL     1      -4.179   6.183   8.149  1.00  0.00     0.074 A 
ATOM     49  C   UNL     1      -4.390  11.862   5.362  1.00  0.00     0.029 A 
ATOM     50  N   UNL     1      -4.045   9.719   5.843  1.00  0.00    -0.354 N 
ATOM     51  N   UNL     1      -4.186   7.318   7.495  1.00  0.00    -0.248 NA
ATOM     52  C   UNL     1      -4.740   6.264   9.506  1.00  0.00     0.031 C 
ATOM     53  C   UNL     1      -4.854  11.621   6.660  1.00  0.00     0.029 A 
ATOM     54  C   UNL     1      -4.658  10.281   6.951  1.00  0.00     0.049 A 
ATOM     55  H   UNL     1      -3.779   8.774   5.763  1.00  0.00     0.167 HD
ATOM     56  C   UNL     1      -4.776   8.242   8.348  1.00  0.00     0.074 A 
ATOM     57  C   UNL     1      -5.132   7.529   9.558  1.00  0.00     0.031 C 
ATOM     58  C   UNL     1      -5.002   9.563   8.149  1.00  0.00     0.031 A 
BRANCH  45  59
ATOM     59  C   UNL     1      -3.015  11.628   2.683  1.00  0.00    -0.014 A 
ATOM     60  C   UNL     1      -3.772  11.786   1.511  1.00  0.00     0.009 A 
ATOM     61  C   UNL     1      -2.079  12.615   3.026  1.00  0.00     0.009 A 
ATOM     62  C   UNL     1      -3.571  12.894   0.684  1.00  0.00     0.001 A 
ATOM     63  C   UNL     1      -1.899  13.735   2.212  1.00  0.00     0.001 A 
ATOM     64  C   UNL     1      -2.639  13.869   1.038  1.00  0.00     0.000 A 
ENDBRANCH  45  59
BRANCH  46  65
ATOM     65  C   UNL     1      -3.836   3.653   8.595  1.00  0.00    -0.014 A 
ATOM     66  C   UNL     1      -5.104   3.124   8.884  1.00  0.00     0.009 A 
ATOM     67  C   UNL     1      -2.705   3.068   9.185  1.00  0.00     0.009 A 
ATOM     68  C   UNL     1      -5.240   2.055   9.771  1.00  0.00     0.001 A 
ATOM     69  C   UNL     1      -2.843   1.981  10.050  1.00  0.00     0.001 A 
ATOM     70  C   UNL     1      -4.109   1.483  10.352  1.00  0.00     0.000 A 
ENDBRANCH  46  65
BRANCH  58  71
ATOM     71  C   UNL     1      -5.693  10.309   9.255  1.00  0.00    -0.014 A 
ATOM     72  C   UNL     1      -5.035  10.596  10.462  1.00  0.00     0.009 A 
ATOM     73  C   UNL     1      -7.019  10.734   9.085  1.00  0.00     0.009 A 
ATOM     74  C   UNL     1      -5.708  11.255  11.493  1.00  0.00     0.001 A 
ATOM     75  C   UNL     1      -7.680  11.419  10.106  1.00  0.00     0.001 A 
ATOM     76  C   UNL     1      -7.028  11.667  11.313  1.00  0.00     0.000 A 
ENDBRANCH  58  71
ENDBRANCH  32  33
ENDBRANCH  24  27
ENDBRANCH  22  23
ENDBRANCH  21  22
ENDBRANCH  20  21
ENDBRANCH   1  20
TORSDOF 15
