REMARK SMILES Cc1cc(C)n([C@H](C)[C@H](C)C(=O)NCCCCNC(=O)c2ccc(-c3c4nc(c(-c5ccccc5)c5ccc([nH]5)c(-c5ccccc5)c5nc(c(-c6ccccc6)c6ccc3[nH]6)C=C5)C=C4)cc2)n1
REMARK SMILES IDX 15 1 14 2 13 3 11 4 12 5 9 7 10 8 7 9 8 10 6 11 1 12 2 13
REMARK SMILES IDX 3 14 69 15 4 16 5 17 16 18 17 19 18 20 19 21 20 23 21 24
REMARK SMILES IDX 22 25 68 26 23 27 67 28 24 29 25 30 26 31 61 32 27 33 66 34
REMARK SMILES IDX 60 35 62 36 28 37 65 38 59 39 58 40 29 42 51 43 36 44 50 45
REMARK SMILES IDX 37 46 40 47 49 48 63 49 38 50 39 51 48 53 64 54 41 55 30 56
REMARK SMILES IDX 31 57 35 58 32 59 34 60 33 61 52 62 53 63 57 64 54 65 56 66
REMARK SMILES IDX 55 67 42 68 43 69 47 70 44 71 46 72 45 73
REMARK H PARENT 13 6 18 22 62 41 40 52
REMARK Flexibility Score: inf
ROOT
ATOM      1  C   UNL     1       3.252   6.528   1.205  1.00  0.00     0.023 C 
ENDROOT
BRANCH   1   2
ATOM      2  C   UNL     1       1.752   6.422   1.469  1.00  0.00     0.116 C 
BRANCH   2   3
ATOM      3  N   UNL     1       0.968   7.263   0.582  1.00  0.00    -0.356 N 
ATOM      4  C   UNL     1      -0.084   6.967  -0.229  1.00  0.00     0.224 C 
ATOM      5  O   UNL     1      -0.601   7.901  -0.847  1.00  0.00    -0.275 OA
ATOM      6  H   UNL     1       1.245   8.208   0.565  1.00  0.00     0.163 HD
BRANCH   4   7
ATOM      7  C   UNL     1      -0.606   5.544  -0.392  1.00  0.00     0.100 C 
ATOM      8  C   UNL     1       0.501   4.653  -0.983  1.00  0.00     0.020 C 
BRANCH   7   9
ATOM      9  C   UNL     1      -1.292   4.954   0.872  1.00  0.00     0.116 C 
ATOM     10  C   UNL     1      -1.634   5.991   1.964  1.00  0.00     0.034 C 
BRANCH   9  11
ATOM     11  N   UNL     1      -2.512   4.192   0.521  1.00  0.00    -0.266 N 
ATOM     12  C   UNL     1      -6.019   3.994   0.976  1.00  0.00     0.069 C 
ATOM     13  C   UNL     1      -4.596   3.768   0.633  1.00  0.00     0.060 A 
ATOM     14  C   UNL     1      -3.976   2.591   0.174  1.00  0.00     0.048 A 
ATOM     15  N   UNL     1      -3.714   4.758   0.768  1.00  0.00    -0.178 NA
ATOM     16  C   UNL     1      -2.629   2.886   0.099  1.00  0.00     0.036 A 
ATOM     17  C   UNL     1      -1.507   2.014  -0.316  1.00  0.00     0.066 C 
ENDBRANCH   9  11
ENDBRANCH   7   9
ENDBRANCH   4   7
ENDBRANCH   2   3
ENDBRANCH   1   2
BRANCH   1  18
ATOM     18  C   UNL     1       3.869   7.918   1.419  1.00  0.00     0.023 C 
BRANCH  18  19
ATOM     19  C   UNL     1       3.658   8.508   2.810  1.00  0.00     0.116 C 
BRANCH  19  20
ATOM     20  N   UNL     1       4.282   7.713   3.860  1.00  0.00    -0.352 N 
ATOM     21  C   UNL     1       4.295   7.962   5.218  1.00  0.00     0.251 C 
ATOM     22  H   UNL     1       4.751   6.899   3.565  1.00  0.00     0.163 HD
ATOM     23  O   UNL     1       5.150   7.462   5.933  1.00  0.00    -0.269 OA
BRANCH  21  24
ATOM     24  C   UNL     1       3.263   8.841   5.801  1.00  0.00     0.039 A 
ATOM     25  C   UNL     1       3.606   9.774   6.784  1.00  0.00     0.014 A 
ATOM     26  C   UNL     1       1.942   8.720   5.368  1.00  0.00     0.014 A 
ATOM     27  C   UNL     1       2.628  10.640   7.266  1.00  0.00     0.010 A 
ATOM     28  C   UNL     1       0.995   9.635   5.776  1.00  0.00     0.010 A 
ATOM     29  C   UNL     1       1.327  10.584   6.739  1.00  0.00    -0.014 A 
BRANCH  29  30
ATOM     30  C   UNL     1       0.365  11.637   7.064  1.00  0.00     0.031 A 
ATOM     31  C   UNL     1       0.839  13.010   6.734  1.00  0.00     0.074 A 
ATOM     32  C   UNL     1      -0.918  11.413   7.418  1.00  0.00     0.049 A 
ATOM     33  N   UNL     1       1.119  13.963   7.559  1.00  0.00    -0.248 NA
ATOM     34  C   UNL     1       1.171  13.318   5.332  1.00  0.00     0.031 C 
ATOM     35  C   UNL     1      -1.623  10.128   7.478  1.00  0.00     0.029 A 
ATOM     36  N   UNL     1      -1.909  12.311   7.689  1.00  0.00    -0.354 N 
ATOM     37  C   UNL     1       1.464  15.061   6.775  1.00  0.00     0.074 A 
ATOM     38  C   UNL     1       1.653  14.558   5.439  1.00  0.00     0.031 C 
ATOM     39  C   UNL     1      -2.957  10.346   7.529  1.00  0.00     0.029 A 
ATOM     40  C   UNL     1      -3.193  11.772   7.666  1.00  0.00     0.049 A 
ATOM     41  H   UNL     1      -1.732  13.259   7.883  1.00  0.00     0.167 HD
ATOM     42  C   UNL     1       1.303  16.333   7.238  1.00  0.00     0.031 A 
ATOM     43  C   UNL     1      -4.367  12.448   7.729  1.00  0.00     0.031 A 
ATOM     44  C   UNL     1       1.083  16.348   8.663  1.00  0.00     0.049 A 
ATOM     45  C   UNL     1      -4.080  13.784   8.291  1.00  0.00     0.074 A 
ATOM     46  C   UNL     1       1.789  15.935   9.774  1.00  0.00     0.029 A 
ATOM     47  N   UNL     1      -0.219  16.509   9.072  1.00  0.00    -0.354 N 
ATOM     48  N   UNL     1      -3.725  13.982   9.526  1.00  0.00    -0.248 NA
ATOM     49  C   UNL     1      -3.792  14.874   7.374  1.00  0.00     0.031 C 
ATOM     50  C   UNL     1       0.801  15.436  10.673  1.00  0.00     0.029 A 
ATOM     51  C   UNL     1      -0.456  15.639  10.100  1.00  0.00     0.049 A 
ATOM     52  H   UNL     1      -0.869  17.142   8.691  1.00  0.00     0.167 HD
ATOM     53  C   UNL     1      -2.770  14.983   9.453  1.00  0.00     0.074 A 
ATOM     54  C   UNL     1      -2.951  15.582   8.132  1.00  0.00     0.031 C 
ATOM     55  C   UNL     1      -1.742  15.028  10.351  1.00  0.00     0.031 A 
BRANCH  42  56
ATOM     56  C   UNL     1       0.867  17.496   6.371  1.00  0.00    -0.014 A 
ATOM     57  C   UNL     1       0.659  18.745   6.990  1.00  0.00     0.009 A 
ATOM     58  C   UNL     1       0.356  17.350   5.069  1.00  0.00     0.009 A 
ATOM     59  C   UNL     1      -0.114  19.743   6.385  1.00  0.00     0.001 A 
ATOM     60  C   UNL     1      -0.379  18.361   4.443  1.00  0.00     0.001 A 
ATOM     61  C   UNL     1      -0.644  19.544   5.115  1.00  0.00     0.000 A 
ENDBRANCH  42  56
BRANCH  43  62
ATOM     62  C   UNL     1      -5.696  12.121   7.167  1.00  0.00    -0.014 A 
ATOM     63  C   UNL     1      -6.846  12.797   7.612  1.00  0.00     0.009 A 
ATOM     64  C   UNL     1      -5.803  11.358   5.991  1.00  0.00     0.009 A 
ATOM     65  C   UNL     1      -8.040  12.755   6.880  1.00  0.00     0.001 A 
ATOM     66  C   UNL     1      -6.998  11.312   5.262  1.00  0.00     0.001 A 
ATOM     67  C   UNL     1      -8.110  12.026   5.696  1.00  0.00     0.000 A 
ENDBRANCH  43  62
BRANCH  55  68
ATOM     68  C   UNL     1      -1.847  14.181  11.594  1.00  0.00    -0.014 A 
ATOM     69  C   UNL     1      -1.955  12.779  11.576  1.00  0.00     0.009 A 
ATOM     70  C   UNL     1      -1.684  14.820  12.832  1.00  0.00     0.009 A 
ATOM     71  C   UNL     1      -1.928  12.046  12.768  1.00  0.00     0.001 A 
ATOM     72  C   UNL     1      -1.632  14.087  14.018  1.00  0.00     0.001 A 
ATOM     73  C   UNL     1      -1.760  12.701  13.986  1.00  0.00     0.000 A 
ENDBRANCH  55  68
ENDBRANCH  29  30
ENDBRANCH  21  24
ENDBRANCH  19  20
ENDBRANCH  18  19
ENDBRANCH   1  18
TORSDOF 13
