REMARK SMILES COc1cnc(F)c(C(=O)NCCCCNC(=O)c2ccc(-c3c4nc(c(-c5ccccc5)c5ccc([nH]5)c(-c5ccccc5)c5nc(c(-c6ccccc6)c6ccc3[nH]6)C=C5)C=C4)cc2)c1
REMARK SMILES IDX 14 1 13 2 12 3 11 4 9 5 10 6 8 8 3 9 4 10 67 11 5 12 6 13
REMARK SMILES IDX 7 14 2 15 1 16 15 17 16 18 17 19 18 21 19 22 20 23 66 24
REMARK SMILES IDX 21 25 65 26 22 27 23 28 24 29 59 30 25 31 64 32 58 33 60 34
REMARK SMILES IDX 26 35 63 36 57 37 56 38 27 40 49 41 34 42 48 43 35 44 38 45
REMARK SMILES IDX 47 46 61 47 36 48 37 49 46 51 62 52 39 53 28 54 29 55 33 56
REMARK SMILES IDX 30 57 32 58 31 59 50 60 51 61 55 62 52 63 54 64 53 65 40 66
REMARK SMILES IDX 41 67 45 68 42 69 44 70 43 71
REMARK H PARENT 11 7 16 20 60 39 38 50
REMARK Flexibility Score: inf
ROOT
ATOM      1  C   UNL     1       3.929   0.447   8.630  1.00  0.00     0.023 C 
ENDROOT
BRANCH   1   2
ATOM      2  C   UNL     1       2.812   0.943   7.710  1.00  0.00     0.023 C 
BRANCH   2   3
ATOM      3  C   UNL     1       3.250   1.978   6.670  1.00  0.00     0.116 C 
BRANCH   3   4
ATOM      4  N   UNL     1       3.950   1.335   5.575  1.00  0.00    -0.352 N 
ATOM      5  C   UNL     1       3.546   0.919   4.335  1.00  0.00     0.256 C 
ATOM      6  O   UNL     1       4.401   0.377   3.629  1.00  0.00    -0.269 OA
ATOM      7  H   UNL     1       4.902   1.164   5.760  1.00  0.00     0.163 HD
BRANCH   5   8
ATOM      8  C   UNL     1       2.199   1.123   3.755  1.00  0.00     0.098 A 
ATOM      9  C   UNL     1       0.888   1.319   1.728  1.00  0.00     0.138 A 
ATOM     10  C   UNL     1      -0.242   1.436   2.516  1.00  0.00     0.160 A 
ATOM     11  C   UNL     1       2.124   1.200   2.355  1.00  0.00     0.066 A 
ATOM     12  N   UNL     1      -0.219   1.346   3.862  1.00  0.00    -0.224 NA
ATOM     13  C   UNL     1       0.994   1.157   4.442  1.00  0.00     0.225 A 
ATOM     14  F   UNL     1       0.942   0.929   5.758  1.00  0.00    -0.184 F 
BRANCH   9  15
ATOM     15  O   UNL     1       0.751   1.344   0.372  1.00  0.00    -0.495 OA
ATOM     16  C   UNL     1       1.194   0.115  -0.210  1.00  0.00     0.278 C 
ENDBRANCH   9  15
ENDBRANCH   5   8
ENDBRANCH   3   4
ENDBRANCH   2   3
ENDBRANCH   1   2
BRANCH   1  17
ATOM     17  C   UNL     1       4.524   1.504   9.552  1.00  0.00     0.116 C 
BRANCH  17  18
ATOM     18  N   UNL     1       3.540   2.133  10.418  1.00  0.00    -0.352 N 
ATOM     19  C   UNL     1       3.703   2.620  11.693  1.00  0.00     0.251 C 
ATOM     20  H   UNL     1       2.635   2.221  10.041  1.00  0.00     0.163 HD
ATOM     21  O   UNL     1       2.742   3.039  12.325  1.00  0.00    -0.269 OA
BRANCH  19  22
ATOM     22  C   UNL     1       5.043   2.593  12.315  1.00  0.00     0.039 A 
ATOM     23  C   UNL     1       5.170   2.068  13.603  1.00  0.00     0.014 A 
ATOM     24  C   UNL     1       6.166   3.058  11.626  1.00  0.00     0.014 A 
ATOM     25  C   UNL     1       6.436   1.946  14.176  1.00  0.00     0.010 A 
ATOM     26  C   UNL     1       7.433   2.879  12.173  1.00  0.00     0.010 A 
ATOM     27  C   UNL     1       7.579   2.318  13.450  1.00  0.00    -0.014 A 
BRANCH  27  28
ATOM     28  C   UNL     1       8.938   2.117  14.007  1.00  0.00     0.031 A 
ATOM     29  C   UNL     1       9.803   3.300  14.335  1.00  0.00     0.074 A 
ATOM     30  C   UNL     1       9.417   0.867  14.156  1.00  0.00     0.049 A 
ATOM     31  N   UNL     1      11.037   3.324  14.770  1.00  0.00    -0.248 NA
ATOM     32  C   UNL     1       9.211   4.632  14.126  1.00  0.00     0.031 C 
ATOM     33  C   UNL     1       8.689  -0.365  13.841  1.00  0.00     0.029 A 
ATOM     34  N   UNL     1      10.635   0.427  14.610  1.00  0.00    -0.354 N 
ATOM     35  C   UNL     1      11.374   4.667  14.870  1.00  0.00     0.074 A 
ATOM     36  C   UNL     1      10.232   5.427  14.411  1.00  0.00     0.031 C 
ATOM     37  C   UNL     1       9.465  -1.420  14.139  1.00  0.00     0.029 A 
ATOM     38  C   UNL     1      10.752  -0.941  14.630  1.00  0.00     0.049 A 
ATOM     39  H   UNL     1      11.356   1.034  14.894  1.00  0.00     0.167 HD
ATOM     40  C   UNL     1      12.526   5.220  15.319  1.00  0.00     0.031 A 
ATOM     41  C   UNL     1      11.783  -1.722  15.002  1.00  0.00     0.031 A 
ATOM     42  C   UNL     1      13.658   4.468  15.789  1.00  0.00     0.049 A 
ATOM     43  C   UNL     1      13.052  -1.084  15.491  1.00  0.00     0.074 A 
ATOM     44  C   UNL     1      14.850   4.939  16.310  1.00  0.00     0.029 A 
ATOM     45  N   UNL     1      13.734   3.084  15.799  1.00  0.00    -0.354 N 
ATOM     46  N   UNL     1      13.337   0.188  15.626  1.00  0.00    -0.248 NA
ATOM     47  C   UNL     1      14.138  -1.992  15.887  1.00  0.00     0.031 C 
ATOM     48  C   UNL     1      15.664   3.839  16.601  1.00  0.00     0.029 A 
ATOM     49  C   UNL     1      14.960   2.684  16.302  1.00  0.00     0.049 A 
ATOM     50  H   UNL     1      13.023   2.477  15.493  1.00  0.00     0.167 HD
ATOM     51  C   UNL     1      14.623   0.234  16.148  1.00  0.00     0.074 A 
ATOM     52  C   UNL     1      15.058  -1.138  16.314  1.00  0.00     0.031 C 
ATOM     53  C   UNL     1      15.375   1.315  16.462  1.00  0.00     0.031 A 
BRANCH  40  54
ATOM     54  C   UNL     1      12.615   6.719  15.318  1.00  0.00    -0.014 A 
ATOM     55  C   UNL     1      11.892   7.488  16.244  1.00  0.00     0.009 A 
ATOM     56  C   UNL     1      13.455   7.370  14.401  1.00  0.00     0.009 A 
ATOM     57  C   UNL     1      11.982   8.881  16.229  1.00  0.00     0.001 A 
ATOM     58  C   UNL     1      13.562   8.762  14.405  1.00  0.00     0.001 A 
ATOM     59  C   UNL     1      12.819   9.516  15.313  1.00  0.00     0.000 A 
ENDBRANCH  40  54
BRANCH  41  60
ATOM     60  C   UNL     1      11.651  -3.200  14.954  1.00  0.00    -0.014 A 
ATOM     61  C   UNL     1      11.522  -3.936  16.141  1.00  0.00     0.009 A 
ATOM     62  C   UNL     1      11.656  -3.881  13.727  1.00  0.00     0.009 A 
ATOM     63  C   UNL     1      11.424  -5.328  16.103  1.00  0.00     0.001 A 
ATOM     64  C   UNL     1      11.535  -5.272  13.692  1.00  0.00     0.001 A 
ATOM     65  C   UNL     1      11.427  -5.995  14.879  1.00  0.00     0.000 A 
ENDBRANCH  41  60
BRANCH  53  66
ATOM     66  C   UNL     1      16.732   1.058  17.050  1.00  0.00    -0.014 A 
ATOM     67  C   UNL     1      17.798   0.616  16.252  1.00  0.00     0.009 A 
ATOM     68  C   UNL     1      16.954   1.298  18.415  1.00  0.00     0.009 A 
ATOM     69  C   UNL     1      19.055   0.393  16.817  1.00  0.00     0.001 A 
ATOM     70  C   UNL     1      18.217   1.097  18.971  1.00  0.00     0.001 A 
ATOM     71  C   UNL     1      19.264   0.637  18.174  1.00  0.00     0.000 A 
ENDBRANCH  53  66
ENDBRANCH  27  28
ENDBRANCH  19  22
ENDBRANCH  17  18
ENDBRANCH   1  17
TORSDOF 12
