REMARK SMILES O=C(NCCCCNC(=O)c1ccc2c(=O)n(CCC[NH+]3CCOCC3)c(=O)[nH]c2c1)c1ccc(-c2c3nc(c(-c4ccccc4)c4ccc([nH]4)c(-c4ccccc4)c4nc(c(-c5ccccc5)c5ccc2[nH]5)C=C4)C=C3)cc1
REMARK SMILES IDX 6 1 5 2 4 3 3 4 1 5 2 6 32 8 33 9 79 10 34 11 78 12 35 13
REMARK SMILES IDX 36 14 37 15 72 16 38 17 77 18 71 19 73 20 39 21 76 22 70 23
REMARK SMILES IDX 69 24 40 26 62 27 47 28 61 29 48 30 51 31 60 32 74 33 49 34
REMARK SMILES IDX 50 35 59 37 75 38 52 39 41 40 42 41 46 42 43 43 45 44 44 45
REMARK SMILES IDX 63 46 64 47 68 48 65 49 67 50 66 51 53 52 54 53 58 54 55 55
REMARK SMILES IDX 57 56 56 57 7 58 8 59 9 60 10 62 11 63 12 64 31 65 13 66
REMARK SMILES IDX 30 67 14 68 29 69 15 70 27 71 16 73 17 74 28 75 18 76 19 77
REMARK SMILES IDX 20 78 21 79 22 80 26 81 23 83 25 84 24 85
REMARK H PARENT 3 7 73 25 51 36 8 61 29 72 21 82
REMARK Flexibility Score: inf
ROOT
ATOM      1  C   UNL     1       4.501   3.670  -0.515  1.00  0.00     0.023 C 
ENDROOT
BRANCH   1   2
ATOM      2  C   UNL     1       4.884   2.259  -0.951  1.00  0.00     0.023 C 
BRANCH   2   3
ATOM      3  C   UNL     1       4.518   1.166   0.043  1.00  0.00     0.116 C 
BRANCH   3   4
ATOM      4  N   UNL     1       3.082   1.034   0.220  1.00  0.00    -0.352 N 
ATOM      5  O   UNL     1       1.066   0.039   0.068  1.00  0.00    -0.269 OA
ATOM      6  C   UNL     1       2.288  -0.074   0.054  1.00  0.00     0.251 C 
ATOM      7  H   UNL     1       2.612   1.853   0.497  1.00  0.00     0.163 HD
BRANCH   6   8
ATOM      8  C   UNL     1       2.902  -1.404  -0.152  1.00  0.00     0.039 A 
ATOM      9  C   UNL     1       2.336  -2.272  -1.090  1.00  0.00     0.014 A 
ATOM     10  C   UNL     1       4.008  -1.811   0.600  1.00  0.00     0.014 A 
ATOM     11  C   UNL     1       2.890  -3.539  -1.283  1.00  0.00     0.010 A 
ATOM     12  C   UNL     1       4.616  -3.033   0.338  1.00  0.00     0.010 A 
ATOM     13  C   UNL     1       4.040  -3.927  -0.577  1.00  0.00    -0.014 A 
BRANCH  13  14
ATOM     14  C   UNL     1       4.603  -5.293  -0.710  1.00  0.00     0.031 A 
ATOM     15  C   UNL     1       4.610  -6.212   0.484  1.00  0.00     0.074 A 
ATOM     16  C   UNL     1       5.128  -5.703  -1.880  1.00  0.00     0.049 A 
ATOM     17  N   UNL     1       5.094  -7.423   0.591  1.00  0.00    -0.248 NA
ATOM     18  C   UNL     1       4.014  -5.695   1.728  1.00  0.00     0.031 C 
ATOM     19  C   UNL     1       5.188  -4.905  -3.104  1.00  0.00     0.029 A 
ATOM     20  N   UNL     1       5.705  -6.899  -2.231  1.00  0.00    -0.354 N 
ATOM     21  C   UNL     1       4.876  -7.799   1.911  1.00  0.00     0.074 A 
ATOM     22  C   UNL     1       4.278  -6.670   2.584  1.00  0.00     0.031 C 
ATOM     23  C   UNL     1       5.732  -5.646  -4.082  1.00  0.00     0.029 A 
ATOM     24  C   UNL     1       6.107  -6.952  -3.544  1.00  0.00     0.049 A 
ATOM     25  H   UNL     1       5.821  -7.647  -1.602  1.00  0.00     0.167 HD
ATOM     26  C   UNL     1       5.122  -8.991   2.501  1.00  0.00     0.031 A 
ATOM     27  C   UNL     1       6.709  -7.937  -4.239  1.00  0.00     0.031 A 
ATOM     28  C   UNL     1       5.692 -10.120   1.819  1.00  0.00     0.049 A 
ATOM     29  C   UNL     1       7.007  -9.243  -3.554  1.00  0.00     0.074 A 
ATOM     30  C   UNL     1       5.933 -11.387   2.318  1.00  0.00     0.029 A 
ATOM     31  N   UNL     1       6.106 -10.122   0.496  1.00  0.00    -0.354 N 
ATOM     32  N   UNL     1       6.750  -9.603  -2.319  1.00  0.00    -0.248 NA
ATOM     33  C   UNL     1       7.666 -10.285  -4.356  1.00  0.00     0.031 C 
ATOM     34  C   UNL     1       6.567 -12.131   1.323  1.00  0.00     0.029 A 
ATOM     35  C   UNL     1       6.635 -11.360   0.173  1.00  0.00     0.049 A 
ATOM     36  H   UNL     1       6.034  -9.358  -0.121  1.00  0.00     0.167 HD
ATOM     37  C   UNL     1       7.187 -10.917  -2.204  1.00  0.00     0.074 A 
ATOM     38  C   UNL     1       7.714 -11.296  -3.498  1.00  0.00     0.031 C 
ATOM     39  C   UNL     1       7.153 -11.731  -1.120  1.00  0.00     0.031 A 
BRANCH  26  40
ATOM     40  C   UNL     1       4.770  -9.149   3.957  1.00  0.00    -0.014 A 
ATOM     41  C   UNL     1       5.785  -9.390   4.897  1.00  0.00     0.009 A 
ATOM     42  C   UNL     1       3.434  -9.152   4.388  1.00  0.00     0.009 A 
ATOM     43  C   UNL     1       5.470  -9.650   6.232  1.00  0.00     0.001 A 
ATOM     44  C   UNL     1       3.123  -9.374   5.732  1.00  0.00     0.001 A 
ATOM     45  C   UNL     1       4.140  -9.636   6.649  1.00  0.00     0.000 A 
ENDBRANCH  26  40
BRANCH  27  46
ATOM     46  C   UNL     1       7.022  -7.724  -5.679  1.00  0.00    -0.014 A 
ATOM     47  C   UNL     1       7.978  -6.772  -6.073  1.00  0.00     0.009 A 
ATOM     48  C   UNL     1       6.313  -8.417  -6.671  1.00  0.00     0.009 A 
ATOM     49  C   UNL     1       8.189  -6.492  -7.425  1.00  0.00     0.001 A 
ATOM     50  C   UNL     1       6.550  -8.159  -8.024  1.00  0.00     0.001 A 
ATOM     51  C   UNL     1       7.477  -7.188  -8.400  1.00  0.00     0.000 A 
ENDBRANCH  27  46
BRANCH  39  52
ATOM     52  C   UNL     1       7.679 -13.135  -1.263  1.00  0.00    -0.014 A 
ATOM     53  C   UNL     1       6.800 -14.223  -1.121  1.00  0.00     0.009 A 
ATOM     54  C   UNL     1       9.053 -13.387  -1.392  1.00  0.00     0.009 A 
ATOM     55  C   UNL     1       7.288 -15.529  -1.073  1.00  0.00     0.001 A 
ATOM     56  C   UNL     1       9.534 -14.698  -1.382  1.00  0.00     0.001 A 
ATOM     57  C   UNL     1       8.654 -15.766  -1.207  1.00  0.00     0.000 A 
ENDBRANCH  39  52
ENDBRANCH  13  14
ENDBRANCH   6   8
ENDBRANCH   3   4
ENDBRANCH   2   3
ENDBRANCH   1   2
BRANCH   1  58
ATOM     58  C   UNL     1       5.031   4.076   0.857  1.00  0.00     0.116 C 
BRANCH  58  59
ATOM     59  N   UNL     1       6.487   3.986   0.942  1.00  0.00    -0.352 N 
ATOM     60  C   UNL     1       7.399   4.983   1.196  1.00  0.00     0.251 C 
ATOM     61  H   UNL     1       6.866   3.089   0.799  1.00  0.00     0.163 HD
ATOM     62  O   UNL     1       8.603   4.803   1.072  1.00  0.00    -0.269 OA
BRANCH  60  63
ATOM     63  C   UNL     1       6.883   6.295   1.613  1.00  0.00     0.041 A 
ATOM     64  C   UNL     1       6.051   6.348   2.736  1.00  0.00     0.015 A 
ATOM     65  C   UNL     1       7.117   7.420   0.811  1.00  0.00     0.040 A 
ATOM     66  C   UNL     1       5.307   7.491   2.957  1.00  0.00     0.017 A 
ATOM     67  C   UNL     1       6.375   8.570   1.057  1.00  0.00     0.056 A 
ATOM     68  C   UNL     1       5.440   8.572   2.078  1.00  0.00     0.064 A 
ATOM     69  N   UNL     1       6.521   9.719   0.286  1.00  0.00    -0.307 N 
ATOM     70  C   UNL     1       4.510   9.691   2.173  1.00  0.00     0.264 A 
ATOM     71  C   UNL     1       5.752  10.846   0.436  1.00  0.00     0.328 A 
ATOM     72  H   UNL     1       7.218   9.724  -0.409  1.00  0.00     0.171 HD
ATOM     73  O   UNL     1       3.602   9.540   2.971  1.00  0.00    -0.268 OA
ATOM     74  N   UNL     1       4.694  10.780   1.344  1.00  0.00    -0.260 N 
ATOM     75  O   UNL     1       6.027  11.841  -0.233  1.00  0.00    -0.248 OA
BRANCH  74  76
ATOM     76  C   UNL     1       3.860  11.982   1.479  1.00  0.00     0.137 C 
BRANCH  76  77
ATOM     77  C   UNL     1       2.377  11.926   1.892  1.00  0.00     0.083 C 
BRANCH  77  78
ATOM     78  C   UNL     1       1.835  11.556   3.296  1.00  0.00     0.264 C 
BRANCH  78  79
ATOM     79  N   UNL     1       2.273  12.146   4.553  1.00  0.00    -0.331 N 
ATOM     80  C   UNL     1       2.125  13.586   4.708  1.00  0.00     0.291 C 
ATOM     81  C   UNL     1       3.503  11.665   5.183  1.00  0.00     0.291 C 
ATOM     82  H   UNL     1       1.532  11.715   5.106  1.00  0.00     0.348 HD
ATOM     83  C   UNL     1       3.384  14.359   4.311  1.00  0.00     0.221 C 
ATOM     84  C   UNL     1       4.756  12.493   4.866  1.00  0.00     0.221 C 
ATOM     85  O   UNL     1       4.541  13.902   5.024  1.00  0.00    -0.370 OA
ENDBRANCH  78  79
ENDBRANCH  77  78
ENDBRANCH  76  77
ENDBRANCH  74  76
ENDBRANCH  60  63
ENDBRANCH  58  59
ENDBRANCH   1  58
TORSDOF 15
