REMARK SMILES CC1(C)CCCN(c2cncc(C(=O)NCCCCNC(=O)c3ccc(-c4c5nc(c(-c6ccccc6)c6ccc([nH]6)c(-c6ccccc6)c6nc(c(-c7ccccc7)c7ccc4[nH]7)C=C6)C=C5)cc3)n2)CC1
REMARK SMILES IDX 16 1 15 2 13 3 14 4 12 6 8 7 9 8 71 9 10 10 11 11 7 12 72 13
REMARK SMILES IDX 73 14 2 15 1 16 3 17 4 18 6 20 5 21 17 23 18 24 19 25 20 26
REMARK SMILES IDX 21 27 22 29 23 30 24 31 70 32 25 33 69 34 26 35 27 36 28 37
REMARK SMILES IDX 63 38 29 39 68 40 62 41 64 42 30 43 67 44 61 45 60 46 31 48
REMARK SMILES IDX 53 49 38 50 52 51 39 52 42 53 51 54 65 55 40 56 41 57 50 59
REMARK SMILES IDX 66 60 43 61 32 62 33 63 37 64 34 65 36 66 35 67 54 68 55 69
REMARK SMILES IDX 59 70 56 71 58 72 57 73 44 74 45 75 49 76 46 77 48 78 47 79
REMARK H PARENT 15 5 20 28 64 47 42 58
REMARK Flexibility Score: 80.00
ROOT
ATOM      1  C   UNL     1      -5.836   1.710   2.700  1.00  0.00     0.116 C 
ENDROOT
BRANCH   1   2
ATOM      2  N   UNL     1      -6.590   1.449   3.916  1.00  0.00    -0.351 N 
ATOM      3  C   UNL     1      -6.217   0.894   5.122  1.00  0.00     0.271 C 
ATOM      4  O   UNL     1      -7.095   0.753   5.976  1.00  0.00    -0.267 OA
ATOM      5  H   UNL     1      -7.536   1.716   3.869  1.00  0.00     0.163 HD
BRANCH   3   6
ATOM      6  C   UNL     1      -4.826   0.451   5.430  1.00  0.00     0.148 A 
ATOM      7  C   UNL     1      -2.598   0.261   4.843  1.00  0.00     0.148 A 
ATOM      8  C   UNL     1      -2.384  -0.456   6.024  1.00  0.00     0.157 A 
ATOM      9  N   UNL     1      -3.830   0.725   4.553  1.00  0.00    -0.222 NA
ATOM     10  N   UNL     1      -3.357  -0.721   6.933  1.00  0.00    -0.258 NA
ATOM     11  C   UNL     1      -4.585  -0.248   6.604  1.00  0.00     0.145 A 
BRANCH   7  12
ATOM     12  N   UNL     1      -1.572   0.467   3.917  1.00  0.00    -0.355 N 
BRANCH  12  13
ATOM     13  C   UNL     1      -1.182  -0.754   3.214  1.00  0.00     0.118 C 
BRANCH  13  14
ATOM     14  C   UNL     1      -0.782  -0.579   1.747  1.00  0.00     0.028 C 
BRANCH  14  15
ATOM     15  C   UNL     1       0.527   0.191   1.449  1.00  0.00    -0.034 C 
ATOM     16  C   UNL     1       0.901  -0.077  -0.029  1.00  0.00     0.011 C 
ATOM     17  C   UNL     1       1.690  -0.312   2.321  1.00  0.00     0.011 C 
BRANCH  15  18
ATOM     18  C   UNL     1       0.350   1.719   1.599  1.00  0.00     0.008 CG0
ATOM     19  G   UNL     1      -0.161   2.225   2.945  1.00  0.00     0.000 G0
ENDBRANCH  15  18
ENDBRANCH  14  15
ENDBRANCH  13  14
ENDBRANCH  12  13
BRANCH  12  20
ATOM     20  C   UNL     1      -1.582   1.771   3.268  1.00  0.00     0.118 C 
BRANCH  20  21
ATOM     21  C   UNL     1      -0.161   2.225   2.945  1.00  0.00     0.022 CG0
ATOM     22  G   UNL     1       0.350   1.719   1.599  1.00  0.00     0.000 G0
ENDBRANCH  20  21
ENDBRANCH  12  20
ENDBRANCH   7  12
ENDBRANCH   3   6
ENDBRANCH   1   2
BRANCH   1  23
ATOM     23  C   UNL     1      -6.178   0.716   1.592  1.00  0.00     0.023 C 
BRANCH  23  24
ATOM     24  C   UNL     1      -7.556   0.925   0.957  1.00  0.00     0.023 C 
BRANCH  24  25
ATOM     25  C   UNL     1      -7.824   2.329   0.421  1.00  0.00     0.116 C 
BRANCH  25  26
ATOM     26  N   UNL     1      -6.826   2.788  -0.533  1.00  0.00    -0.352 N 
ATOM     27  C   UNL     1      -7.003   3.521  -1.682  1.00  0.00     0.251 C 
ATOM     28  H   UNL     1      -5.896   2.539  -0.328  1.00  0.00     0.163 HD
ATOM     29  O   UNL     1      -6.056   3.742  -2.430  1.00  0.00    -0.269 OA
BRANCH  27  30
ATOM     30  C   UNL     1      -8.352   4.009  -2.033  1.00  0.00     0.039 A 
ATOM     31  C   UNL     1      -8.834   3.786  -3.325  1.00  0.00     0.014 A 
ATOM     32  C   UNL     1      -9.150   4.653  -1.083  1.00  0.00     0.014 A 
ATOM     33  C   UNL     1     -10.146   4.140  -3.643  1.00  0.00     0.010 A 
ATOM     34  C   UNL     1     -10.479   4.941  -1.381  1.00  0.00     0.010 A 
ATOM     35  C   UNL     1     -10.991   4.683  -2.661  1.00  0.00    -0.014 A 
BRANCH  35  36
ATOM     36  C   UNL     1     -12.418   4.972  -2.949  1.00  0.00     0.031 A 
ATOM     37  C   UNL     1     -12.930   6.384  -2.900  1.00  0.00     0.074 A 
ATOM     38  C   UNL     1     -13.269   3.954  -3.184  1.00  0.00     0.049 A 
ATOM     39  N   UNL     1     -14.153   6.825  -3.058  1.00  0.00    -0.248 NA
ATOM     40  C   UNL     1     -11.944   7.437  -2.608  1.00  0.00     0.031 C 
ATOM     41  C   UNL     1     -12.909   2.535  -3.215  1.00  0.00     0.029 A 
ATOM     42  N   UNL     1     -14.619   3.959  -3.431  1.00  0.00    -0.354 N 
ATOM     43  C   UNL     1     -14.086   8.199  -2.868  1.00  0.00     0.074 A 
ATOM     44  C   UNL     1     -12.713   8.514  -2.535  1.00  0.00     0.031 C 
ATOM     45  C   UNL     1     -14.004   1.809  -3.491  1.00  0.00     0.029 A 
ATOM     46  C   UNL     1     -15.149   2.705  -3.617  1.00  0.00     0.049 A 
ATOM     47  H   UNL     1     -15.157   4.782  -3.472  1.00  0.00     0.167 HD
ATOM     48  C   UNL     1     -15.073   9.120  -2.977  1.00  0.00     0.031 A 
ATOM     49  C   UNL     1     -16.416   2.318  -3.856  1.00  0.00     0.031 A 
ATOM     50  C   UNL     1     -16.435   8.810  -3.318  1.00  0.00     0.049 A 
ATOM     51  C   UNL     1     -17.495   3.358  -3.966  1.00  0.00     0.074 A 
ATOM     52  C   UNL     1     -17.494   9.679  -3.512  1.00  0.00     0.029 A 
ATOM     53  N   UNL     1     -16.928   7.529  -3.511  1.00  0.00    -0.354 N 
ATOM     54  N   UNL     1     -17.401   4.661  -3.855  1.00  0.00    -0.248 NA
ATOM     55  C   UNL     1     -18.855   2.873  -4.245  1.00  0.00     0.031 C 
ATOM     56  C   UNL     1     -18.640   8.921  -3.776  1.00  0.00     0.029 A 
ATOM     57  C   UNL     1     -18.281   7.583  -3.799  1.00  0.00     0.049 A 
ATOM     58  H   UNL     1     -16.395   6.703  -3.453  1.00  0.00     0.167 HD
ATOM     59  C   UNL     1     -18.680   5.153  -4.077  1.00  0.00     0.074 A 
ATOM     60  C   UNL     1     -19.529   4.010  -4.344  1.00  0.00     0.031 C 
ATOM     61  C   UNL     1     -19.113   6.437  -4.061  1.00  0.00     0.031 A 
BRANCH  48  62
ATOM     62  C   UNL     1     -14.709  10.555  -2.717  1.00  0.00    -0.014 A 
ATOM     63  C   UNL     1     -13.902  11.275  -3.613  1.00  0.00     0.009 A 
ATOM     64  C   UNL     1     -15.205  11.206  -1.577  1.00  0.00     0.009 A 
ATOM     65  C   UNL     1     -13.567  12.605  -3.352  1.00  0.00     0.001 A 
ATOM     66  C   UNL     1     -14.893  12.545  -1.334  1.00  0.00     0.001 A 
ATOM     67  C   UNL     1     -14.066  13.240  -2.216  1.00  0.00     0.000 A 
ENDBRANCH  48  62
BRANCH  49  68
ATOM     68  C   UNL     1     -16.734   0.876  -4.024  1.00  0.00    -0.014 A 
ATOM     69  C   UNL     1     -17.079   0.366  -5.285  1.00  0.00     0.009 A 
ATOM     70  C   UNL     1     -16.700   0.003  -2.925  1.00  0.00     0.009 A 
ATOM     71  C   UNL     1     -17.409  -0.983  -5.437  1.00  0.00     0.001 A 
ATOM     72  C   UNL     1     -17.003  -1.351  -3.086  1.00  0.00     0.001 A 
ATOM     73  C   UNL     1     -17.366  -1.840  -4.339  1.00  0.00     0.000 A 
ENDBRANCH  49  68
BRANCH  61  74
ATOM     74  C   UNL     1     -20.563   6.677  -4.375  1.00  0.00    -0.014 A 
ATOM     75  C   UNL     1     -21.572   6.349  -3.457  1.00  0.00     0.009 A 
ATOM     76  C   UNL     1     -20.919   7.279  -5.592  1.00  0.00     0.009 A 
ATOM     77  C   UNL     1     -22.912   6.589  -3.766  1.00  0.00     0.001 A 
ATOM     78  C   UNL     1     -22.257   7.544  -5.886  1.00  0.00     0.001 A 
ATOM     79  C   UNL     1     -23.252   7.191  -4.977  1.00  0.00     0.000 A 
ENDBRANCH  61  74
ENDBRANCH  35  36
ENDBRANCH  27  30
ENDBRANCH  25  26
ENDBRANCH  24  25
ENDBRANCH  23  24
ENDBRANCH   1  23
TORSDOF 12
