REMARK SMILES Cc1cc(C)c2c(CCCC(=O)NCCCCNC(=O)c3ccc(-c4c5nc(c(-c6ccccc6)c6ccc([nH]6)c(-c6ccccc6)c6nc(c(-c7ccccc7)c7ccc4[nH]7)C=C6)C=C5)cc3)c(-c3ccccn3)[nH]c2c1
REMARK SMILES IDX 14 1 13 2 11 3 12 4 10 6 9 7 8 8 7 9 1 10 2 11 3 12 78 13
REMARK SMILES IDX 4 14 77 15 5 16 6 17 76 18 69 19 70 21 71 22 75 23 72 24
REMARK SMILES IDX 74 25 73 26 15 27 16 28 17 29 18 30 19 31 20 33 21 34 22 35
REMARK SMILES IDX 68 36 23 37 67 38 24 39 25 40 26 41 61 42 27 43 66 44 60 45
REMARK SMILES IDX 62 46 28 47 65 48 59 49 58 50 29 52 51 53 36 54 50 55 37 56
REMARK SMILES IDX 40 57 49 58 63 59 38 60 39 61 48 63 64 64 41 65 30 66 31 67
REMARK SMILES IDX 35 68 32 69 34 70 33 71 52 72 53 73 57 74 54 75 56 76 55 77
REMARK SMILES IDX 42 78 43 79 47 80 44 81 46 82 45 83
REMARK H PARENT 13 5 76 20 18 32 62 51 40 62
REMARK Flexibility Score: inf
ROOT
ATOM      1  C   UNL     1      -2.818  -3.940   6.199  1.00  0.00     0.116 C 
ENDROOT
BRANCH   1   2
ATOM      2  N   UNL     1      -2.589  -4.578   7.473  1.00  0.00    -0.356 N 
ATOM      3  C   UNL     1      -1.519  -4.613   8.303  1.00  0.00     0.220 C 
ATOM      4  O   UNL     1      -1.717  -5.155   9.399  1.00  0.00    -0.275 OA
ATOM      5  H   UNL     1      -3.364  -5.087   7.806  1.00  0.00     0.163 HD
BRANCH   3   6
ATOM      6  C   UNL     1      -0.180  -3.941   8.050  1.00  0.00     0.100 C 
BRANCH   6   7
ATOM      7  C   UNL     1       0.705  -4.180   6.849  1.00  0.00     0.015 C 
BRANCH   7   8
ATOM      8  C   UNL     1       0.357  -3.680   5.461  1.00  0.00     0.039 C 
BRANCH   8   9
ATOM      9  C   UNL     1       0.097  -2.246   5.035  1.00  0.00    -0.013 A 
ATOM     10  C   UNL     1       0.795   0.230  -0.117  1.00  0.00     0.044 C 
ATOM     11  C   UNL     1       0.533  -0.496   1.170  1.00  0.00    -0.049 A 
ATOM     12  C   UNL     1       0.744  -1.873   1.234  1.00  0.00     0.007 A 
ATOM     13  C   UNL     1       0.129   0.196   2.313  1.00  0.00     0.030 A 
ATOM     14  C   UNL     1       0.585  -2.606   2.430  1.00  0.00    -0.041 A 
ATOM     15  C   UNL     1       0.005  -0.522   3.509  1.00  0.00     0.047 A 
ATOM     16  C   UNL     1       0.767  -4.101   2.341  1.00  0.00     0.045 C 
ATOM     17  C   UNL     1       0.261  -1.885   3.621  1.00  0.00     0.006 A 
ATOM     18  N   UNL     1      -0.381  -0.082   4.745  1.00  0.00    -0.353 N 
ATOM     19  C   UNL     1      -0.446  -1.109   5.659  1.00  0.00     0.068 A 
ATOM     20  H   UNL     1      -0.586   0.858   4.956  1.00  0.00     0.167 HD
BRANCH  19  21
ATOM     21  C   UNL     1      -1.130  -0.832   6.926  1.00  0.00     0.087 A 
ATOM     22  C   UNL     1      -2.522  -0.728   6.972  1.00  0.00     0.030 A 
ATOM     23  N   UNL     1      -0.356  -0.711   8.021  1.00  0.00    -0.255 NA
ATOM     24  C   UNL     1      -3.154  -0.665   8.212  1.00  0.00     0.004 A 
ATOM     25  C   UNL     1      -0.999  -0.664   9.217  1.00  0.00     0.112 A 
ATOM     26  C   UNL     1      -2.378  -0.675   9.363  1.00  0.00     0.020 A 
ENDBRANCH  19  21
ENDBRANCH   8   9
ENDBRANCH   7   8
ENDBRANCH   6   7
ENDBRANCH   3   6
ENDBRANCH   1   2
BRANCH   1  27
ATOM     27  C   UNL     1      -2.871  -4.932   5.034  1.00  0.00     0.023 C 
BRANCH  27  28
ATOM     28  C   UNL     1      -4.251  -5.538   4.775  1.00  0.00     0.023 C 
BRANCH  28  29
ATOM     29  C   UNL     1      -5.237  -4.551   4.165  1.00  0.00     0.116 C 
BRANCH  29  30
ATOM     30  N   UNL     1      -4.924  -4.177   2.784  1.00  0.00    -0.352 N 
ATOM     31  C   UNL     1      -5.676  -3.347   1.961  1.00  0.00     0.251 C 
ATOM     32  H   UNL     1      -4.099  -4.551   2.400  1.00  0.00     0.163 HD
ATOM     33  O   UNL     1      -5.566  -3.347   0.753  1.00  0.00    -0.269 OA
BRANCH  31  34
ATOM     34  C   UNL     1      -6.598  -2.416   2.635  1.00  0.00     0.039 A 
ATOM     35  C   UNL     1      -7.942  -2.293   2.272  1.00  0.00     0.014 A 
ATOM     36  C   UNL     1      -6.072  -1.732   3.727  1.00  0.00     0.014 A 
ATOM     37  C   UNL     1      -8.777  -1.520   3.076  1.00  0.00     0.010 A 
ATOM     38  C   UNL     1      -6.925  -1.132   4.608  1.00  0.00     0.010 A 
ATOM     39  C   UNL     1      -8.257  -0.954   4.250  1.00  0.00    -0.014 A 
BRANCH  39  40
ATOM     40  C   UNL     1      -9.091  -0.219   5.189  1.00  0.00     0.031 A 
ATOM     41  C   UNL     1     -10.209  -0.997   5.789  1.00  0.00     0.074 A 
ATOM     42  C   UNL     1      -8.703   0.984   5.671  1.00  0.00     0.049 A 
ATOM     43  N   UNL     1     -11.475  -0.778   5.669  1.00  0.00    -0.248 NA
ATOM     44  C   UNL     1      -9.888  -2.233   6.525  1.00  0.00     0.031 C 
ATOM     45  C   UNL     1      -7.449   1.711   5.417  1.00  0.00     0.029 A 
ATOM     46  N   UNL     1      -9.299   1.757   6.613  1.00  0.00    -0.354 N 
ATOM     47  C   UNL     1     -12.114  -1.733   6.455  1.00  0.00     0.074 A 
ATOM     48  C   UNL     1     -11.105  -2.693   6.823  1.00  0.00     0.031 C 
ATOM     49  C   UNL     1      -7.274   2.662   6.362  1.00  0.00     0.029 A 
ATOM     50  C   UNL     1      -8.480   2.737   7.164  1.00  0.00     0.049 A 
ATOM     51  H   UNL     1     -10.237   1.634   6.885  1.00  0.00     0.167 HD
ATOM     52  C   UNL     1     -13.375  -1.535   6.931  1.00  0.00     0.031 A 
ATOM     53  C   UNL     1      -8.773   3.530   8.223  1.00  0.00     0.031 A 
ATOM     54  C   UNL     1     -14.021  -0.430   6.271  1.00  0.00     0.049 A 
ATOM     55  C   UNL     1     -10.244   3.501   8.390  1.00  0.00     0.074 A 
ATOM     56  C   UNL     1     -14.401  -0.160   4.972  1.00  0.00     0.029 A 
ATOM     57  N   UNL     1     -13.984   0.785   6.915  1.00  0.00    -0.354 N 
ATOM     58  N   UNL     1     -11.072   3.997   7.517  1.00  0.00    -0.248 NA
ATOM     59  C   UNL     1     -10.804   2.507   9.291  1.00  0.00     0.031 C 
ATOM     60  C   UNL     1     -14.087   1.218   4.781  1.00  0.00     0.029 A 
ATOM     61  C   UNL     1     -13.618   1.731   5.992  1.00  0.00     0.049 A 
ATOM     62  H   UNL     1     -14.184   0.946   7.865  1.00  0.00     0.167 HD
ATOM     63  C   UNL     1     -12.107   3.076   7.453  1.00  0.00     0.074 A 
ATOM     64  C   UNL     1     -11.936   2.233   8.637  1.00  0.00     0.031 C 
ATOM     65  C   UNL     1     -12.823   2.900   6.303  1.00  0.00     0.031 A 
BRANCH  52  66
ATOM     66  C   UNL     1     -13.879  -2.074   8.246  1.00  0.00    -0.014 A 
ATOM     67  C   UNL     1     -15.226  -1.862   8.596  1.00  0.00     0.009 A 
ATOM     68  C   UNL     1     -13.028  -2.538   9.267  1.00  0.00     0.009 A 
ATOM     69  C   UNL     1     -15.677  -2.043   9.909  1.00  0.00     0.001 A 
ATOM     70  C   UNL     1     -13.483  -2.758  10.570  1.00  0.00     0.001 A 
ATOM     71  C   UNL     1     -14.803  -2.485  10.898  1.00  0.00     0.000 A 
ENDBRANCH  52  66
BRANCH  53  72
ATOM     72  C   UNL     1      -7.883   4.059   9.279  1.00  0.00    -0.014 A 
ATOM     73  C   UNL     1      -8.305   5.118  10.099  1.00  0.00     0.009 A 
ATOM     74  C   UNL     1      -6.756   3.322   9.687  1.00  0.00     0.009 A 
ATOM     75  C   UNL     1      -7.659   5.391  11.313  1.00  0.00     0.001 A 
ATOM     76  C   UNL     1      -6.112   3.596  10.899  1.00  0.00     0.001 A 
ATOM     77  C   UNL     1      -6.576   4.617  11.721  1.00  0.00     0.000 A 
ENDBRANCH  53  72
BRANCH  65  78
ATOM     78  C   UNL     1     -12.590   3.877   5.172  1.00  0.00    -0.014 A 
ATOM     79  C   UNL     1     -11.349   4.036   4.526  1.00  0.00     0.009 A 
ATOM     80  C   UNL     1     -13.698   4.553   4.644  1.00  0.00     0.009 A 
ATOM     81  C   UNL     1     -11.220   4.869   3.407  1.00  0.00     0.001 A 
ATOM     82  C   UNL     1     -13.575   5.367   3.515  1.00  0.00     0.001 A 
ATOM     83  C   UNL     1     -12.336   5.530   2.901  1.00  0.00     0.000 A 
ENDBRANCH  65  78
ENDBRANCH  39  40
ENDBRANCH  31  34
ENDBRANCH  29  30
ENDBRANCH  28  29
ENDBRANCH  27  28
ENDBRANCH   1  27
TORSDOF 15
