REMARK SMILES O=C(NCCCCNC(=O)[C@H]1O[C@@H](Oc2c(-c3cc(O)c(O)c(O)c3)oc3cc(O)cc(O)c3c2=O)[C@H](O)[C@@H](O)[C@@H]1O)c1ccc(-c2c3nc(c(-c4ccccc4)c4ccc([nH]4)c(-c4ccccc4)c4nc(c(-c5ccccc5)c5ccc2[nH]5)C=C4)C=C3)cc1
REMARK SMILES IDX 6 1 5 2 4 3 3 4 1 5 2 6 43 8 44 9 90 10 45 11 89 12 46 13
REMARK SMILES IDX 47 14 48 15 83 16 49 17 88 18 82 19 84 20 50 21 87 22 81 23
REMARK SMILES IDX 80 24 51 26 73 27 58 28 72 29 59 30 62 31 71 32 85 33 60 34
REMARK SMILES IDX 61 35 70 37 86 38 63 39 52 40 53 41 57 42 54 43 56 44 55 45
REMARK SMILES IDX 74 46 75 47 79 48 76 49 78 50 77 51 64 52 65 53 69 54 66 55
REMARK SMILES IDX 68 56 67 57 7 58 8 59 9 60 10 62 11 63 12 64 41 65 13 66
REMARK SMILES IDX 39 67 37 68 42 69 14 71 15 72 16 73 35 74 26 75 34 76 36 77
REMARK SMILES IDX 27 78 32 79 28 80 31 81 29 82 17 83 18 84 25 85 19 86 23 87
REMARK SMILES IDX 21 88 20 89 24 91 22 93 33 95 30 97 40 99 38 101
REMARK H PARENT 3 7 84 25 62 36 8 61 42 70 20 90 24 92 22 94 33 96 30 98
REMARK H PARENT 40 100 38 102
REMARK Flexibility Score: inf
ROOT
ATOM      1  C   UNL     1       7.639  -4.451  -4.939  1.00  0.00     0.023 C 
ENDROOT
BRANCH   1   2
ATOM      2  C   UNL     1       8.023  -4.982  -6.321  1.00  0.00     0.023 C 
BRANCH   2   3
ATOM      3  C   UNL     1       6.928  -4.948  -7.379  1.00  0.00     0.116 C 
BRANCH   3   4
ATOM      4  N   UNL     1       6.455  -3.610  -7.687  1.00  0.00    -0.352 N 
ATOM      5  O   UNL     1       5.897  -1.861  -9.002  1.00  0.00    -0.269 OA
ATOM      6  C   UNL     1       6.217  -3.038  -8.917  1.00  0.00     0.251 C 
ATOM      7  H   UNL     1       6.279  -3.033  -6.909  1.00  0.00     0.163 HD
BRANCH   6   8
ATOM      8  C   UNL     1       6.395  -3.844 -10.148  1.00  0.00     0.039 A 
ATOM      9  C   UNL     1       5.869  -5.134 -10.249  1.00  0.00     0.014 A 
ATOM     10  C   UNL     1       7.114  -3.294 -11.213  1.00  0.00     0.014 A 
ATOM     11  C   UNL     1       6.188  -5.925 -11.349  1.00  0.00     0.010 A 
ATOM     12  C   UNL     1       7.367  -4.063 -12.352  1.00  0.00     0.010 A 
ATOM     13  C   UNL     1       6.940  -5.398 -12.412  1.00  0.00    -0.014 A 
BRANCH  13  14
ATOM     14  C   UNL     1       7.239  -6.249 -13.592  1.00  0.00     0.031 A 
ATOM     15  C   UNL     1       8.649  -6.660 -13.918  1.00  0.00     0.074 A 
ATOM     16  C   UNL     1       6.220  -6.677 -14.361  1.00  0.00     0.049 A 
ATOM     17  N   UNL     1       9.079  -7.427 -14.889  1.00  0.00    -0.248 NA
ATOM     18  C   UNL     1       9.715  -6.139 -13.049  1.00  0.00     0.031 C 
ATOM     19  C   UNL     1       4.809  -6.348 -14.151  1.00  0.00     0.029 A 
ATOM     20  N   UNL     1       6.212  -7.498 -15.459  1.00  0.00    -0.354 N 
ATOM     21  C   UNL     1      10.462  -7.460 -14.764  1.00  0.00     0.074 A 
ATOM     22  C   UNL     1      10.802  -6.620 -13.635  1.00  0.00     0.031 C 
ATOM     23  C   UNL     1       4.067  -7.004 -15.055  1.00  0.00     0.029 A 
ATOM     24  C   UNL     1       4.952  -7.752 -15.941  1.00  0.00     0.049 A 
ATOM     25  H   UNL     1       7.030  -7.869 -15.863  1.00  0.00     0.167 HD
ATOM     26  C   UNL     1      11.367  -8.131 -15.518  1.00  0.00     0.031 A 
ATOM     27  C   UNL     1       4.548  -8.501 -16.983  1.00  0.00     0.031 A 
ATOM     28  C   UNL     1      11.030  -8.972 -16.637  1.00  0.00     0.049 A 
ATOM     29  C   UNL     1       5.571  -9.215 -17.815  1.00  0.00     0.074 A 
ATOM     30  C   UNL     1      11.875  -9.723 -17.437  1.00  0.00     0.029 A 
ATOM     31  N   UNL     1       9.745  -9.169 -17.119  1.00  0.00    -0.354 N 
ATOM     32  N   UNL     1       6.872  -9.261 -17.662  1.00  0.00    -0.248 NA
ATOM     33  C   UNL     1       5.067  -9.981 -18.962  1.00  0.00     0.031 C 
ATOM     34  C   UNL     1      11.105 -10.339 -18.431  1.00  0.00     0.029 A 
ATOM     35  C   UNL     1       9.776 -10.011 -18.219  1.00  0.00     0.049 A 
ATOM     36  H   UNL     1       8.931  -8.771 -16.735  1.00  0.00     0.167 HD
ATOM     37  C   UNL     1       7.342 -10.075 -18.683  1.00  0.00     0.074 A 
ATOM     38  C   UNL     1       6.185 -10.513 -19.438  1.00  0.00     0.031 C 
ATOM     39  C   UNL     1       8.619 -10.430 -18.966  1.00  0.00     0.031 A 
BRANCH  26  40
ATOM     40  C   UNL     1      12.819  -7.954 -15.173  1.00  0.00    -0.014 A 
ATOM     41  C   UNL     1      13.376  -8.539 -14.025  1.00  0.00     0.009 A 
ATOM     42  C   UNL     1      13.650  -7.212 -16.028  1.00  0.00     0.009 A 
ATOM     43  C   UNL     1      14.727  -8.352 -13.721  1.00  0.00     0.001 A 
ATOM     44  C   UNL     1      15.005  -7.048 -15.735  1.00  0.00     0.001 A 
ATOM     45  C   UNL     1      15.541  -7.610 -14.577  1.00  0.00     0.000 A 
ENDBRANCH  26  40
BRANCH  27  46
ATOM     46  C   UNL     1       3.100  -8.617 -17.283  1.00  0.00    -0.014 A 
ATOM     47  C   UNL     1       2.413  -9.810 -17.015  1.00  0.00     0.009 A 
ATOM     48  C   UNL     1       2.391  -7.525 -17.808  1.00  0.00     0.009 A 
ATOM     49  C   UNL     1       1.046  -9.911 -17.278  1.00  0.00     0.001 A 
ATOM     50  C   UNL     1       1.019  -7.621 -18.045  1.00  0.00     0.001 A 
ATOM     51  C   UNL     1       0.349  -8.815 -17.786  1.00  0.00     0.000 A 
ENDBRANCH  27  46
BRANCH  39  52
ATOM     52  C   UNL     1       8.823 -11.359 -20.128  1.00  0.00    -0.014 A 
ATOM     53  C   UNL     1       8.695 -10.908 -21.451  1.00  0.00     0.009 A 
ATOM     54  C   UNL     1       9.169 -12.698 -19.893  1.00  0.00     0.009 A 
ATOM     55  C   UNL     1       8.876 -11.792 -22.516  1.00  0.00     0.001 A 
ATOM     56  C   UNL     1       9.374 -13.573 -20.961  1.00  0.00     0.001 A 
ATOM     57  C   UNL     1       9.218 -13.122 -22.271  1.00  0.00     0.000 A 
ENDBRANCH  39  52
ENDBRANCH  13  14
ENDBRANCH   6   8
ENDBRANCH   3   4
ENDBRANCH   2   3
ENDBRANCH   1   2
BRANCH   1  58
ATOM     58  C   UNL     1       6.309  -4.955  -4.377  1.00  0.00     0.116 C 
BRANCH  58  59
ATOM     59  N   UNL     1       6.202  -6.405  -4.364  1.00  0.00    -0.354 N 
ATOM     60  C   UNL     1       6.110  -7.247  -3.285  1.00  0.00     0.252 C 
ATOM     61  H   UNL     1       6.194  -6.840  -5.247  1.00  0.00     0.163 HD
ATOM     62  O   UNL     1       5.832  -8.427  -3.490  1.00  0.00    -0.272 OA
BRANCH  60  63
ATOM     63  C   UNL     1       6.402  -6.666  -1.900  1.00  0.00     0.242 C 
ATOM     64  O   UNL     1       5.281  -5.880  -1.467  1.00  0.00    -0.324 OA
ATOM     65  C   UNL     1       6.673  -7.725  -0.827  1.00  0.00     0.184 C 
ATOM     66  C   UNL     1       5.632  -5.021  -0.382  1.00  0.00     0.340 C 
ATOM     67  C   UNL     1       7.141  -6.984   0.434  1.00  0.00     0.181 C 
ATOM     68  C   UNL     1       6.249  -5.801   0.800  1.00  0.00     0.214 C 
BRANCH  65  69
ATOM     69  O   UNL     1       7.679  -8.681  -1.170  1.00  0.00    -0.387 OA
ATOM     70  H   UNL     1       8.526  -8.227  -1.299  1.00  0.00     0.211 HD
ENDBRANCH  65  69
BRANCH  66  71
ATOM     71  O   UNL     1       4.553  -4.200   0.128  1.00  0.00    -0.454 OA
BRANCH  71  72
ATOM     72  C   UNL     1       3.249  -4.611  -0.089  1.00  0.00     0.214 A 
ATOM     73  C   UNL     1       2.522  -5.320   0.801  1.00  0.00     0.181 A 
ATOM     74  C   UNL     1       2.531  -4.050  -1.278  1.00  0.00     0.239 A 
ATOM     75  O   UNL     1       1.199  -5.671   0.640  1.00  0.00    -0.452 OA
ATOM     76  C   UNL     1       1.050  -4.208  -1.295  1.00  0.00     0.111 A 
ATOM     77  O   UNL     1       3.155  -3.479  -2.167  1.00  0.00    -0.285 OA
ATOM     78  C   UNL     1       0.474  -5.036  -0.331  1.00  0.00     0.146 A 
ATOM     79  C   UNL     1       0.204  -3.564  -2.211  1.00  0.00     0.134 A 
ATOM     80  C   UNL     1      -0.905  -5.255  -0.295  1.00  0.00     0.094 A 
ATOM     81  C   UNL     1      -1.183  -3.772  -2.177  1.00  0.00     0.093 A 
ATOM     82  C   UNL     1      -1.723  -4.625  -1.220  1.00  0.00     0.123 A 
BRANCH  73  83
ATOM     83  C   UNL     1       3.097  -5.884   2.033  1.00  0.00     0.029 A 
ATOM     84  C   UNL     1       3.212  -7.283   2.143  1.00  0.00     0.062 A 
ATOM     85  C   UNL     1       3.659  -5.056   3.021  1.00  0.00     0.062 A 
ATOM     86  C   UNL     1       3.988  -7.829   3.158  1.00  0.00     0.162 A 
ATOM     87  C   UNL     1       4.426  -5.625   4.031  1.00  0.00     0.162 A 
ATOM     88  C   UNL     1       4.628  -7.000   4.072  1.00  0.00     0.200 A 
BRANCH  86  89
ATOM     89  O   UNL     1       4.170  -9.181   3.195  1.00  0.00    -0.504 OA
ATOM     90  H   UNL     1       3.733  -9.729   2.573  1.00  0.00     0.293 HD
ENDBRANCH  86  89
BRANCH  87  91
ATOM     91  O   UNL     1       5.071  -4.812   4.918  1.00  0.00    -0.504 OA
ATOM     92  H   UNL     1       5.591  -5.184   5.602  1.00  0.00     0.293 HD
ENDBRANCH  87  91
BRANCH  88  93
ATOM     93  O   UNL     1       5.559  -7.506   4.938  1.00  0.00    -0.502 OA
ATOM     94  H   UNL     1       5.708  -8.430   4.978  1.00  0.00     0.293 HD
ENDBRANCH  88  93
ENDBRANCH  73  83
BRANCH  79  95
ATOM     95  O   UNL     1       0.709  -2.701  -3.142  1.00  0.00    -0.507 OA
ATOM     96  H   UNL     1       0.134  -2.277  -3.748  1.00  0.00     0.293 HD
ENDBRANCH  79  95
BRANCH  82  97
ATOM     97  O   UNL     1      -3.062  -4.867  -1.145  1.00  0.00    -0.508 OA
ATOM     98  H   UNL     1      -3.397  -5.447  -0.490  1.00  0.00     0.293 HD
ENDBRANCH  82  97
ENDBRANCH  71  72
ENDBRANCH  66  71
BRANCH  67  99
ATOM     99  O   UNL     1       7.205  -7.873   1.573  1.00  0.00    -0.387 OA
ATOM    100  H   UNL     1       6.316  -8.202   1.778  1.00  0.00     0.211 HD
ENDBRANCH  67  99
BRANCH  68 101
ATOM    101  O   UNL     1       6.979  -4.920   1.666  1.00  0.00    -0.384 OA
ATOM    102  H   UNL     1       7.741  -4.556   1.189  1.00  0.00     0.211 HD
ENDBRANCH  68 101
ENDBRANCH  60  63
ENDBRANCH  58  59
ENDBRANCH   1  58
TORSDOF 22
