REMARK SMILES C[C@@H](C(=O)NCCCCNC(=O)c1ccc(-c2c3nc(c(-c4ccccc4)c4ccc([nH]4)c(-c4ccccc4)c4nc(c(-c5ccccc5)c5ccc2[nH]5)C=C4)C=C3)cc1)c1ccc(C[C@H]2CCCC2=O)c(-c2ccccc2)c1
REMARK SMILES IDX 7 1 6 2 5 3 3 4 4 5 2 7 1 8 61 9 62 10 79 11 63 12 72 13
REMARK SMILES IDX 64 14 73 15 74 16 78 17 75 18 77 19 76 20 65 21 66 22 67 23
REMARK SMILES IDX 70 24 68 25 69 26 71 27 8 28 9 29 10 30 11 31 12 33 13 34
REMARK SMILES IDX 14 35 60 36 15 37 59 38 16 39 17 40 18 41 53 42 19 43 58 44
REMARK SMILES IDX 52 45 54 46 20 47 57 48 51 49 50 50 21 52 43 53 28 54 42 55
REMARK SMILES IDX 29 56 32 57 41 58 55 59 30 60 31 61 40 63 56 64 33 65 22 66
REMARK SMILES IDX 23 67 27 68 24 69 26 70 25 71 44 72 45 73 49 74 46 75 48 76
REMARK SMILES IDX 47 77 34 78 35 79 39 80 36 81 38 82 37 83
REMARK H PARENT 5 6 10 32 54 51 32 62
REMARK Flexibility Score: inf
ROOT
ATOM      1  C   UNL     1       4.241  -0.084  -1.127  1.00  0.00     0.023 C 
ENDROOT
BRANCH   1   2
ATOM      2  C   UNL     1       3.457   1.210  -1.357  1.00  0.00     0.116 C 
BRANCH   2   3
ATOM      3  N   UNL     1       2.405   1.008  -2.330  1.00  0.00    -0.356 N 
ATOM      4  C   UNL     1       1.075   0.758  -2.142  1.00  0.00     0.227 C 
ATOM      5  O   UNL     1       0.419   0.474  -3.145  1.00  0.00    -0.274 OA
ATOM      6  H   UNL     1       2.691   1.059  -3.271  1.00  0.00     0.163 HD
BRANCH   4   7
ATOM      7  C   UNL     1       0.464   0.881  -0.737  1.00  0.00     0.105 C 
ATOM      8  C   UNL     1       0.943  -0.229   0.209  1.00  0.00     0.023 C 
BRANCH   7   9
ATOM      9  C   UNL     1      -1.059   0.942  -0.786  1.00  0.00    -0.035 A 
ATOM     10  C   UNL     1      -1.709   2.169  -0.917  1.00  0.00     0.005 A 
ATOM     11  C   UNL     1      -1.845  -0.218  -0.714  1.00  0.00     0.013 A 
ATOM     12  C   UNL     1      -3.103   2.231  -0.908  1.00  0.00     0.004 A 
ATOM     13  C   UNL     1      -3.254  -0.182  -0.654  1.00  0.00    -0.015 A 
ATOM     14  C   UNL     1      -3.892   1.076  -0.728  1.00  0.00    -0.039 A 
BRANCH  13  15
ATOM     15  C   UNL     1      -3.956  -1.469  -0.485  1.00  0.00    -0.018 A 
ATOM     16  C   UNL     1      -4.852  -1.956  -1.448  1.00  0.00     0.009 A 
ATOM     17  C   UNL     1      -3.694  -2.275   0.639  1.00  0.00     0.009 A 
ATOM     18  C   UNL     1      -5.497  -3.184  -1.274  1.00  0.00     0.001 A 
ATOM     19  C   UNL     1      -4.324  -3.509   0.807  1.00  0.00     0.001 A 
ATOM     20  C   UNL     1      -5.233  -3.959  -0.147  1.00  0.00     0.000 A 
ENDBRANCH  13  15
BRANCH  14  21
ATOM     21  C   UNL     1      -5.392   1.261  -0.591  1.00  0.00     0.047 C 
BRANCH  21  22
ATOM     22  C   UNL     1      -5.903   1.805   0.750  1.00  0.00     0.060 C 
ATOM     23  C   UNL     1      -5.437   1.083   2.017  1.00  0.00     0.012 C 
ATOM     24  C   UNL     1      -5.454   3.224   1.013  1.00  0.00     0.136 C 
ATOM     25  C   UNL     1      -4.263   1.889   2.558  1.00  0.00     0.009 C 
ATOM     26  C   UNL     1      -4.591   3.341   2.242  1.00  0.00     0.076 C 
ATOM     27  O   UNL     1      -5.771   4.181   0.317  1.00  0.00    -0.299 OA
ENDBRANCH  21  22
ENDBRANCH  14  21
ENDBRANCH   7   9
ENDBRANCH   4   7
ENDBRANCH   2   3
ENDBRANCH   1   2
BRANCH   1  28
ATOM     28  C   UNL     1       5.035  -0.569  -2.343  1.00  0.00     0.023 C 
BRANCH  28  29
ATOM     29  C   UNL     1       6.043   0.432  -2.894  1.00  0.00     0.116 C 
BRANCH  29  30
ATOM     30  N   UNL     1       7.031   0.842  -1.909  1.00  0.00    -0.352 N 
ATOM     31  C   UNL     1       8.381   1.030  -2.075  1.00  0.00     0.251 C 
ATOM     32  H   UNL     1       6.686   1.006  -1.002  1.00  0.00     0.163 HD
ATOM     33  O   UNL     1       9.101   1.254  -1.107  1.00  0.00    -0.269 OA
BRANCH  31  34
ATOM     34  C   UNL     1       8.966   0.924  -3.426  1.00  0.00     0.039 A 
ATOM     35  C   UNL     1      10.098   0.126  -3.609  1.00  0.00     0.014 A 
ATOM     36  C   UNL     1       8.380   1.581  -4.511  1.00  0.00     0.014 A 
ATOM     37  C   UNL     1      10.601  -0.070  -4.896  1.00  0.00     0.010 A 
ATOM     38  C   UNL     1       8.840   1.329  -5.799  1.00  0.00     0.010 A 
ATOM     39  C   UNL     1       9.952   0.498  -6.005  1.00  0.00    -0.014 A 
BRANCH  39  40
ATOM     40  C   UNL     1      10.412   0.228  -7.389  1.00  0.00     0.031 A 
ATOM     41  C   UNL     1      10.937   1.348  -8.242  1.00  0.00     0.074 A 
ATOM     42  C   UNL     1      10.289  -1.012  -7.901  1.00  0.00     0.049 A 
ATOM     43  N   UNL     1      11.314   1.323  -9.496  1.00  0.00    -0.248 NA
ATOM     44  C   UNL     1      11.027   2.675  -7.613  1.00  0.00     0.031 C 
ATOM     45  C   UNL     1       9.760  -2.177  -7.189  1.00  0.00     0.029 A 
ATOM     46  N   UNL     1      10.592  -1.496  -9.149  1.00  0.00    -0.354 N 
ATOM     47  C   UNL     1      11.668   2.629  -9.808  1.00  0.00     0.074 A 
ATOM     48  C   UNL     1      11.416   3.430  -8.630  1.00  0.00     0.031 C 
ATOM     49  C   UNL     1       9.799  -3.244  -8.002  1.00  0.00     0.029 A 
ATOM     50  C   UNL     1      10.314  -2.832  -9.304  1.00  0.00     0.049 A 
ATOM     51  H   UNL     1      10.973  -0.938  -9.866  1.00  0.00     0.167 HD
ATOM     52  C   UNL     1      12.174   3.116 -10.966  1.00  0.00     0.031 A 
ATOM     53  C   UNL     1      10.448  -3.634 -10.377  1.00  0.00     0.031 A 
ATOM     54  C   UNL     1      12.432   2.319 -12.135  1.00  0.00     0.049 A 
ATOM     55  C   UNL     1      10.991  -3.064 -11.657  1.00  0.00     0.074 A 
ATOM     56  C   UNL     1      12.997   2.710 -13.337  1.00  0.00     0.029 A 
ATOM     57  N   UNL     1      12.140   0.969 -12.249  1.00  0.00    -0.354 N 
ATOM     58  N   UNL     1      11.384  -1.841 -11.916  1.00  0.00    -0.248 NA
ATOM     59  C   UNL     1      11.116  -3.990 -12.792  1.00  0.00     0.031 C 
ATOM     60  C   UNL     1      12.998   1.607 -14.197  1.00  0.00     0.029 A 
ATOM     61  C   UNL     1      12.488   0.517 -13.511  1.00  0.00     0.049 A 
ATOM     62  H   UNL     1      11.743   0.414 -11.539  1.00  0.00     0.167 HD
ATOM     63  C   UNL     1      11.828  -1.856 -13.232  1.00  0.00     0.074 A 
ATOM     64  C   UNL     1      11.669  -3.213 -13.713  1.00  0.00     0.031 C 
ATOM     65  C   UNL     1      12.323  -0.837 -13.975  1.00  0.00     0.031 A 
BRANCH  52  66
ATOM     66  C   UNL     1      12.475   4.588 -11.023  1.00  0.00    -0.014 A 
ATOM     67  C   UNL     1      13.539   5.141 -10.294  1.00  0.00     0.009 A 
ATOM     68  C   UNL     1      11.704   5.427 -11.843  1.00  0.00     0.009 A 
ATOM     69  C   UNL     1      13.802   6.512 -10.355  1.00  0.00     0.001 A 
ATOM     70  C   UNL     1      11.987   6.791 -11.925  1.00  0.00     0.001 A 
ATOM     71  C   UNL     1      13.029   7.334 -11.174  1.00  0.00     0.000 A 
ENDBRANCH  52  66
BRANCH  53  72
ATOM     72  C   UNL     1      10.072  -5.069 -10.286  1.00  0.00    -0.014 A 
ATOM     73  C   UNL     1      11.061  -6.065 -10.300  1.00  0.00     0.009 A 
ATOM     74  C   UNL     1       8.725  -5.451 -10.191  1.00  0.00     0.009 A 
ATOM     75  C   UNL     1      10.706  -7.415 -10.248  1.00  0.00     0.001 A 
ATOM     76  C   UNL     1       8.376  -6.801 -10.109  1.00  0.00     0.001 A 
ATOM     77  C   UNL     1       9.365  -7.781 -10.147  1.00  0.00     0.000 A 
ENDBRANCH  53  72
BRANCH  65  78
ATOM     78  C   UNL     1      12.762  -1.156 -15.375  1.00  0.00    -0.014 A 
ATOM     79  C   UNL     1      11.829  -1.410 -16.392  1.00  0.00     0.009 A 
ATOM     80  C   UNL     1      14.131  -1.157 -15.690  1.00  0.00     0.009 A 
ATOM     81  C   UNL     1      12.260  -1.688 -17.691  1.00  0.00     0.001 A 
ATOM     82  C   UNL     1      14.557  -1.407 -16.995  1.00  0.00     0.001 A 
ATOM     83  C   UNL     1      13.622  -1.680 -17.992  1.00  0.00     0.000 A 
ENDBRANCH  65  78
ENDBRANCH  39  40
ENDBRANCH  31  34
ENDBRANCH  29  30
ENDBRANCH  28  29
ENDBRANCH   1  28
TORSDOF 15
