REMARK SMILES CC(C)C[C@H](CNC(=O)[C@H]1CCCCC[C@H]1[NH3+])CC(=O)NCCCCNC(=O)c1ccc(-c2c3nc(c(-c4ccccc4)c4ccc([nH]4)c(-c4ccccc4)c4nc(c(-c5ccccc5)c5ccc2[nH]5)C=C4)C=C3)cc1
REMARK SMILES IDX 19 1 20 2 21 3 18 5 5 6 4 7 2 8 1 9 3 10 6 11 7 12 8 13 9 15
REMARK SMILES IDX 10 16 11 17 12 18 13 19 16 21 15 22 14 23 17 25 22 29 23 30
REMARK SMILES IDX 24 31 25 32 26 33 27 34 28 36 29 37 30 38 76 39 31 40 75 41
REMARK SMILES IDX 32 42 33 43 34 44 69 45 35 46 74 47 68 48 70 49 36 50 73 51
REMARK SMILES IDX 67 52 66 53 37 55 59 56 44 57 58 58 45 59 48 60 57 61 71 62
REMARK SMILES IDX 46 63 47 64 56 66 72 67 49 68 38 69 39 70 43 71 40 72 42 73
REMARK SMILES IDX 41 74 60 75 61 76 65 77 62 78 64 79 63 80 50 81 51 82 55 83
REMARK SMILES IDX 52 84 54 85 53 86
REMARK H PARENT 21 4 7 14 17 26 17 27 17 28 26 35 70 54 48 65
REMARK Flexibility Score: 90.00
ROOT
ATOM      1  C   UNL     1       2.768  -0.027   5.339  1.00  0.00     0.220 C 
ATOM      2  O   UNL     1       3.122  -0.799   4.445  1.00  0.00    -0.275 OA
ATOM      3  N   UNL     1       3.744   0.677   5.983  1.00  0.00    -0.356 N 
ATOM      4  H   UNL     1       4.588   0.733   5.481  1.00  0.00     0.163 HD
ENDROOT
BRANCH   1   5
ATOM      5  C   UNL     1       1.287   0.200   5.618  1.00  0.00     0.105 C 
BRANCH   5   6
ATOM      6  C   UNL     1       0.448  -1.107   5.797  1.00  0.00     0.018 C 
BRANCH   6   7
ATOM      7  C   UNL     1      -1.069  -0.907   5.535  1.00  0.00     0.009 C 
BRANCH   7   8
ATOM      8  C   UNL     1      -1.723   0.424   5.997  1.00  0.00    -0.017 C 
ATOM      9  C   UNL     1      -1.644   1.527   4.929  1.00  0.00     0.007 C 
ATOM     10  C   UNL     1      -3.204   0.195   6.328  1.00  0.00     0.007 C 
ENDBRANCH   7   8
ENDBRANCH   6   7
BRANCH   6  11
ATOM     11  C   UNL     1       0.724  -1.607   7.224  1.00  0.00     0.120 C 
BRANCH  11  12
ATOM     12  N   UNL     1       0.437  -2.974   7.641  1.00  0.00    -0.355 N 
ATOM     13  C   UNL     1       0.887  -3.640   8.777  1.00  0.00     0.229 C 
ATOM     14  H   UNL     1      -0.149  -3.492   7.043  1.00  0.00     0.163 HD
ATOM     15  O   UNL     1       0.144  -4.521   9.224  1.00  0.00    -0.275 OA
BRANCH  13  16
ATOM     16  C   UNL     1       2.306  -3.399   9.404  1.00  0.00     0.136 C 
BRANCH  16  17
ATOM     17  C   UNL     1       2.776  -1.957   9.450  1.00  0.00     0.020 C 
BRANCH  17  18
ATOM     18  C   UNL     1       1.718  -1.015  10.030  1.00  0.00     0.001 C 
BRANCH  18  19
ATOM     19  C   UNL     1       1.892  -0.715  11.501  1.00  0.00     0.000 CG0
ATOM     20  G   UNL     1       2.555  -1.827  12.301  1.00  0.00     0.000 G0
ENDBRANCH  18  19
ENDBRANCH  17  18
ENDBRANCH  16  17
BRANCH  16  21
ATOM     21  C   UNL     1       2.600  -3.985  10.823  1.00  0.00     0.193 C 
BRANCH  21  22
ATOM     22  C   UNL     1       1.982  -3.230  12.031  1.00  0.00     0.066 C 
BRANCH  22  23
ATOM     23  C   UNL     1       2.555  -1.827  12.301  1.00  0.00     0.006 CG0
ATOM     24  G   UNL     1       1.892  -0.715  11.501  1.00  0.00     0.000 G0
ENDBRANCH  22  23
ENDBRANCH  21  22
BRANCH  21  25
ATOM     25  N   UNL     1       2.312  -5.417  10.915  1.00  0.00    -0.354 N 
ATOM     26  H   UNL     1       1.307  -5.568  10.828  1.00  0.00     0.344 HD
ATOM     27  H   UNL     1       2.633  -5.771  11.816  1.00  0.00     0.344 HD
ATOM     28  H   UNL     1       2.796  -5.910  10.164  1.00  0.00     0.344 HD
ENDBRANCH  21  25
ENDBRANCH  16  21
ENDBRANCH  13  16
ENDBRANCH  11  12
ENDBRANCH   6  11
ENDBRANCH   5   6
ENDBRANCH   1   5
BRANCH   3  29
ATOM     29  C   UNL     1       3.780   1.364   7.272  1.00  0.00     0.116 C 
BRANCH  29  30
ATOM     30  C   UNL     1       4.444   0.457   8.312  1.00  0.00     0.023 C 
BRANCH  30  31
ATOM     31  C   UNL     1       5.760   0.890   8.938  1.00  0.00     0.023 C 
BRANCH  31  32
ATOM     32  C   UNL     1       5.624   2.002   9.971  1.00  0.00     0.116 C 
BRANCH  32  33
ATOM     33  N   UNL     1       4.810   1.648  11.140  1.00  0.00    -0.352 N 
ATOM     34  C   UNL     1       5.139   1.273  12.433  1.00  0.00     0.251 C 
ATOM     35  H   UNL     1       3.840   1.683  10.972  1.00  0.00     0.163 HD
ATOM     36  O   UNL     1       4.285   0.918  13.221  1.00  0.00    -0.269 OA
BRANCH  34  37
ATOM     37  C   UNL     1       6.551   1.298  12.858  1.00  0.00     0.039 A 
ATOM     38  C   UNL     1       7.098   0.244  13.597  1.00  0.00     0.014 A 
ATOM     39  C   UNL     1       7.340   2.373  12.482  1.00  0.00     0.014 A 
ATOM     40  C   UNL     1       8.478   0.210  13.826  1.00  0.00     0.010 A 
ATOM     41  C   UNL     1       8.711   2.258  12.562  1.00  0.00     0.010 A 
ATOM     42  C   UNL     1       9.303   1.180  13.240  1.00  0.00    -0.014 A 
BRANCH  42  43
ATOM     43  C   UNL     1      10.787   1.166  13.298  1.00  0.00     0.031 A 
ATOM     44  C   UNL     1      11.494   2.423  13.735  1.00  0.00     0.074 A 
ATOM     45  C   UNL     1      11.484   0.141  12.769  1.00  0.00     0.049 A 
ATOM     46  N   UNL     1      12.716   2.815  13.494  1.00  0.00    -0.248 NA
ATOM     47  C   UNL     1      10.672   3.417  14.449  1.00  0.00     0.031 C 
ATOM     48  C   UNL     1      10.922  -1.112  12.260  1.00  0.00     0.029 A 
ATOM     49  N   UNL     1      12.831   0.016  12.537  1.00  0.00    -0.354 N 
ATOM     50  C   UNL     1      12.774   4.133  13.935  1.00  0.00     0.074 A 
ATOM     51  C   UNL     1      11.454   4.484  14.406  1.00  0.00     0.031 C 
ATOM     52  C   UNL     1      11.917  -1.889  11.801  1.00  0.00     0.029 A 
ATOM     53  C   UNL     1      13.176  -1.165  11.924  1.00  0.00     0.049 A 
ATOM     54  H   UNL     1      13.487   0.706  12.787  1.00  0.00     0.167 HD
ATOM     55  C   UNL     1      13.839   4.968  13.961  1.00  0.00     0.031 A 
ATOM     56  C   UNL     1      14.374  -1.601  11.491  1.00  0.00     0.031 A 
ATOM     57  C   UNL     1      15.166   4.564  13.589  1.00  0.00     0.049 A 
ATOM     58  C   UNL     1      15.569  -0.701  11.639  1.00  0.00     0.074 A 
ATOM     59  C   UNL     1      16.347   5.277  13.689  1.00  0.00     0.029 A 
ATOM     60  N   UNL     1      15.490   3.314  13.083  1.00  0.00    -0.354 N 
ATOM     61  N   UNL     1      15.623   0.531  12.086  1.00  0.00    -0.248 NA
ATOM     62  C   UNL     1      16.867  -1.252  11.229  1.00  0.00     0.031 C 
ATOM     63  C   UNL     1      17.385   4.462  13.226  1.00  0.00     0.029 A 
ATOM     64  C   UNL     1      16.853   3.231  12.874  1.00  0.00     0.049 A 
ATOM     65  H   UNL     1      14.844   2.594  12.900  1.00  0.00     0.167 HD
ATOM     66  C   UNL     1      16.963   0.891  12.041  1.00  0.00     0.074 A 
ATOM     67  C   UNL     1      17.688  -0.256  11.532  1.00  0.00     0.031 C 
ATOM     68  C   UNL     1      17.544   2.066  12.386  1.00  0.00     0.031 A 
BRANCH  55  69
ATOM     69  C   UNL     1      13.606   6.380  14.424  1.00  0.00    -0.014 A 
ATOM     70  C   UNL     1      13.240   6.666  15.750  1.00  0.00     0.009 A 
ATOM     71  C   UNL     1      13.758   7.445  13.522  1.00  0.00     0.009 A 
ATOM     72  C   UNL     1      12.972   7.978  16.146  1.00  0.00     0.001 A 
ATOM     73  C   UNL     1      13.527   8.761  13.931  1.00  0.00     0.001 A 
ATOM     74  C   UNL     1      13.120   9.024  15.237  1.00  0.00     0.000 A 
ENDBRANCH  55  69
BRANCH  56  75
ATOM     75  C   UNL     1      14.509  -2.965  10.916  1.00  0.00    -0.014 A 
ATOM     76  C   UNL     1      15.133  -3.978  11.661  1.00  0.00     0.009 A 
ATOM     77  C   UNL     1      14.011  -3.272   9.641  1.00  0.00     0.009 A 
ATOM     78  C   UNL     1      15.278  -5.263  11.132  1.00  0.00     0.001 A 
ATOM     79  C   UNL     1      14.134  -4.565   9.125  1.00  0.00     0.001 A 
ATOM     80  C   UNL     1      14.775  -5.556   9.867  1.00  0.00     0.000 A 
ENDBRANCH  56  75
BRANCH  68  81
ATOM     81  C   UNL     1      19.038   2.150  12.276  1.00  0.00    -0.014 A 
ATOM     82  C   UNL     1      19.667   2.293  11.032  1.00  0.00     0.009 A 
ATOM     83  C   UNL     1      19.816   2.158  13.445  1.00  0.00     0.009 A 
ATOM     84  C   UNL     1      21.055   2.422  10.959  1.00  0.00     0.001 A 
ATOM     85  C   UNL     1      21.199   2.311  13.369  1.00  0.00     0.001 A 
ATOM     86  C   UNL     1      21.818   2.438  12.126  1.00  0.00     0.000 A 
ENDBRANCH  68  81
ENDBRANCH  42  43
ENDBRANCH  34  37
ENDBRANCH  32  33
ENDBRANCH  31  32
ENDBRANCH  30  31
ENDBRANCH  29  30
ENDBRANCH   3  29
TORSDOF 18
