REMARK SMILES O=C(C[C@H](C(=O)NCCCCNC(=O)c1ccc(-c2c3nc(c(-c4ccccc4)c4ccc([nH]4)c(-c4ccccc4)c4nc(c(-c5ccccc5)c5ccc2[nH]5)C=C4)C=C3)cc1)c1ccccc1)Nc1ccc(Cl)cc1Cl
REMARK SMILES IDX 9 1 8 2 7 3 5 4 6 5 4 7 3 8 2 9 1 10 69 11 70 13 71 14 76 15
REMARK SMILES IDX 72 16 75 17 77 18 73 19 74 20 63 21 64 22 68 23 65 24 67 25
REMARK SMILES IDX 66 26 10 27 11 28 12 29 13 30 14 32 15 33 16 34 62 35 17 36
REMARK SMILES IDX 61 37 18 38 19 39 20 40 55 41 21 42 60 43 54 44 56 45 22 46
REMARK SMILES IDX 59 47 53 48 52 49 23 51 45 52 30 53 44 54 31 55 34 56 43 57
REMARK SMILES IDX 57 58 32 59 33 60 42 62 58 63 35 64 24 65 25 66 29 67 26 68
REMARK SMILES IDX 28 69 27 70 46 71 47 72 51 73 48 74 50 75 49 76 36 77 37 78
REMARK SMILES IDX 41 79 38 80 40 81 39 82
REMARK H PARENT 7 6 69 12 12 31 56 50 34 61
REMARK Flexibility Score: inf
ROOT
ATOM      1  C   UNL     1       6.351  -0.106   1.631  1.00  0.00     0.023 C 
ENDROOT
BRANCH   1   2
ATOM      2  C   UNL     1       6.327  -0.462  -0.164  1.00  0.00     0.116 C 
BRANCH   2   3
ATOM      3  N   UNL     1       5.468  -1.614  -0.826  1.00  0.00    -0.356 N 
ATOM      4  C   UNL     1       4.151  -1.654  -1.303  1.00  0.00     0.228 C 
ATOM      5  O   UNL     1       3.373  -2.585  -1.062  1.00  0.00    -0.274 OA
ATOM      6  H   UNL     1       5.952  -2.466  -0.921  1.00  0.00     0.163 HD
BRANCH   4   7
ATOM      7  C   UNL     1       3.696  -0.486  -2.135  1.00  0.00     0.118 C 
BRANCH   7   8
ATOM      8  C   UNL     1       3.737   0.715  -1.187  1.00  0.00     0.118 C 
BRANCH   8   9
ATOM      9  C   UNL     1       3.966   0.447   0.363  1.00  0.00     0.225 C 
ATOM     10  O   UNL     1       4.130   1.450   1.066  1.00  0.00    -0.275 OA
ATOM     11  N   UNL     1       3.809  -0.851   0.914  1.00  0.00    -0.325 N 
ATOM     12  H   UNL     1       2.857  -1.097   0.952  1.00  0.00     0.169 HD
BRANCH  11  13
ATOM     13  C   UNL     1       4.739  -2.063   1.505  1.00  0.00     0.060 A 
ATOM     14  C   UNL     1       3.711  -2.296   2.936  1.00  0.00     0.029 A 
ATOM     15  C   UNL     1       6.612  -2.237   1.737  1.00  0.00     0.066 A 
ATOM     16  C   UNL     1       4.389  -2.376   4.534  1.00  0.00     0.023 A 
ATOM     17  C   UNL     1       7.288  -2.308   3.457  1.00  0.00     0.043 A 
ATOM     18  Cl  UNL     1       7.836  -2.792   0.565  1.00  0.00    -0.082 Cl
ATOM     19  C   UNL     1       6.125  -2.404   4.810  1.00  0.00     0.042 A 
ATOM     20  Cl  UNL     1       6.640  -2.682   6.428  1.00  0.00    -0.084 Cl
ENDBRANCH  11  13
ENDBRANCH   8   9
ENDBRANCH   7   8
BRANCH   7  21
ATOM     21  C   UNL     1       4.460  -0.793  -3.430  1.00  0.00    -0.035 A 
ATOM     22  C   UNL     1       4.187  -2.097  -3.949  1.00  0.00     0.004 A 
ATOM     23  C   UNL     1       5.612  -0.144  -3.864  1.00  0.00     0.004 A 
ATOM     24  C   UNL     1       5.139  -2.815  -4.659  1.00  0.00     0.000 A 
ATOM     25  C   UNL     1       6.530  -0.846  -4.666  1.00  0.00     0.000 A 
ATOM     26  C   UNL     1       6.323  -2.189  -5.010  1.00  0.00     0.000 A 
ENDBRANCH   7  21
ENDBRANCH   4   7
ENDBRANCH   2   3
ENDBRANCH   1   2
BRANCH   1  27
ATOM     27  C   UNL     1       5.629  -1.183   3.062  1.00  0.00     0.023 C 
BRANCH  27  28
ATOM     28  C   UNL     1       5.571  -3.395   2.967  1.00  0.00     0.116 C 
BRANCH  28  29
ATOM     29  N   UNL     1       6.884  -4.419   2.630  1.00  0.00    -0.352 N 
ATOM     30  C   UNL     1       7.619  -5.247   3.431  1.00  0.00     0.251 C 
ATOM     31  H   UNL     1       7.167  -4.415   1.687  1.00  0.00     0.163 HD
ATOM     32  O   UNL     1       8.820  -5.425   3.287  1.00  0.00    -0.269 OA
BRANCH  30  33
ATOM     33  C   UNL     1       6.846  -5.997   4.392  1.00  0.00     0.039 A 
ATOM     34  C   UNL     1       7.269  -6.141   5.707  1.00  0.00     0.014 A 
ATOM     35  C   UNL     1       5.657  -6.543   3.900  1.00  0.00     0.014 A 
ATOM     36  C   UNL     1       6.449  -6.847   6.565  1.00  0.00     0.010 A 
ATOM     37  C   UNL     1       4.804  -7.159   4.771  1.00  0.00     0.010 A 
ATOM     38  C   UNL     1       5.227  -7.358   6.089  1.00  0.00    -0.014 A 
BRANCH  38  39
ATOM     39  C   UNL     1       4.426  -8.261   6.913  1.00  0.00     0.031 A 
ATOM     40  C   UNL     1       4.348  -9.700   6.504  1.00  0.00     0.074 A 
ATOM     41  C   UNL     1       3.771  -7.769   7.973  1.00  0.00     0.049 A 
ATOM     42  N   UNL     1       3.669 -10.670   7.050  1.00  0.00    -0.248 NA
ATOM     43  C   UNL     1       5.113 -10.100   5.304  1.00  0.00     0.031 C 
ATOM     44  C   UNL     1       3.782  -6.370   8.411  1.00  0.00     0.029 A 
ATOM     45  N   UNL     1       2.971  -8.403   8.878  1.00  0.00    -0.354 N 
ATOM     46  C   UNL     1       3.932 -11.786   6.270  1.00  0.00     0.074 A 
ATOM     47  C   UNL     1       4.750 -11.363   5.160  1.00  0.00     0.031 C 
ATOM     48  C   UNL     1       3.044  -6.262   9.528  1.00  0.00     0.029 A 
ATOM     49  C   UNL     1       2.483  -7.570   9.850  1.00  0.00     0.049 A 
ATOM     50  H   UNL     1       2.765  -9.365   8.836  1.00  0.00     0.167 HD
ATOM     51  C   UNL     1       3.560 -13.065   6.491  1.00  0.00     0.031 A 
ATOM     52  C   UNL     1       1.666  -7.852  10.878  1.00  0.00     0.031 A 
ATOM     53  C   UNL     1       2.745 -13.464   7.601  1.00  0.00     0.049 A 
ATOM     54  C   UNL     1       1.217  -9.277  11.061  1.00  0.00     0.074 A 
ATOM     55  C   UNL     1       2.304 -14.729   7.934  1.00  0.00     0.029 A 
ATOM     56  N   UNL     1       2.255 -12.594   8.563  1.00  0.00    -0.354 N 
ATOM     57  N   UNL     1       1.507 -10.339  10.346  1.00  0.00    -0.248 NA
ATOM     58  C   UNL     1       0.346  -9.546  12.210  1.00  0.00     0.031 C 
ATOM     59  C   UNL     1       1.495 -14.617   9.068  1.00  0.00     0.029 A 
ATOM     60  C   UNL     1       1.502 -13.294   9.487  1.00  0.00     0.049 A 
ATOM     61  H   UNL     1       2.418 -11.623   8.585  1.00  0.00     0.167 HD
ATOM     62  C   UNL     1       0.893 -11.408  10.987  1.00  0.00     0.074 A 
ATOM     63  C   UNL     1       0.234 -10.864  12.157  1.00  0.00     0.031 C 
ATOM     64  C   UNL     1       0.874 -12.721  10.648  1.00  0.00     0.031 A 
BRANCH  51  65
ATOM     65  C   UNL     1       4.043 -14.102   5.520  1.00  0.00    -0.014 A 
ATOM     66  C   UNL     1       5.405 -14.438   5.437  1.00  0.00     0.009 A 
ATOM     67  C   UNL     1       3.127 -14.771   4.697  1.00  0.00     0.009 A 
ATOM     68  C   UNL     1       5.842 -15.403   4.529  1.00  0.00     0.001 A 
ATOM     69  C   UNL     1       3.562 -15.761   3.815  1.00  0.00     0.001 A 
ATOM     70  C   UNL     1       4.919 -16.071   3.727  1.00  0.00     0.000 A 
ENDBRANCH  51  65
BRANCH  52  71
ATOM     71  C   UNL     1       1.217  -6.779  11.803  1.00  0.00    -0.014 A 
ATOM     72  C   UNL     1       1.570  -6.803  13.161  1.00  0.00     0.009 A 
ATOM     73  C   UNL     1       0.382  -5.751  11.339  1.00  0.00     0.009 A 
ATOM     74  C   UNL     1       1.040  -5.861  14.045  1.00  0.00     0.001 A 
ATOM     75  C   UNL     1      -0.112  -4.786  12.217  1.00  0.00     0.001 A 
ATOM     76  C   UNL     1       0.199  -4.855  13.573  1.00  0.00     0.000 A 
ENDBRANCH  52  71
BRANCH  64  77
ATOM     77  C   UNL     1       0.184 -13.663  11.596  1.00  0.00    -0.014 A 
ATOM     78  C   UNL     1      -1.207 -13.642  11.781  1.00  0.00     0.009 A 
ATOM     79  C   UNL     1       0.949 -14.612  12.292  1.00  0.00     0.009 A 
ATOM     80  C   UNL     1      -1.809 -14.517  12.686  1.00  0.00     0.001 A 
ATOM     81  C   UNL     1       0.339 -15.515  13.162  1.00  0.00     0.001 A 
ATOM     82  C   UNL     1      -1.037 -15.456  13.370  1.00  0.00     0.000 A 
ENDBRANCH  64  77
ENDBRANCH  38  39
ENDBRANCH  30  33
ENDBRANCH  28  29
ENDBRANCH  27  28
ENDBRANCH   1  27
TORSDOF 15
