REMARK SMILES C[C@]1(C(=O)NCCCCNC(=O)c2ccc(-c3c4nc(c(-c5ccccc5)c5ccc([nH]5)c(-c5ccccc5)c5nc(c(-c6ccccc6)c6ccc3[nH]6)C=C5)C=C4)cc2)CCN(c2ccc([N+](=O)[O-])c(N)n2)C1
REMARK SMILES IDX 7 1 6 2 5 3 3 4 4 5 2 7 1 8 61 9 74 10 62 11 63 12 64 13
REMARK SMILES IDX 65 14 73 15 66 16 71 17 67 18 72 19 68 22 69 23 70 24 8 25
REMARK SMILES IDX 9 26 10 27 11 28 12 30 13 31 14 32 60 33 15 34 59 35 16 36
REMARK SMILES IDX 17 37 18 38 53 39 19 40 58 41 52 42 54 43 20 44 57 45 51 46
REMARK SMILES IDX 50 47 21 49 43 50 28 51 42 52 29 53 32 54 41 55 55 56 30 57
REMARK SMILES IDX 31 58 40 60 56 61 33 62 22 63 23 64 27 65 24 66 26 67 25 68
REMARK SMILES IDX 44 69 45 70 49 71 46 72 48 73 47 74 34 75 35 76 39 77 36 78
REMARK SMILES IDX 38 79 37 80
REMARK H PARENT 5 6 72 20 72 21 10 29 54 48 32 59
REMARK Flexibility Score: inf
ROOT
ATOM      1  C   UNL     1       4.261  -1.093   0.921  1.00  0.00     0.023 C 
ENDROOT
BRANCH   1   2
ATOM      2  C   UNL     1       3.377   0.146   1.058  1.00  0.00     0.116 C 
BRANCH   2   3
ATOM      3  N   UNL     1       2.278   0.132   0.105  1.00  0.00    -0.356 N 
ATOM      4  C   UNL     1       0.929   0.050   0.275  1.00  0.00     0.227 C 
ATOM      5  O   UNL     1       0.254   0.052  -0.759  1.00  0.00    -0.274 OA
ATOM      6  H   UNL     1       2.562   0.193  -0.836  1.00  0.00     0.163 HD
BRANCH   4   7
ATOM      7  C   UNL     1       0.270  -0.016   1.660  1.00  0.00     0.066 C 
ATOM      8  C   UNL     1      -1.259  -0.131   1.503  1.00  0.00     0.024 C 
ATOM      9  C   UNL     1       0.774  -1.198   2.505  1.00  0.00     0.040 C 
ATOM     10  C   UNL     1       0.592   1.253   2.465  1.00  0.00     0.134 C 
ATOM     11  C   UNL     1       0.974  -0.664   3.920  1.00  0.00     0.119 C 
ATOM     12  N   UNL     1       0.898   0.778   3.806  1.00  0.00    -0.355 N 
BRANCH  12  13
ATOM     13  C   UNL     1       1.528   1.605   4.703  1.00  0.00     0.131 A 
ATOM     14  C   UNL     1       0.930   2.805   5.072  1.00  0.00     0.054 A 
ATOM     15  N   UNL     1       2.732   1.242   5.201  1.00  0.00    -0.207 NA
ATOM     16  C   UNL     1       1.569   3.644   5.978  1.00  0.00     0.093 A 
ATOM     17  C   UNL     1       3.388   2.070   6.051  1.00  0.00     0.204 A 
ATOM     18  C   UNL     1       2.821   3.270   6.471  1.00  0.00     0.311 A 
BRANCH  17  19
ATOM     19  N   UNL     1       4.592   1.571   6.503  1.00  0.00    -0.378 N 
ATOM     20  H   UNL     1       5.142   2.100   7.126  1.00  0.00     0.158 HD
ATOM     21  H   UNL     1       4.902   0.686   6.203  1.00  0.00     0.158 HD
ENDBRANCH  17  19
BRANCH  18  22
ATOM     22  N   UNL     1       3.512   4.167   7.389  1.00  0.00     0.066 N 
ATOM     23  O   UNL     1       2.826   5.018   7.978  1.00  0.00    -0.258 OA
ATOM     24  O   UNL     1       4.743   4.066   7.504  1.00  0.00    -0.258 OA
ENDBRANCH  18  22
ENDBRANCH  12  13
ENDBRANCH   4   7
ENDBRANCH   2   3
ENDBRANCH   1   2
BRANCH   1  25
ATOM     25  C   UNL     1       5.042  -1.183  -0.390  1.00  0.00     0.023 C 
BRANCH  25  26
ATOM     26  C   UNL     1       5.928   0.018  -0.701  1.00  0.00     0.116 C 
BRANCH  26  27
ATOM     27  N   UNL     1       6.903   0.292   0.343  1.00  0.00    -0.352 N 
ATOM     28  C   UNL     1       8.246   0.559   0.226  1.00  0.00     0.251 C 
ATOM     29  H   UNL     1       6.552   0.286   1.263  1.00  0.00     0.163 HD
ATOM     30  O   UNL     1       8.952   0.638   1.226  1.00  0.00    -0.269 OA
BRANCH  28  31
ATOM     31  C   UNL     1       8.844   0.716  -1.116  1.00  0.00     0.039 A 
ATOM     32  C   UNL     1      10.028   0.036  -1.411  1.00  0.00     0.014 A 
ATOM     33  C   UNL     1       8.226   1.509  -2.086  1.00  0.00     0.014 A 
ATOM     34  C   UNL     1      10.553   0.093  -2.703  1.00  0.00     0.010 A 
ATOM     35  C   UNL     1       8.707   1.503  -3.391  1.00  0.00     0.010 A 
ATOM     36  C   UNL     1       9.875   0.795  -3.713  1.00  0.00    -0.014 A 
BRANCH  36  37
ATOM     37  C   UNL     1      10.366   0.794  -5.114  1.00  0.00     0.031 A 
ATOM     38  C   UNL     1      10.804   2.078  -5.763  1.00  0.00     0.074 A 
ATOM     39  C   UNL     1      10.354  -0.351  -5.824  1.00  0.00     0.049 A 
ATOM     40  N   UNL     1      11.207   2.286  -6.991  1.00  0.00    -0.248 NA
ATOM     41  C   UNL     1      10.759   3.292  -4.931  1.00  0.00     0.031 C 
ATOM     42  C   UNL     1       9.915  -1.656  -5.325  1.00  0.00     0.029 A 
ATOM     43  N   UNL     1      10.717  -0.599  -7.125  1.00  0.00    -0.354 N 
ATOM     44  C   UNL     1      11.444   3.652  -7.083  1.00  0.00     0.074 A 
ATOM     45  C   UNL     1      11.093   4.230  -5.805  1.00  0.00     0.031 C 
ATOM     46  C   UNL     1      10.063  -2.571  -6.297  1.00  0.00     0.029 A 
ATOM     47  C   UNL     1      10.566  -1.912  -7.498  1.00  0.00     0.049 A 
ATOM     48  H   UNL     1      11.055   0.099  -7.732  1.00  0.00     0.167 HD
ATOM     49  C   UNL     1      11.929   4.360  -8.131  1.00  0.00     0.031 A 
ATOM     50  C   UNL     1      10.800  -2.518  -8.677  1.00  0.00     0.031 A 
ATOM     51  C   UNL     1      12.289   3.784  -9.399  1.00  0.00     0.049 A 
ATOM     52  C   UNL     1      11.322  -1.707  -9.830  1.00  0.00     0.074 A 
ATOM     53  C   UNL     1      12.846   4.409 -10.501  1.00  0.00     0.029 A 
ATOM     54  N   UNL     1      12.124   2.450  -9.735  1.00  0.00    -0.354 N 
ATOM     55  N   UNL     1      11.610  -0.429  -9.877  1.00  0.00    -0.248 NA
ATOM     56  C   UNL     1      11.561  -2.426 -11.089  1.00  0.00     0.031 C 
ATOM     57  C   UNL     1      12.967   3.462 -11.524  1.00  0.00     0.029 A 
ATOM     58  C   UNL     1      12.542   2.236 -11.038  1.00  0.00     0.049 A 
ATOM     59  H   UNL     1      11.762   1.756  -9.136  1.00  0.00     0.167 HD
ATOM     60  C   UNL     1      12.092  -0.197 -11.159  1.00  0.00     0.074 A 
ATOM     61  C   UNL     1      12.072  -1.470 -11.851  1.00  0.00     0.031 C 
ATOM     62  C   UNL     1      12.516   0.965 -11.713  1.00  0.00     0.031 A 
BRANCH  49  63
ATOM     63  C   UNL     1      12.090   5.844  -7.948  1.00  0.00    -0.014 A 
ATOM     64  C   UNL     1      13.071   6.371  -7.093  1.00  0.00     0.009 A 
ATOM     65  C   UNL     1      11.271   6.728  -8.667  1.00  0.00     0.009 A 
ATOM     66  C   UNL     1      13.202   7.752  -6.931  1.00  0.00     0.001 A 
ATOM     67  C   UNL     1      11.425   8.109  -8.528  1.00  0.00     0.001 A 
ATOM     68  C   UNL     1      12.382   8.619  -7.653  1.00  0.00     0.000 A 
ENDBRANCH  49  63
BRANCH  50  69
ATOM     69  C   UNL     1      10.559  -3.978  -8.827  1.00  0.00    -0.014 A 
ATOM     70  C   UNL     1      11.637  -4.865  -8.974  1.00  0.00     0.009 A 
ATOM     71  C   UNL     1       9.253  -4.491  -8.836  1.00  0.00     0.009 A 
ATOM     72  C   UNL     1      11.410  -6.231  -9.155  1.00  0.00     0.001 A 
ATOM     73  C   UNL     1       9.030  -5.862  -8.987  1.00  0.00     0.001 A 
ATOM     74  C   UNL     1      10.108  -6.729  -9.157  1.00  0.00     0.000 A 
ENDBRANCH  50  69
BRANCH  62  75
ATOM     75  C   UNL     1      13.028   0.908 -13.125  1.00  0.00    -0.014 A 
ATOM     76  C   UNL     1      12.160   0.717 -14.211  1.00  0.00     0.009 A 
ATOM     77  C   UNL     1      14.398   1.090 -13.373  1.00  0.00     0.009 A 
ATOM     78  C   UNL     1      12.659   0.674 -15.514  1.00  0.00     0.001 A 
ATOM     79  C   UNL     1      14.890   1.078 -14.678  1.00  0.00     0.001 A 
ATOM     80  C   UNL     1      14.022   0.861 -15.747  1.00  0.00     0.000 A 
ENDBRANCH  62  75
ENDBRANCH  36  37
ENDBRANCH  28  31
ENDBRANCH  26  27
ENDBRANCH  25  26
ENDBRANCH   1  25
TORSDOF 14
