REMARK SMILES O=C(NCCCCNC(=O)[C@@H](CO)NC(=O)c1ccc2noc(-c3ccccc3)c2c1)c1ccc(-c2c3nc(c(-c4ccccc4)c4ccc([nH]4)c(-c4ccccc4)c4nc(c(-c5ccccc5)c5ccc2[nH]5)C=C4)C=C3)cc1
REMARK SMILES IDX 6 1 5 2 4 3 3 4 1 5 2 6 32 8 33 9 79 10 34 11 78 12 35 13
REMARK SMILES IDX 36 14 37 15 72 16 38 17 77 18 71 19 73 20 39 21 76 22 70 23
REMARK SMILES IDX 69 24 40 26 62 27 47 28 61 29 48 30 51 31 60 32 74 33 49 34
REMARK SMILES IDX 50 35 59 37 75 38 52 39 41 40 42 41 46 42 43 43 45 44 44 45
REMARK SMILES IDX 63 46 64 47 68 48 65 49 67 50 66 51 53 52 54 53 58 54 55 55
REMARK SMILES IDX 57 56 56 57 7 58 8 59 9 60 10 62 11 63 12 64 13 65 14 67
REMARK SMILES IDX 15 68 16 70 17 71 18 72 31 73 19 74 30 75 20 76 23 77 21 78
REMARK SMILES IDX 22 79 24 80 25 81 29 82 26 83 28 84 27 85
REMARK H PARENT 3 7 73 25 51 36 8 61 13 66 14 69
REMARK Flexibility Score: inf
ROOT
ATOM      1  C   UNL     1       4.385  -3.764  -0.380  1.00  0.00     0.023 C 
ENDROOT
BRANCH   1   2
ATOM      2  C   UNL     1       4.866  -2.703   0.617  1.00  0.00     0.023 C 
BRANCH   2   3
ATOM      3  C   UNL     1       4.462  -1.282   0.274  1.00  0.00     0.116 C 
BRANCH   3   4
ATOM      4  N   UNL     1       3.011  -1.061   0.241  1.00  0.00    -0.352 N 
ATOM      5  O   UNL     1       1.192   0.324   0.210  1.00  0.00    -0.269 OA
ATOM      6  C   UNL     1       2.340   0.102  -0.128  1.00  0.00     0.251 C 
ATOM      7  H   UNL     1       2.448  -1.822   0.511  1.00  0.00     0.163 HD
BRANCH   6   8
ATOM      8  C   UNL     1       3.078   1.057  -0.973  1.00  0.00     0.039 A 
ATOM      9  C   UNL     1       3.124   2.429  -0.725  1.00  0.00     0.014 A 
ATOM     10  C   UNL     1       3.862   0.484  -1.960  1.00  0.00     0.014 A 
ATOM     11  C   UNL     1       4.054   3.189  -1.433  1.00  0.00     0.010 A 
ATOM     12  C   UNL     1       4.957   1.165  -2.398  1.00  0.00     0.010 A 
ATOM     13  C   UNL     1       4.998   2.538  -2.250  1.00  0.00    -0.014 A 
BRANCH  13  14
ATOM     14  C   UNL     1       6.070   3.249  -2.935  1.00  0.00     0.031 A 
ATOM     15  C   UNL     1       6.748   4.284  -2.122  1.00  0.00     0.074 A 
ATOM     16  C   UNL     1       6.510   2.937  -4.176  1.00  0.00     0.049 A 
ATOM     17  N   UNL     1       6.612   5.560  -2.245  1.00  0.00    -0.248 NA
ATOM     18  C   UNL     1       7.537   3.873  -0.952  1.00  0.00     0.031 C 
ATOM     19  C   UNL     1       6.166   1.795  -5.040  1.00  0.00     0.029 A 
ATOM     20  N   UNL     1       7.458   3.573  -4.912  1.00  0.00    -0.354 N 
ATOM     21  C   UNL     1       7.437   6.133  -1.289  1.00  0.00     0.074 A 
ATOM     22  C   UNL     1       7.854   5.058  -0.423  1.00  0.00     0.031 C 
ATOM     23  C   UNL     1       7.060   1.691  -6.048  1.00  0.00     0.029 A 
ATOM     24  C   UNL     1       7.894   2.874  -6.029  1.00  0.00     0.049 A 
ATOM     25  H   UNL     1       7.808   4.461  -4.672  1.00  0.00     0.167 HD
ATOM     26  C   UNL     1       7.874   7.415  -1.424  1.00  0.00     0.031 A 
ATOM     27  C   UNL     1       8.855   3.255  -6.903  1.00  0.00     0.031 A 
ATOM     28  C   UNL     1       7.110   8.128  -2.420  1.00  0.00     0.049 A 
ATOM     29  C   UNL     1       8.971   4.726  -6.791  1.00  0.00     0.074 A 
ATOM     30  C   UNL     1       5.777   8.469  -2.546  1.00  0.00     0.029 A 
ATOM     31  N   UNL     1       7.641   8.207  -3.687  1.00  0.00    -0.354 N 
ATOM     32  N   UNL     1       8.024   5.546  -7.148  1.00  0.00    -0.248 NA
ATOM     33  C   UNL     1       9.943   5.258  -5.851  1.00  0.00     0.031 C 
ATOM     34  C   UNL     1       5.473   8.250  -3.921  1.00  0.00     0.029 A 
ATOM     35  C   UNL     1       6.649   7.881  -4.578  1.00  0.00     0.049 A 
ATOM     36  H   UNL     1       8.567   8.454  -3.914  1.00  0.00     0.167 HD
ATOM     37  C   UNL     1       8.014   6.520  -6.160  1.00  0.00     0.074 A 
ATOM     38  C   UNL     1       9.275   6.340  -5.441  1.00  0.00     0.031 C 
ATOM     39  C   UNL     1       6.870   7.194  -5.837  1.00  0.00     0.031 A 
BRANCH  26  40
ATOM     40  C   UNL     1       9.212   7.899  -0.936  1.00  0.00    -0.014 A 
ATOM     41  C   UNL     1      10.247   7.037  -0.528  1.00  0.00     0.009 A 
ATOM     42  C   UNL     1       9.555   9.250  -1.128  1.00  0.00     0.009 A 
ATOM     43  C   UNL     1      11.556   7.486  -0.340  1.00  0.00     0.001 A 
ATOM     44  C   UNL     1      10.874   9.695  -0.980  1.00  0.00     0.001 A 
ATOM     45  C   UNL     1      11.875   8.812  -0.591  1.00  0.00     0.000 A 
ENDBRANCH  26  40
BRANCH  27  46
ATOM     46  C   UNL     1       9.937   2.417  -7.468  1.00  0.00    -0.014 A 
ATOM     47  C   UNL     1      10.392   1.282  -6.771  1.00  0.00     0.009 A 
ATOM     48  C   UNL     1      10.732   2.905  -8.516  1.00  0.00     0.009 A 
ATOM     49  C   UNL     1      11.627   0.696  -7.068  1.00  0.00     0.001 A 
ATOM     50  C   UNL     1      11.970   2.318  -8.813  1.00  0.00     0.001 A 
ATOM     51  C   UNL     1      12.426   1.228  -8.075  1.00  0.00     0.000 A 
ENDBRANCH  27  46
BRANCH  39  52
ATOM     52  C   UNL     1       5.651   7.022  -6.721  1.00  0.00    -0.014 A 
ATOM     53  C   UNL     1       4.996   8.181  -7.169  1.00  0.00     0.009 A 
ATOM     54  C   UNL     1       5.029   5.782  -6.954  1.00  0.00     0.009 A 
ATOM     55  C   UNL     1       3.753   8.111  -7.803  1.00  0.00     0.001 A 
ATOM     56  C   UNL     1       3.795   5.709  -7.614  1.00  0.00     0.001 A 
ATOM     57  C   UNL     1       3.152   6.875  -8.026  1.00  0.00     0.000 A 
ENDBRANCH  39  52
ENDBRANCH  13  14
ENDBRANCH   6   8
ENDBRANCH   3   4
ENDBRANCH   2   3
ENDBRANCH   1   2
BRANCH   1  58
ATOM     58  C   UNL     1       4.856  -3.631  -1.837  1.00  0.00     0.116 C 
BRANCH  58  59
ATOM     59  N   UNL     1       6.296  -3.756  -1.978  1.00  0.00    -0.354 N 
ATOM     60  C   UNL     1       7.078  -4.752  -2.479  1.00  0.00     0.244 C 
ATOM     61  H   UNL     1       6.800  -2.976  -1.651  1.00  0.00     0.163 HD
ATOM     62  O   UNL     1       8.298  -4.625  -2.307  1.00  0.00    -0.273 OA
BRANCH  60  63
ATOM     63  C   UNL     1       6.535  -6.034  -3.146  1.00  0.00     0.197 C 
BRANCH  63  64
ATOM     64  C   UNL     1       5.951  -7.016  -2.118  1.00  0.00     0.191 C 
BRANCH  64  65
ATOM     65  O   UNL     1       4.728  -6.576  -1.546  1.00  0.00    -0.394 OA
ATOM     66  H   UNL     1       4.875  -5.746  -1.065  1.00  0.00     0.210 HD
ENDBRANCH  64  65
ENDBRANCH  63  64
BRANCH  63  67
ATOM     67  N   UNL     1       5.659  -5.783  -4.299  1.00  0.00    -0.338 N 
ATOM     68  C   UNL     1       5.831  -6.148  -5.613  1.00  0.00     0.252 C 
ATOM     69  H   UNL     1       4.834  -5.285  -4.103  1.00  0.00     0.164 HD
ATOM     70  O   UNL     1       5.138  -5.638  -6.488  1.00  0.00    -0.269 OA
BRANCH  68  71
ATOM     71  C   UNL     1       6.868  -7.143  -5.992  1.00  0.00     0.040 A 
ATOM     72  C   UNL     1       6.936  -8.391  -5.286  1.00  0.00     0.016 A 
ATOM     73  C   UNL     1       7.717  -6.811  -7.072  1.00  0.00     0.028 A 
ATOM     74  C   UNL     1       7.927  -9.371  -5.512  1.00  0.00     0.033 A 
ATOM     75  C   UNL     1       8.665  -7.811  -7.288  1.00  0.00     0.050 A 
ATOM     76  C   UNL     1       8.806  -9.048  -6.557  1.00  0.00     0.114 A 
ATOM     77  C   UNL     1       9.617  -7.848  -8.270  1.00  0.00     0.174 A 
ATOM     78  N   UNL     1       9.836  -9.745  -7.061  1.00  0.00    -0.079 NA
ATOM     79  O   UNL     1      10.323  -9.009  -8.129  1.00  0.00    -0.355 OA
BRANCH  77  80
ATOM     80  C   UNL     1      10.026  -7.002  -9.371  1.00  0.00     0.021 A 
ATOM     81  C   UNL     1      10.031  -7.508 -10.678  1.00  0.00     0.012 A 
ATOM     82  C   UNL     1      10.413  -5.675  -9.150  1.00  0.00     0.012 A 
ATOM     83  C   UNL     1      10.414  -6.699 -11.748  1.00  0.00     0.001 A 
ATOM     84  C   UNL     1      10.805  -4.869 -10.221  1.00  0.00     0.001 A 
ATOM     85  C   UNL     1      10.804  -5.380 -11.519  1.00  0.00     0.000 A 
ENDBRANCH  77  80
ENDBRANCH  68  71
ENDBRANCH  63  67
ENDBRANCH  60  63
ENDBRANCH  58  59
ENDBRANCH   1  58
TORSDOF 16
