REMARK SMILES O=C1OC(c2ccc(Cl)cc2)=N/C1=C/Nc1ccc(O)c(C(=O)NCCCCNC(=O)c2ccc(-c3c4nc(c(-c5ccccc5)c5ccc([nH]5)c(-c5ccccc5)c5nc(c(-c6ccccc6)c6ccc3[nH]6)C=C5)C=C4)cc2)c1
REMARK SMILES IDX 26 1 25 2 24 3 22 4 23 5 21 7 16 8 17 9 80 10 18 11 19 12
REMARK SMILES IDX 15 13 14 15 1 16 2 17 3 18 13 19 4 20 12 21 5 22 6 23 11 24
REMARK SMILES IDX 7 25 10 26 8 27 9 28 20 29 27 31 28 32 29 33 30 34 31 36
REMARK SMILES IDX 32 37 33 38 79 39 34 40 78 41 35 42 36 43 37 44 72 45 38 46
REMARK SMILES IDX 77 47 71 48 73 49 39 50 76 51 70 52 69 53 40 55 62 56 47 57
REMARK SMILES IDX 61 58 48 59 51 60 60 61 74 62 49 63 50 64 59 66 75 67 52 68
REMARK SMILES IDX 41 69 42 70 46 71 43 72 45 73 44 74 63 75 64 76 68 77 65 78
REMARK SMILES IDX 67 79 66 80 53 81 54 82 58 83 55 84 57 85 56 86
REMARK H PARENT 24 6 15 14 20 30 29 35 73 54 51 65
REMARK Flexibility Score: inf
ROOT
ATOM      1  C   UNL     1      -2.788 -10.130  -0.031  1.00  0.00     0.023 C 
ENDROOT
BRANCH   1   2
ATOM      2  C   UNL     1      -2.069  -9.435  -1.192  1.00  0.00     0.116 C 
BRANCH   2   3
ATOM      3  N   UNL     1      -2.852  -8.309  -1.640  1.00  0.00    -0.352 N 
ATOM      4  C   UNL     1      -2.880  -6.999  -1.244  1.00  0.00     0.255 C 
ATOM      5  O   UNL     1      -3.777  -6.313  -1.747  1.00  0.00    -0.269 OA
ATOM      6  H   UNL     1      -3.482  -8.522  -2.365  1.00  0.00     0.163 HD
BRANCH   4   7
ATOM      7  C   UNL     1      -1.876  -6.328  -0.354  1.00  0.00     0.083 A 
ATOM      8  C   UNL     1      -0.843  -4.138   0.101  1.00  0.00     0.039 A 
ATOM      9  C   UNL     1       0.011  -4.743   1.021  1.00  0.00     0.030 A 
ATOM     10  C   UNL     1      -1.754  -4.942  -0.591  1.00  0.00     0.043 A 
ATOM     11  C   UNL     1      -0.120  -6.094   1.318  1.00  0.00     0.049 A 
ATOM     12  C   UNL     1      -1.080  -6.873   0.661  1.00  0.00     0.128 A 
BRANCH   8  13
ATOM     13  N   UNL     1      -0.774  -2.772  -0.192  1.00  0.00    -0.360 N 
ATOM     14  H   UNL     1      -1.614  -2.331  -0.455  1.00  0.00     0.166 HD
BRANCH  13  15
ATOM     15  C   UNL     1       0.347  -1.990  -0.148  1.00  0.00     0.119 C 
ATOM     16  O   UNL     1      -1.891   0.033  -0.007  1.00  0.00    -0.244 OA
ATOM     17  C   UNL     1      -0.702   0.273  -0.013  1.00  0.00     0.365 C 
ATOM     18  O   UNL     1      -0.094   1.491   0.084  1.00  0.00    -0.402 OA
ATOM     19  C   UNL     1       0.452  -0.660  -0.117  1.00  0.00     0.168 C 
ATOM     20  C   UNL     1       1.233   1.250  -0.011  1.00  0.00     0.231 C 
ATOM     21  N   UNL     1       1.633   0.028  -0.136  1.00  0.00    -0.204 NA
BRANCH  20  22
ATOM     22  C   UNL     1       2.080   2.435  -0.026  1.00  0.00     0.037 A 
ATOM     23  C   UNL     1       1.984   3.390   0.988  1.00  0.00     0.015 A 
ATOM     24  C   UNL     1       3.020   2.566  -1.054  1.00  0.00     0.015 A 
ATOM     25  C   UNL     1       2.845   4.489   0.970  1.00  0.00     0.021 A 
ATOM     26  C   UNL     1       3.863   3.675  -1.077  1.00  0.00     0.021 A 
ATOM     27  C   UNL     1       3.776   4.630  -0.062  1.00  0.00     0.041 A 
ATOM     28  Cl  UNL     1       4.832   5.987  -0.080  1.00  0.00    -0.084 Cl
ENDBRANCH  20  22
ENDBRANCH  13  15
ENDBRANCH   8  13
BRANCH  12  29
ATOM     29  O   UNL     1      -1.224  -8.148   1.117  1.00  0.00    -0.507 OA
ATOM     30  H   UNL     1      -0.667  -8.468   1.800  1.00  0.00     0.293 HD
ENDBRANCH  12  29
ENDBRANCH   4   7
ENDBRANCH   2   3
ENDBRANCH   1   2
BRANCH   1  31
ATOM     31  C   UNL     1      -3.839 -11.149  -0.467  1.00  0.00     0.023 C 
BRANCH  31  32
ATOM     32  C   UNL     1      -3.276 -12.336  -1.233  1.00  0.00     0.116 C 
BRANCH  32  33
ATOM     33  N   UNL     1      -2.237 -13.049  -0.504  1.00  0.00    -0.352 N 
ATOM     34  C   UNL     1      -1.948 -14.389  -0.517  1.00  0.00     0.251 C 
ATOM     35  H   UNL     1      -1.666 -12.494   0.076  1.00  0.00     0.163 HD
ATOM     36  O   UNL     1      -1.112 -14.854   0.251  1.00  0.00    -0.269 OA
BRANCH  34  37
ATOM     37  C   UNL     1      -2.690 -15.273  -1.435  1.00  0.00     0.039 A 
ATOM     38  C   UNL     1      -3.233 -16.454  -0.930  1.00  0.00     0.014 A 
ATOM     39  C   UNL     1      -2.889 -14.915  -2.772  1.00  0.00     0.014 A 
ATOM     40  C   UNL     1      -4.028 -17.248  -1.754  1.00  0.00     0.010 A 
ATOM     41  C   UNL     1      -3.755 -15.659  -3.564  1.00  0.00     0.010 A 
ATOM     42  C   UNL     1      -4.330 -16.836  -3.065  1.00  0.00    -0.014 A 
BRANCH  42  43
ATOM     43  C   UNL     1      -5.263 -17.627  -3.902  1.00  0.00     0.031 A 
ATOM     44  C   UNL     1      -4.792 -18.278  -5.172  1.00  0.00     0.074 A 
ATOM     45  C   UNL     1      -6.550 -17.741  -3.519  1.00  0.00     0.049 A 
ATOM     46  N   UNL     1      -5.454 -19.058  -5.989  1.00  0.00    -0.248 NA
ATOM     47  C   UNL     1      -3.409 -18.003  -5.592  1.00  0.00     0.031 C 
ATOM     48  C   UNL     1      -7.143 -17.105  -2.339  1.00  0.00     0.029 A 
ATOM     49  N   UNL     1      -7.589 -18.445  -4.072  1.00  0.00    -0.354 N 
ATOM     50  C   UNL     1      -4.570 -19.363  -7.017  1.00  0.00     0.074 A 
ATOM     51  C   UNL     1      -3.349 -18.634  -6.755  1.00  0.00     0.031 C 
ATOM     52  C   UNL     1      -8.422 -17.493  -2.227  1.00  0.00     0.029 A 
ATOM     53  C   UNL     1      -8.752 -18.369  -3.346  1.00  0.00     0.049 A 
ATOM     54  H   UNL     1      -7.508 -18.957  -4.910  1.00  0.00     0.167 HD
ATOM     55  C   UNL     1      -4.749 -20.195  -8.070  1.00  0.00     0.031 A 
ATOM     56  C   UNL     1      -9.950 -18.947  -3.553  1.00  0.00     0.031 A 
ATOM     57  C   UNL     1      -5.969 -20.913  -8.333  1.00  0.00     0.049 A 
ATOM     58  C   UNL     1     -10.126 -19.854  -4.738  1.00  0.00     0.074 A 
ATOM     59  C   UNL     1      -6.234 -21.820  -9.344  1.00  0.00     0.029 A 
ATOM     60  N   UNL     1      -7.131 -20.795  -7.586  1.00  0.00    -0.354 N 
ATOM     61  N   UNL     1      -9.251 -20.206  -5.649  1.00  0.00    -0.248 NA
ATOM     62  C   UNL     1     -11.454 -20.458  -4.910  1.00  0.00     0.031 C 
ATOM     63  C   UNL     1      -7.577 -22.200  -9.247  1.00  0.00     0.029 A 
ATOM     64  C   UNL     1      -8.128 -21.587  -8.133  1.00  0.00     0.049 A 
ATOM     65  H   UNL     1      -7.233 -20.231  -6.785  1.00  0.00     0.167 HD
ATOM     66  C   UNL     1      -9.916 -21.088  -6.491  1.00  0.00     0.074 A 
ATOM     67  C   UNL     1     -11.255 -21.243  -5.959  1.00  0.00     0.031 C 
ATOM     68  C   UNL     1      -9.462 -21.714  -7.605  1.00  0.00     0.031 A 
BRANCH  55  69
ATOM     69  C   UNL     1      -3.597 -20.362  -9.024  1.00  0.00    -0.014 A 
ATOM     70  C   UNL     1      -2.413 -21.010  -8.634  1.00  0.00     0.009 A 
ATOM     71  C   UNL     1      -3.707 -19.894 -10.343  1.00  0.00     0.009 A 
ATOM     72  C   UNL     1      -1.351 -21.150  -9.531  1.00  0.00     0.001 A 
ATOM     73  C   UNL     1      -2.657 -20.065 -11.247  1.00  0.00     0.001 A 
ATOM     74  C   UNL     1      -1.477 -20.683 -10.838  1.00  0.00     0.000 A 
ENDBRANCH  55  69
BRANCH  56  75
ATOM     75  C   UNL     1     -11.071 -18.701  -2.607  1.00  0.00    -0.014 A 
ATOM     76  C   UNL     1     -11.560 -19.734  -1.792  1.00  0.00     0.009 A 
ATOM     77  C   UNL     1     -11.668 -17.433  -2.523  1.00  0.00     0.009 A 
ATOM     78  C   UNL     1     -12.642 -19.511  -0.938  1.00  0.00     0.001 A 
ATOM     79  C   UNL     1     -12.726 -17.204  -1.643  1.00  0.00     0.001 A 
ATOM     80  C   UNL     1     -13.221 -18.245  -0.860  1.00  0.00     0.000 A 
ENDBRANCH  56  75
BRANCH  68  81
ATOM     81  C   UNL     1     -10.422 -22.637  -8.305  1.00  0.00    -0.014 A 
ATOM     82  C   UNL     1     -11.560 -22.145  -8.967  1.00  0.00     0.009 A 
ATOM     83  C   UNL     1     -10.184 -24.020  -8.305  1.00  0.00     0.009 A 
ATOM     84  C   UNL     1     -12.466 -23.025  -9.564  1.00  0.00     0.001 A 
ATOM     85  C   UNL     1     -11.070 -24.893  -8.936  1.00  0.00     0.001 A 
ATOM     86  C   UNL     1     -12.219 -24.397  -9.550  1.00  0.00     0.000 A 
ENDBRANCH  68  81
ENDBRANCH  42  43
ENDBRANCH  34  37
ENDBRANCH  32  33
ENDBRANCH  31  32
ENDBRANCH   1  31
TORSDOF 15
