REMARK SMILES COc1ccc(Cl)cc1C(=O)Nc1ccc(C(=O)NCCCCNC(=O)c2ccc(-c3c4nc(c(-c5ccccc5)c5ccc([nH]5)c(-c5ccccc5)c5nc(c(-c6ccccc6)c6ccc3[nH]6)C=C5)C=C4)cc2)cc1C
REMARK SMILES IDX 21 1 20 2 19 3 17 4 18 5 16 7 13 8 14 9 76 10 15 11 75 12
REMARK SMILES IDX 77 13 12 14 10 15 11 16 9 18 3 19 4 20 5 21 8 22 6 23 7 24
REMARK SMILES IDX 2 25 1 26 22 27 23 28 24 29 25 30 26 32 27 33 28 34 74 35
REMARK SMILES IDX 29 36 73 37 30 38 31 39 32 40 67 41 33 42 72 43 66 44 68 45
REMARK SMILES IDX 34 46 71 47 65 48 64 49 35 51 57 52 42 53 56 54 43 55 46 56
REMARK SMILES IDX 55 57 69 58 44 59 45 60 54 62 70 63 47 64 36 65 37 66 41 67
REMARK SMILES IDX 38 68 40 69 39 70 58 71 59 72 63 73 60 74 62 75 61 76 48 77
REMARK SMILES IDX 49 78 53 79 50 80 52 81 51 82
REMARK H PARENT 19 6 12 17 24 31 68 50 46 61
REMARK Flexibility Score: inf
ROOT
ATOM      1  C   UNL     1       2.344   2.812   2.415  1.00  0.00     0.023 C 
ENDROOT
BRANCH   1   2
ATOM      2  C   UNL     1       2.828   1.442   1.922  1.00  0.00     0.116 C 
BRANCH   2   3
ATOM      3  N   UNL     1       2.432   0.387   2.842  1.00  0.00    -0.352 N 
ATOM      4  C   UNL     1       1.361  -0.471   2.878  1.00  0.00     0.251 C 
ATOM      5  O   UNL     1       1.291  -1.253   3.826  1.00  0.00    -0.269 OA
ATOM      6  H   UNL     1       3.059   0.264   3.591  1.00  0.00     0.163 HD
BRANCH   4   7
ATOM      7  C   UNL     1       0.366  -0.571   1.775  1.00  0.00     0.040 A 
ATOM      8  C   UNL     1      -1.090  -1.077  -0.564  1.00  0.00     0.044 A 
ATOM      9  C   UNL     1      -0.660   0.217  -0.268  1.00  0.00     0.027 A 
ATOM     10  C   UNL     1      -0.974  -2.092   0.401  1.00  0.00    -0.027 A 
ATOM     11  C   UNL     1       0.023   0.476   0.922  1.00  0.00     0.016 A 
ATOM     12  C   UNL     1      -0.200  -1.834   1.545  1.00  0.00     0.019 A 
ATOM     13  C   UNL     1      -1.468  -3.499   0.194  1.00  0.00     0.046 C 
BRANCH   8  14
ATOM     14  N   UNL     1      -1.641  -1.374  -1.812  1.00  0.00    -0.322 N 
ATOM     15  C   UNL     1      -1.313  -0.959  -3.079  1.00  0.00     0.259 C 
ATOM     16  O   UNL     1      -2.158  -1.158  -3.960  1.00  0.00    -0.269 OA
ATOM     17  H   UNL     1      -2.404  -1.995  -1.777  1.00  0.00     0.170 HD
BRANCH  15  18
ATOM     18  C   UNL     1       0.007  -0.384  -3.504  1.00  0.00     0.083 A 
ATOM     19  C   UNL     1       1.275  -0.656  -2.948  1.00  0.00     0.131 A 
ATOM     20  C   UNL     1       2.432  -0.154  -3.579  1.00  0.00     0.049 A 
ATOM     21  C   UNL     1       2.349   0.586  -4.757  1.00  0.00     0.024 A 
ATOM     22  C   UNL     1      -0.050   0.372  -4.697  1.00  0.00     0.038 A 
ATOM     23  C   UNL     1       1.107   0.839  -5.317  1.00  0.00     0.042 A 
ATOM     24  Cl  UNL     1       1.004   1.690  -6.808  1.00  0.00    -0.084 Cl
BRANCH  19  25
ATOM     25  O   UNL     1       1.384  -1.499  -1.873  1.00  0.00    -0.496 OA
ATOM     26  C   UNL     1       2.518  -1.293  -1.030  1.00  0.00     0.278 C 
ENDBRANCH  19  25
ENDBRANCH  15  18
ENDBRANCH   8  14
ENDBRANCH   4   7
ENDBRANCH   2   3
ENDBRANCH   1   2
BRANCH   1  27
ATOM     27  C   UNL     1       3.053   3.290   3.684  1.00  0.00     0.023 C 
BRANCH  27  28
ATOM     28  C   UNL     1       4.473   3.775   3.434  1.00  0.00     0.116 C 
BRANCH  28  29
ATOM     29  N   UNL     1       4.571   5.173   3.040  1.00  0.00    -0.352 N 
ATOM     30  C   UNL     1       5.673   5.904   2.619  1.00  0.00     0.251 C 
ATOM     31  H   UNL     1       3.726   5.678   3.079  1.00  0.00     0.163 HD
ATOM     32  O   UNL     1       5.559   7.095   2.392  1.00  0.00    -0.269 OA
BRANCH  30  33
ATOM     33  C   UNL     1       6.947   5.205   2.294  1.00  0.00     0.039 A 
ATOM     34  C   UNL     1       7.631   5.608   1.140  1.00  0.00     0.014 A 
ATOM     35  C   UNL     1       7.337   4.048   2.958  1.00  0.00     0.014 A 
ATOM     36  C   UNL     1       8.492   4.715   0.508  1.00  0.00     0.010 A 
ATOM     37  C   UNL     1       8.085   3.113   2.275  1.00  0.00     0.010 A 
ATOM     38  C   UNL     1       8.598   3.422   1.015  1.00  0.00    -0.014 A 
BRANCH  38  39
ATOM     39  C   UNL     1       9.117   2.298   0.248  1.00  0.00     0.031 A 
ATOM     40  C   UNL     1      10.447   1.739   0.564  1.00  0.00     0.074 A 
ATOM     41  C   UNL     1       8.335   1.714  -0.689  1.00  0.00     0.049 A 
ATOM     42  N   UNL     1      11.184   1.102  -0.282  1.00  0.00    -0.248 NA
ATOM     43  C   UNL     1      11.072   1.891   1.874  1.00  0.00     0.031 C 
ATOM     44  C   UNL     1       8.576   0.446  -1.373  1.00  0.00     0.029 A 
ATOM     45  N   UNL     1       7.251   2.263  -1.383  1.00  0.00    -0.354 N 
ATOM     46  C   UNL     1      12.195   0.502   0.433  1.00  0.00     0.074 A 
ATOM     47  C   UNL     1      12.135   1.092   1.750  1.00  0.00     0.031 C 
ATOM     48  C   UNL     1       7.915   0.458  -2.543  1.00  0.00     0.029 A 
ATOM     49  C   UNL     1       7.362   1.793  -2.701  1.00  0.00     0.049 A 
ATOM     50  H   UNL     1       6.554   2.856  -1.021  1.00  0.00     0.167 HD
ATOM     51  C   UNL     1      12.877  -0.545  -0.108  1.00  0.00     0.031 A 
ATOM     52  C   UNL     1       7.575   2.607  -3.777  1.00  0.00     0.031 A 
ATOM     53  C   UNL     1      12.442  -0.832  -1.471  1.00  0.00     0.049 A 
ATOM     54  C   UNL     1       8.829   2.249  -4.553  1.00  0.00     0.074 A 
ATOM     55  C   UNL     1      11.588  -1.782  -2.007  1.00  0.00     0.029 A 
ATOM     56  N   UNL     1      12.649   0.118  -2.464  1.00  0.00    -0.354 N 
ATOM     57  N   UNL     1       9.799   1.522  -4.070  1.00  0.00    -0.248 NA
ATOM     58  C   UNL     1       9.111   2.719  -5.906  1.00  0.00     0.031 C 
ATOM     59  C   UNL     1      11.227  -1.360  -3.313  1.00  0.00     0.029 A 
ATOM     60  C   UNL     1      11.884  -0.171  -3.576  1.00  0.00     0.049 A 
ATOM     61  H   UNL     1      13.257   0.888  -2.385  1.00  0.00     0.167 HD
ATOM     62  C   UNL     1      10.798   1.405  -5.001  1.00  0.00     0.074 A 
ATOM     63  C   UNL     1      10.319   2.172  -6.136  1.00  0.00     0.031 C 
ATOM     64  C   UNL     1      11.936   0.692  -4.748  1.00  0.00     0.031 A 
BRANCH  51  65
ATOM     65  C   UNL     1      13.709  -1.491   0.724  1.00  0.00    -0.014 A 
ATOM     66  C   UNL     1      13.775  -2.853   0.375  1.00  0.00     0.009 A 
ATOM     67  C   UNL     1      14.403  -1.117   1.887  1.00  0.00     0.009 A 
ATOM     68  C   UNL     1      14.402  -3.801   1.194  1.00  0.00     0.001 A 
ATOM     69  C   UNL     1      14.996  -2.065   2.733  1.00  0.00     0.001 A 
ATOM     70  C   UNL     1      14.984  -3.411   2.392  1.00  0.00     0.000 A 
ENDBRANCH  51  65
BRANCH  52  71
ATOM     71  C   UNL     1       7.062   3.995  -3.615  1.00  0.00    -0.014 A 
ATOM     72  C   UNL     1       5.668   4.191  -3.551  1.00  0.00     0.009 A 
ATOM     73  C   UNL     1       7.904   5.023  -3.166  1.00  0.00     0.009 A 
ATOM     74  C   UNL     1       5.133   5.333  -2.947  1.00  0.00     0.001 A 
ATOM     75  C   UNL     1       7.362   6.170  -2.571  1.00  0.00     0.001 A 
ATOM     76  C   UNL     1       5.981   6.307  -2.429  1.00  0.00     0.000 A 
ENDBRANCH  52  71
BRANCH  64  77
ATOM     77  C   UNL     1      13.194   0.663  -5.587  1.00  0.00    -0.014 A 
ATOM     78  C   UNL     1      13.542   1.632  -6.535  1.00  0.00     0.009 A 
ATOM     79  C   UNL     1      14.165  -0.332  -5.321  1.00  0.00     0.009 A 
ATOM     80  C   UNL     1      14.774   1.587  -7.207  1.00  0.00     0.001 A 
ATOM     81  C   UNL     1      15.410  -0.355  -5.951  1.00  0.00     0.001 A 
ATOM     82  C   UNL     1      15.711   0.603  -6.906  1.00  0.00     0.000 A 
ENDBRANCH  64  77
ENDBRANCH  38  39
ENDBRANCH  30  33
ENDBRANCH  28  29
ENDBRANCH  27  28
ENDBRANCH   1  27
TORSDOF 14
