REMARK SMILES Cn1nc(N2CCC(CC(=O)NCCCCNC(=O)c3ccc(-c4c5nc(c(-c6ccccc6)c6ccc([nH]6)c(-c6ccccc6)c6nc(c(-c7ccccc7)c7ccc4[nH]7)C=C6)C=C5)cc3)CC2)c(=O)n(C)c1=O
REMARK SMILES IDX 14 1 13 2 12 3 10 4 11 5 9 7 8 8 5 9 6 10 69 11 7 12 68 13
REMARK SMILES IDX 4 14 1 15 2 16 3 17 74 18 72 19 75 20 70 21 73 22 71 23
REMARK SMILES IDX 15 24 16 25 17 26 18 27 19 29 20 30 21 31 67 32 22 33 66 34
REMARK SMILES IDX 23 35 24 36 25 37 60 38 26 39 65 40 59 41 61 42 27 43 64 44
REMARK SMILES IDX 58 45 57 46 28 48 50 49 35 50 49 51 36 52 39 53 48 54 62 55
REMARK SMILES IDX 37 56 38 57 47 59 63 60 40 61 29 62 30 63 34 64 31 65 33 66
REMARK SMILES IDX 32 67 51 68 52 69 56 70 53 71 55 72 54 73 41 74 42 75 46 76
REMARK SMILES IDX 43 77 45 78 44 79
REMARK H PARENT 12 6 17 28 61 47 39 58
REMARK Flexibility Score: inf
ROOT
ATOM      1  C   UNL     1      -0.977  -6.196  -0.624  1.00  0.00     0.023 C 
ENDROOT
BRANCH   1   2
ATOM      2  C   UNL     1       0.450  -6.753  -0.647  1.00  0.00     0.116 C 
BRANCH   2   3
ATOM      3  N   UNL     1       0.618  -7.751  -1.690  1.00  0.00    -0.356 N 
ATOM      4  C   UNL     1       1.260  -7.673  -2.892  1.00  0.00     0.220 C 
ATOM      5  O   UNL     1       1.202  -8.645  -3.647  1.00  0.00    -0.275 OA
ATOM      6  H   UNL     1       0.201  -8.622  -1.499  1.00  0.00     0.163 HD
BRANCH   4   7
ATOM      7  C   UNL     1       2.021  -6.419  -3.293  1.00  0.00     0.103 C 
BRANCH   7   8
ATOM      8  C   UNL     1       1.216  -5.452  -4.188  1.00  0.00     0.002 C 
ATOM      9  N   UNL     1       0.218  -2.752  -4.372  1.00  0.00    -0.351 N 
ATOM     10  C   UNL     1      -0.752  -3.786  -4.102  1.00  0.00     0.118 C 
ATOM     11  C   UNL     1       1.298  -3.131  -5.266  1.00  0.00     0.118 C 
ATOM     12  C   UNL     1      -0.047  -4.968  -3.469  1.00  0.00     0.025 C 
ATOM     13  C   UNL     1       2.101  -4.262  -4.615  1.00  0.00     0.025 C 
BRANCH   9  14
ATOM     14  C   UNL     1       0.210  -1.549  -3.691  1.00  0.00     0.215 A 
ATOM     15  C   UNL     1       0.815  -0.262  -0.391  1.00  0.00     0.180 C 
ATOM     16  N   UNL     1       0.421  -0.262  -1.792  1.00  0.00    -0.216 N 
ATOM     17  N   UNL     1       0.458  -1.486  -2.414  1.00  0.00    -0.145 NA
ATOM     18  C   UNL     1       0.074   0.940  -2.406  1.00  0.00     0.346 A 
ATOM     19  N   UNL     1      -0.246   0.870  -3.746  1.00  0.00    -0.259 N 
ATOM     20  O   UNL     1       0.067   2.009  -1.791  1.00  0.00    -0.246 OA
ATOM     21  C   UNL     1      -0.141  -0.289  -4.481  1.00  0.00     0.299 A 
ATOM     22  C   UNL     1      -0.675   2.059  -4.450  1.00  0.00     0.159 C 
ATOM     23  O   UNL     1      -0.329  -0.376  -5.690  1.00  0.00    -0.265 OA
ENDBRANCH   9  14
ENDBRANCH   7   8
ENDBRANCH   4   7
ENDBRANCH   2   3
ENDBRANCH   1   2
BRANCH   1  24
ATOM     24  C   UNL     1      -1.975  -7.019   0.169  1.00  0.00     0.023 C 
BRANCH  24  25
ATOM     25  C   UNL     1      -1.740  -6.976   1.666  1.00  0.00     0.116 C 
BRANCH  25  26
ATOM     26  N   UNL     1      -1.871  -5.634   2.224  1.00  0.00    -0.352 N 
ATOM     27  C   UNL     1      -2.734  -5.176   3.192  1.00  0.00     0.251 C 
ATOM     28  H   UNL     1      -1.255  -4.961   1.854  1.00  0.00     0.163 HD
ATOM     29  O   UNL     1      -2.810  -3.984   3.454  1.00  0.00    -0.269 OA
BRANCH  27  30
ATOM     30  C   UNL     1      -3.594  -6.151   3.888  1.00  0.00     0.039 A 
ATOM     31  C   UNL     1      -4.963  -5.901   3.995  1.00  0.00     0.014 A 
ATOM     32  C   UNL     1      -3.048  -7.348   4.356  1.00  0.00     0.014 A 
ATOM     33  C   UNL     1      -5.799  -6.895   4.502  1.00  0.00     0.010 A 
ATOM     34  C   UNL     1      -3.892  -8.374   4.747  1.00  0.00     0.010 A 
ATOM     35  C   UNL     1      -5.273  -8.152   4.843  1.00  0.00    -0.014 A 
BRANCH  35  36
ATOM     36  C   UNL     1      -6.135  -9.238   5.362  1.00  0.00     0.031 A 
ATOM     37  C   UNL     1      -5.899  -9.757   6.754  1.00  0.00     0.074 A 
ATOM     38  C   UNL     1      -7.078  -9.790   4.576  1.00  0.00     0.049 A 
ATOM     39  N   UNL     1      -6.489 -10.744   7.377  1.00  0.00    -0.248 NA
ATOM     40  C   UNL     1      -4.834  -9.104   7.537  1.00  0.00     0.031 C 
ATOM     41  C   UNL     1      -7.370  -9.404   3.193  1.00  0.00     0.029 A 
ATOM     42  N   UNL     1      -7.973 -10.796   4.836  1.00  0.00    -0.354 N 
ATOM     43  C   UNL     1      -5.850 -10.843   8.605  1.00  0.00     0.074 A 
ATOM     44  C   UNL     1      -4.786  -9.866   8.617  1.00  0.00     0.031 C 
ATOM     45  C   UNL     1      -8.408 -10.130   2.745  1.00  0.00     0.029 A 
ATOM     46  C   UNL     1      -8.829 -11.054   3.793  1.00  0.00     0.049 A 
ATOM     47  H   UNL     1      -7.999 -11.288   5.688  1.00  0.00     0.167 HD
ATOM     48  C   UNL     1      -6.145 -11.648   9.650  1.00  0.00     0.031 A 
ATOM     49  C   UNL     1      -9.846 -11.931   3.701  1.00  0.00     0.031 A 
ATOM     50  C   UNL     1      -7.233 -12.583   9.658  1.00  0.00     0.049 A 
ATOM     51  C   UNL     1     -10.158 -12.815   4.876  1.00  0.00     0.074 A 
ATOM     52  C   UNL     1      -7.663 -13.395  10.690  1.00  0.00     0.029 A 
ATOM     53  N   UNL     1      -8.070 -12.817   8.579  1.00  0.00    -0.354 N 
ATOM     54  N   UNL     1      -9.579 -12.859   6.051  1.00  0.00    -0.248 NA
ATOM     55  C   UNL     1     -11.264 -13.769   4.711  1.00  0.00     0.031 C 
ATOM     56  C   UNL     1      -8.745 -14.148  10.224  1.00  0.00     0.029 A 
ATOM     57  C   UNL     1      -9.007 -13.777   8.915  1.00  0.00     0.049 A 
ATOM     58  H   UNL     1      -8.008 -12.368   7.706  1.00  0.00     0.167 HD
ATOM     59  C   UNL     1     -10.256 -13.834   6.771  1.00  0.00     0.074 A 
ATOM     60  C   UNL     1     -11.301 -14.345   5.906  1.00  0.00     0.031 C 
ATOM     61  C   UNL     1     -10.032 -14.270   8.033  1.00  0.00     0.031 A 
BRANCH  48  62
ATOM     62  C   UNL     1      -5.287 -11.524  10.875  1.00  0.00    -0.014 A 
ATOM     63  C   UNL     1      -5.372 -10.393  11.704  1.00  0.00     0.009 A 
ATOM     64  C   UNL     1      -4.392 -12.550  11.212  1.00  0.00     0.009 A 
ATOM     65  C   UNL     1      -4.550 -10.276  12.825  1.00  0.00     0.001 A 
ATOM     66  C   UNL     1      -3.590 -12.442  12.349  1.00  0.00     0.001 A 
ATOM     67  C   UNL     1      -3.663 -11.301  13.149  1.00  0.00     0.000 A 
ENDBRANCH  48  62
BRANCH  49  68
ATOM     68  C   UNL     1     -10.670 -11.987   2.467  1.00  0.00    -0.014 A 
ATOM     69  C   UNL     1     -11.969 -11.456   2.463  1.00  0.00     0.009 A 
ATOM     70  C   UNL     1     -10.166 -12.558   1.288  1.00  0.00     0.009 A 
ATOM     71  C   UNL     1     -12.753 -11.509   1.309  1.00  0.00     0.001 A 
ATOM     72  C   UNL     1     -10.946 -12.591   0.129  1.00  0.00     0.001 A 
ATOM     73  C   UNL     1     -12.240 -12.072   0.142  1.00  0.00     0.000 A 
ENDBRANCH  49  68
BRANCH  61  74
ATOM     74  C   UNL     1     -10.928 -15.350   8.560  1.00  0.00    -0.014 A 
ATOM     75  C   UNL     1     -10.746 -16.684   8.168  1.00  0.00     0.009 A 
ATOM     76  C   UNL     1     -11.901 -15.044   9.523  1.00  0.00     0.009 A 
ATOM     77  C   UNL     1     -11.533 -17.693   8.724  1.00  0.00     0.001 A 
ATOM     78  C   UNL     1     -12.671 -16.058  10.093  1.00  0.00     0.001 A 
ATOM     79  C   UNL     1     -12.488 -17.380   9.691  1.00  0.00     0.000 A 
ENDBRANCH  61  74
ENDBRANCH  35  36
ENDBRANCH  27  30
ENDBRANCH  25  26
ENDBRANCH  24  25
ENDBRANCH   1  24
TORSDOF 13
