REMARK SMILES Cc1ncccc1C(=O)N1CC[C@@H](C(=O)NCCCCNC(=O)c2ccc(-c3c4nc(c(-c5ccccc5)c5ccc([nH]5)c(-c5ccccc5)c5nc(c(-c6ccccc6)c6ccc3[nH]6)C=C5)C=C4)cc2)C1
REMARK SMILES IDX 18 1 17 2 16 3 14 4 15 5 13 7 10 8 11 9 72 10 12 11 8 12
REMARK SMILES IDX 9 13 7 14 1 15 2 16 3 17 4 18 6 19 5 20 19 21 20 22 21 23
REMARK SMILES IDX 22 24 23 26 24 27 25 28 71 29 26 30 70 31 27 32 28 33 29 34
REMARK SMILES IDX 64 35 30 36 69 37 63 38 65 39 31 40 68 41 62 42 61 43 32 45
REMARK SMILES IDX 54 46 39 47 53 48 40 49 43 50 52 51 66 52 41 53 42 54 51 56
REMARK SMILES IDX 67 57 44 58 33 59 34 60 38 61 35 62 37 63 36 64 55 65 56 66
REMARK SMILES IDX 60 67 57 68 59 69 58 70 45 71 46 72 50 73 47 74 49 75 48 76
REMARK H PARENT 16 6 21 25 65 44 43 55
REMARK Flexibility Score: inf
ROOT
ATOM      1  C   UNL     1       5.201  -3.321   3.580  1.00  0.00     0.023 C 
ENDROOT
BRANCH   1   2
ATOM      2  C   UNL     1       5.811  -2.792   2.288  1.00  0.00     0.116 C 
BRANCH   2   3
ATOM      3  N   UNL     1       5.868  -3.811   1.259  1.00  0.00    -0.356 N 
ATOM      4  C   UNL     1       5.384  -3.920   0.001  1.00  0.00     0.224 C 
ATOM      5  O   UNL     1       5.647  -4.982  -0.578  1.00  0.00    -0.275 OA
ATOM      6  H   UNL     1       6.376  -4.606   1.540  1.00  0.00     0.163 HD
BRANCH   4   7
ATOM      7  C   UNL     1       4.549  -2.882  -0.738  1.00  0.00     0.099 C 
ATOM      8  N   UNL     1       2.264  -2.348  -0.344  1.00  0.00    -0.338 N 
ATOM      9  C   UNL     1       3.057  -1.555   0.568  1.00  0.00     0.120 C 
ATOM     10  C   UNL     1       3.107  -3.392  -0.922  1.00  0.00     0.133 C 
ATOM     11  C   UNL     1       4.368  -1.462  -0.204  1.00  0.00     0.037 C 
BRANCH   8  12
ATOM     12  C   UNL     1       0.956  -2.188  -0.756  1.00  0.00     0.255 C 
ATOM     13  O   UNL     1       0.395  -3.018  -1.472  1.00  0.00    -0.269 OA
BRANCH  12  14
ATOM     14  C   UNL     1       0.159  -1.011  -0.336  1.00  0.00     0.061 A 
ATOM     15  C   UNL     1       1.766   0.759  -1.258  1.00  0.00     0.067 C 
ATOM     16  C   UNL     1       0.508   0.324  -0.570  1.00  0.00     0.050 A 
ATOM     17  N   UNL     1      -0.304   1.359  -0.209  1.00  0.00    -0.261 NA
ATOM     18  C   UNL     1      -1.519   1.065   0.302  1.00  0.00     0.111 A 
ATOM     19  C   UNL     1      -1.118  -1.273   0.180  1.00  0.00     0.017 A 
ATOM     20  C   UNL     1      -1.974  -0.224   0.498  1.00  0.00     0.021 A 
ENDBRANCH  12  14
ENDBRANCH   8  12
ENDBRANCH   4   7
ENDBRANCH   2   3
ENDBRANCH   1   2
BRANCH   1  21
ATOM     21  C   UNL     1       6.185  -4.051   4.488  1.00  0.00     0.023 C 
BRANCH  21  22
ATOM     22  C   UNL     1       7.421  -3.248   4.881  1.00  0.00     0.116 C 
BRANCH  22  23
ATOM     23  N   UNL     1       7.125  -1.939   5.450  1.00  0.00    -0.352 N 
ATOM     24  C   UNL     1       7.809  -1.278   6.446  1.00  0.00     0.251 C 
ATOM     25  H   UNL     1       6.342  -1.472   5.078  1.00  0.00     0.163 HD
ATOM     26  O   UNL     1       7.424  -0.204   6.879  1.00  0.00    -0.269 OA
BRANCH  24  27
ATOM     27  C   UNL     1       9.004  -1.933   7.010  1.00  0.00     0.039 A 
ATOM     28  C   UNL     1       9.019  -2.252   8.369  1.00  0.00     0.014 A 
ATOM     29  C   UNL     1      10.034  -2.345   6.161  1.00  0.00     0.014 A 
ATOM     30  C   UNL     1      10.034  -3.068   8.865  1.00  0.00     0.010 A 
ATOM     31  C   UNL     1      11.003  -3.214   6.643  1.00  0.00     0.010 A 
ATOM     32  C   UNL     1      11.004  -3.594   7.996  1.00  0.00    -0.014 A 
BRANCH  32  33
ATOM     33  C   UNL     1      12.025  -4.561   8.467  1.00  0.00     0.031 A 
ATOM     34  C   UNL     1      13.479  -4.193   8.412  1.00  0.00     0.074 A 
ATOM     35  C   UNL     1      11.651  -5.800   8.842  1.00  0.00     0.049 A 
ATOM     36  N   UNL     1      14.528  -4.936   8.656  1.00  0.00    -0.248 NA
ATOM     37  C   UNL     1      13.798  -2.818   7.993  1.00  0.00     0.031 C 
ATOM     38  C   UNL     1      10.274  -6.299   8.886  1.00  0.00     0.029 A 
ATOM     39  N   UNL     1      12.405  -6.875   9.242  1.00  0.00    -0.354 N 
ATOM     40  C   UNL     1      15.627  -4.131   8.386  1.00  0.00     0.074 A 
ATOM     41  C   UNL     1      15.120  -2.857   7.926  1.00  0.00     0.031 C 
ATOM     42  C   UNL     1      10.281  -7.576   9.305  1.00  0.00     0.029 A 
ATOM     43  C   UNL     1      11.661  -7.996   9.522  1.00  0.00     0.049 A 
ATOM     44  H   UNL     1      13.386  -6.846   9.319  1.00  0.00     0.167 HD
ATOM     45  C   UNL     1      16.941  -4.422   8.524  1.00  0.00     0.031 A 
ATOM     46  C   UNL     1      12.050  -9.228   9.903  1.00  0.00     0.031 A 
ATOM     47  C   UNL     1      17.444  -5.675   9.018  1.00  0.00     0.049 A 
ATOM     48  C   UNL     1      13.514  -9.514  10.081  1.00  0.00     0.074 A 
ATOM     49  C   UNL     1      18.755  -6.037   9.270  1.00  0.00     0.029 A 
ATOM     50  N   UNL     1      16.655  -6.767   9.339  1.00  0.00    -0.354 N 
ATOM     51  N   UNL     1      14.539  -8.718   9.892  1.00  0.00    -0.248 NA
ATOM     52  C   UNL     1      13.875 -10.865  10.534  1.00  0.00     0.031 C 
ATOM     53  C   UNL     1      18.763  -7.363   9.713  1.00  0.00     0.029 A 
ATOM     54  C   UNL     1      17.453  -7.810   9.774  1.00  0.00     0.049 A 
ATOM     55  H   UNL     1      15.673  -6.796   9.269  1.00  0.00     0.167 HD
ATOM     56  C   UNL     1      15.662  -9.462  10.228  1.00  0.00     0.074 A 
ATOM     57  C   UNL     1      15.193 -10.768  10.644  1.00  0.00     0.031 C 
ATOM     58  C   UNL     1      16.966  -9.097  10.194  1.00  0.00     0.031 A 
BRANCH  45  59
ATOM     59  C   UNL     1      17.928  -3.361   8.133  1.00  0.00    -0.014 A 
ATOM     60  C   UNL     1      18.110  -2.213   8.921  1.00  0.00     0.009 A 
ATOM     61  C   UNL     1      18.711  -3.528   6.981  1.00  0.00     0.009 A 
ATOM     62  C   UNL     1      19.033  -1.237   8.543  1.00  0.00     0.001 A 
ATOM     63  C   UNL     1      19.651  -2.562   6.619  1.00  0.00     0.001 A 
ATOM     64  C   UNL     1      19.806  -1.414   7.396  1.00  0.00     0.000 A 
ENDBRANCH  45  59
BRANCH  46  65
ATOM     65  C   UNL     1      11.039 -10.287  10.154  1.00  0.00    -0.014 A 
ATOM     66  C   UNL     1      10.760 -10.706  11.464  1.00  0.00     0.009 A 
ATOM     67  C   UNL     1      10.360 -10.896   9.087  1.00  0.00     0.009 A 
ATOM     68  C   UNL     1       9.844 -11.733  11.698  1.00  0.00     0.001 A 
ATOM     69  C   UNL     1       9.426 -11.905   9.327  1.00  0.00     0.001 A 
ATOM     70  C   UNL     1       9.175 -12.330  10.630  1.00  0.00     0.000 A 
ENDBRANCH  46  65
BRANCH  58  71
ATOM     71  C   UNL     1      17.975 -10.108  10.652  1.00  0.00    -0.014 A 
ATOM     72  C   UNL     1      18.330 -11.198   9.843  1.00  0.00     0.009 A 
ATOM     73  C   UNL     1      18.617  -9.936  11.888  1.00  0.00     0.009 A 
ATOM     74  C   UNL     1      19.294 -12.110  10.275  1.00  0.00     0.001 A 
ATOM     75  C   UNL     1      19.596 -10.836  12.307  1.00  0.00     0.001 A 
ATOM     76  C   UNL     1      19.929 -11.926  11.503  1.00  0.00     0.000 A 
ENDBRANCH  58  71
ENDBRANCH  32  33
ENDBRANCH  24  27
ENDBRANCH  22  23
ENDBRANCH  21  22
ENDBRANCH   1  21
TORSDOF 13
