REMARK SMILES CCOc1cc2c(cc1/C=C1/C(=O)N(c3cccc(C(=O)NCCCCNC(=O)c4ccc(-c5c6nc(c(-c7ccccc7)c7ccc([nH]7)c(-c7ccccc7)c7nc(c(-c8ccccc8)c8ccc5[nH]8)C=C7)C=C6)cc4)c3)C(=S)N=C1O)OCO2
REMARK SMILES IDX 23 1 22 2 20 3 21 4 19 6 15 7 16 8 78 9 17 10 18 11 14 12
REMARK SMILES IDX 10 13 11 14 12 15 82 16 13 17 81 18 79 19 80 20 9 21 4 22
REMARK SMILES IDX 5 23 6 24 8 25 7 26 86 27 84 28 85 29 3 30 2 31 1 32 83 33
REMARK SMILES IDX 24 35 25 36 26 37 27 38 28 39 29 41 30 42 31 43 77 44 32 45
REMARK SMILES IDX 76 46 33 47 34 48 35 49 70 50 36 51 75 52 69 53 71 54 37 55
REMARK SMILES IDX 74 56 68 57 67 58 38 60 60 61 45 62 59 63 46 64 49 65 58 66
REMARK SMILES IDX 72 67 47 68 48 69 57 71 73 72 50 73 39 74 40 75 44 76 41 77
REMARK SMILES IDX 43 78 42 79 61 80 62 81 66 82 63 83 65 84 64 85 51 86 52 87
REMARK SMILES IDX 56 88 53 89 55 90 54 91
REMARK H PARENT 22 5 83 34 27 40 71 59 49 70
REMARK Flexibility Score: inf
ROOT
ATOM      1  C   UNL     1       0.047  -1.606   9.342  1.00  0.00     0.116 C 
ENDROOT
BRANCH   1   2
ATOM      2  N   UNL     1      -1.035  -1.312  10.268  1.00  0.00    -0.352 N 
ATOM      3  C   UNL     1      -1.445  -0.122  10.835  1.00  0.00     0.251 C 
ATOM      4  O   UNL     1      -2.407  -0.140  11.601  1.00  0.00    -0.269 OA
ATOM      5  H   UNL     1      -1.567  -2.096  10.536  1.00  0.00     0.163 HD
BRANCH   3   6
ATOM      6  C   UNL     1      -0.720   1.160  10.609  1.00  0.00     0.041 A 
ATOM      7  C   UNL     1       0.906   2.471   9.354  1.00  0.00     0.052 A 
ATOM      8  C   UNL     1       0.922   3.411  10.389  1.00  0.00     0.027 A 
ATOM      9  C   UNL     1      -0.040   1.437   9.422  1.00  0.00     0.040 A 
ATOM     10  C   UNL     1       0.127   3.232  11.526  1.00  0.00     0.003 A 
ATOM     11  C   UNL     1      -0.658   2.086  11.655  1.00  0.00     0.014 A 
BRANCH   7  12
ATOM     12  N   UNL     1       1.938   2.375   8.336  1.00  0.00    -0.251 N 
ATOM     13  C   UNL     1       2.268   1.879   4.709  1.00  0.00     0.031 C 
ATOM     14  C   UNL     1       2.563   1.802   6.028  1.00  0.00     0.103 C 
ATOM     15  C   UNL     1       1.496   2.149   7.015  1.00  0.00     0.270 C 
ATOM     16  C   UNL     1       3.824   1.425   6.644  1.00  0.00     0.226 C 
ATOM     17  O   UNL     1       0.321   2.222   6.651  1.00  0.00    -0.268 OA
ATOM     18  N   UNL     1       4.182   1.658   7.843  1.00  0.00    -0.184 NA
ATOM     19  C   UNL     1       3.308   2.268   8.713  1.00  0.00     0.210 C 
ATOM     20  S   UNL     1       3.991   2.674  10.216  1.00  0.00    -0.038 S 
BRANCH  13  21
ATOM     21  C   UNL     1       3.124   1.666   3.511  1.00  0.00     0.021 A 
ATOM     22  C   UNL     1       2.584   1.117   2.310  1.00  0.00     0.130 A 
ATOM     23  C   UNL     1       3.399   0.908   1.188  1.00  0.00     0.097 A 
ATOM     24  C   UNL     1       4.735   1.217   1.287  1.00  0.00     0.169 A 
ATOM     25  C   UNL     1       4.473   2.066   3.515  1.00  0.00     0.062 A 
ATOM     26  C   UNL     1       5.257   1.786   2.417  1.00  0.00     0.166 A 
ATOM     27  O   UNL     1       5.668   1.041   0.314  1.00  0.00    -0.453 OA
ATOM     28  O   UNL     1       6.590   2.033   2.307  1.00  0.00    -0.454 OA
ATOM     29  C   UNL     1       6.859   1.469   1.006  1.00  0.00     0.468 C 
BRANCH  22  30
ATOM     30  O   UNL     1       1.224   0.925   2.237  1.00  0.00    -0.493 OA
BRANCH  30  31
ATOM     31  C   UNL     1       0.786  -0.333   1.709  1.00  0.00     0.226 C 
ATOM     32  C   UNL     1       0.513  -0.287   0.211  1.00  0.00     0.049 C 
ENDBRANCH  30  31
ENDBRANCH  22  30
ENDBRANCH  13  21
BRANCH  16  33
ATOM     33  O   UNL     1       4.670   0.691   5.921  1.00  0.00    -0.493 OA
ATOM     34  H   UNL     1       4.467   0.483   5.031  1.00  0.00     0.295 HD
ENDBRANCH  16  33
ENDBRANCH   7  12
ENDBRANCH   3   6
ENDBRANCH   1   2
BRANCH   1  35
ATOM     35  C   UNL     1       0.808  -2.894   9.621  1.00  0.00     0.023 C 
BRANCH  35  36
ATOM     36  C   UNL     1       0.005  -4.186   9.572  1.00  0.00     0.023 C 
BRANCH  36  37
ATOM     37  C   UNL     1      -0.853  -4.396   8.331  1.00  0.00     0.116 C 
BRANCH  37  38
ATOM     38  N   UNL     1      -0.106  -4.368   7.081  1.00  0.00    -0.352 N 
ATOM     39  C   UNL     1      -0.079  -5.281   6.050  1.00  0.00     0.251 C 
ATOM     40  H   UNL     1       0.465  -3.576   6.954  1.00  0.00     0.163 HD
ATOM     41  O   UNL     1       0.668  -5.111   5.096  1.00  0.00    -0.269 OA
BRANCH  39  42
ATOM     42  C   UNL     1      -0.924  -6.494   6.118  1.00  0.00     0.039 A 
ATOM     43  C   UNL     1      -0.344  -7.735   5.840  1.00  0.00     0.014 A 
ATOM     44  C   UNL     1      -2.269  -6.416   6.483  1.00  0.00     0.014 A 
ATOM     45  C   UNL     1      -1.089  -8.904   6.019  1.00  0.00     0.010 A 
ATOM     46  C   UNL     1      -2.983  -7.582   6.742  1.00  0.00     0.010 A 
ATOM     47  C   UNL     1      -2.400  -8.839   6.516  1.00  0.00    -0.014 A 
BRANCH  47  48
ATOM     48  C   UNL     1      -3.183 -10.067   6.808  1.00  0.00     0.031 A 
ATOM     49  C   UNL     1      -4.456 -10.344   6.056  1.00  0.00     0.074 A 
ATOM     50  C   UNL     1      -2.793 -10.894   7.799  1.00  0.00     0.049 A 
ATOM     51  N   UNL     1      -5.323 -11.310   6.227  1.00  0.00    -0.248 NA
ATOM     52  C   UNL     1      -4.817  -9.395   4.991  1.00  0.00     0.031 C 
ATOM     53  C   UNL     1      -1.602 -10.721   8.634  1.00  0.00     0.029 A 
ATOM     54  N   UNL     1      -3.369 -12.044   8.279  1.00  0.00    -0.354 N 
ATOM     55  C   UNL     1      -6.339 -11.070   5.311  1.00  0.00     0.074 A 
ATOM     56  C   UNL     1      -6.006  -9.844   4.620  1.00  0.00     0.031 C 
ATOM     57  C   UNL     1      -1.522 -11.742   9.503  1.00  0.00     0.029 A 
ATOM     58  C   UNL     1      -2.674 -12.618   9.316  1.00  0.00     0.049 A 
ATOM     59  H   UNL     1      -4.201 -12.423   7.914  1.00  0.00     0.167 HD
ATOM     60  C   UNL     1      -7.441 -11.813   5.051  1.00  0.00     0.031 A 
ATOM     61  C   UNL     1      -2.937 -13.723  10.039  1.00  0.00     0.031 A 
ATOM     62  C   UNL     1      -7.765 -13.043   5.719  1.00  0.00     0.049 A 
ATOM     63  C   UNL     1      -4.168 -14.530   9.731  1.00  0.00     0.074 A 
ATOM     64  C   UNL     1      -8.831 -13.896   5.487  1.00  0.00     0.029 A 
ATOM     65  N   UNL     1      -7.023 -13.600   6.748  1.00  0.00    -0.354 N 
ATOM     66  N   UNL     1      -5.086 -14.320   8.820  1.00  0.00    -0.248 NA
ATOM     67  C   UNL     1      -4.391 -15.733  10.546  1.00  0.00     0.031 C 
ATOM     68  C   UNL     1      -8.754 -14.949   6.404  1.00  0.00     0.029 A 
ATOM     69  C   UNL     1      -7.614 -14.777   7.172  1.00  0.00     0.049 A 
ATOM     70  H   UNL     1      -6.197 -13.215   7.122  1.00  0.00     0.167 HD
ATOM     71  C   UNL     1      -5.977 -15.380   8.931  1.00  0.00     0.074 A 
ATOM     72  C   UNL     1      -5.482 -16.237   9.988  1.00  0.00     0.031 C 
ATOM     73  C   UNL     1      -7.104 -15.622   8.219  1.00  0.00     0.031 A 
BRANCH  60  74
ATOM     74  C   UNL     1      -8.377 -11.308   3.989  1.00  0.00    -0.014 A 
ATOM     75  C   UNL     1      -8.018 -11.334   2.632  1.00  0.00     0.009 A 
ATOM     76  C   UNL     1      -9.647 -10.829   4.346  1.00  0.00     0.009 A 
ATOM     77  C   UNL     1      -8.896 -10.856   1.658  1.00  0.00     0.001 A 
ATOM     78  C   UNL     1     -10.534 -10.377   3.367  1.00  0.00     0.001 A 
ATOM     79  C   UNL     1     -10.154 -10.383   2.026  1.00  0.00     0.000 A 
ENDBRANCH  60  74
BRANCH  61  80
ATOM     80  C   UNL     1      -2.008 -14.151  11.118  1.00  0.00    -0.014 A 
ATOM     81  C   UNL     1      -1.214 -15.297  10.956  1.00  0.00     0.009 A 
ATOM     82  C   UNL     1      -1.925 -13.433  12.321  1.00  0.00     0.009 A 
ATOM     83  C   UNL     1      -0.378 -15.732  11.988  1.00  0.00     0.001 A 
ATOM     84  C   UNL     1      -1.068 -13.854  13.340  1.00  0.00     0.001 A 
ATOM     85  C   UNL     1      -0.304 -15.008  13.177  1.00  0.00     0.000 A 
ENDBRANCH  61  80
BRANCH  73  86
ATOM     86  C   UNL     1      -7.854 -16.886   8.528  1.00  0.00    -0.014 A 
ATOM     87  C   UNL     1      -8.611 -17.017   9.703  1.00  0.00     0.009 A 
ATOM     88  C   UNL     1      -7.836 -17.945   7.607  1.00  0.00     0.009 A 
ATOM     89  C   UNL     1      -9.310 -18.197   9.963  1.00  0.00     0.001 A 
ATOM     90  C   UNL     1      -8.558 -19.113   7.857  1.00  0.00     0.001 A 
ATOM     91  C   UNL     1      -9.287 -19.241   9.038  1.00  0.00     0.000 A 
ENDBRANCH  73  86
ENDBRANCH  47  48
ENDBRANCH  39  42
ENDBRANCH  37  38
ENDBRANCH  36  37
ENDBRANCH  35  36
ENDBRANCH   1  35
TORSDOF 16
