REMARK SMILES C[C@@H](C(=O)NCCCCNC(=O)c1ccc(-c2c3nc(c(-c4ccccc4)c4ccc([nH]4)c(-c4ccccc4)c4nc(c(-c5ccccc5)c5ccc2[nH]5)C=C4)C=C3)cc1)c1ccc(C[C@@H]2CCC[C@@H]2O)cc1
REMARK SMILES IDX 6 1 5 2 3 3 4 4 2 6 1 7 61 8 62 9 73 10 63 11 72 12 64 13
REMARK SMILES IDX 65 14 66 15 67 16 70 17 68 18 69 19 71 20 7 22 8 23 9 24
REMARK SMILES IDX 10 25 11 26 12 28 13 29 14 30 60 31 15 32 59 33 16 34 17 35
REMARK SMILES IDX 18 36 53 37 19 38 58 39 52 40 54 41 20 42 57 43 51 44 50 45
REMARK SMILES IDX 21 47 43 48 28 49 42 50 29 51 32 52 41 53 55 54 30 55 31 56
REMARK SMILES IDX 40 58 56 59 33 60 22 61 23 62 27 63 24 64 26 65 25 66 44 67
REMARK SMILES IDX 45 68 49 69 46 70 48 71 47 72 34 73 35 74 39 75 36 76 38 77
REMARK SMILES IDX 37 78
REMARK H PARENT 5 5 71 21 10 27 54 46 32 57
REMARK Flexibility Score: inf
ROOT
ATOM      1  C   UNL     1     -11.096   3.343   7.439  1.00  0.00     0.116 C 
ENDROOT
BRANCH   1   2
ATOM      2  N   UNL     1     -10.803   3.782   6.091  1.00  0.00    -0.356 N 
ATOM      3  C   UNL     1      -9.988   3.218   5.149  1.00  0.00     0.227 C 
ATOM      4  O   UNL     1      -9.629   3.969   4.240  1.00  0.00    -0.274 OA
ATOM      5  H   UNL     1     -11.258   4.609   5.811  1.00  0.00     0.163 HD
BRANCH   3   6
ATOM      6  C   UNL     1      -9.563   1.742   5.288  1.00  0.00     0.105 C 
ATOM      7  C   UNL     1      -8.392   1.687   6.285  1.00  0.00     0.023 C 
BRANCH   6   8
ATOM      8  C   UNL     1      -9.182   1.010   3.994  1.00  0.00    -0.036 A 
ATOM      9  C   UNL     1      -8.560  -0.251   4.067  1.00  0.00     0.005 A 
ATOM     10  C   UNL     1      -9.398   1.537   2.716  1.00  0.00     0.005 A 
ATOM     11  C   UNL     1      -8.017  -0.862   2.935  1.00  0.00     0.004 A 
ATOM     12  C   UNL     1      -8.837   0.938   1.584  1.00  0.00     0.004 A 
ATOM     13  C   UNL     1      -8.081  -0.231   1.693  1.00  0.00    -0.048 A 
BRANCH  13  14
ATOM     14  C   UNL     1      -7.314  -0.755   0.507  1.00  0.00     0.041 C 
BRANCH  14  15
ATOM     15  C   UNL     1      -5.793  -0.466   0.452  1.00  0.00     0.022 C 
ATOM     16  C   UNL     1      -4.965  -1.124   1.563  1.00  0.00     0.007 C 
ATOM     17  C   UNL     1      -5.339   0.998   0.526  1.00  0.00     0.117 C 
ATOM     18  C   UNL     1      -4.672  -0.038   2.603  1.00  0.00     0.003 C 
ATOM     19  C   UNL     1      -5.159   1.280   2.011  1.00  0.00     0.032 C 
BRANCH  17  20
ATOM     20  O   UNL     1      -6.222   1.912  -0.087  1.00  0.00    -0.393 OA
ATOM     21  H   UNL     1      -7.088   1.867   0.349  1.00  0.00     0.210 HD
ENDBRANCH  17  20
ENDBRANCH  14  15
ENDBRANCH  13  14
ENDBRANCH   6   8
ENDBRANCH   3   6
ENDBRANCH   1   2
BRANCH   1  22
ATOM     22  C   UNL     1     -10.232   4.098   8.455  1.00  0.00     0.023 C 
BRANCH  22  23
ATOM     23  C   UNL     1     -10.468   5.610   8.509  1.00  0.00     0.023 C 
BRANCH  23  24
ATOM     24  C   UNL     1     -11.903   6.029   8.797  1.00  0.00     0.116 C 
BRANCH  24  25
ATOM     25  N   UNL     1     -12.408   5.474  10.042  1.00  0.00    -0.352 N 
ATOM     26  C   UNL     1     -13.131   6.079  11.036  1.00  0.00     0.251 C 
ATOM     27  H   UNL     1     -12.200   4.524  10.193  1.00  0.00     0.163 HD
ATOM     28  O   UNL     1     -13.344   5.478  12.088  1.00  0.00    -0.269 OA
BRANCH  26  29
ATOM     29  C   UNL     1     -13.627   7.460  10.865  1.00  0.00     0.039 A 
ATOM     30  C   UNL     1     -13.509   8.347  11.938  1.00  0.00     0.014 A 
ATOM     31  C   UNL     1     -14.207   7.884   9.665  1.00  0.00     0.014 A 
ATOM     32  C   UNL     1     -13.917   9.673  11.787  1.00  0.00     0.010 A 
ATOM     33  C   UNL     1     -14.545   9.224   9.492  1.00  0.00     0.010 A 
ATOM     34  C   UNL     1     -14.404  10.132  10.551  1.00  0.00    -0.014 A 
BRANCH  34  35
ATOM     35  C   UNL     1     -14.742  11.565  10.360  1.00  0.00     0.031 A 
ATOM     36  C   UNL     1     -16.158  11.989  10.082  1.00  0.00     0.074 A 
ATOM     37  C   UNL     1     -13.759  12.485  10.407  1.00  0.00     0.049 A 
ATOM     38  N   UNL     1     -16.634  13.196   9.900  1.00  0.00    -0.248 NA
ATOM     39  C   UNL     1     -17.167  10.924   9.977  1.00  0.00     0.031 C 
ATOM     40  C   UNL     1     -12.337  12.197  10.619  1.00  0.00     0.029 A 
ATOM     41  N   UNL     1     -13.805  13.851  10.285  1.00  0.00    -0.354 N 
ATOM     42  C   UNL     1     -17.993  13.034   9.660  1.00  0.00     0.074 A 
ATOM     43  C   UNL     1     -18.256  11.611   9.663  1.00  0.00     0.031 C 
ATOM     44  C   UNL     1     -11.654  13.353  10.647  1.00  0.00     0.029 A 
ATOM     45  C   UNL     1     -12.579  14.457  10.419  1.00  0.00     0.049 A 
ATOM     46  H   UNL     1     -14.638  14.349  10.118  1.00  0.00     0.167 HD
ATOM     47  C   UNL     1     -18.941  13.984   9.477  1.00  0.00     0.031 A 
ATOM     48  C   UNL     1     -12.237  15.758  10.364  1.00  0.00     0.031 A 
ATOM     49  C   UNL     1     -18.681  15.399   9.472  1.00  0.00     0.049 A 
ATOM     50  C   UNL     1     -13.309  16.789  10.146  1.00  0.00     0.074 A 
ATOM     51  C   UNL     1     -19.584  16.441   9.333  1.00  0.00     0.029 A 
ATOM     52  N   UNL     1     -17.428  15.973   9.611  1.00  0.00    -0.354 N 
ATOM     53  N   UNL     1     -14.601  16.620   9.993  1.00  0.00    -0.248 NA
ATOM     54  C   UNL     1     -12.876  18.192  10.109  1.00  0.00     0.031 C 
ATOM     55  C   UNL     1     -18.869  17.643   9.339  1.00  0.00     0.029 A 
ATOM     56  C   UNL     1     -17.529  17.353   9.540  1.00  0.00     0.049 A 
ATOM     57  H   UNL     1     -16.589  15.474   9.740  1.00  0.00     0.167 HD
ATOM     58  C   UNL     1     -15.135  17.896   9.865  1.00  0.00     0.074 A 
ATOM     59  C   UNL     1     -14.032  18.827   9.989  1.00  0.00     0.031 C 
ATOM     60  C   UNL     1     -16.422  18.265   9.658  1.00  0.00     0.031 A 
BRANCH  47  61
ATOM     61  C   UNL     1     -20.357  13.522   9.272  1.00  0.00    -0.014 A 
ATOM     62  C   UNL     1     -21.096  12.969  10.330  1.00  0.00     0.009 A 
ATOM     63  C   UNL     1     -20.980  13.694   8.027  1.00  0.00     0.009 A 
ATOM     64  C   UNL     1     -22.422  12.574  10.138  1.00  0.00     0.001 A 
ATOM     65  C   UNL     1     -22.314  13.324   7.844  1.00  0.00     0.001 A 
ATOM     66  C   UNL     1     -23.031  12.758   8.897  1.00  0.00     0.000 A 
ENDBRANCH  47  61
BRANCH  48  67
ATOM     67  C   UNL     1     -10.817  16.169  10.525  1.00  0.00    -0.014 A 
ATOM     68  C   UNL     1     -10.403  16.885  11.659  1.00  0.00     0.009 A 
ATOM     69  C   UNL     1      -9.875  15.874   9.528  1.00  0.00     0.009 A 
ATOM     70  C   UNL     1      -9.084  17.331  11.771  1.00  0.00     0.001 A 
ATOM     71  C   UNL     1      -8.549  16.293   9.659  1.00  0.00     0.001 A 
ATOM     72  C   UNL     1      -8.158  17.033  10.773  1.00  0.00     0.000 A 
ENDBRANCH  48  67
BRANCH  60  73
ATOM     73  C   UNL     1     -16.703  19.739   9.581  1.00  0.00    -0.014 A 
ATOM     74  C   UNL     1     -16.280  20.506   8.483  1.00  0.00     0.009 A 
ATOM     75  C   UNL     1     -17.410  20.368  10.617  1.00  0.00     0.009 A 
ATOM     76  C   UNL     1     -16.518  21.881   8.449  1.00  0.00     0.001 A 
ATOM     77  C   UNL     1     -17.676  21.737  10.564  1.00  0.00     0.001 A 
ATOM     78  C   UNL     1     -17.218  22.495   9.487  1.00  0.00     0.000 A 
ENDBRANCH  60  73
ENDBRANCH  34  35
ENDBRANCH  26  29
ENDBRANCH  24  25
ENDBRANCH  23  24
ENDBRANCH  22  23
ENDBRANCH   1  22
TORSDOF 15
