REMARK SMILES Cc1cccc(-c2ncc([C@@H]3[NH2+][C@H](C(=O)NCCCCNC(=O)c4ccc(-c5c6nc(c(-c7ccccc7)c7ccc([nH]7)c(-c7ccccc7)c7nc(c(-c8ccccc8)c8ccc5[nH]8)C=C7)C=C6)cc4)C(C)(C)S3)s2)c1
REMARK SMILES IDX 18 1 17 2 16 3 14 4 15 5 13 7 11 8 12 9 75 10 72 13 73 14
REMARK SMILES IDX 74 15 10 16 7 17 8 18 76 19 9 20 6 21 1 22 2 23 3 24 77 25
REMARK SMILES IDX 4 26 5 27 19 28 20 29 21 30 22 31 23 33 24 34 25 35 71 36
REMARK SMILES IDX 26 37 70 38 27 39 28 40 29 41 64 42 30 43 69 44 63 45 65 46
REMARK SMILES IDX 31 47 68 48 62 49 61 50 32 52 54 53 39 54 53 55 40 56 43 57
REMARK SMILES IDX 52 58 66 59 41 60 42 61 51 63 67 64 44 65 33 66 34 67 38 68
REMARK SMILES IDX 35 69 37 70 36 71 55 72 56 73 60 74 57 75 59 76 58 77 45 78
REMARK SMILES IDX 46 79 50 80 47 81 49 82 48 83
REMARK H PARENT 16 6 12 11 12 12 21 32 65 51 43 62
REMARK Flexibility Score: inf
ROOT
ATOM      1  C   UNL     1      -8.691   7.889   0.851  1.00  0.00     0.023 C 
ENDROOT
BRANCH   1   2
ATOM      2  C   UNL     1      -7.766   8.921   1.503  1.00  0.00     0.116 C 
BRANCH   2   3
ATOM      3  N   UNL     1      -6.826   8.309   2.407  1.00  0.00    -0.351 N 
ATOM      4  C   UNL     1      -5.538   7.926   2.341  1.00  0.00     0.279 C 
ATOM      5  O   UNL     1      -5.088   7.657   3.470  1.00  0.00    -0.268 OA
ATOM      6  H   UNL     1      -7.224   8.126   3.289  1.00  0.00     0.163 HD
BRANCH   4   7
ATOM      7  C   UNL     1      -4.565   7.885   1.097  1.00  0.00     0.289 C 
ATOM      8  C   UNL     1      -3.954   5.533   1.008  1.00  0.00     0.286 C 
ATOM      9  N   UNL     1      -3.519   6.855   1.476  1.00  0.00    -0.319 N 
ATOM     10  S   UNL     1      -4.946   5.780  -0.492  1.00  0.00    -0.080 SA
ATOM     11  H   UNL     1      -2.629   7.096   1.040  1.00  0.00     0.348 HD
ATOM     12  H   UNL     1      -3.404   6.840   2.489  1.00  0.00     0.348 HD
ATOM     13  C   UNL     1      -4.843   7.596  -0.407  1.00  0.00     0.077 C 
ATOM     14  C   UNL     1      -3.622   8.028  -1.268  1.00  0.00     0.030 C 
ATOM     15  C   UNL     1      -6.041   8.205  -1.118  1.00  0.00     0.030 C 
BRANCH   8  16
ATOM     16  C   UNL     1      -4.684   4.725   2.041  1.00  0.00     0.093 A 
ATOM     17  C   UNL     1      -5.339   3.083   3.742  1.00  0.00     0.123 A 
ATOM     18  N   UNL     1      -6.384   3.797   3.372  1.00  0.00    -0.244 NA
ATOM     19  S   UNL     1      -3.866   3.512   2.951  1.00  0.00    -0.112 S 
ATOM     20  C   UNL     1      -6.012   4.731   2.428  1.00  0.00     0.134 A 
BRANCH  17  21
ATOM     21  C   UNL     1      -5.421   1.955   4.690  1.00  0.00     0.011 A 
ATOM     22  C   UNL     1      -8.156  -0.417   5.936  1.00  0.00     0.044 C 
ATOM     23  C   UNL     1      -6.821   0.242   5.755  1.00  0.00    -0.050 A 
ATOM     24  C   UNL     1      -5.706  -0.224   6.457  1.00  0.00     0.003 A 
ATOM     25  C   UNL     1      -6.668   1.330   4.883  1.00  0.00     0.014 A 
ATOM     26  C   UNL     1      -4.465   0.390   6.291  1.00  0.00     0.001 A 
ATOM     27  C   UNL     1      -4.322   1.471   5.415  1.00  0.00     0.011 A 
ENDBRANCH  17  21
ENDBRANCH   8  16
ENDBRANCH   4   7
ENDBRANCH   2   3
ENDBRANCH   1   2
BRANCH   1  28
ATOM     28  C   UNL     1      -9.808   7.335   1.727  1.00  0.00     0.023 C 
BRANCH  28  29
ATOM     29  C   UNL     1     -10.899   8.335   2.059  1.00  0.00     0.116 C 
BRANCH  29  30
ATOM     30  N   UNL     1     -11.838   8.624   0.981  1.00  0.00    -0.352 N 
ATOM     31  C   UNL     1     -12.831   9.598   0.924  1.00  0.00     0.251 C 
ATOM     32  H   UNL     1     -11.760   8.051   0.184  1.00  0.00     0.163 HD
ATOM     33  O   UNL     1     -13.561   9.680  -0.046  1.00  0.00    -0.269 OA
BRANCH  31  34
ATOM     34  C   UNL     1     -12.886  10.636   1.991  1.00  0.00     0.039 A 
ATOM     35  C   UNL     1     -12.950  11.973   1.587  1.00  0.00     0.014 A 
ATOM     36  C   UNL     1     -12.572  10.319   3.307  1.00  0.00     0.014 A 
ATOM     37  C   UNL     1     -12.399  12.952   2.407  1.00  0.00     0.010 A 
ATOM     38  C   UNL     1     -11.895  11.258   4.057  1.00  0.00     0.010 A 
ATOM     39  C   UNL     1     -11.741  12.558   3.570  1.00  0.00    -0.014 A 
BRANCH  39  40
ATOM     40  C   UNL     1     -10.760  13.392   4.252  1.00  0.00     0.031 A 
ATOM     41  C   UNL     1     -11.037  13.918   5.601  1.00  0.00     0.074 A 
ATOM     42  C   UNL     1      -9.569  13.657   3.670  1.00  0.00     0.049 A 
ATOM     43  N   UNL     1     -10.470  14.971   6.085  1.00  0.00    -0.248 NA
ATOM     44  C   UNL     1     -12.049  13.353   6.488  1.00  0.00     0.031 C 
ATOM     45  C   UNL     1      -8.377  14.227   4.294  1.00  0.00     0.029 A 
ATOM     46  N   UNL     1      -9.277  13.665   2.310  1.00  0.00    -0.354 N 
ATOM     47  C   UNL     1     -10.773  15.016   7.422  1.00  0.00     0.074 A 
ATOM     48  C   UNL     1     -11.872  14.097   7.583  1.00  0.00     0.031 C 
ATOM     49  C   UNL     1      -7.590  14.747   3.338  1.00  0.00     0.029 A 
ATOM     50  C   UNL     1      -8.315  14.662   2.083  1.00  0.00     0.049 A 
ATOM     51  H   UNL     1      -9.674  13.077   1.628  1.00  0.00     0.167 HD
ATOM     52  C   UNL     1      -9.948  15.701   8.262  1.00  0.00     0.031 A 
ATOM     53  C   UNL     1      -8.584  15.722   1.266  1.00  0.00     0.031 A 
ATOM     54  C   UNL     1      -8.970  16.510   7.528  1.00  0.00     0.049 A 
ATOM     55  C   UNL     1      -8.549  17.069   1.962  1.00  0.00     0.074 A 
ATOM     56  C   UNL     1      -7.599  16.432   7.349  1.00  0.00     0.029 A 
ATOM     57  N   UNL     1      -9.425  17.461   6.620  1.00  0.00    -0.354 N 
ATOM     58  N   UNL     1      -8.489  17.233   3.254  1.00  0.00    -0.248 NA
ATOM     59  C   UNL     1      -8.643  18.339   1.249  1.00  0.00     0.031 C 
ATOM     60  C   UNL     1      -7.238  17.322   6.299  1.00  0.00     0.029 A 
ATOM     61  C   UNL     1      -8.385  17.960   5.861  1.00  0.00     0.049 A 
ATOM     62  H   UNL     1     -10.364  17.742   6.530  1.00  0.00     0.167 HD
ATOM     63  C   UNL     1      -8.589  18.569   3.562  1.00  0.00     0.074 A 
ATOM     64  C   UNL     1      -8.651  19.220   2.265  1.00  0.00     0.031 C 
ATOM     65  C   UNL     1      -8.647  18.995   4.861  1.00  0.00     0.031 A 
BRANCH  52  66
ATOM     66  C   UNL     1      -9.864  15.455   9.756  1.00  0.00    -0.014 A 
ATOM     67  C   UNL     1      -8.828  16.052  10.498  1.00  0.00     0.009 A 
ATOM     68  C   UNL     1     -10.692  14.576  10.479  1.00  0.00     0.009 A 
ATOM     69  C   UNL     1      -8.607  15.752  11.851  1.00  0.00     0.001 A 
ATOM     70  C   UNL     1     -10.490  14.282  11.834  1.00  0.00     0.001 A 
ATOM     71  C   UNL     1      -9.437  14.861  12.519  1.00  0.00     0.000 A 
ENDBRANCH  52  66
BRANCH  53  72
ATOM     72  C   UNL     1      -9.486  15.379   0.131  1.00  0.00    -0.014 A 
ATOM     73  C   UNL     1      -9.008  14.492  -0.855  1.00  0.00     0.009 A 
ATOM     74  C   UNL     1     -10.867  15.605   0.216  1.00  0.00     0.009 A 
ATOM     75  C   UNL     1      -9.894  13.757  -1.647  1.00  0.00     0.001 A 
ATOM     76  C   UNL     1     -11.750  14.875  -0.591  1.00  0.00     0.001 A 
ATOM     77  C   UNL     1     -11.267  13.927  -1.492  1.00  0.00     0.000 A 
ENDBRANCH  53  72
BRANCH  65  78
ATOM     78  C   UNL     1      -8.940  20.400   5.370  1.00  0.00    -0.014 A 
ATOM     79  C   UNL     1      -9.290  21.502   4.583  1.00  0.00     0.009 A 
ATOM     80  C   UNL     1      -8.931  20.628   6.770  1.00  0.00     0.009 A 
ATOM     81  C   UNL     1      -9.602  22.750   5.151  1.00  0.00     0.001 A 
ATOM     82  C   UNL     1      -9.274  21.855   7.345  1.00  0.00     0.001 A 
ATOM     83  C   UNL     1      -9.606  22.923   6.530  1.00  0.00     0.000 A 
ENDBRANCH  65  78
ENDBRANCH  39  40
ENDBRANCH  31  34
ENDBRANCH  29  30
ENDBRANCH  28  29
ENDBRANCH   1  28
TORSDOF 13
