REMARK SMILES N#Cc1ccn2cc(C(=O)NCCCCNC(=O)c3ccc(-c4c5nc(c(-c6ccccc6)c6ccc([nH]6)c(-c6ccccc6)c6nc(c(-c7ccccc7)c7ccc4[nH]7)C=C6)C=C5)cc3)nc2c1
REMARK SMILES IDX 14 1 13 2 12 3 11 4 9 5 10 6 8 8 3 9 4 10 69 11 5 12 68 13
REMARK SMILES IDX 6 14 67 15 7 16 2 17 1 18 15 19 16 20 17 21 18 23 19 24
REMARK SMILES IDX 20 25 66 26 21 27 65 28 22 29 23 30 24 31 59 32 25 33 64 34
REMARK SMILES IDX 58 35 60 36 26 37 63 38 57 39 56 40 27 42 49 43 34 44 48 45
REMARK SMILES IDX 35 46 38 47 47 48 61 49 36 50 37 51 46 53 62 54 39 55 28 56
REMARK SMILES IDX 29 57 33 58 30 59 32 60 31 61 50 62 51 63 55 64 52 65 54 66
REMARK SMILES IDX 53 67 40 68 41 69 45 70 42 71 44 72 43 73
REMARK H PARENT 11 7 16 22 60 41 38 52
REMARK Flexibility Score: inf
ROOT
ATOM      1  C   UNL     1       9.339   6.516   1.200  1.00  0.00     0.023 C 
ENDROOT
BRANCH   1   2
ATOM      2  C   UNL     1       8.175   5.519   1.153  1.00  0.00     0.023 C 
BRANCH   2   3
ATOM      3  C   UNL     1       8.159   4.604  -0.070  1.00  0.00     0.116 C 
BRANCH   3   4
ATOM      4  N   UNL     1       9.247   3.640  -0.049  1.00  0.00    -0.351 N 
ATOM      5  C   UNL     1       9.242   2.260  -0.039  1.00  0.00     0.271 C 
ATOM      6  O   UNL     1      10.325   1.687  -0.055  1.00  0.00    -0.267 OA
ATOM      7  H   UNL     1      10.145   4.042  -0.040  1.00  0.00     0.163 HD
BRANCH   5   8
ATOM      8  C   UNL     1       7.978   1.513  -0.021  1.00  0.00     0.147 A 
ATOM      9  C   UNL     1       3.793  -0.096  -0.026  1.00  0.00     0.057 A 
ATOM     10  C   UNL     1       4.507  -1.373  -0.033  1.00  0.00     0.038 A 
ATOM     11  C   UNL     1       4.451   1.079  -0.015  1.00  0.00     0.067 A 
ATOM     12  C   UNL     1       5.853  -1.367  -0.033  1.00  0.00     0.094 A 
ATOM     13  C   UNL     1       5.869   1.079  -0.012  1.00  0.00     0.138 A 
ATOM     14  N   UNL     1       6.523  -0.145  -0.025  1.00  0.00    -0.306 N 
ATOM     15  N   UNL     1       6.718   2.074  -0.001  1.00  0.00    -0.223 NA
ATOM     16  C   UNL     1       7.865   0.130  -0.030  1.00  0.00     0.127 A 
BRANCH   9  17
ATOM     17  C   UNL     1       2.273  -0.096  -0.026  1.00  0.00     0.099 C 
ATOM     18  N   UNL     1       1.013  -0.096  -0.026  1.00  0.00    -0.192 NA
ENDBRANCH   9  17
ENDBRANCH   5   8
ENDBRANCH   3   4
ENDBRANCH   2   3
ENDBRANCH   1   2
BRANCH   1  19
ATOM     19  C   UNL     1       9.488   7.392  -0.045  1.00  0.00     0.116 C 
BRANCH  19  20
ATOM     20  N   UNL     1       8.304   8.152  -0.389  1.00  0.00    -0.352 N 
ATOM     21  C   UNL     1       7.836   9.398  -0.078  1.00  0.00     0.251 C 
ATOM     22  H   UNL     1       7.696   7.657  -0.984  1.00  0.00     0.163 HD
ATOM     23  O   UNL     1       6.884   9.804  -0.750  1.00  0.00    -0.269 OA
BRANCH  21  24
ATOM     24  C   UNL     1       8.325  10.245   1.044  1.00  0.00     0.039 A 
ATOM     25  C   UNL     1       9.461  10.007   1.815  1.00  0.00     0.014 A 
ATOM     26  C   UNL     1       7.510  11.348   1.370  1.00  0.00     0.014 A 
ATOM     27  C   UNL     1       9.717  10.783   2.943  1.00  0.00     0.010 A 
ATOM     28  C   UNL     1       7.765  12.132   2.489  1.00  0.00     0.010 A 
ATOM     29  C   UNL     1       8.848  11.820   3.301  1.00  0.00    -0.014 A 
BRANCH  29  30
ATOM     30  C   UNL     1       9.234  12.694   4.408  1.00  0.00     0.031 A 
ATOM     31  C   UNL     1      10.506  13.425   4.147  1.00  0.00     0.074 A 
ATOM     32  C   UNL     1       8.472  12.925   5.499  1.00  0.00     0.049 A 
ATOM     33  N   UNL     1      11.605  13.366   4.823  1.00  0.00    -0.248 NA
ATOM     34  C   UNL     1      10.617  14.196   2.894  1.00  0.00     0.031 C 
ATOM     35  C   UNL     1       7.098  12.470   5.732  1.00  0.00     0.029 A 
ATOM     36  N   UNL     1       8.720  13.708   6.594  1.00  0.00    -0.354 N 
ATOM     37  C   UNL     1      12.488  14.241   4.192  1.00  0.00     0.074 A 
ATOM     38  C   UNL     1      11.889  14.589   2.933  1.00  0.00     0.031 C 
ATOM     39  C   UNL     1       6.558  13.173   6.755  1.00  0.00     0.029 A 
ATOM     40  C   UNL     1       7.583  14.020   7.340  1.00  0.00     0.049 A 
ATOM     41  H   UNL     1       9.621  14.023   6.834  1.00  0.00     0.167 HD
ATOM     42  C   UNL     1      13.515  14.813   4.877  1.00  0.00     0.031 A 
ATOM     43  C   UNL     1       7.480  14.942   8.332  1.00  0.00     0.031 A 
ATOM     44  C   UNL     1      13.805  14.080   6.081  1.00  0.00     0.049 A 
ATOM     45  C   UNL     1       8.842  15.211   8.830  1.00  0.00     0.074 A 
ATOM     46  C   UNL     1      14.300  12.830   6.377  1.00  0.00     0.029 A 
ATOM     47  N   UNL     1      13.169  14.541   7.205  1.00  0.00    -0.354 N 
ATOM     48  N   UNL     1       9.553  14.348   9.492  1.00  0.00    -0.248 NA
ATOM     49  C   UNL     1       9.571  16.346   8.289  1.00  0.00     0.031 C 
ATOM     50  C   UNL     1      13.645  12.439   7.580  1.00  0.00     0.029 A 
ATOM     51  C   UNL     1      12.839  13.492   8.018  1.00  0.00     0.049 A 
ATOM     52  H   UNL     1      12.979  15.488   7.398  1.00  0.00     0.167 HD
ATOM     53  C   UNL     1      10.846  14.571   9.056  1.00  0.00     0.074 A 
ATOM     54  C   UNL     1      10.819  15.904   8.461  1.00  0.00     0.031 C 
ATOM     55  C   UNL     1      11.727  13.534   8.949  1.00  0.00     0.031 A 
BRANCH  42  56
ATOM     56  C   UNL     1      13.889  16.275   4.721  1.00  0.00    -0.014 A 
ATOM     57  C   UNL     1      13.147  17.198   3.959  1.00  0.00     0.009 A 
ATOM     58  C   UNL     1      14.852  16.822   5.591  1.00  0.00     0.009 A 
ATOM     59  C   UNL     1      13.326  18.581   4.074  1.00  0.00     0.001 A 
ATOM     60  C   UNL     1      15.012  18.207   5.736  1.00  0.00     0.001 A 
ATOM     61  C   UNL     1      14.244  19.086   4.981  1.00  0.00     0.000 A 
ENDBRANCH  42  56
BRANCH  43  62
ATOM     62  C   UNL     1       6.357  15.842   8.691  1.00  0.00    -0.014 A 
ATOM     63  C   UNL     1       5.441  16.252   7.708  1.00  0.00     0.009 A 
ATOM     64  C   UNL     1       6.379  16.562   9.901  1.00  0.00     0.009 A 
ATOM     65  C   UNL     1       4.631  17.379   7.896  1.00  0.00     0.001 A 
ATOM     66  C   UNL     1       5.571  17.694  10.087  1.00  0.00     0.001 A 
ATOM     67  C   UNL     1       4.713  18.114   9.075  1.00  0.00     0.000 A 
ENDBRANCH  43  62
BRANCH  55  68
ATOM     68  C   UNL     1      11.415  12.251   9.685  1.00  0.00    -0.014 A 
ATOM     69  C   UNL     1      12.414  11.727  10.522  1.00  0.00     0.009 A 
ATOM     70  C   UNL     1      10.255  11.484   9.478  1.00  0.00     0.009 A 
ATOM     71  C   UNL     1      12.277  10.470  11.111  1.00  0.00     0.001 A 
ATOM     72  C   UNL     1      10.102  10.238  10.098  1.00  0.00     0.001 A 
ATOM     73  C   UNL     1      11.120   9.726  10.902  1.00  0.00     0.000 A 
ENDBRANCH  55  68
ENDBRANCH  29  30
ENDBRANCH  21  24
ENDBRANCH  19  20
ENDBRANCH   1  19
TORSDOF 12
