REMARK SMILES Cc1c(CC(=O)NCCCCNC(=O)c2ccc(-c3c4nc(c(-c5ccccc5)c5ccc([nH]5)c(-c5ccccc5)c5nc(c(-c6ccccc6)c6ccc3[nH]6)C=C5)C=C4)cc2)cc(-c2ccc(S(C)(=O)=O)cc2)n1-c1cccc(F)c1
REMARK SMILES IDX 9 1 8 2 7 3 5 4 6 5 4 7 3 8 1 9 2 10 75 11 63 12 64 13 76 14
REMARK SMILES IDX 77 15 82 16 78 17 80 18 79 19 81 20 65 21 66 22 74 23 67 24
REMARK SMILES IDX 73 25 68 26 69 27 70 28 71 29 72 30 10 31 11 32 12 33 13 34
REMARK SMILES IDX 14 36 15 37 16 38 62 39 17 40 61 41 18 42 19 43 20 44 55 45
REMARK SMILES IDX 21 46 60 47 54 48 56 49 22 50 59 51 53 52 52 53 23 55 45 56
REMARK SMILES IDX 30 57 44 58 31 59 34 60 43 61 57 62 32 63 33 64 42 66 58 67
REMARK SMILES IDX 35 68 24 69 25 70 29 71 26 72 28 73 27 74 46 75 47 76 51 77
REMARK SMILES IDX 48 78 50 79 49 80 36 81 37 82 41 83 38 84 40 85 39 86
REMARK H PARENT 7 6 12 35 56 54 34 65
REMARK Flexibility Score: inf
ROOT
ATOM      1  C   UNL     1      -3.784   0.028   1.817  1.00  0.00     0.023 C 
ENDROOT
BRANCH   1   2
ATOM      2  C   UNL     1      -3.138  -1.271   2.300  1.00  0.00     0.116 C 
BRANCH   2   3
ATOM      3  N   UNL     1      -2.478  -1.997   1.230  1.00  0.00    -0.356 N 
ATOM      4  C   UNL     1      -1.177  -2.382   1.100  1.00  0.00     0.224 C 
ATOM      5  O   UNL     1      -0.880  -3.070   0.119  1.00  0.00    -0.275 OA
ATOM      6  H   UNL     1      -3.062  -2.250   0.479  1.00  0.00     0.163 HD
BRANCH   4   7
ATOM      7  C   UNL     1      -0.146  -2.010   2.150  1.00  0.00     0.137 C 
BRANCH   7   8
ATOM      8  C   UNL     1       0.109  -0.535   2.223  1.00  0.00    -0.017 A 
ATOM      9  C   UNL     1       1.039  -0.057  -0.156  1.00  0.00     0.065 C 
ATOM     10  C   UNL     1       0.552   0.306   1.212  1.00  0.00     0.024 A 
ATOM     11  N   UNL     1       0.583   1.606   1.709  1.00  0.00    -0.313 N 
ATOM     12  C   UNL     1      -0.015   0.263   3.389  1.00  0.00     0.033 A 
ATOM     13  C   UNL     1       0.262   1.579   3.065  1.00  0.00     0.053 A 
BRANCH  11  14
ATOM     14  C   UNL     1       0.915   2.761   0.956  1.00  0.00     0.049 A 
ATOM     15  C   UNL     1       1.935   3.614   1.397  1.00  0.00     0.027 A 
ATOM     16  C   UNL     1       0.190   3.057  -0.202  1.00  0.00     0.065 A 
ATOM     17  C   UNL     1       2.245   4.756   0.657  1.00  0.00     0.005 A 
ATOM     18  C   UNL     1       0.501   4.207  -0.914  1.00  0.00     0.125 A 
ATOM     19  C   UNL     1       1.524   5.055  -0.500  1.00  0.00     0.039 A 
ATOM     20  F   UNL     1      -0.204   4.512  -2.011  1.00  0.00    -0.207 F 
ENDBRANCH  11  14
BRANCH  13  21
ATOM     21  C   UNL     1       0.155   2.747   3.948  1.00  0.00    -0.001 A 
ATOM     22  C   UNL     1      -0.651   3.844   3.610  1.00  0.00     0.011 A 
ATOM     23  C   UNL     1       0.849   2.761   5.166  1.00  0.00     0.011 A 
ATOM     24  C   UNL     1      -0.725   4.960   4.449  1.00  0.00     0.021 A 
ATOM     25  C   UNL     1       0.780   3.872   6.011  1.00  0.00     0.021 A 
ATOM     26  C   UNL     1       0.009   4.973   5.638  1.00  0.00     0.067 A 
BRANCH  26  27
ATOM     27  S   UNL     1      -0.085   6.400   6.693  1.00  0.00     0.175 S 
ATOM     28  C   UNL     1       0.693   7.684   5.748  1.00  0.00     0.163 C 
ATOM     29  O   UNL     1      -1.477   6.722   6.854  1.00  0.00    -0.224 OA
ATOM     30  O   UNL     1       0.769   6.142   7.852  1.00  0.00    -0.224 OA
ENDBRANCH  26  27
ENDBRANCH  13  21
ENDBRANCH   7   8
ENDBRANCH   4   7
ENDBRANCH   2   3
ENDBRANCH   1   2
BRANCH   1  31
ATOM     31  C   UNL     1      -4.753  -0.079   0.621  1.00  0.00     0.023 C 
BRANCH  31  32
ATOM     32  C   UNL     1      -5.618  -1.346   0.469  1.00  0.00     0.116 C 
BRANCH  32  33
ATOM     33  N   UNL     1      -6.952  -1.268   1.016  1.00  0.00    -0.352 N 
ATOM     34  C   UNL     1      -8.015  -2.118   0.745  1.00  0.00     0.251 C 
ATOM     35  H   UNL     1      -7.125  -0.534   1.649  1.00  0.00     0.163 HD
ATOM     36  O   UNL     1      -9.088  -1.910   1.308  1.00  0.00    -0.269 OA
BRANCH  34  37
ATOM     37  C   UNL     1      -7.907  -3.222  -0.284  1.00  0.00     0.039 A 
ATOM     38  C   UNL     1      -8.283  -2.945  -1.588  1.00  0.00     0.014 A 
ATOM     39  C   UNL     1      -7.646  -4.572   0.014  1.00  0.00     0.014 A 
ATOM     40  C   UNL     1      -8.329  -3.982  -2.570  1.00  0.00     0.010 A 
ATOM     41  C   UNL     1      -7.775  -5.640  -0.978  1.00  0.00     0.010 A 
ATOM     42  C   UNL     1      -8.128  -5.390  -2.320  1.00  0.00    -0.014 A 
BRANCH  42  43
ATOM     43  C   UNL     1      -8.842  -6.404  -3.369  1.00  0.00     0.031 A 
ATOM     44  C   UNL     1     -10.201  -5.806  -3.481  1.00  0.00     0.074 A 
ATOM     45  C   UNL     1      -8.730  -7.632  -4.026  1.00  0.00     0.049 A 
ATOM     46  N   UNL     1     -10.908  -5.704  -2.393  1.00  0.00    -0.248 NA
ATOM     47  C   UNL     1     -10.639  -4.955  -4.585  1.00  0.00     0.031 C 
ATOM     48  C   UNL     1      -7.674  -8.648  -3.888  1.00  0.00     0.029 A 
ATOM     49  N   UNL     1      -9.553  -8.286  -5.008  1.00  0.00    -0.354 N 
ATOM     50  C   UNL     1     -12.015  -4.961  -2.711  1.00  0.00     0.074 A 
ATOM     51  C   UNL     1     -11.688  -4.362  -4.001  1.00  0.00     0.031 C 
ATOM     52  C   UNL     1      -7.808  -9.653  -4.805  1.00  0.00     0.029 A 
ATOM     53  C   UNL     1      -8.995  -9.461  -5.637  1.00  0.00     0.049 A 
ATOM     54  H   UNL     1     -10.449  -7.950  -5.239  1.00  0.00     0.167 HD
ATOM     55  C   UNL     1     -13.201  -5.499  -2.305  1.00  0.00     0.031 A 
ATOM     56  C   UNL     1      -9.458 -10.260  -6.684  1.00  0.00     0.031 A 
ATOM     57  C   UNL     1     -13.815  -6.240  -3.377  1.00  0.00     0.049 A 
ATOM     58  C   UNL     1     -10.913 -10.089  -6.718  1.00  0.00     0.074 A 
ATOM     59  C   UNL     1     -14.052  -5.923  -4.700  1.00  0.00     0.029 A 
ATOM     60  N   UNL     1     -13.793  -7.617  -3.293  1.00  0.00    -0.354 N 
ATOM     61  N   UNL     1     -11.684 -10.743  -5.905  1.00  0.00    -0.248 NA
ATOM     62  C   UNL     1     -11.598  -9.270  -7.709  1.00  0.00     0.031 C 
ATOM     63  C   UNL     1     -13.658  -7.071  -5.420  1.00  0.00     0.029 A 
ATOM     64  C   UNL     1     -13.612  -8.155  -4.554  1.00  0.00     0.049 A 
ATOM     65  H   UNL     1     -13.892  -8.137  -2.463  1.00  0.00     0.167 HD
ATOM     66  C   UNL     1     -12.804  -9.972  -5.887  1.00  0.00     0.074 A 
ATOM     67  C   UNL     1     -12.821  -9.300  -7.174  1.00  0.00     0.031 C 
ATOM     68  C   UNL     1     -13.230  -9.543  -4.671  1.00  0.00     0.031 A 
BRANCH  55  69
ATOM     69  C   UNL     1     -13.197  -5.911  -0.854  1.00  0.00    -0.014 A 
ATOM     70  C   UNL     1     -13.914  -5.140   0.068  1.00  0.00     0.009 A 
ATOM     71  C   UNL     1     -12.336  -6.912  -0.353  1.00  0.00     0.009 A 
ATOM     72  C   UNL     1     -13.720  -5.318   1.444  1.00  0.00     0.001 A 
ATOM     73  C   UNL     1     -12.111  -7.058   1.016  1.00  0.00     0.001 A 
ATOM     74  C   UNL     1     -12.799  -6.254   1.915  1.00  0.00     0.000 A 
ENDBRANCH  55  69
BRANCH  56  75
ATOM     75  C   UNL     1      -9.079 -11.390  -7.680  1.00  0.00    -0.014 A 
ATOM     76  C   UNL     1     -10.097 -12.284  -8.166  1.00  0.00     0.009 A 
ATOM     77  C   UNL     1      -7.907 -11.389  -8.444  1.00  0.00     0.009 A 
ATOM     78  C   UNL     1     -10.008 -13.010  -9.372  1.00  0.00     0.001 A 
ATOM     79  C   UNL     1      -7.801 -12.147  -9.646  1.00  0.00     0.001 A 
ATOM     80  C   UNL     1      -8.857 -12.923 -10.130  1.00  0.00     0.000 A 
ENDBRANCH  56  75
BRANCH  68  81
ATOM     81  C   UNL     1     -13.092 -10.503  -3.496  1.00  0.00    -0.014 A 
ATOM     82  C   UNL     1     -11.955 -11.293  -3.209  1.00  0.00     0.009 A 
ATOM     83  C   UNL     1     -14.201 -10.668  -2.654  1.00  0.00     0.009 A 
ATOM     84  C   UNL     1     -11.956 -12.250  -2.186  1.00  0.00     0.001 A 
ATOM     85  C   UNL     1     -14.185 -11.584  -1.596  1.00  0.00     0.001 A 
ATOM     86  C   UNL     1     -13.073 -12.391  -1.375  1.00  0.00     0.000 A 
ENDBRANCH  68  81
ENDBRANCH  42  43
ENDBRANCH  34  37
ENDBRANCH  32  33
ENDBRANCH  31  32
ENDBRANCH   1  31
TORSDOF 15
