REMARK SMILES CCC(=O)N1CCc2cc(C(=O)NC3(C(=O)NCCCCNC(=O)c4ccc(-c5c6nc(c(-c7ccccc7)c7ccc([nH]7)c(-c7ccccc7)c7nc(c(-c8ccccc8)c8ccc5[nH]8)C=C7)C=C6)cc4)CCCC3)ccc21
REMARK SMILES IDX 18 1 17 2 15 3 16 4 14 6 73 7 76 8 74 9 75 10 13 11 11 12
REMARK SMILES IDX 12 13 10 15 5 16 6 17 79 18 7 19 8 20 78 21 9 22 77 23 3 24
REMARK SMILES IDX 4 25 2 26 1 27 19 28 20 29 21 30 22 31 23 32 24 34 25 35
REMARK SMILES IDX 26 36 72 37 27 38 71 39 28 40 29 41 30 42 65 43 31 44 70 45
REMARK SMILES IDX 64 46 66 47 32 48 69 49 63 50 62 51 33 53 55 54 40 55 54 56
REMARK SMILES IDX 41 57 44 58 53 59 67 60 42 61 43 62 52 64 68 65 45 66 34 67
REMARK SMILES IDX 35 68 39 69 36 70 38 71 37 72 56 73 57 74 61 75 58 76 60 77
REMARK SMILES IDX 59 78 46 79 47 80 51 81 48 82 50 83 49 84
REMARK H PARENT 17 5 13 14 22 33 66 52 44 63
REMARK Flexibility Score: inf
ROOT
ATOM      1  C   UNL     1       3.710   0.087   6.081  1.00  0.00     0.116 C 
ENDROOT
BRANCH   1   2
ATOM      2  N   UNL     1       5.039  -0.431   5.791  1.00  0.00    -0.354 N 
ATOM      3  C   UNL     1       5.759  -0.608   4.644  1.00  0.00     0.245 C 
ATOM      4  O   UNL     1       6.944  -0.934   4.801  1.00  0.00    -0.272 OA
ATOM      5  H   UNL     1       5.526  -0.715   6.598  1.00  0.00     0.163 HD
BRANCH   3   6
ATOM      6  C   UNL     1       5.181  -0.432   3.190  1.00  0.00     0.119 C 
ATOM      7  C   UNL     1       4.680   1.014   3.009  1.00  0.00     0.038 C 
ATOM      8  C   UNL     1       3.987  -1.378   3.005  1.00  0.00     0.038 C 
ATOM      9  C   UNL     1       3.160   0.955   2.792  1.00  0.00     0.003 C 
ATOM     10  C   UNL     1       2.741  -0.515   2.797  1.00  0.00     0.003 C 
BRANCH   6  11
ATOM     11  N   UNL     1       6.348  -0.762   2.259  1.00  0.00    -0.338 N 
ATOM     12  C   UNL     1       6.646  -0.975   0.918  1.00  0.00     0.252 C 
ATOM     13  O   UNL     1       7.815  -1.233   0.625  1.00  0.00    -0.269 OA
ATOM     14  H   UNL     1       7.170  -0.857   2.792  1.00  0.00     0.164 HD
BRANCH  12  15
ATOM     15  C   UNL     1       5.656  -0.950  -0.203  1.00  0.00     0.040 A 
ATOM     16  N   UNL     1       2.662  -1.118  -3.137  1.00  0.00    -0.312 N 
ATOM     17  C   UNL     1       3.353  -1.790  -4.245  1.00  0.00     0.130 C 
ATOM     18  C   UNL     1       3.581  -0.960  -2.102  1.00  0.00     0.047 A 
ATOM     19  C   UNL     1       4.846  -1.911  -3.858  1.00  0.00     0.059 C 
ATOM     20  C   UNL     1       4.850  -1.435  -2.436  1.00  0.00    -0.022 A 
ATOM     21  C   UNL     1       3.352  -0.481  -0.853  1.00  0.00     0.027 A 
ATOM     22  C   UNL     1       5.900  -1.444  -1.496  1.00  0.00     0.019 A 
ATOM     23  C   UNL     1       4.410  -0.417   0.027  1.00  0.00     0.016 A 
BRANCH  16  24
ATOM     24  C   UNL     1       1.312  -0.821  -3.181  1.00  0.00     0.226 C 
ATOM     25  O   UNL     1       0.549  -1.437  -3.933  1.00  0.00    -0.275 OA
BRANCH  24  26
ATOM     26  C   UNL     1       0.776   0.389  -2.407  1.00  0.00     0.097 C 
ATOM     27  C   UNL     1       0.115   0.132  -1.057  1.00  0.00     0.014 C 
ENDBRANCH  24  26
ENDBRANCH  16  24
ENDBRANCH  12  15
ENDBRANCH   6  11
ENDBRANCH   3   6
ENDBRANCH   1   2
BRANCH   1  28
ATOM     28  C   UNL     1       2.632  -0.995   6.183  1.00  0.00     0.023 C 
BRANCH  28  29
ATOM     29  C   UNL     1       2.002  -1.160   7.560  1.00  0.00     0.023 C 
BRANCH  29  30
ATOM     30  C   UNL     1       1.270   0.071   8.079  1.00  0.00     0.116 C 
BRANCH  30  31
ATOM     31  N   UNL     1       0.124   0.494   7.284  1.00  0.00    -0.352 N 
ATOM     32  C   UNL     1      -1.006   1.153   7.737  1.00  0.00     0.251 C 
ATOM     33  H   UNL     1       0.157   0.289   6.322  1.00  0.00     0.163 HD
ATOM     34  O   UNL     1      -1.925   1.433   6.990  1.00  0.00    -0.269 OA
BRANCH  32  35
ATOM     35  C   UNL     1      -1.088   1.452   9.185  1.00  0.00     0.039 A 
ATOM     36  C   UNL     1      -2.137   0.906   9.927  1.00  0.00     0.014 A 
ATOM     37  C   UNL     1      -0.038   2.122   9.815  1.00  0.00     0.014 A 
ATOM     38  C   UNL     1      -2.075   0.939  11.321  1.00  0.00     0.010 A 
ATOM     39  C   UNL     1       0.065   2.073  11.199  1.00  0.00     0.010 A 
ATOM     40  C   UNL     1      -0.945   1.469  11.966  1.00  0.00    -0.014 A 
BRANCH  40  41
ATOM     41  C   UNL     1      -0.783   1.392  13.439  1.00  0.00     0.031 A 
ATOM     42  C   UNL     1      -0.682   2.655  14.247  1.00  0.00     0.074 A 
ATOM     43  C   UNL     1      -0.638   0.194  14.040  1.00  0.00     0.049 A 
ATOM     44  N   UNL     1      -0.450   2.801  15.526  1.00  0.00    -0.248 NA
ATOM     45  C   UNL     1      -0.828   3.923  13.512  1.00  0.00     0.031 C 
ATOM     46  C   UNL     1      -0.660  -1.107  13.366  1.00  0.00     0.029 A 
ATOM     47  N   UNL     1      -0.437  -0.122  15.361  1.00  0.00    -0.354 N 
ATOM     48  C   UNL     1      -0.396   4.172  15.742  1.00  0.00     0.074 A 
ATOM     49  C   UNL     1      -0.565   4.813  14.457  1.00  0.00     0.031 C 
ATOM     50  C   UNL     1      -0.515  -2.080  14.282  1.00  0.00     0.029 A 
ATOM     51  C   UNL     1      -0.353  -1.473  15.599  1.00  0.00     0.049 A 
ATOM     52  H   UNL     1      -0.359   0.555  16.071  1.00  0.00     0.167 HD
ATOM     53  C   UNL     1      -0.246   4.842  16.909  1.00  0.00     0.031 A 
ATOM     54  C   UNL     1      -0.168  -2.147  16.750  1.00  0.00     0.031 A 
ATOM     55  C   UNL     1      -0.107   4.210  18.191  1.00  0.00     0.049 A 
ATOM     56  C   UNL     1      -0.020  -1.382  18.035  1.00  0.00     0.074 A 
ATOM     57  C   UNL     1      -0.009   4.802  19.438  1.00  0.00     0.029 A 
ATOM     58  N   UNL     1      -0.054   2.840  18.391  1.00  0.00    -0.354 N 
ATOM     59  N   UNL     1      -0.032  -0.086  18.229  1.00  0.00    -0.248 NA
ATOM     60  C   UNL     1       0.157  -2.175  19.260  1.00  0.00     0.031 C 
ATOM     61  C   UNL     1       0.137   3.789  20.391  1.00  0.00     0.029 A 
ATOM     62  C   UNL     1       0.086   2.567  19.740  1.00  0.00     0.049 A 
ATOM     63  H   UNL     1      -0.109   2.162  17.679  1.00  0.00     0.167 HD
ATOM     64  C   UNL     1       0.108   0.092  19.599  1.00  0.00     0.074 A 
ATOM     65  C   UNL     1       0.191  -1.229  20.189  1.00  0.00     0.031 C 
ATOM     66  C   UNL     1       0.162   1.246  20.307  1.00  0.00     0.031 A 
BRANCH  53  67
ATOM     67  C   UNL     1      -0.234   6.342  16.839  1.00  0.00    -0.014 A 
ATOM     68  C   UNL     1      -1.404   7.062  16.548  1.00  0.00     0.009 A 
ATOM     69  C   UNL     1       0.956   7.045  17.077  1.00  0.00     0.009 A 
ATOM     70  C   UNL     1      -1.373   8.455  16.456  1.00  0.00     0.001 A 
ATOM     71  C   UNL     1       0.978   8.440  17.013  1.00  0.00     0.001 A 
ATOM     72  C   UNL     1      -0.183   9.142  16.692  1.00  0.00     0.000 A 
ENDBRANCH  53  67
BRANCH  54  73
ATOM     73  C   UNL     1      -0.145  -3.633  16.751  1.00  0.00    -0.014 A 
ATOM     74  C   UNL     1      -1.228  -4.355  17.277  1.00  0.00     0.009 A 
ATOM     75  C   UNL     1       0.956  -4.336  16.240  1.00  0.00     0.009 A 
ATOM     76  C   UNL     1      -1.197  -5.751  17.315  1.00  0.00     0.001 A 
ATOM     77  C   UNL     1       0.974  -5.733  16.258  1.00  0.00     0.001 A 
ATOM     78  C   UNL     1      -0.098  -6.438  16.803  1.00  0.00     0.000 A 
ENDBRANCH  54  73
BRANCH  66  79
ATOM     79  C   UNL     1       0.281   1.131  21.799  1.00  0.00    -0.014 A 
ATOM     80  C   UNL     1       1.493   0.765  22.405  1.00  0.00     0.009 A 
ATOM     81  C   UNL     1      -0.823   1.438  22.608  1.00  0.00     0.009 A 
ATOM     82  C   UNL     1       1.587   0.681  23.795  1.00  0.00     0.001 A 
ATOM     83  C   UNL     1      -0.719   1.377  23.998  1.00  0.00     0.001 A 
ATOM     84  C   UNL     1       0.483   0.992  24.590  1.00  0.00     0.000 A 
ENDBRANCH  66  79
ENDBRANCH  40  41
ENDBRANCH  32  35
ENDBRANCH  30  31
ENDBRANCH  29  30
ENDBRANCH  28  29
ENDBRANCH   1  28
TORSDOF 15
