REMARK SMILES CCC(CC)([NH2+]CC(=O)Nc1ccc(C)cc1)C(=O)NCCCCNC(=O)c1ccc(-c2c3nc(c(-c4ccccc4)c4ccc([nH]4)c(-c4ccccc4)c4nc(c(-c5ccccc5)c5ccc2[nH]5)C=C4)C=C3)cc1
REMARK SMILES IDX 21 1 20 2 18 3 19 4 3 6 2 7 1 8 4 9 5 10 6 11 7 14 8 15 9 16
REMARK SMILES IDX 10 17 11 19 12 20 17 21 13 22 16 23 14 24 15 25 22 26 23 27
REMARK SMILES IDX 24 28 25 29 26 30 27 32 28 33 29 34 75 35 30 36 74 37 31 38
REMARK SMILES IDX 32 39 33 40 68 41 34 42 73 43 67 44 69 45 35 46 72 47 66 48
REMARK SMILES IDX 65 49 36 51 58 52 43 53 57 54 44 55 47 56 56 57 70 58 45 59
REMARK SMILES IDX 46 60 55 62 71 63 48 64 37 65 38 66 42 67 39 68 41 69 40 70
REMARK SMILES IDX 59 71 60 72 64 73 61 74 63 75 62 76 49 77 50 78 54 79 51 80
REMARK SMILES IDX 53 81 52 82
REMARK H PARENT 20 5 6 12 6 13 10 18 25 31 69 50 47 61
REMARK Flexibility Score: inf
ROOT
ATOM      1  C   UNL     1       3.183  -0.507   4.572  1.00  0.00     0.116 C 
ENDROOT
BRANCH   1   2
ATOM      2  N   UNL     1       2.750  -1.149   3.321  1.00  0.00    -0.351 N 
ATOM      3  C   UNL     1       1.809  -0.906   2.343  1.00  0.00     0.281 C 
ATOM      4  O   UNL     1       2.283  -1.107   1.211  1.00  0.00    -0.268 OA
ATOM      5  H   UNL     1       3.267  -1.965   3.133  1.00  0.00     0.163 HD
BRANCH   3   6
ATOM      6  C   UNL     1       0.191  -0.688   2.518  1.00  0.00     0.175 C 
BRANCH   6   7
ATOM      7  C   UNL     1      -0.356  -1.888   1.611  1.00  0.00     0.076 C 
ATOM      8  C   UNL     1      -0.317  -1.625   0.076  1.00  0.00     0.011 C 
ENDBRANCH   6   7
BRANCH   6   9
ATOM      9  C   UNL     1      -0.701   0.521   2.039  1.00  0.00     0.076 C 
ATOM     10  C   UNL     1      -2.224   0.386   2.247  1.00  0.00     0.011 C 
ENDBRANCH   6   9
BRANCH   6  11
ATOM     11  N   UNL     1      -0.098  -0.870   3.938  1.00  0.00    -0.326 N 
ATOM     12  H   UNL     1       0.464  -1.662   4.251  1.00  0.00     0.347 HD
ATOM     13  H   UNL     1      -1.112  -0.973   3.957  1.00  0.00     0.347 HD
BRANCH  11  14
ATOM     14  C   UNL     1       0.146   0.231   4.897  1.00  0.00     0.363 C 
BRANCH  14  15
ATOM     15  C   UNL     1       0.308   1.762   4.613  1.00  0.00     0.279 C 
ATOM     16  O   UNL     1      -0.527   2.504   5.169  1.00  0.00    -0.268 OA
ATOM     17  N   UNL     1       1.403   2.437   4.120  1.00  0.00    -0.321 N 
ATOM     18  H   UNL     1       1.574   3.246   4.656  1.00  0.00     0.170 HD
BRANCH  17  19
ATOM     19  C   UNL     1       2.359   2.327   3.079  1.00  0.00     0.041 A 
ATOM     20  C   UNL     1       2.106   1.901   1.785  1.00  0.00     0.026 A 
ATOM     21  C   UNL     1       3.638   2.842   3.299  1.00  0.00     0.026 A 
ATOM     22  C   UNL     1       3.113   1.737   0.825  1.00  0.00     0.005 A 
ATOM     23  C   UNL     1       4.659   2.726   2.333  1.00  0.00     0.005 A 
ATOM     24  C   UNL     1       4.418   2.096   1.112  1.00  0.00    -0.051 A 
ATOM     25  C   UNL     1       5.486   1.860   0.088  1.00  0.00     0.044 C 
ENDBRANCH  17  19
ENDBRANCH  14  15
ENDBRANCH  11  14
ENDBRANCH   6  11
ENDBRANCH   3   6
ENDBRANCH   1   2
BRANCH   1  26
ATOM     26  C   UNL     1       3.177  -1.407   5.825  1.00  0.00     0.023 C 
BRANCH  26  27
ATOM     27  C   UNL     1       4.550  -1.611   6.485  1.00  0.00     0.023 C 
BRANCH  27  28
ATOM     28  C   UNL     1       5.213  -0.349   7.043  1.00  0.00     0.116 C 
BRANCH  28  29
ATOM     29  N   UNL     1       5.061  -0.111   8.475  1.00  0.00    -0.352 N 
ATOM     30  C   UNL     1       5.521   0.945   9.259  1.00  0.00     0.251 C 
ATOM     31  H   UNL     1       4.556  -0.803   8.961  1.00  0.00     0.163 HD
ATOM     32  O   UNL     1       5.342   0.923  10.461  1.00  0.00    -0.269 OA
BRANCH  30  33
ATOM     33  C   UNL     1       6.111   2.163   8.627  1.00  0.00     0.039 A 
ATOM     34  C   UNL     1       5.841   3.411   9.211  1.00  0.00     0.014 A 
ATOM     35  C   UNL     1       6.768   2.118   7.403  1.00  0.00     0.014 A 
ATOM     36  C   UNL     1       5.986   4.575   8.456  1.00  0.00     0.010 A 
ATOM     37  C   UNL     1       6.806   3.244   6.611  1.00  0.00     0.010 A 
ATOM     38  C   UNL     1       6.354   4.459   7.117  1.00  0.00    -0.014 A 
BRANCH  38  39
ATOM     39  C   UNL     1       6.196   5.522   6.139  1.00  0.00     0.031 A 
ATOM     40  C   UNL     1       7.347   6.345   5.743  1.00  0.00     0.074 A 
ATOM     41  C   UNL     1       4.993   5.707   5.553  1.00  0.00     0.049 A 
ATOM     42  N   UNL     1       7.257   7.591   5.422  1.00  0.00    -0.248 NA
ATOM     43  C   UNL     1       8.710   5.824   5.710  1.00  0.00     0.031 C 
ATOM     44  C   UNL     1       4.683   6.565   4.413  1.00  0.00     0.029 A 
ATOM     45  N   UNL     1       3.744   5.295   6.018  1.00  0.00    -0.354 N 
ATOM     46  C   UNL     1       8.465   7.946   4.874  1.00  0.00     0.074 A 
ATOM     47  C   UNL     1       9.364   6.850   5.158  1.00  0.00     0.031 C 
ATOM     48  C   UNL     1       3.374   6.869   4.455  1.00  0.00     0.029 A 
ATOM     49  C   UNL     1       2.840   6.317   5.690  1.00  0.00     0.049 A 
ATOM     50  H   UNL     1       3.537   4.453   6.484  1.00  0.00     0.167 HD
ATOM     51  C   UNL     1       8.561   9.048   4.082  1.00  0.00     0.031 A 
ATOM     52  C   UNL     1       2.124   7.002   6.627  1.00  0.00     0.031 A 
ATOM     53  C   UNL     1       7.277   9.711   3.909  1.00  0.00     0.049 A 
ATOM     54  C   UNL     1       2.424   8.486   6.614  1.00  0.00     0.074 A 
ATOM     55  C   UNL     1       6.324   9.646   2.905  1.00  0.00     0.029 A 
ATOM     56  N   UNL     1       6.661  10.310   5.000  1.00  0.00    -0.354 N 
ATOM     57  N   UNL     1       3.463   9.011   6.024  1.00  0.00    -0.248 NA
ATOM     58  C   UNL     1       1.617   9.487   7.309  1.00  0.00     0.031 C 
ATOM     59  C   UNL     1       5.103  10.144   3.426  1.00  0.00     0.029 A 
ATOM     60  C   UNL     1       5.326  10.540   4.732  1.00  0.00     0.049 A 
ATOM     61  H   UNL     1       7.113  10.539   5.844  1.00  0.00     0.167 HD
ATOM     62  C   UNL     1       3.479  10.364   6.237  1.00  0.00     0.074 A 
ATOM     63  C   UNL     1       2.301  10.616   7.045  1.00  0.00     0.031 C 
ATOM     64  C   UNL     1       4.470  11.158   5.735  1.00  0.00     0.031 A 
BRANCH  51  65
ATOM     65  C   UNL     1       9.766   9.286   3.218  1.00  0.00    -0.014 A 
ATOM     66  C   UNL     1       9.604   9.749   1.901  1.00  0.00     0.009 A 
ATOM     67  C   UNL     1      11.081   9.024   3.639  1.00  0.00     0.009 A 
ATOM     68  C   UNL     1      10.685   9.851   1.018  1.00  0.00     0.001 A 
ATOM     69  C   UNL     1      12.162   9.089   2.749  1.00  0.00     0.001 A 
ATOM     70  C   UNL     1      11.961   9.493   1.434  1.00  0.00     0.000 A 
ENDBRANCH  51  65
BRANCH  52  71
ATOM     71  C   UNL     1       1.824   6.208   7.852  1.00  0.00    -0.014 A 
ATOM     72  C   UNL     1       0.949   5.110   7.727  1.00  0.00     0.009 A 
ATOM     73  C   UNL     1       2.675   6.266   8.966  1.00  0.00     0.009 A 
ATOM     74  C   UNL     1       1.012   4.040   8.624  1.00  0.00     0.001 A 
ATOM     75  C   UNL     1       2.725   5.194   9.868  1.00  0.00     0.001 A 
ATOM     76  C   UNL     1       1.924   4.069   9.676  1.00  0.00     0.000 A 
ENDBRANCH  52  71
BRANCH  64  77
ATOM     77  C   UNL     1       4.713  12.610   6.066  1.00  0.00    -0.014 A 
ATOM     78  C   UNL     1       4.281  13.238   7.240  1.00  0.00     0.009 A 
ATOM     79  C   UNL     1       5.551  13.368   5.214  1.00  0.00     0.009 A 
ATOM     80  C   UNL     1       4.640  14.563   7.530  1.00  0.00     0.001 A 
ATOM     81  C   UNL     1       5.950  14.669   5.521  1.00  0.00     0.001 A 
ATOM     82  C   UNL     1       5.483  15.272   6.679  1.00  0.00     0.000 A 
ENDBRANCH  64  77
ENDBRANCH  38  39
ENDBRANCH  30  33
ENDBRANCH  28  29
ENDBRANCH  27  28
ENDBRANCH  26  27
ENDBRANCH   1  26
TORSDOF 17
