REMARK SMILES COc1ccccc1OC1CCN(c2cccc(C(=O)NCCCCNC(=O)c3ccc(-c4c5nc(c(-c6ccccc6)c6ccc([nH]6)c(-c6ccccc6)c6nc(c(-c7ccccc7)c7ccc4[nH]7)C=C6)C=C5)cc3)n2)CC1
REMARK SMILES IDX 22 1 21 2 19 3 20 4 18 6 14 7 15 8 77 9 16 10 17 11 13 12
REMARK SMILES IDX 10 13 11 14 79 15 12 16 78 17 9 18 8 19 3 20 4 21 5 22 7 23
REMARK SMILES IDX 6 24 2 25 1 26 23 27 24 28 25 29 26 30 27 31 28 33 29 34
REMARK SMILES IDX 30 35 76 36 31 37 75 38 32 39 33 40 34 41 69 42 35 43 74 44
REMARK SMILES IDX 68 45 70 46 36 47 73 48 67 49 66 50 37 52 59 53 44 54 58 55
REMARK SMILES IDX 45 56 48 57 57 58 71 59 46 60 47 61 56 63 72 64 49 65 38 66
REMARK SMILES IDX 39 67 43 68 40 69 42 70 41 71 60 72 61 73 65 74 62 75 64 76
REMARK SMILES IDX 63 77 50 78 51 79 55 80 52 81 54 82 53 83
REMARK H PARENT 21 5 26 32 70 51 48 62
REMARK Flexibility Score: inf
ROOT
ATOM      1  C   UNL     1      -4.790   1.551   5.122  1.00  0.00     0.116 C 
ENDROOT
BRANCH   1   2
ATOM      2  N   UNL     1      -3.349   1.562   5.118  1.00  0.00    -0.351 N 
ATOM      3  C   UNL     1      -2.401   1.079   4.251  1.00  0.00     0.269 C 
ATOM      4  O   UNL     1      -1.234   1.196   4.642  1.00  0.00    -0.268 OA
ATOM      5  H   UNL     1      -2.963   2.010   5.904  1.00  0.00     0.163 HD
BRANCH   3   6
ATOM      6  C   UNL     1      -2.683   0.446   2.911  1.00  0.00     0.130 A 
ATOM      7  C   UNL     1      -1.625  -0.650   1.153  1.00  0.00     0.129 A 
ATOM      8  C   UNL     1      -2.776  -0.621   0.386  1.00  0.00     0.047 A 
ATOM      9  N   UNL     1      -1.600  -0.195   2.414  1.00  0.00    -0.226 NA
ATOM     10  C   UNL     1      -3.911  -0.023   0.904  1.00  0.00     0.006 A 
ATOM     11  C   UNL     1      -3.843   0.572   2.159  1.00  0.00     0.034 A 
BRANCH   7  12
ATOM     12  N   UNL     1      -0.429  -1.034   0.599  1.00  0.00    -0.356 N 
ATOM     13  C   UNL     1       3.232  -0.828  -0.362  1.00  0.00     0.177 C 
ATOM     14  C   UNL     1       2.698  -1.522   1.373  1.00  0.00     0.066 C 
ATOM     15  C   UNL     1       1.866   0.028  -1.451  1.00  0.00     0.066 C 
ATOM     16  C   UNL     1       0.809  -1.794   1.735  1.00  0.00     0.122 C 
ATOM     17  C   UNL     1      -0.003  -0.294  -1.034  1.00  0.00     0.122 C 
BRANCH  13  18
ATOM     18  O   UNL     1       3.683  -1.984  -1.129  1.00  0.00    -0.486 OA
BRANCH  18  19
ATOM     19  C   UNL     1       2.614  -2.842  -1.295  1.00  0.00     0.161 A 
ATOM     20  C   UNL     1       1.367  -2.513  -0.742  1.00  0.00     0.160 A 
ATOM     21  C   UNL     1       0.286  -3.372  -0.924  1.00  0.00     0.050 A 
ATOM     22  C   UNL     1       0.453  -4.546  -1.662  1.00  0.00     0.004 A 
ATOM     23  C   UNL     1       2.789  -4.013  -2.019  1.00  0.00     0.050 A 
ATOM     24  C   UNL     1       1.700  -4.866  -2.205  1.00  0.00     0.004 A 
BRANCH  20  25
ATOM     25  O   UNL     1       1.418  -1.298  -0.087  1.00  0.00    -0.493 OA
ATOM     26  C   UNL     1       1.359   0.315   0.820  1.00  0.00     0.278 C 
ENDBRANCH  20  25
ENDBRANCH  18  19
ENDBRANCH  13  18
ENDBRANCH   7  12
ENDBRANCH   3   6
ENDBRANCH   1   2
BRANCH   1  27
ATOM     27  C   UNL     1      -5.352   0.454   6.015  1.00  0.00     0.023 C 
BRANCH  27  28
ATOM     28  C   UNL     1      -5.536   0.879   7.469  1.00  0.00     0.023 C 
BRANCH  28  29
ATOM     29  C   UNL     1      -6.296   2.187   7.662  1.00  0.00     0.116 C 
BRANCH  29  30
ATOM     30  N   UNL     1      -7.537   2.263   6.900  1.00  0.00    -0.352 N 
ATOM     31  C   UNL     1      -8.713   2.875   7.253  1.00  0.00     0.251 C 
ATOM     32  H   UNL     1      -7.529   1.819   6.021  1.00  0.00     0.163 HD
ATOM     33  O   UNL     1      -9.713   2.772   6.552  1.00  0.00    -0.269 OA
BRANCH  31  34
ATOM     34  C   UNL     1      -8.759   3.626   8.520  1.00  0.00     0.039 A 
ATOM     35  C   UNL     1      -9.762   3.328   9.442  1.00  0.00     0.014 A 
ATOM     36  C   UNL     1      -7.762   4.558   8.819  1.00  0.00     0.014 A 
ATOM     37  C   UNL     1      -9.727   3.928  10.699  1.00  0.00     0.010 A 
ATOM     38  C   UNL     1      -7.678   5.080  10.102  1.00  0.00     0.010 A 
ATOM     39  C   UNL     1      -8.665   4.779  11.051  1.00  0.00    -0.014 A 
BRANCH  39  40
ATOM     40  C   UNL     1      -8.586   5.374  12.407  1.00  0.00     0.031 A 
ATOM     41  C   UNL     1      -8.653   6.867  12.576  1.00  0.00     0.074 A 
ATOM     42  C   UNL     1      -8.419   4.575  13.478  1.00  0.00     0.049 A 
ATOM     43  N   UNL     1      -8.592   7.575  13.675  1.00  0.00    -0.248 NA
ATOM     44  C   UNL     1      -8.780   7.673  11.350  1.00  0.00     0.031 C 
ATOM     45  C   UNL     1      -8.288   3.116  13.438  1.00  0.00     0.029 A 
ATOM     46  N   UNL     1      -8.333   4.879  14.813  1.00  0.00    -0.354 N 
ATOM     47  C   UNL     1      -8.672   8.901  13.271  1.00  0.00     0.074 A 
ATOM     48  C   UNL     1      -8.710   8.905  11.826  1.00  0.00     0.031 C 
ATOM     49  C   UNL     1      -8.176   2.651  14.693  1.00  0.00     0.029 A 
ATOM     50  C   UNL     1      -8.183   3.777  15.621  1.00  0.00     0.049 A 
ATOM     51  H   UNL     1      -8.374   5.799  15.160  1.00  0.00     0.167 HD
ATOM     52  C   UNL     1      -8.742  10.017  14.034  1.00  0.00     0.031 A 
ATOM     53  C   UNL     1      -8.062   3.685  16.958  1.00  0.00     0.031 A 
ATOM     54  C   UNL     1      -8.702  10.012  15.471  1.00  0.00     0.049 A 
ATOM     55  C   UNL     1      -8.113   4.942  17.783  1.00  0.00     0.074 A 
ATOM     56  C   UNL     1      -8.799  11.084  16.339  1.00  0.00     0.029 A 
ATOM     57  N   UNL     1      -8.549   8.876  16.251  1.00  0.00    -0.354 N 
ATOM     58  N   UNL     1      -8.262   6.184  17.389  1.00  0.00    -0.248 NA
ATOM     59  C   UNL     1      -7.994   4.783  19.239  1.00  0.00     0.031 C 
ATOM     60  C   UNL     1      -8.648  10.603  17.643  1.00  0.00     0.029 A 
ATOM     61  C   UNL     1      -8.527   9.224  17.590  1.00  0.00     0.049 A 
ATOM     62  H   UNL     1      -8.469   7.958  15.903  1.00  0.00     0.167 HD
ATOM     63  C   UNL     1      -8.285   6.949  18.548  1.00  0.00     0.074 A 
ATOM     64  C   UNL     1      -8.157   6.029  19.659  1.00  0.00     0.031 C 
ATOM     65  C   UNL     1      -8.401   8.293  18.682  1.00  0.00     0.031 A 
BRANCH  52  66
ATOM     66  C   UNL     1      -8.876  11.334  13.321  1.00  0.00    -0.014 A 
ATOM     67  C   UNL     1     -10.049  11.663  12.621  1.00  0.00     0.009 A 
ATOM     68  C   UNL     1      -7.833  12.271  13.374  1.00  0.00     0.009 A 
ATOM     69  C   UNL     1     -10.159  12.887  11.958  1.00  0.00     0.001 A 
ATOM     70  C   UNL     1      -7.960  13.508  12.739  1.00  0.00     0.001 A 
ATOM     71  C   UNL     1      -9.117  13.811  12.023  1.00  0.00     0.000 A 
ENDBRANCH  52  66
BRANCH  53  72
ATOM     72  C   UNL     1      -7.882   2.358  17.605  1.00  0.00    -0.014 A 
ATOM     73  C   UNL     1      -8.882   1.817  18.430  1.00  0.00     0.009 A 
ATOM     74  C   UNL     1      -6.696   1.631  17.417  1.00  0.00     0.009 A 
ATOM     75  C   UNL     1      -8.681   0.597  19.080  1.00  0.00     0.001 A 
ATOM     76  C   UNL     1      -6.512   0.395  18.041  1.00  0.00     0.001 A 
ATOM     77  C   UNL     1      -7.499  -0.115  18.882  1.00  0.00     0.000 A 
ENDBRANCH  53  72
BRANCH  65  78
ATOM     78  C   UNL     1      -8.435   8.846  20.081  1.00  0.00    -0.014 A 
ATOM     79  C   UNL     1      -7.293   8.848  20.896  1.00  0.00     0.009 A 
ATOM     80  C   UNL     1      -9.622   9.413  20.571  1.00  0.00     0.009 A 
ATOM     81  C   UNL     1      -7.350   9.372  22.189  1.00  0.00     0.001 A 
ATOM     82  C   UNL     1      -9.667   9.968  21.850  1.00  0.00     0.001 A 
ATOM     83  C   UNL     1      -8.534   9.937  22.662  1.00  0.00     0.000 A 
ENDBRANCH  65  78
ENDBRANCH  39  40
ENDBRANCH  31  34
ENDBRANCH  29  30
ENDBRANCH  28  29
ENDBRANCH  27  28
ENDBRANCH   1  27
TORSDOF 15
