REMARK SMILES CC[C@@](C)(NC(=O)[C@@H](C)NC(=O)c1ccco1)C(=O)NCCCCNC(=O)c1ccc(-c2c3nc(c(-c4ccccc4)c4ccc([nH]4)c(-c4ccccc4)c4nc(c(-c5ccccc5)c5ccc2[nH]5)C=C4)C=C3)cc1
REMARK SMILES IDX 21 1 20 2 18 3 19 4 3 6 4 7 2 8 1 9 5 10 6 11 7 13 8 14 9 15
REMARK SMILES IDX 10 16 11 17 12 19 13 20 14 21 17 22 15 23 16 24 22 25 23 26
REMARK SMILES IDX 24 27 25 28 26 29 27 31 28 32 29 33 75 34 30 35 74 36 31 37
REMARK SMILES IDX 32 38 33 39 68 40 34 41 73 42 67 43 69 44 35 45 72 46 66 47
REMARK SMILES IDX 65 48 36 50 58 51 43 52 57 53 44 54 47 55 56 56 70 57 45 58
REMARK SMILES IDX 46 59 55 61 71 62 48 63 37 64 38 65 42 66 39 67 41 68 40 69
REMARK SMILES IDX 59 70 60 71 64 72 61 73 63 74 62 75 49 76 50 77 54 78 51 79
REMARK SMILES IDX 53 80 52 81
REMARK H PARENT 20 5 5 12 10 18 25 30 69 49 47 60
REMARK Flexibility Score: inf
ROOT
ATOM      1  C   UNL     1       1.861   2.096   4.799  1.00  0.00     0.116 C 
ENDROOT
BRANCH   1   2
ATOM      2  N   UNL     1       2.663   1.679   3.654  1.00  0.00    -0.354 N 
ATOM      3  C   UNL     1       2.380   0.919   2.550  1.00  0.00     0.245 C 
ATOM      4  O   UNL     1       3.279   0.801   1.711  1.00  0.00    -0.272 OA
ATOM      5  H   UNL     1       3.590   2.009   3.679  1.00  0.00     0.163 HD
BRANCH   3   6
ATOM      6  C   UNL     1       1.051   0.151   2.392  1.00  0.00     0.116 C 
ATOM      7  C   UNL     1      -0.115   1.164   2.260  1.00  0.00     0.045 C 
BRANCH   6   8
ATOM      8  C   UNL     1       0.944  -0.778   1.149  1.00  0.00     0.035 C 
ATOM      9  C   UNL     1       1.087  -0.142  -0.230  1.00  0.00     0.007 C 
ENDBRANCH   6   8
BRANCH   6  10
ATOM     10  N   UNL     1       0.902  -0.686   3.607  1.00  0.00    -0.340 N 
ATOM     11  C   UNL     1       1.641  -1.671   4.189  1.00  0.00     0.243 C 
ATOM     12  H   UNL     1       0.079  -0.483   4.109  1.00  0.00     0.164 HD
ATOM     13  O   UNL     1       0.984  -2.389   4.962  1.00  0.00    -0.273 OA
BRANCH  11  14
ATOM     14  C   UNL     1       3.141  -2.072   3.926  1.00  0.00     0.168 C 
ATOM     15  C   UNL     1       3.261  -3.152   2.857  1.00  0.00     0.041 C 
BRANCH  14  16
ATOM     16  N   UNL     1       4.183  -1.077   3.683  1.00  0.00    -0.338 N 
ATOM     17  C   UNL     1       5.298  -0.730   4.415  1.00  0.00     0.287 C 
ATOM     18  H   UNL     1       4.068  -0.565   2.850  1.00  0.00     0.164 HD
ATOM     19  O   UNL     1       5.905   0.275   4.035  1.00  0.00    -0.266 OA
BRANCH  17  20
ATOM     20  C   UNL     1       5.688  -1.465   5.605  1.00  0.00     0.191 A 
ATOM     21  C   UNL     1       5.753  -2.806   5.941  1.00  0.00     0.056 A 
ATOM     22  O   UNL     1       6.159  -0.727   6.668  1.00  0.00    -0.459 OA
ATOM     23  C   UNL     1       6.254  -2.882   7.268  1.00  0.00     0.043 A 
ATOM     24  C   UNL     1       6.477  -1.587   7.666  1.00  0.00     0.196 A 
ENDBRANCH  17  20
ENDBRANCH  14  16
ENDBRANCH  11  14
ENDBRANCH   6  10
ENDBRANCH   3   6
ENDBRANCH   1   2
BRANCH   1  25
ATOM     25  C   UNL     1       2.162   1.404   6.130  1.00  0.00     0.023 C 
BRANCH  25  26
ATOM     26  C   UNL     1       3.609   1.423   6.591  1.00  0.00     0.023 C 
BRANCH  26  27
ATOM     27  C   UNL     1       4.307   2.770   6.604  1.00  0.00     0.116 C 
BRANCH  27  28
ATOM     28  N   UNL     1       3.994   3.533   7.797  1.00  0.00    -0.352 N 
ATOM     29  C   UNL     1       4.810   3.895   8.842  1.00  0.00     0.251 C 
ATOM     30  H   UNL     1       3.060   3.836   7.868  1.00  0.00     0.163 HD
ATOM     31  O   UNL     1       4.304   4.344   9.868  1.00  0.00    -0.269 OA
BRANCH  29  32
ATOM     32  C   UNL     1       6.286   3.747   8.761  1.00  0.00     0.039 A 
ATOM     33  C   UNL     1       6.987   3.404   9.923  1.00  0.00     0.014 A 
ATOM     34  C   UNL     1       6.996   4.006   7.586  1.00  0.00     0.014 A 
ATOM     35  C   UNL     1       8.382   3.301   9.898  1.00  0.00     0.010 A 
ATOM     36  C   UNL     1       8.376   3.808   7.537  1.00  0.00     0.010 A 
ATOM     37  C   UNL     1       9.091   3.488   8.700  1.00  0.00    -0.014 A 
BRANCH  37  38
ATOM     38  C   UNL     1      10.576   3.417   8.664  1.00  0.00     0.031 A 
ATOM     39  C   UNL     1      11.384   4.638   8.304  1.00  0.00     0.074 A 
ATOM     40  C   UNL     1      11.206   2.256   8.929  1.00  0.00     0.049 A 
ATOM     41  N   UNL     1      12.684   4.772   8.204  1.00  0.00    -0.248 NA
ATOM     42  C   UNL     1      10.634   5.867   7.994  1.00  0.00     0.031 C 
ATOM     43  C   UNL     1      10.548   0.989   9.257  1.00  0.00     0.029 A 
ATOM     44  N   UNL     1      12.545   1.954   8.966  1.00  0.00    -0.354 N 
ATOM     45  C   UNL     1      12.900   6.083   7.798  1.00  0.00     0.074 A 
ATOM     46  C   UNL     1      11.601   6.692   7.622  1.00  0.00     0.031 C 
ATOM     47  C   UNL     1      11.485   0.058   9.499  1.00  0.00     0.029 A 
ATOM     48  C   UNL     1      12.806   0.648   9.303  1.00  0.00     0.049 A 
ATOM     49  H   UNL     1      13.251   2.611   8.769  1.00  0.00     0.167 HD
ATOM     50  C   UNL     1      14.073   6.734   7.607  1.00  0.00     0.031 A 
ATOM     51  C   UNL     1      13.978  -0.003   9.436  1.00  0.00     0.031 A 
ATOM     52  C   UNL     1      15.369   6.142   7.800  1.00  0.00     0.049 A 
ATOM     53  C   UNL     1      15.266   0.738   9.210  1.00  0.00     0.074 A 
ATOM     54  C   UNL     1      16.614   6.739   7.694  1.00  0.00     0.029 A 
ATOM     55  N   UNL     1      15.587   4.816   8.138  1.00  0.00    -0.354 N 
ATOM     56  N   UNL     1      15.452   1.997   8.896  1.00  0.00    -0.248 NA
ATOM     57  C   UNL     1      16.509  -0.033   9.367  1.00  0.00     0.031 C 
ATOM     58  C   UNL     1      17.587   5.760   7.917  1.00  0.00     0.029 A 
ATOM     59  C   UNL     1      16.947   4.569   8.219  1.00  0.00     0.049 A 
ATOM     60  H   UNL     1      14.880   4.150   8.297  1.00  0.00     0.167 HD
ATOM     61  C   UNL     1      16.829   2.176   8.846  1.00  0.00     0.074 A 
ATOM     62  C   UNL     1      17.430   0.901   9.178  1.00  0.00     0.031 C 
ATOM     63  C   UNL     1      17.532   3.296   8.552  1.00  0.00     0.031 A 
BRANCH  50  64
ATOM     64  C   UNL     1      14.006   8.169   7.158  1.00  0.00    -0.014 A 
ATOM     65  C   UNL     1      13.557   9.183   8.019  1.00  0.00     0.009 A 
ATOM     66  C   UNL     1      14.433   8.516   5.867  1.00  0.00     0.009 A 
ATOM     67  C   UNL     1      13.501  10.509   7.583  1.00  0.00     0.001 A 
ATOM     68  C   UNL     1      14.405   9.846   5.444  1.00  0.00     0.001 A 
ATOM     69  C   UNL     1      13.929  10.840   6.298  1.00  0.00     0.000 A 
ENDBRANCH  50  64
BRANCH  51  70
ATOM     70  C   UNL     1      13.992  -1.439   9.823  1.00  0.00    -0.014 A 
ATOM     71  C   UNL     1      14.450  -1.830  11.090  1.00  0.00     0.009 A 
ATOM     72  C   UNL     1      13.560  -2.426   8.924  1.00  0.00     0.009 A 
ATOM     73  C   UNL     1      14.501  -3.182  11.439  1.00  0.00     0.001 A 
ATOM     74  C   UNL     1      13.584  -3.775   9.286  1.00  0.00     0.001 A 
ATOM     75  C   UNL     1      14.063  -4.152  10.539  1.00  0.00     0.000 A 
ENDBRANCH  51  70
BRANCH  63  76
ATOM     76  C   UNL     1      19.031   3.205   8.612  1.00  0.00    -0.014 A 
ATOM     77  C   UNL     1      19.760   2.511   7.634  1.00  0.00     0.009 A 
ATOM     78  C   UNL     1      19.725   3.862   9.640  1.00  0.00     0.009 A 
ATOM     79  C   UNL     1      21.153   2.448   7.705  1.00  0.00     0.001 A 
ATOM     80  C   UNL     1      21.119   3.821   9.692  1.00  0.00     0.001 A 
ATOM     81  C   UNL     1      21.831   3.107   8.730  1.00  0.00     0.000 A 
ENDBRANCH  63  76
ENDBRANCH  37  38
ENDBRANCH  29  32
ENDBRANCH  27  28
ENDBRANCH  26  27
ENDBRANCH  25  26
ENDBRANCH   1  25
TORSDOF 16
