REMARK SMILES CC(C)[C@H](NC(=O)CCC1=c2ccccc2=NC1)C(=O)NCCCCNC(=O)c1ccc(-c2c3nc(c(-c4ccccc4)c4ccc([nH]4)c(-c4ccccc4)c4nc(c(-c5ccccc5)c5ccc2[nH]5)C=C4)C=C3)cc1
REMARK SMILES IDX 22 1 21 2 19 3 20 4 4 6 2 7 1 8 3 9 5 10 6 11 7 13 8 14 9 15
REMARK SMILES IDX 10 16 11 17 18 18 12 19 16 20 17 21 13 22 15 23 14 24 23 25
REMARK SMILES IDX 24 26 25 27 26 28 27 29 28 31 29 32 30 33 76 34 31 35 75 36
REMARK SMILES IDX 32 37 33 38 34 39 69 40 35 41 74 42 68 43 70 44 36 45 73 46
REMARK SMILES IDX 67 47 66 48 37 50 59 51 44 52 58 53 45 54 48 55 57 56 71 57
REMARK SMILES IDX 46 58 47 59 56 61 72 62 49 63 38 64 39 65 43 66 40 67 42 68
REMARK SMILES IDX 41 69 60 70 61 71 65 72 62 73 64 74 63 75 50 76 51 77 55 78
REMARK SMILES IDX 52 79 54 80 53 81
REMARK H PARENT 21 5 5 12 26 30 70 49 48 60
REMARK Flexibility Score: inf
ROOT
ATOM      1  C   UNL     1       0.900  -4.042   2.174  1.00  0.00     0.116 C 
ENDROOT
BRANCH   1   2
ATOM      2  N   UNL     1      -0.425  -3.641   2.544  1.00  0.00    -0.354 N 
ATOM      3  C   UNL     1      -0.899  -2.382   2.632  1.00  0.00     0.242 C 
ATOM      4  O   UNL     1      -1.592  -2.164   3.628  1.00  0.00    -0.273 OA
ATOM      5  H   UNL     1      -1.058  -4.364   2.757  1.00  0.00     0.163 HD
BRANCH   3   6
ATOM      6  C   UNL     1      -0.568  -1.294   1.586  1.00  0.00     0.173 C 
BRANCH   6   7
ATOM      7  C   UNL     1      -0.893  -1.646   0.095  1.00  0.00     0.015 C 
ATOM      8  C   UNL     1       0.299  -1.857  -0.843  1.00  0.00     0.010 C 
ATOM      9  C   UNL     1      -1.891  -2.801  -0.061  1.00  0.00     0.010 C 
ENDBRANCH   6   7
BRANCH   6  10
ATOM     10  N   UNL     1       0.673  -0.547   1.796  1.00  0.00    -0.344 N 
ATOM     11  C   UNL     1       0.932   0.427   2.721  1.00  0.00     0.220 C 
ATOM     12  H   UNL     1       1.418  -0.775   1.194  1.00  0.00     0.164 HD
ATOM     13  O   UNL     1       1.844   1.221   2.479  1.00  0.00    -0.275 OA
BRANCH  11  14
ATOM     14  C   UNL     1       0.200   0.469   4.052  1.00  0.00     0.104 C 
BRANCH  14  15
ATOM     15  C   UNL     1      -0.987   1.430   4.225  1.00  0.00     0.043 C 
BRANCH  15  16
ATOM     16  C   UNL     1      -2.048   1.432   3.172  1.00  0.00    -0.039 C 
ATOM     17  C   UNL     1      -3.140   0.673   3.061  1.00  0.00     0.001 A 
ATOM     18  C   UNL     1      -1.938   2.359   1.997  1.00  0.00     0.174 C 
ATOM     19  C   UNL     1      -3.738  -0.373   3.826  1.00  0.00     0.010 A 
ATOM     20  C   UNL     1      -3.601   0.981   1.695  1.00  0.00     0.065 A 
ATOM     21  N   UNL     1      -2.990   1.925   1.047  1.00  0.00    -0.280 NA
ATOM     22  C   UNL     1      -4.681  -1.140   3.253  1.00  0.00     0.001 A 
ATOM     23  C   UNL     1      -4.662   0.110   1.141  1.00  0.00     0.028 A 
ATOM     24  C   UNL     1      -5.130  -0.901   1.892  1.00  0.00     0.002 A 
ENDBRANCH  15  16
ENDBRANCH  14  15
ENDBRANCH  11  14
ENDBRANCH   6  10
ENDBRANCH   3   6
ENDBRANCH   1   2
BRANCH   1  25
ATOM     25  C   UNL     1       1.906  -3.812   3.300  1.00  0.00     0.023 C 
BRANCH  25  26
ATOM     26  C   UNL     1       1.470  -4.171   4.724  1.00  0.00     0.023 C 
BRANCH  26  27
ATOM     27  C   UNL     1       0.707  -5.471   4.936  1.00  0.00     0.116 C 
BRANCH  27  28
ATOM     28  N   UNL     1       1.220  -6.616   4.206  1.00  0.00    -0.352 N 
ATOM     29  C   UNL     1       1.102  -7.944   4.539  1.00  0.00     0.251 C 
ATOM     30  H   UNL     1       1.708  -6.418   3.375  1.00  0.00     0.163 HD
ATOM     31  O   UNL     1       1.563  -8.819   3.814  1.00  0.00    -0.269 OA
BRANCH  29  32
ATOM     32  C   UNL     1       0.483  -8.288   5.831  1.00  0.00     0.039 A 
ATOM     33  C   UNL     1      -0.785  -7.809   6.165  1.00  0.00     0.014 A 
ATOM     34  C   UNL     1       1.251  -8.993   6.760  1.00  0.00     0.014 A 
ATOM     35  C   UNL     1      -1.218  -7.898   7.482  1.00  0.00     0.010 A 
ATOM     36  C   UNL     1       0.778  -9.151   8.061  1.00  0.00     0.010 A 
ATOM     37  C   UNL     1      -0.437  -8.561   8.444  1.00  0.00    -0.014 A 
BRANCH  37  38
ATOM     38  C   UNL     1      -0.908  -8.642   9.848  1.00  0.00     0.031 A 
ATOM     39  C   UNL     1      -0.150  -7.966  10.957  1.00  0.00     0.074 A 
ATOM     40  C   UNL     1      -2.046  -9.312  10.111  1.00  0.00     0.049 A 
ATOM     41  N   UNL     1      -0.412  -7.953  12.240  1.00  0.00    -0.248 NA
ATOM     42  C   UNL     1       1.060  -7.214  10.586  1.00  0.00     0.031 C 
ATOM     43  C   UNL     1      -2.871  -9.990   9.110  1.00  0.00     0.029 A 
ATOM     44  N   UNL     1      -2.715  -9.514  11.290  1.00  0.00    -0.354 N 
ATOM     45  C   UNL     1       0.608  -7.216  12.829  1.00  0.00     0.074 A 
ATOM     46  C   UNL     1       1.507  -6.815  11.770  1.00  0.00     0.031 C 
ATOM     47  C   UNL     1      -3.963 -10.486   9.707  1.00  0.00     0.029 A 
ATOM     48  C   UNL     1      -3.879 -10.227  11.140  1.00  0.00     0.049 A 
ATOM     49  H   UNL     1      -2.393  -9.182  12.159  1.00  0.00     0.167 HD
ATOM     50  C   UNL     1       0.772  -6.900  14.136  1.00  0.00     0.031 A 
ATOM     51  C   UNL     1      -4.775 -10.644  12.054  1.00  0.00     0.031 A 
ATOM     52  C   UNL     1      -0.138  -7.292  15.181  1.00  0.00     0.049 A 
ATOM     53  C   UNL     1      -4.549 -10.313  13.499  1.00  0.00     0.074 A 
ATOM     54  C   UNL     1      -0.070  -6.997  16.531  1.00  0.00     0.029 A 
ATOM     55  N   UNL     1      -1.277  -8.059  14.993  1.00  0.00    -0.354 N 
ATOM     56  N   UNL     1      -3.582  -9.612  14.039  1.00  0.00    -0.248 NA
ATOM     57  C   UNL     1      -5.530 -10.832  14.460  1.00  0.00     0.031 C 
ATOM     58  C   UNL     1      -1.136  -7.634  17.170  1.00  0.00     0.029 A 
ATOM     59  C   UNL     1      -1.906  -8.271  16.209  1.00  0.00     0.049 A 
ATOM     60  H   UNL     1      -1.592  -8.402  14.126  1.00  0.00     0.167 HD
ATOM     61  C   UNL     1      -3.841  -9.597  15.402  1.00  0.00     0.074 A 
ATOM     62  C   UNL     1      -5.068 -10.341  15.603  1.00  0.00     0.031 C 
ATOM     63  C   UNL     1      -3.122  -9.021  16.395  1.00  0.00     0.031 A 
BRANCH  50  64
ATOM     64  C   UNL     1       1.987  -6.105  14.529  1.00  0.00    -0.014 A 
ATOM     65  C   UNL     1       2.991  -6.707  15.305  1.00  0.00     0.009 A 
ATOM     66  C   UNL     1       2.097  -4.740  14.222  1.00  0.00     0.009 A 
ATOM     67  C   UNL     1       4.072  -5.959  15.776  1.00  0.00     0.001 A 
ATOM     68  C   UNL     1       3.193  -4.000  14.671  1.00  0.00     0.001 A 
ATOM     69  C   UNL     1       4.174  -4.607  15.456  1.00  0.00     0.000 A 
ENDBRANCH  50  64
BRANCH  51  70
ATOM     70  C   UNL     1      -5.961 -11.416  11.601  1.00  0.00    -0.014 A 
ATOM     71  C   UNL     1      -5.810 -12.709  11.071  1.00  0.00     0.009 A 
ATOM     72  C   UNL     1      -7.236 -10.835  11.618  1.00  0.00     0.009 A 
ATOM     73  C   UNL     1      -6.905 -13.388  10.534  1.00  0.00     0.001 A 
ATOM     74  C   UNL     1      -8.336 -11.530  11.109  1.00  0.00     0.001 A 
ATOM     75  C   UNL     1      -8.167 -12.799  10.556  1.00  0.00     0.000 A 
ENDBRANCH  51  70
BRANCH  63  76
ATOM     76  C   UNL     1      -3.636  -9.160  17.799  1.00  0.00    -0.014 A 
ATOM     77  C   UNL     1      -4.136  -8.034  18.473  1.00  0.00     0.009 A 
ATOM     78  C   UNL     1      -3.530 -10.376  18.490  1.00  0.00     0.009 A 
ATOM     79  C   UNL     1      -4.504  -8.118  19.816  1.00  0.00     0.001 A 
ATOM     80  C   UNL     1      -3.926 -10.465  19.825  1.00  0.00     0.001 A 
ATOM     81  C   UNL     1      -4.402  -9.335  20.490  1.00  0.00     0.000 A 
ENDBRANCH  63  76
ENDBRANCH  37  38
ENDBRANCH  29  32
ENDBRANCH  27  28
ENDBRANCH  26  27
ENDBRANCH  25  26
ENDBRANCH   1  25
TORSDOF 16
