REMARK SMILES Cc1cc(C(=O)NCCCCNC(=O)c2ccc(-c3c4nc(c(-c5ccccc5)c5ccc([nH]5)c(-c5ccccc5)c5nc(c(-c6ccccc6)c6ccc3[nH]6)C=C5)C=C4)cc2)ccc1N[C@H](C)c1cc(F)cc(F)c1
REMARK SMILES IDX 9 1 8 2 7 3 5 4 6 5 4 7 1 8 2 9 3 10 65 11 64 12 63 13 66 14
REMARK SMILES IDX 67 16 68 17 69 18 70 19 76 20 71 21 74 22 72 23 73 24 75 25
REMARK SMILES IDX 10 26 11 27 12 28 13 29 14 31 15 32 16 33 62 34 17 35 61 36
REMARK SMILES IDX 18 37 19 38 20 39 55 40 21 41 60 42 54 43 56 44 22 45 59 46
REMARK SMILES IDX 53 47 52 48 23 50 45 51 30 52 44 53 31 54 34 55 43 56 57 57
REMARK SMILES IDX 32 58 33 59 42 61 58 62 35 63 24 64 25 65 29 66 26 67 28 68
REMARK SMILES IDX 27 69 46 70 47 71 51 72 48 73 50 74 49 75 36 76 37 77 41 78
REMARK SMILES IDX 38 79 40 80 39 81
REMARK H PARENT 7 6 66 15 12 30 56 49 34 60
REMARK Flexibility Score: inf
ROOT
ATOM      1  C   UNL     1      -1.330  10.590   0.682  1.00  0.00     0.023 C 
ENDROOT
BRANCH   1   2
ATOM      2  C   UNL     1      -0.967  10.553   2.180  1.00  0.00     0.116 C 
BRANCH   2   3
ATOM      3  N   UNL     1      -2.040  10.008   3.003  1.00  0.00    -0.352 N 
ATOM      4  C   UNL     1      -2.453   8.737   3.336  1.00  0.00     0.251 C 
ATOM      5  O   UNL     1      -3.412   8.653   4.106  1.00  0.00    -0.269 OA
ATOM      6  H   UNL     1      -2.595  10.708   3.417  1.00  0.00     0.163 HD
BRANCH   4   7
ATOM      7  C   UNL     1      -1.824   7.475   2.840  1.00  0.00     0.040 A 
ATOM      8  C   UNL     1      -2.333   3.741   3.475  1.00  0.00     0.046 C 
ATOM      9  C   UNL     1      -1.744   4.991   2.874  1.00  0.00    -0.027 A 
ATOM     10  C   UNL     1      -2.299   6.234   3.303  1.00  0.00     0.019 A 
ATOM     11  C   UNL     1      -0.652   4.981   1.986  1.00  0.00     0.037 A 
ATOM     12  C   UNL     1      -0.174   6.231   1.609  1.00  0.00     0.027 A 
ATOM     13  C   UNL     1      -0.761   7.439   1.967  1.00  0.00     0.016 A 
BRANCH  11  14
ATOM     14  N   UNL     1      -0.070   3.821   1.486  1.00  0.00    -0.378 N 
ATOM     15  H   UNL     1       0.066   3.073   2.111  1.00  0.00     0.161 HD
BRANCH  14  16
ATOM     16  C   UNL     1       0.358   3.630   0.081  1.00  0.00     0.106 C 
ATOM     17  C   UNL     1       0.787   2.170  -0.115  1.00  0.00     0.036 C 
BRANCH  16  18
ATOM     18  C   UNL     1       1.475   4.572  -0.356  1.00  0.00    -0.020 A 
ATOM     19  C   UNL     1       1.183   5.637  -1.237  1.00  0.00     0.045 A 
ATOM     20  C   UNL     1       2.759   4.517   0.212  1.00  0.00     0.045 A 
ATOM     21  C   UNL     1       2.111   6.660  -1.437  1.00  0.00     0.126 A 
ATOM     22  C   UNL     1       3.682   5.532  -0.039  1.00  0.00     0.126 A 
ATOM     23  F   UNL     1       1.760   7.734  -2.156  1.00  0.00    -0.207 F 
ATOM     24  C   UNL     1       3.361   6.621  -0.837  1.00  0.00     0.078 A 
ATOM     25  F   UNL     1       4.887   5.482   0.544  1.00  0.00    -0.207 F 
ENDBRANCH  16  18
ENDBRANCH  14  16
ENDBRANCH  11  14
ENDBRANCH   4   7
ENDBRANCH   2   3
ENDBRANCH   1   2
BRANCH   1  26
ATOM     26  C   UNL     1      -2.216  11.782   0.299  1.00  0.00     0.023 C 
BRANCH  26  27
ATOM     27  C   UNL     1      -1.458  13.107   0.299  1.00  0.00     0.116 C 
BRANCH  27  28
ATOM     28  N   UNL     1      -1.008  13.572  -1.008  1.00  0.00    -0.352 N 
ATOM     29  C   UNL     1      -0.134  14.604  -1.330  1.00  0.00     0.251 C 
ATOM     30  H   UNL     1      -1.379  13.081  -1.777  1.00  0.00     0.163 HD
ATOM     31  O   UNL     1       0.055  14.902  -2.494  1.00  0.00    -0.269 OA
BRANCH  29  32
ATOM     32  C   UNL     1       0.692  15.234  -0.261  1.00  0.00     0.039 A 
ATOM     33  C   UNL     1       2.055  15.417  -0.531  1.00  0.00     0.014 A 
ATOM     34  C   UNL     1       0.219  15.381   1.037  1.00  0.00     0.014 A 
ATOM     35  C   UNL     1       2.962  15.424   0.524  1.00  0.00     0.010 A 
ATOM     36  C   UNL     1       1.116  15.261   2.079  1.00  0.00     0.010 A 
ATOM     37  C   UNL     1       2.485  15.184   1.810  1.00  0.00    -0.014 A 
BRANCH  37  38
ATOM     38  C   UNL     1       3.324  14.652   2.880  1.00  0.00     0.031 A 
ATOM     39  C   UNL     1       3.664  15.482   4.055  1.00  0.00     0.074 A 
ATOM     40  C   UNL     1       3.698  13.351   2.836  1.00  0.00     0.049 A 
ATOM     41  N   UNL     1       4.688  15.285   4.818  1.00  0.00    -0.248 NA
ATOM     42  C   UNL     1       2.886  16.657   4.434  1.00  0.00     0.031 C 
ATOM     43  C   UNL     1       4.285  12.567   3.921  1.00  0.00     0.029 A 
ATOM     44  N   UNL     1       3.816  12.508   1.724  1.00  0.00    -0.354 N 
ATOM     45  C   UNL     1       4.509  16.056   5.945  1.00  0.00     0.074 A 
ATOM     46  C   UNL     1       3.453  16.977   5.601  1.00  0.00     0.031 C 
ATOM     47  C   UNL     1       4.966  11.539   3.389  1.00  0.00     0.029 A 
ATOM     48  C   UNL     1       4.966  11.735   1.948  1.00  0.00     0.049 A 
ATOM     49  H   UNL     1       3.216  12.467   0.945  1.00  0.00     0.167 HD
ATOM     50  C   UNL     1       5.150  15.714   7.101  1.00  0.00     0.031 A 
ATOM     51  C   UNL     1       6.087  11.796   1.169  1.00  0.00     0.031 A 
ATOM     52  C   UNL     1       6.101  14.621   6.889  1.00  0.00     0.049 A 
ATOM     53  C   UNL     1       7.338  12.161   1.948  1.00  0.00     0.074 A 
ATOM     54  C   UNL     1       6.066  13.267   7.183  1.00  0.00     0.029 A 
ATOM     55  N   UNL     1       7.175  14.807   6.027  1.00  0.00    -0.354 N 
ATOM     56  N   UNL     1       7.319  12.697   3.137  1.00  0.00    -0.248 NA
ATOM     57  C   UNL     1       8.698  12.015   1.431  1.00  0.00     0.031 C 
ATOM     58  C   UNL     1       7.075  12.626   6.418  1.00  0.00     0.029 A 
ATOM     59  C   UNL     1       7.741  13.594   5.688  1.00  0.00     0.049 A 
ATOM     60  H   UNL     1       7.489  15.682   5.702  1.00  0.00     0.167 HD
ATOM     61  C   UNL     1       8.598  12.960   3.548  1.00  0.00     0.074 A 
ATOM     62  C   UNL     1       9.430  12.511   2.446  1.00  0.00     0.031 C 
ATOM     63  C   UNL     1       8.859  13.540   4.755  1.00  0.00     0.031 A 
BRANCH  50  64
ATOM     64  C   UNL     1       4.689  16.153   8.479  1.00  0.00    -0.014 A 
ATOM     65  C   UNL     1       5.029  15.377   9.604  1.00  0.00     0.009 A 
ATOM     66  C   UNL     1       3.858  17.256   8.738  1.00  0.00     0.009 A 
ATOM     67  C   UNL     1       4.491  15.623  10.877  1.00  0.00     0.001 A 
ATOM     68  C   UNL     1       3.292  17.495   9.999  1.00  0.00     0.001 A 
ATOM     69  C   UNL     1       3.597  16.667  11.068  1.00  0.00     0.000 A 
ENDBRANCH  50  64
BRANCH  51  70
ATOM     70  C   UNL     1       5.845  12.190  -0.245  1.00  0.00    -0.014 A 
ATOM     71  C   UNL     1       5.148  11.296  -1.081  1.00  0.00     0.009 A 
ATOM     72  C   UNL     1       5.973  13.526  -0.652  1.00  0.00     0.009 A 
ATOM     73  C   UNL     1       4.503  11.751  -2.235  1.00  0.00     0.001 A 
ATOM     74  C   UNL     1       5.333  13.975  -1.814  1.00  0.00     0.001 A 
ATOM     75  C   UNL     1       4.570  13.096  -2.584  1.00  0.00     0.000 A 
ENDBRANCH  51  70
BRANCH  63  76
ATOM     76  C   UNL     1      10.195  14.065   5.216  1.00  0.00    -0.014 A 
ATOM     77  C   UNL     1      11.206  14.509   4.355  1.00  0.00     0.009 A 
ATOM     78  C   UNL     1      10.404  14.266   6.600  1.00  0.00     0.009 A 
ATOM     79  C   UNL     1      12.382  15.088   4.853  1.00  0.00     0.001 A 
ATOM     80  C   UNL     1      11.555  14.881   7.098  1.00  0.00     0.001 A 
ATOM     81  C   UNL     1      12.551  15.284   6.221  1.00  0.00     0.000 A 
ENDBRANCH  63  76
ENDBRANCH  37  38
ENDBRANCH  29  32
ENDBRANCH  27  28
ENDBRANCH  26  27
ENDBRANCH   1  26
TORSDOF 14
