REMARK SMILES CCNC(=O)C[NH2+][C@@H](C)[C@@H](C)C(=O)NCCCCNC(=O)c1ccc(-c2c3nc(c(-c4ccccc4)c4ccc([nH]4)c(-c4ccccc4)c4nc(c(-c5ccccc5)c5ccc2[nH]5)C=C4)C=C3)cc1
REMARK SMILES IDX 15 1 14 2 12 3 13 4 10 6 11 7 8 8 9 9 7 10 6 13 4 14 3 15
REMARK SMILES IDX 5 17 2 18 1 19 16 20 17 21 18 22 19 23 20 24 21 26 22 27
REMARK SMILES IDX 23 28 69 29 24 30 68 31 25 32 26 33 27 34 62 35 28 36 67 37
REMARK SMILES IDX 61 38 63 39 29 40 66 41 60 42 59 43 30 45 52 46 37 47 51 48
REMARK SMILES IDX 38 49 41 50 50 51 64 52 39 53 40 54 49 56 65 57 42 58 31 59
REMARK SMILES IDX 32 60 36 61 33 62 35 63 34 64 53 65 54 66 58 67 55 68 57 69
REMARK SMILES IDX 56 70 43 71 44 72 48 73 45 74 47 75 46 76
REMARK H PARENT 14 5 7 11 7 12 3 16 19 25 63 44 41 55
REMARK Flexibility Score: inf
ROOT
ATOM      1  C   UNL     1      -4.897  -0.518   0.980  1.00  0.00     0.116 C 
ENDROOT
BRANCH   1   2
ATOM      2  N   UNL     1      -5.541   0.029  -0.199  1.00  0.00    -0.356 N 
ATOM      3  C   UNL     1      -5.072   0.836  -1.189  1.00  0.00     0.228 C 
ATOM      4  O   UNL     1      -5.873   1.164  -2.070  1.00  0.00    -0.275 OA
ATOM      5  H   UNL     1      -6.485  -0.229  -0.300  1.00  0.00     0.163 HD
BRANCH   3   6
ATOM      6  C   UNL     1      -3.624   1.322  -1.246  1.00  0.00     0.133 C 
ATOM      7  C   UNL     1      -2.688   0.142  -1.528  1.00  0.00     0.024 C 
BRANCH   6   8
ATOM      8  C   UNL     1      -3.249   2.206  -0.030  1.00  0.00     0.191 C 
ATOM      9  C   UNL     1      -4.102   3.485  -0.019  1.00  0.00     0.076 C 
BRANCH   8  10
ATOM     10  N   UNL     1      -1.810   2.524  -0.033  1.00  0.00    -0.336 N 
ATOM     11  H   UNL     1      -1.288   1.676  -0.256  1.00  0.00     0.346 HD
ATOM     12  H   UNL     1      -1.654   3.253  -0.728  1.00  0.00     0.346 HD
BRANCH  10  13
ATOM     13  C   UNL     1      -1.347   3.036   1.270  1.00  0.00     0.362 C 
BRANCH  13  14
ATOM     14  C   UNL     1       0.175   3.188   1.272  1.00  0.00     0.275 C 
ATOM     15  N   UNL     1       0.963   2.074   1.341  1.00  0.00    -0.351 N 
ATOM     16  H   UNL     1       1.928   2.239   1.442  1.00  0.00     0.163 HD
ATOM     17  O   UNL     1       0.710   4.297   1.236  1.00  0.00    -0.269 OA
BRANCH  15  18
ATOM     18  C   UNL     1       0.565   0.681   1.286  1.00  0.00     0.112 C 
ATOM     19  C   UNL     1       0.982   0.054  -0.032  1.00  0.00     0.027 C 
ENDBRANCH  15  18
ENDBRANCH  13  14
ENDBRANCH  10  13
ENDBRANCH   8  10
ENDBRANCH   6   8
ENDBRANCH   3   6
ENDBRANCH   1   2
BRANCH   1  20
ATOM     20  C   UNL     1      -5.381   0.158   2.263  1.00  0.00     0.023 C 
BRANCH  20  21
ATOM     21  C   UNL     1      -6.841  -0.116   2.623  1.00  0.00     0.023 C 
BRANCH  21  22
ATOM     22  C   UNL     1      -7.225  -1.587   2.710  1.00  0.00     0.116 C 
BRANCH  22  23
ATOM     23  N   UNL     1      -6.410  -2.339   3.653  1.00  0.00    -0.352 N 
ATOM     24  C   UNL     1      -6.803  -3.285   4.568  1.00  0.00     0.251 C 
ATOM     25  H   UNL     1      -5.445  -2.143   3.631  1.00  0.00     0.163 HD
ATOM     26  O   UNL     1      -5.995  -3.748   5.368  1.00  0.00    -0.269 OA
BRANCH  24  27
ATOM     27  C   UNL     1      -8.216  -3.713   4.610  1.00  0.00     0.039 A 
ATOM     28  C   UNL     1      -8.876  -3.740   5.840  1.00  0.00     0.014 A 
ATOM     29  C   UNL     1      -8.895  -4.048   3.436  1.00  0.00     0.014 A 
ATOM     30  C   UNL     1     -10.240  -4.032   5.885  1.00  0.00     0.010 A 
ATOM     31  C   UNL     1     -10.269  -4.264   3.473  1.00  0.00     0.010 A 
ATOM     32  C   UNL     1     -10.955  -4.256   4.697  1.00  0.00    -0.014 A 
BRANCH  32  33
ATOM     33  C   UNL     1     -12.422  -4.480   4.712  1.00  0.00     0.031 A 
ATOM     34  C   UNL     1     -12.989  -5.794   4.251  1.00  0.00     0.074 A 
ATOM     35  C   UNL     1     -13.247  -3.480   5.079  1.00  0.00     0.049 A 
ATOM     36  N   UNL     1     -14.241  -6.154   4.124  1.00  0.00    -0.248 NA
ATOM     37  C   UNL     1     -12.022  -6.833   3.860  1.00  0.00     0.031 C 
ATOM     38  C   UNL     1     -12.827  -2.144   5.508  1.00  0.00     0.029 A 
ATOM     39  N   UNL     1     -14.618  -3.431   5.140  1.00  0.00    -0.354 N 
ATOM     40  C   UNL     1     -14.211  -7.452   3.631  1.00  0.00     0.074 A 
ATOM     41  C   UNL     1     -12.821  -7.797   3.428  1.00  0.00     0.031 C 
ATOM     42  C   UNL     1     -13.915  -1.416   5.808  1.00  0.00     0.029 A 
ATOM     43  C   UNL     1     -15.108  -2.217   5.556  1.00  0.00     0.049 A 
ATOM     44  H   UNL     1     -15.195  -4.194   4.908  1.00  0.00     0.167 HD
ATOM     45  C   UNL     1     -15.245  -8.293   3.391  1.00  0.00     0.031 A 
ATOM     46  C   UNL     1     -16.377  -1.792   5.708  1.00  0.00     0.031 A 
ATOM     47  C   UNL     1     -16.628  -7.955   3.595  1.00  0.00     0.049 A 
ATOM     48  C   UNL     1     -17.508  -2.739   5.413  1.00  0.00     0.074 A 
ATOM     49  C   UNL     1     -17.746  -8.749   3.412  1.00  0.00     0.029 A 
ATOM     50  N   UNL     1     -17.080  -6.719   4.030  1.00  0.00    -0.354 N 
ATOM     51  N   UNL     1     -17.459  -3.982   5.002  1.00  0.00    -0.248 NA
ATOM     52  C   UNL     1     -18.870  -2.224   5.615  1.00  0.00     0.031 C 
ATOM     53  C   UNL     1     -18.879  -7.980   3.697  1.00  0.00     0.029 A 
ATOM     54  C   UNL     1     -18.462  -6.724   4.108  1.00  0.00     0.049 A 
ATOM     55  H   UNL     1     -16.504  -5.952   4.251  1.00  0.00     0.167 HD
ATOM     56  C   UNL     1     -18.779  -4.407   4.926  1.00  0.00     0.074 A 
ATOM     57  C   UNL     1     -19.604  -3.295   5.349  1.00  0.00     0.031 C 
ATOM     58  C   UNL     1     -19.266  -5.611   4.537  1.00  0.00     0.031 A 
BRANCH  45  59
ATOM     59  C   UNL     1     -14.911  -9.668   2.886  1.00  0.00    -0.014 A 
ATOM     60  C   UNL     1     -14.298 -10.616   3.721  1.00  0.00     0.009 A 
ATOM     61  C   UNL     1     -15.243 -10.035   1.573  1.00  0.00     0.009 A 
ATOM     62  C   UNL     1     -13.991 -11.890   3.241  1.00  0.00     0.001 A 
ATOM     63  C   UNL     1     -14.962 -11.320   1.104  1.00  0.00     0.001 A 
ATOM     64  C   UNL     1     -14.328 -12.243   1.936  1.00  0.00     0.000 A 
ENDBRANCH  45  59
BRANCH  46  65
ATOM     65  C   UNL     1     -16.654  -0.406   6.167  1.00  0.00    -0.014 A 
ATOM     66  C   UNL     1     -17.195  -0.170   7.440  1.00  0.00     0.009 A 
ATOM     67  C   UNL     1     -16.402   0.688   5.324  1.00  0.00     0.009 A 
ATOM     68  C   UNL     1     -17.512   1.129   7.845  1.00  0.00     0.001 A 
ATOM     69  C   UNL     1     -16.692   1.988   5.743  1.00  0.00     0.001 A 
ATOM     70  C   UNL     1     -17.258   2.207   6.998  1.00  0.00     0.000 A 
ENDBRANCH  46  65
BRANCH  58  71
ATOM     71  C   UNL     1     -20.756  -5.798   4.593  1.00  0.00    -0.014 A 
ATOM     72  C   UNL     1     -21.605  -5.176   3.666  1.00  0.00     0.009 A 
ATOM     73  C   UNL     1     -21.312  -6.642   5.568  1.00  0.00     0.009 A 
ATOM     74  C   UNL     1     -22.986  -5.369   3.736  1.00  0.00     0.001 A 
ATOM     75  C   UNL     1     -22.690  -6.856   5.617  1.00  0.00     0.001 A 
ATOM     76  C   UNL     1     -23.526  -6.212   4.707  1.00  0.00     0.000 A 
ENDBRANCH  58  71
ENDBRANCH  32  33
ENDBRANCH  24  27
ENDBRANCH  22  23
ENDBRANCH  21  22
ENDBRANCH  20  21
ENDBRANCH   1  20
TORSDOF 16
