REMARK SMILES CCc1c(C)nc(Nc2ccc(Cl)cc2Cl)nc1OCC(=O)NCCCCNC(=O)c1ccc(-c2c3nc(c(-c4ccccc4)c4ccc([nH]4)c(-c4ccccc4)c4nc(c(-c5ccccc5)c5ccc2[nH]5)C=C4)C=C3)cc1
REMARK SMILES IDX 24 1 23 2 21 3 22 4 20 6 19 7 18 8 3 9 4 10 5 11 6 12 17 13
REMARK SMILES IDX 7 14 2 15 1 16 8 17 9 19 10 20 15 21 11 22 14 23 16 24 12 25
REMARK SMILES IDX 13 26 25 27 26 28 27 29 28 30 29 31 30 33 31 34 32 35 78 36
REMARK SMILES IDX 33 37 77 38 34 39 35 40 36 41 71 42 37 43 76 44 70 45 72 46
REMARK SMILES IDX 38 47 75 48 69 49 68 50 39 52 61 53 46 54 60 55 47 56 50 57
REMARK SMILES IDX 59 58 73 59 48 60 49 61 58 63 74 64 51 65 40 66 41 67 45 68
REMARK SMILES IDX 42 69 44 70 43 71 62 72 63 73 67 74 64 75 66 76 65 77 52 78
REMARK SMILES IDX 53 79 57 80 54 81 56 82 55 83
REMARK H PARENT 23 5 8 18 28 32 72 51 50 62
REMARK Flexibility Score: inf
ROOT
ATOM      1  C   UNL     1       1.836  -3.416   1.080  1.00  0.00     0.116 C 
ENDROOT
BRANCH   1   2
ATOM      2  N   UNL     1       1.690  -2.002   1.357  1.00  0.00    -0.353 N 
ATOM      3  C   UNL     1       0.632  -1.195   1.060  1.00  0.00     0.258 C 
ATOM      4  O   UNL     1       0.542  -0.113   1.644  1.00  0.00    -0.271 OA
ATOM      5  H   UNL     1       2.446  -1.571   1.816  1.00  0.00     0.163 HD
BRANCH   3   6
ATOM      6  C   UNL     1      -0.447  -1.660   0.078  1.00  0.00     0.331 C 
BRANCH   6   7
ATOM      7  O   UNL     1      -0.093  -2.233  -1.153  1.00  0.00    -0.467 OA
BRANCH   7   8
ATOM      8  C   UNL     1       0.555  -1.639  -2.180  1.00  0.00     0.222 A 
ATOM      9  C   UNL     1       0.832  -0.297  -2.427  1.00  0.00     0.035 A 
ATOM     10  C   UNL     1       1.585  -0.066  -3.583  1.00  0.00     0.050 A 
ATOM     11  C   UNL     1       1.962   1.291  -4.106  1.00  0.00     0.067 C 
ATOM     12  N   UNL     1       1.956  -1.049  -4.418  1.00  0.00    -0.218 NA
ATOM     13  N   UNL     1       0.889  -2.615  -3.059  1.00  0.00    -0.177 NA
ATOM     14  C   UNL     1       1.558  -2.291  -4.162  1.00  0.00     0.230 A 
BRANCH   9  15
ATOM     15  C   UNL     1       0.376   0.881  -1.612  1.00  0.00     0.040 C 
ATOM     16  C   UNL     1       1.463   1.440  -0.702  1.00  0.00     0.009 C 
ENDBRANCH   9  15
BRANCH  14  17
ATOM     17  N   UNL     1       1.745  -3.273  -5.137  1.00  0.00    -0.323 N 
ATOM     18  H   UNL     1       1.457  -4.187  -4.915  1.00  0.00     0.170 HD
BRANCH  17  19
ATOM     19  C   UNL     1       2.309  -3.069  -6.409  1.00  0.00     0.060 A 
ATOM     20  C   UNL     1       3.572  -2.463  -6.524  1.00  0.00     0.029 A 
ATOM     21  C   UNL     1       1.578  -3.298  -7.589  1.00  0.00     0.066 A 
ATOM     22  C   UNL     1       4.088  -2.093  -7.767  1.00  0.00     0.023 A 
ATOM     23  C   UNL     1       2.083  -2.917  -8.836  1.00  0.00     0.043 A 
ATOM     24  Cl  UNL     1      -0.000  -4.004  -7.528  1.00  0.00    -0.082 Cl
ATOM     25  C   UNL     1       3.334  -2.310  -8.916  1.00  0.00     0.042 A 
ATOM     26  Cl  UNL     1       3.946  -1.802 -10.441  1.00  0.00    -0.084 Cl
ENDBRANCH  17  19
ENDBRANCH  14  17
ENDBRANCH   7   8
ENDBRANCH   6   7
ENDBRANCH   3   6
ENDBRANCH   1   2
BRANCH   1  27
ATOM     27  C   UNL     1       3.011  -3.742   0.164  1.00  0.00     0.023 C 
BRANCH  27  28
ATOM     28  C   UNL     1       4.387  -3.263   0.633  1.00  0.00     0.023 C 
BRANCH  28  29
ATOM     29  C   UNL     1       4.748  -3.543   2.087  1.00  0.00     0.116 C 
BRANCH  29  30
ATOM     30  N   UNL     1       4.662  -4.946   2.453  1.00  0.00    -0.352 N 
ATOM     31  C   UNL     1       5.551  -5.731   3.151  1.00  0.00     0.251 C 
ATOM     32  H   UNL     1       3.843  -5.406   2.156  1.00  0.00     0.163 HD
ATOM     33  O   UNL     1       5.330  -6.926   3.294  1.00  0.00    -0.269 OA
BRANCH  31  34
ATOM     34  C   UNL     1       6.797  -5.144   3.694  1.00  0.00     0.039 A 
ATOM     35  C   UNL     1       7.997  -5.835   3.503  1.00  0.00     0.014 A 
ATOM     36  C   UNL     1       6.793  -3.929   4.382  1.00  0.00     0.014 A 
ATOM     37  C   UNL     1       9.199  -5.274   3.938  1.00  0.00     0.010 A 
ATOM     38  C   UNL     1       7.999  -3.335   4.748  1.00  0.00     0.010 A 
ATOM     39  C   UNL     1       9.215  -4.000   4.530  1.00  0.00    -0.014 A 
BRANCH  39  40
ATOM     40  C   UNL     1      10.493  -3.351   4.922  1.00  0.00     0.031 A 
ATOM     41  C   UNL     1      10.774  -3.038   6.367  1.00  0.00     0.074 A 
ATOM     42  C   UNL     1      11.379  -2.990   3.973  1.00  0.00     0.049 A 
ATOM     43  N   UNL     1      11.806  -2.430   6.895  1.00  0.00    -0.248 NA
ATOM     44  C   UNL     1       9.749  -3.440   7.344  1.00  0.00     0.031 C 
ATOM     45  C   UNL     1      11.216  -3.203   2.534  1.00  0.00     0.029 A 
ATOM     46  N   UNL     1      12.595  -2.361   4.079  1.00  0.00    -0.354 N 
ATOM     47  C   UNL     1      11.547  -2.363   8.259  1.00  0.00     0.074 A 
ATOM     48  C   UNL     1      10.239  -2.943   8.470  1.00  0.00     0.031 C 
ATOM     49  C   UNL     1      12.302  -2.740   1.894  1.00  0.00     0.029 A 
ATOM     50  C   UNL     1      13.218  -2.159   2.870  1.00  0.00     0.049 A 
ATOM     51  H   UNL     1      12.985  -2.081   4.939  1.00  0.00     0.167 HD
ATOM     52  C   UNL     1      12.334  -1.880   9.250  1.00  0.00     0.031 A 
ATOM     53  C   UNL     1      14.391  -1.566   2.578  1.00  0.00     0.031 A 
ATOM     54  C   UNL     1      13.638  -1.307   9.043  1.00  0.00     0.049 A 
ATOM     55  C   UNL     1      15.236  -1.016   3.694  1.00  0.00     0.074 A 
ATOM     56  C   UNL     1      14.533  -0.837   9.989  1.00  0.00     0.029 A 
ATOM     57  N   UNL     1      14.231  -1.122   7.804  1.00  0.00    -0.354 N 
ATOM     58  N   UNL     1      15.006  -1.021   4.985  1.00  0.00    -0.248 NA
ATOM     59  C   UNL     1      16.509  -0.388   3.312  1.00  0.00     0.031 C 
ATOM     60  C   UNL     1      15.643  -0.315   9.318  1.00  0.00     0.029 A 
ATOM     61  C   UNL     1      15.469  -0.520   7.959  1.00  0.00     0.049 A 
ATOM     62  H   UNL     1      13.832  -1.379   6.942  1.00  0.00     0.167 HD
ATOM     63  C   UNL     1      16.118  -0.429   5.570  1.00  0.00     0.074 A 
ATOM     64  C   UNL     1      17.028  -0.091   4.495  1.00  0.00     0.031 C 
ATOM     65  C   UNL     1      16.365  -0.190   6.881  1.00  0.00     0.031 A 
BRANCH  52  66
ATOM     66  C   UNL     1      11.796  -1.941  10.653  1.00  0.00    -0.014 A 
ATOM     67  C   UNL     1      11.634  -3.167  11.320  1.00  0.00     0.009 A 
ATOM     68  C   UNL     1      11.476  -0.755  11.332  1.00  0.00     0.009 A 
ATOM     69  C   UNL     1      11.125  -3.206  12.620  1.00  0.00     0.001 A 
ATOM     70  C   UNL     1      10.999  -0.794  12.644  1.00  0.00     0.001 A 
ATOM     71  C   UNL     1      10.813  -2.019  13.282  1.00  0.00     0.000 A 
ENDBRANCH  52  66
BRANCH  53  72
ATOM     72  C   UNL     1      14.849  -1.471   1.166  1.00  0.00    -0.014 A 
ATOM     73  C   UNL     1      15.952  -2.218   0.722  1.00  0.00     0.009 A 
ATOM     74  C   UNL     1      14.195  -0.625   0.257  1.00  0.00     0.009 A 
ATOM     75  C   UNL     1      16.407  -2.096  -0.593  1.00  0.00     0.001 A 
ATOM     76  C   UNL     1      14.633  -0.529  -1.065  1.00  0.00     0.001 A 
ATOM     77  C   UNL     1      15.746  -1.256  -1.486  1.00  0.00     0.000 A 
ENDBRANCH  53  72
BRANCH  65  78
ATOM     78  C   UNL     1      17.690   0.429   7.232  1.00  0.00    -0.014 A 
ATOM     79  C   UNL     1      17.976   1.770   6.932  1.00  0.00     0.009 A 
ATOM     80  C   UNL     1      18.652  -0.336   7.911  1.00  0.00     0.009 A 
ATOM     81  C   UNL     1      19.213   2.321   7.273  1.00  0.00     0.001 A 
ATOM     82  C   UNL     1      19.875   0.227   8.280  1.00  0.00     0.001 A 
ATOM     83  C   UNL     1      20.159   1.551   7.951  1.00  0.00     0.000 A 
ENDBRANCH  65  78
ENDBRANCH  39  40
ENDBRANCH  31  34
ENDBRANCH  29  30
ENDBRANCH  28  29
ENDBRANCH  27  28
ENDBRANCH   1  27
TORSDOF 16
