REMARK SMILES NC(=O)[C@@H]1CCC[N@@H+]1[C@@H](C(=O)NCCCCNC(=O)c1ccc(-c2c3nc(c(-c4ccccc4)c4ccc([nH]4)c(-c4ccccc4)c4nc(c(-c5ccccc5)c5ccc2[nH]5)C=C4)C=C3)cc1)c1c[nH]c2cc(OCc3ccccc3)ccc12
REMARK SMILES IDX 13 1 12 2 10 3 11 4 9 6 8 7 4 8 5 9 6 10 7 11 2 13 1 14 3 17
REMARK SMILES IDX 68 18 69 19 84 20 70 21 71 22 83 23 72 25 82 26 73 27 74 28
REMARK SMILES IDX 75 29 76 30 77 31 81 32 78 33 80 34 79 35 14 36 15 37 16 38
REMARK SMILES IDX 17 39 18 40 19 42 20 43 21 44 67 45 22 46 66 47 23 48 24 49
REMARK SMILES IDX 25 50 60 51 26 52 65 53 59 54 61 55 27 56 64 57 58 58 57 59
REMARK SMILES IDX 28 61 50 62 35 63 49 64 36 65 39 66 48 67 62 68 37 69 38 70
REMARK SMILES IDX 47 72 63 73 40 74 29 75 30 76 34 77 31 78 33 79 32 80 51 81
REMARK SMILES IDX 52 82 56 83 53 84 55 85 54 86 41 87 42 88 46 89 43 90 45 91
REMARK SMILES IDX 44 92
REMARK H PARENT 12 5 8 12 1 15 1 16 70 24 17 41 61 60 39 71
REMARK Flexibility Score: inf
ROOT
ATOM      1  C   UNL     1      -1.489  -2.348   1.313  1.00  0.00     0.116 C 
ENDROOT
BRANCH   1   2
ATOM      2  N   UNL     1      -1.047  -3.620   1.847  1.00  0.00    -0.351 N 
ATOM      3  C   UNL     1       0.146  -4.192   2.168  1.00  0.00     0.283 C 
ATOM      4  O   UNL     1       0.021  -5.403   2.379  1.00  0.00    -0.268 OA
ATOM      5  H   UNL     1      -1.802  -4.225   2.024  1.00  0.00     0.163 HD
BRANCH   3   6
ATOM      6  C   UNL     1       1.492  -3.414   2.315  1.00  0.00     0.308 C 
BRANCH   6   7
ATOM      7  N   UNL     1       2.350  -3.234   1.056  1.00  0.00    -0.311 N 
ATOM      8  C   UNL     1       1.757  -2.689  -0.193  1.00  0.00     0.275 C 
ATOM      9  C   UNL     1       1.048  -3.874  -0.844  1.00  0.00     0.081 C 
ATOM     10  C   UNL     1       1.891  -5.071  -0.430  1.00  0.00     0.068 C 
ATOM     11  C   UNL     1       2.933  -4.467   0.486  1.00  0.00     0.264 C 
ATOM     12  H   UNL     1       2.984  -2.577   1.512  1.00  0.00     0.349 HD
BRANCH   8  13
ATOM     13  C   UNL     1       1.230  -1.257  -0.146  1.00  0.00     0.275 C 
ATOM     14  N   UNL     1       1.786  -0.464   0.815  1.00  0.00    -0.365 N 
ATOM     15  H   UNL     1       1.497   0.473   0.907  1.00  0.00     0.159 HD
ATOM     16  H   UNL     1       2.476  -0.828   1.415  1.00  0.00     0.159 HD
ATOM     17  O   UNL     1       0.486  -0.757  -0.983  1.00  0.00    -0.268 OA
ENDBRANCH   8  13
ENDBRANCH   6   7
BRANCH   6  18
ATOM     18  C   UNL     1       2.455  -4.039   3.401  1.00  0.00     0.044 A 
ATOM     19  C   UNL     1       3.629  -3.445   3.863  1.00  0.00     0.094 A 
ATOM     20  C   UNL     1       2.685  -5.429   3.725  1.00  0.00     0.009 A 
ATOM     21  N   UNL     1       4.602  -4.364   3.505  1.00  0.00    -0.361 N 
ATOM     22  C   UNL     1       4.018  -5.598   3.354  1.00  0.00     0.050 A 
ATOM     23  C   UNL     1       1.923  -6.593   3.951  1.00  0.00     0.015 A 
ATOM     24  H   UNL     1       5.558  -4.165   3.379  1.00  0.00     0.166 HD
ATOM     25  C   UNL     1       4.464  -6.790   2.779  1.00  0.00     0.073 A 
ATOM     26  C   UNL     1       2.417  -7.841   3.543  1.00  0.00     0.047 A 
ATOM     27  C   UNL     1       3.619  -7.905   2.850  1.00  0.00     0.121 A 
BRANCH  27  28
ATOM     28  O   UNL     1       4.000  -8.971   2.078  1.00  0.00    -0.489 OA
BRANCH  28  29
ATOM     29  C   UNL     1       4.029 -10.249   2.715  1.00  0.00     0.265 C 
BRANCH  29  30
ATOM     30  C   UNL     1       5.402 -10.586   3.261  1.00  0.00    -0.011 A 
ATOM     31  C   UNL     1       5.728 -11.919   3.539  1.00  0.00     0.007 A 
ATOM     32  C   UNL     1       6.360  -9.602   3.548  1.00  0.00     0.007 A 
ATOM     33  C   UNL     1       6.970 -12.244   4.093  1.00  0.00     0.000 A 
ATOM     34  C   UNL     1       7.596  -9.921   4.101  1.00  0.00     0.000 A 
ATOM     35  C   UNL     1       7.900 -11.245   4.379  1.00  0.00     0.000 A 
ENDBRANCH  29  30
ENDBRANCH  28  29
ENDBRANCH  27  28
ENDBRANCH   6  18
ENDBRANCH   3   6
ENDBRANCH   1   2
BRANCH   1  36
ATOM     36  C   UNL     1      -1.879  -2.402  -0.176  1.00  0.00     0.023 C 
BRANCH  36  37
ATOM     37  C   UNL     1      -2.607  -3.656  -0.669  1.00  0.00     0.023 C 
BRANCH  37  38
ATOM     38  C   UNL     1      -3.961  -3.316  -1.242  1.00  0.00     0.116 C 
BRANCH  38  39
ATOM     39  N   UNL     1      -3.902  -2.478  -2.430  1.00  0.00    -0.352 N 
ATOM     40  C   UNL     1      -4.896  -2.301  -3.375  1.00  0.00     0.251 C 
ATOM     41  H   UNL     1      -3.064  -1.984  -2.578  1.00  0.00     0.163 HD
ATOM     42  O   UNL     1      -4.721  -1.638  -4.374  1.00  0.00    -0.269 OA
BRANCH  40  43
ATOM     43  C   UNL     1      -6.174  -3.016  -3.154  1.00  0.00     0.039 A 
ATOM     44  C   UNL     1      -6.682  -3.819  -4.175  1.00  0.00     0.014 A 
ATOM     45  C   UNL     1      -6.786  -2.985  -1.900  1.00  0.00     0.014 A 
ATOM     46  C   UNL     1      -7.768  -4.652  -3.907  1.00  0.00     0.010 A 
ATOM     47  C   UNL     1      -7.773  -3.906  -1.599  1.00  0.00     0.010 A 
ATOM     48  C   UNL     1      -8.291  -4.731  -2.607  1.00  0.00    -0.014 A 
BRANCH  48  49
ATOM     49  C   UNL     1      -9.423  -5.626  -2.280  1.00  0.00     0.031 A 
ATOM     50  C   UNL     1     -10.713  -5.027  -1.791  1.00  0.00     0.074 A 
ATOM     51  C   UNL     1      -9.270  -6.961  -2.363  1.00  0.00     0.049 A 
ATOM     52  N   UNL     1     -11.805  -5.627  -1.395  1.00  0.00    -0.248 NA
ATOM     53  C   UNL     1     -10.769  -3.557  -1.697  1.00  0.00     0.031 C 
ATOM     54  C   UNL     1      -8.047  -7.655  -2.775  1.00  0.00     0.029 A 
ATOM     55  N   UNL     1     -10.156  -7.975  -2.107  1.00  0.00    -0.354 N 
ATOM     56  C   UNL     1     -12.660  -4.611  -0.986  1.00  0.00     0.074 A 
ATOM     57  C   UNL     1     -11.938  -3.366  -1.108  1.00  0.00     0.031 C 
ATOM     58  C   UNL     1      -8.277  -8.979  -2.789  1.00  0.00     0.029 A 
ATOM     59  C   UNL     1      -9.646  -9.227  -2.350  1.00  0.00     0.049 A 
ATOM     60  H   UNL     1     -11.072  -7.821  -1.779  1.00  0.00     0.167 HD
ATOM     61  C   UNL     1     -13.946  -4.701  -0.577  1.00  0.00     0.031 A 
ATOM     62  C   UNL     1     -10.225 -10.436  -2.237  1.00  0.00     0.031 A 
ATOM     63  C   UNL     1     -14.666  -5.940  -0.484  1.00  0.00     0.049 A 
ATOM     64  C   UNL     1     -11.657 -10.512  -1.784  1.00  0.00     0.074 A 
ATOM     65  C   UNL     1     -15.987  -6.147  -0.136  1.00  0.00     0.029 A 
ATOM     66  N   UNL     1     -14.116  -7.185  -0.752  1.00  0.00    -0.354 N 
ATOM     67  N   UNL     1     -12.475  -9.538  -1.464  1.00  0.00    -0.248 NA
ATOM     68  C   UNL     1     -12.248 -11.853  -1.691  1.00  0.00     0.031 C 
ATOM     69  C   UNL     1     -16.226  -7.525  -0.150  1.00  0.00     0.029 A 
ATOM     70  C   UNL     1     -15.068  -8.169  -0.560  1.00  0.00     0.049 A 
ATOM     71  H   UNL     1     -13.187  -7.344  -1.036  1.00  0.00     0.167 HD
ATOM     72  C   UNL     1     -13.686 -10.145  -1.160  1.00  0.00     0.074 A 
ATOM     73  C   UNL     1     -13.498 -11.570  -1.349  1.00  0.00     0.031 C 
ATOM     74  C   UNL     1     -14.851  -9.579  -0.760  1.00  0.00     0.031 A 
BRANCH  61  75
ATOM     75  C   UNL     1     -14.640  -3.420  -0.207  1.00  0.00    -0.014 A 
ATOM     76  C   UNL     1     -14.946  -2.450  -1.178  1.00  0.00     0.009 A 
ATOM     77  C   UNL     1     -14.990  -3.173   1.129  1.00  0.00     0.009 A 
ATOM     78  C   UNL     1     -15.543  -1.243  -0.811  1.00  0.00     0.001 A 
ATOM     79  C   UNL     1     -15.618  -1.979   1.488  1.00  0.00     0.001 A 
ATOM     80  C   UNL     1     -15.882  -1.010   0.520  1.00  0.00     0.000 A 
ENDBRANCH  61  75
BRANCH  62  81
ATOM     81  C   UNL     1      -9.470 -11.665  -2.596  1.00  0.00    -0.014 A 
ATOM     82  C   UNL     1      -9.805 -12.393  -3.749  1.00  0.00     0.009 A 
ATOM     83  C   UNL     1      -8.413 -12.121  -1.792  1.00  0.00     0.009 A 
ATOM     84  C   UNL     1      -9.116 -13.564  -4.075  1.00  0.00     0.001 A 
ATOM     85  C   UNL     1      -7.708 -13.277  -2.135  1.00  0.00     0.001 A 
ATOM     86  C   UNL     1      -8.066 -14.003  -3.270  1.00  0.00     0.000 A 
ENDBRANCH  62  81
BRANCH  74  87
ATOM     87  C   UNL     1     -16.017 -10.498  -0.541  1.00  0.00    -0.014 A 
ATOM     88  C   UNL     1     -16.074 -11.351   0.572  1.00  0.00     0.009 A 
ATOM     89  C   UNL     1     -17.096 -10.472  -1.439  1.00  0.00     0.009 A 
ATOM     90  C   UNL     1     -17.176 -12.185   0.762  1.00  0.00     0.001 A 
ATOM     91  C   UNL     1     -18.209 -11.285  -1.229  1.00  0.00     0.001 A 
ATOM     92  C   UNL     1     -18.244 -12.147  -0.134  1.00  0.00     0.000 A 
ENDBRANCH  74  87
ENDBRANCH  48  49
ENDBRANCH  40  43
ENDBRANCH  38  39
ENDBRANCH  37  38
ENDBRANCH  36  37
ENDBRANCH   1  36
TORSDOF 17
