REMARK SMILES Cc1ccc(NC(=O)C[C@H]2C(=O)NCCN2C(=O)CCC(=O)NCCCCNC(=O)c2ccc(-c3c4nc(c(-c5ccccc5)c5ccc([nH]5)c(-c5ccccc5)c5nc(c(-c6ccccc6)c6ccc3[nH]6)C=C5)C=C4)cc2)c(C)c1
REMARK SMILES IDX 21 1 22 2 23 3 20 5 19 6 17 7 18 8 16 9 10 10 11 11 12 12
REMARK SMILES IDX 13 13 15 14 14 15 9 17 7 18 6 19 8 21 5 22 1 23 2 24 3 25
REMARK SMILES IDX 81 26 4 27 79 28 80 29 24 30 25 31 26 32 27 33 28 34 29 35
REMARK SMILES IDX 30 37 31 38 32 39 78 40 33 41 77 42 34 43 35 44 36 45 71 46
REMARK SMILES IDX 37 47 76 48 70 49 72 50 38 51 75 52 69 53 68 54 39 56 61 57
REMARK SMILES IDX 46 58 60 59 47 60 50 61 59 62 73 63 48 64 49 65 58 67 74 68
REMARK SMILES IDX 51 69 40 70 41 71 45 72 42 73 44 74 43 75 62 76 63 77 67 78
REMARK SMILES IDX 64 79 66 80 65 81 52 82 53 83 57 84 54 85 56 86 55 87
REMARK H PARENT 23 4 13 16 6 20 28 36 72 55 50 66
REMARK Flexibility Score: inf
ROOT
ATOM      1  C   UNL     1      -2.842   0.905  -1.203  1.00  0.00     0.220 C 
ATOM      2  O   UNL     1      -2.093   0.006  -1.531  1.00  0.00    -0.275 OA
ATOM      3  N   UNL     1      -2.481   1.753  -0.188  1.00  0.00    -0.356 N 
ATOM      4  H   UNL     1      -1.603   1.530   0.200  1.00  0.00     0.163 HD
ENDROOT
BRANCH   1   5
ATOM      5  C   UNL     1      -4.180   1.076  -1.839  1.00  0.00     0.110 C 
BRANCH   5   6
ATOM      6  C   UNL     1      -5.241   0.513  -0.928  1.00  0.00     0.110 C 
BRANCH   6   7
ATOM      7  C   UNL     1      -5.439   1.342   0.304  1.00  0.00     0.223 C 
ATOM      8  O   UNL     1      -6.221   2.303   0.209  1.00  0.00    -0.275 OA
BRANCH   7   9
ATOM      9  N   UNL     1      -4.769   1.085   1.516  1.00  0.00    -0.328 N 
ATOM     10  C   UNL     1      -3.521   0.183   1.813  1.00  0.00     0.183 C 
ATOM     11  C   UNL     1      -3.836  -0.693   3.073  1.00  0.00     0.243 C 
ATOM     12  O   UNL     1      -3.173  -1.691   3.355  1.00  0.00    -0.273 OA
ATOM     13  N   UNL     1      -4.811  -0.312   3.952  1.00  0.00    -0.353 N 
ATOM     14  C   UNL     1      -5.620   1.597   2.604  1.00  0.00     0.141 C 
ATOM     15  C   UNL     1      -5.515   0.940   3.957  1.00  0.00     0.137 C 
ATOM     16  H   UNL     1      -5.056  -0.960   4.651  1.00  0.00     0.163 HD
BRANCH  10  17
ATOM     17  C   UNL     1      -1.799   0.533   1.877  1.00  0.00     0.135 C 
BRANCH  17  18
ATOM     18  C   UNL     1      -0.455   1.600   1.814  1.00  0.00     0.227 C 
ATOM     19  N   UNL     1       0.015   2.745   1.182  1.00  0.00    -0.326 N 
ATOM     20  H   UNL     1       0.943   2.887   1.477  1.00  0.00     0.169 HD
ATOM     21  O   UNL     1       0.460   1.208   2.590  1.00  0.00    -0.275 OA
BRANCH  19  22
ATOM     22  C   UNL     1      -0.319   3.807   0.266  1.00  0.00     0.044 A 
ATOM     23  C   UNL     1      -3.162   6.266  -1.761  1.00  0.00     0.044 C 
ATOM     24  C   UNL     1      -1.893   5.670  -1.197  1.00  0.00    -0.051 A 
ATOM     25  C   UNL     1      -1.467   5.973   0.099  1.00  0.00     0.005 A 
ATOM     26  C   UNL     1      -1.258   4.601  -1.846  1.00  0.00     0.009 A 
ATOM     27  C   UNL     1      -0.604   5.087   0.793  1.00  0.00     0.026 A 
ATOM     28  C   UNL     1      -0.456   3.668  -1.126  1.00  0.00    -0.027 A 
ATOM     29  C   UNL     1       0.216   2.574  -1.898  1.00  0.00     0.046 C 
ENDBRANCH  19  22
ENDBRANCH  17  18
ENDBRANCH  10  17
ENDBRANCH   7   9
ENDBRANCH   6   7
ENDBRANCH   5   6
ENDBRANCH   1   5
BRANCH   3  30
ATOM     30  C   UNL     1      -3.113   2.930   0.459  1.00  0.00     0.116 C 
BRANCH  30  31
ATOM     31  C   UNL     1      -2.998   3.478   1.985  1.00  0.00     0.023 C 
BRANCH  31  32
ATOM     32  C   UNL     1      -2.876   2.850   3.409  1.00  0.00     0.023 C 
BRANCH  32  33
ATOM     33  C   UNL     1      -1.609   3.062   4.275  1.00  0.00     0.116 C 
BRANCH  33  34
ATOM     34  N   UNL     1      -1.630   4.286   5.050  1.00  0.00    -0.352 N 
ATOM     35  C   UNL     1      -1.355   4.518   6.379  1.00  0.00     0.251 C 
ATOM     36  H   UNL     1      -1.884   5.089   4.540  1.00  0.00     0.163 HD
ATOM     37  O   UNL     1      -1.511   5.658   6.814  1.00  0.00    -0.269 OA
BRANCH  35  38
ATOM     38  C   UNL     1      -0.923   3.444   7.318  1.00  0.00     0.039 A 
ATOM     39  C   UNL     1      -1.423   3.484   8.627  1.00  0.00     0.014 A 
ATOM     40  C   UNL     1      -0.003   2.447   6.982  1.00  0.00     0.014 A 
ATOM     41  C   UNL     1      -1.049   2.514   9.566  1.00  0.00     0.010 A 
ATOM     42  C   UNL     1       0.314   1.434   7.903  1.00  0.00     0.010 A 
ATOM     43  C   UNL     1      -0.197   1.455   9.211  1.00  0.00    -0.014 A 
BRANCH  43  44
ATOM     44  C   UNL     1       0.138   0.394  10.212  1.00  0.00     0.031 A 
ATOM     45  C   UNL     1       1.558   0.166  10.673  1.00  0.00     0.074 A 
ATOM     46  C   UNL     1      -0.845  -0.377  10.724  1.00  0.00     0.049 A 
ATOM     47  N   UNL     1       2.003  -0.629  11.617  1.00  0.00    -0.248 NA
ATOM     48  C   UNL     1       2.617   0.903   9.969  1.00  0.00     0.031 C 
ATOM     49  C   UNL     1      -2.252  -0.332  10.321  1.00  0.00     0.029 A 
ATOM     50  N   UNL     1      -0.818  -1.336  11.710  1.00  0.00    -0.354 N 
ATOM     51  C   UNL     1       3.388  -0.495  11.609  1.00  0.00     0.074 A 
ATOM     52  C   UNL     1       3.712   0.407  10.525  1.00  0.00     0.031 C 
ATOM     53  C   UNL     1      -2.961  -1.172  11.093  1.00  0.00     0.029 A 
ATOM     54  C   UNL     1      -2.060  -1.835  12.029  1.00  0.00     0.049 A 
ATOM     55  H   UNL     1       0.012  -1.637  12.146  1.00  0.00     0.167 HD
ATOM     56  C   UNL     1       4.309  -1.042  12.440  1.00  0.00     0.031 A 
ATOM     57  C   UNL     1      -2.440  -2.705  12.985  1.00  0.00     0.031 A 
ATOM     58  C   UNL     1       3.997  -1.933  13.527  1.00  0.00     0.049 A 
ATOM     59  C   UNL     1      -1.409  -3.267  13.925  1.00  0.00     0.074 A 
ATOM     60  C   UNL     1       4.852  -2.491  14.462  1.00  0.00     0.029 A 
ATOM     61  N   UNL     1       2.725  -2.396  13.824  1.00  0.00    -0.354 N 
ATOM     62  N   UNL     1      -0.118  -3.044  13.966  1.00  0.00    -0.248 NA
ATOM     63  C   UNL     1      -1.896  -4.179  14.971  1.00  0.00     0.031 C 
ATOM     64  C   UNL     1       4.103  -3.326  15.299  1.00  0.00     0.029 A 
ATOM     65  C   UNL     1       2.773  -3.242  14.919  1.00  0.00     0.049 A 
ATOM     66  H   UNL     1       1.908  -2.158  13.329  1.00  0.00     0.167 HD
ATOM     67  C   UNL     1       0.356  -3.765  15.056  1.00  0.00     0.074 A 
ATOM     68  C   UNL     1      -0.789  -4.410  15.662  1.00  0.00     0.031 C 
ATOM     69  C   UNL     1       1.627  -3.882  15.512  1.00  0.00     0.031 A 
BRANCH  56  70
ATOM     70  C   UNL     1       5.753  -0.680  12.204  1.00  0.00    -0.014 A 
ATOM     71  C   UNL     1       6.222   0.622  12.446  1.00  0.00     0.009 A 
ATOM     72  C   UNL     1       6.660  -1.652  11.755  1.00  0.00     0.009 A 
ATOM     73  C   UNL     1       7.555   0.955  12.195  1.00  0.00     0.001 A 
ATOM     74  C   UNL     1       8.000  -1.324  11.535  1.00  0.00     0.001 A 
ATOM     75  C   UNL     1       8.444  -0.019  11.742  1.00  0.00     0.000 A 
ENDBRANCH  56  70
BRANCH  57  76
ATOM     76  C   UNL     1      -3.877  -3.058  13.148  1.00  0.00    -0.014 A 
ATOM     77  C   UNL     1      -4.600  -2.604  14.263  1.00  0.00     0.009 A 
ATOM     78  C   UNL     1      -4.530  -3.861  12.201  1.00  0.00     0.009 A 
ATOM     79  C   UNL     1      -5.936  -2.971  14.441  1.00  0.00     0.001 A 
ATOM     80  C   UNL     1      -5.876  -4.202  12.366  1.00  0.00     0.001 A 
ATOM     81  C   UNL     1      -6.574  -3.766  13.491  1.00  0.00     0.000 A 
ENDBRANCH  57  76
BRANCH  69  82
ATOM     82  C   UNL     1       1.837  -4.712  16.748  1.00  0.00    -0.014 A 
ATOM     83  C   UNL     1       1.693  -6.109  16.726  1.00  0.00     0.009 A 
ATOM     84  C   UNL     1       2.200  -4.086  17.951  1.00  0.00     0.009 A 
ATOM     85  C   UNL     1       1.862  -6.855  17.894  1.00  0.00     0.001 A 
ATOM     86  C   UNL     1       2.399  -4.838  19.110  1.00  0.00     0.001 A 
ATOM     87  C   UNL     1       2.218  -6.220  19.084  1.00  0.00     0.000 A 
ENDBRANCH  69  82
ENDBRANCH  43  44
ENDBRANCH  35  38
ENDBRANCH  33  34
ENDBRANCH  32  33
ENDBRANCH  31  32
ENDBRANCH  30  31
ENDBRANCH   3  30
TORSDOF 17
