REMARK SMILES C[C@@H](C(=O)NCCCCNC(=O)c1ccc(-c2c3nc(c(-c4ccccc4)c4ccc([nH]4)c(-c4ccccc4)c4nc(c(-c5ccccc5)c5ccc2[nH]5)C=C4)C=C3)cc1)c1ccc(-c2cccc(OC(=O)NCCCc3ccccc3)c2)c(F)c1
REMARK SMILES IDX 1 1 2 2 3 3 4 4 5 5 6 7 7 8 8 9 9 10 10 11 11 12 12 14 13 15
REMARK SMILES IDX 14 16 60 17 15 18 59 19 16 20 17 21 18 22 53 23 19 24 58 25
REMARK SMILES IDX 52 26 54 27 20 28 57 29 51 30 50 31 21 33 43 34 28 35 42 36
REMARK SMILES IDX 29 37 32 38 41 39 55 40 30 41 31 42 40 44 56 45 33 46 22 47
REMARK SMILES IDX 23 48 27 49 24 50 26 51 25 52 44 53 45 54 49 55 46 56 48 57
REMARK SMILES IDX 47 58 34 59 35 60 39 61 36 62 38 63 37 64 61 65 62 66 86 67
REMARK SMILES IDX 63 68 84 69 64 70 85 71 65 72 66 73 83 74 67 75 69 76 68 77
REMARK SMILES IDX 70 78 71 79 72 80 73 81 74 83 75 84 76 85 77 86 78 87 82 88
REMARK SMILES IDX 79 89 81 90 80 91
REMARK H PARENT 5 6 10 13 54 32 32 43 73 82
REMARK Flexibility Score: inf
ROOT
ATOM      1  C   UNL     1       0.944   0.186  -0.330  1.00  0.00     0.023 C 
ATOM      2  C   UNL     1       0.518  -0.593   0.917  1.00  0.00     0.105 C 
ENDROOT
BRANCH   2   3
ATOM      3  C   UNL     1       1.125  -0.041   2.219  1.00  0.00     0.227 C 
ATOM      4  O   UNL     1       0.468   0.529   3.092  1.00  0.00    -0.274 OA
ATOM      5  N   UNL     1       2.455  -0.207   2.472  1.00  0.00    -0.356 N 
ATOM      6  H   UNL     1       2.742   0.023   3.385  1.00  0.00     0.163 HD
BRANCH   5   7
ATOM      7  C   UNL     1       3.505  -0.672   1.594  1.00  0.00     0.116 C 
BRANCH   7   8
ATOM      8  C   UNL     1       4.255   0.510   0.978  1.00  0.00     0.023 C 
BRANCH   8   9
ATOM      9  C   UNL     1       5.029   1.365   1.984  1.00  0.00     0.023 C 
BRANCH   9  10
ATOM     10  C   UNL     1       6.029   0.600   2.839  1.00  0.00     0.116 C 
BRANCH  10  11
ATOM     11  N   UNL     1       7.006  -0.125   2.045  1.00  0.00    -0.352 N 
ATOM     12  C   UNL     1       8.351  -0.280   2.260  1.00  0.00     0.251 C 
ATOM     13  H   UNL     1       6.652  -0.567   1.239  1.00  0.00     0.163 HD
ATOM     14  O   UNL     1       9.052  -0.810   1.404  1.00  0.00    -0.269 OA
BRANCH  12  15
ATOM     15  C   UNL     1       8.959   0.216   3.512  1.00  0.00     0.039 A 
ATOM     16  C   UNL     1      10.180   0.890   3.441  1.00  0.00     0.014 A 
ATOM     17  C   UNL     1       8.341   0.010   4.748  1.00  0.00     0.014 A 
ATOM     18  C   UNL     1      10.763   1.390   4.606  1.00  0.00     0.010 A 
ATOM     19  C   UNL     1       8.881   0.579   5.897  1.00  0.00     0.010 A 
ATOM     20  C   UNL     1      10.107   1.256   5.841  1.00  0.00    -0.014 A 
BRANCH  20  21
ATOM     21  C   UNL     1      10.713   1.790   7.086  1.00  0.00     0.031 A 
ATOM     22  C   UNL     1      11.131   0.851   8.184  1.00  0.00     0.074 A 
ATOM     23  C   UNL     1      10.854   3.120   7.243  1.00  0.00     0.049 A 
ATOM     24  N   UNL     1      11.682   1.125   9.340  1.00  0.00    -0.248 NA
ATOM     25  C   UNL     1      10.875  -0.583   7.968  1.00  0.00     0.031 C 
ATOM     26  C   UNL     1      10.450   4.138   6.270  1.00  0.00     0.029 A 
ATOM     27  N   UNL     1      11.384   3.843   8.281  1.00  0.00    -0.354 N 
ATOM     28  C   UNL     1      11.817  -0.094   9.992  1.00  0.00     0.074 A 
ATOM     29  C   UNL     1      11.243  -1.102   9.130  1.00  0.00     0.031 C 
ATOM     30  C   UNL     1      10.788   5.350   6.739  1.00  0.00     0.029 A 
ATOM     31  C   UNL     1      11.396   5.198   8.057  1.00  0.00     0.049 A 
ATOM     32  H   UNL     1      11.723   3.430   9.108  1.00  0.00     0.167 HD
ATOM     33  C   UNL     1      12.387  -0.357  11.192  1.00  0.00     0.031 A 
ATOM     34  C   UNL     1      11.853   6.205   8.824  1.00  0.00     0.031 A 
ATOM     35  C   UNL     1      12.972   0.644  12.044  1.00  0.00     0.049 A 
ATOM     36  C   UNL     1      12.479   5.887  10.154  1.00  0.00     0.074 A 
ATOM     37  C   UNL     1      13.634   0.473  13.247  1.00  0.00     0.029 A 
ATOM     38  N   UNL     1      12.961   2.005  11.782  1.00  0.00    -0.354 N 
ATOM     39  N   UNL     1      12.674   4.721  10.720  1.00  0.00    -0.248 NA
ATOM     40  C   UNL     1      12.962   7.029  10.943  1.00  0.00     0.031 C 
ATOM     41  C   UNL     1      13.975   1.737  13.740  1.00  0.00     0.029 A 
ATOM     42  C   UNL     1      13.581   2.689  12.814  1.00  0.00     0.049 A 
ATOM     43  H   UNL     1      12.570   2.424  10.981  1.00  0.00     0.167 HD
ATOM     44  C   UNL     1      13.334   4.986  11.914  1.00  0.00     0.074 A 
ATOM     45  C   UNL     1      13.518   6.421  11.981  1.00  0.00     0.031 C 
ATOM     46  C   UNL     1      13.755   4.118  12.866  1.00  0.00     0.031 A 
BRANCH  33  47
ATOM     47  C   UNL     1      12.390  -1.788  11.658  1.00  0.00    -0.014 A 
ATOM     48  C   UNL     1      13.173  -2.764  11.019  1.00  0.00     0.009 A 
ATOM     49  C   UNL     1      11.613  -2.161  12.765  1.00  0.00     0.009 A 
ATOM     50  C   UNL     1      13.142  -4.091  11.452  1.00  0.00     0.001 A 
ATOM     51  C   UNL     1      11.609  -3.482  13.217  1.00  0.00     0.001 A 
ATOM     52  C   UNL     1      12.364  -4.448  12.553  1.00  0.00     0.000 A 
ENDBRANCH  33  47
BRANCH  34  53
ATOM     53  C   UNL     1      11.776   7.608   8.340  1.00  0.00    -0.014 A 
ATOM     54  C   UNL     1      12.944   8.299   7.981  1.00  0.00     0.009 A 
ATOM     55  C   UNL     1      10.542   8.268   8.246  1.00  0.00     0.009 A 
ATOM     56  C   UNL     1      12.880   9.630   7.565  1.00  0.00     0.001 A 
ATOM     57  C   UNL     1      10.478   9.591   7.801  1.00  0.00     0.001 A 
ATOM     58  C   UNL     1      11.648  10.274   7.472  1.00  0.00     0.000 A 
ENDBRANCH  34  53
BRANCH  46  59
ATOM     59  C   UNL     1      14.497   4.695  14.040  1.00  0.00    -0.014 A 
ATOM     60  C   UNL     1      13.843   5.464  15.015  1.00  0.00     0.009 A 
ATOM     61  C   UNL     1      15.870   4.440  14.183  1.00  0.00     0.009 A 
ATOM     62  C   UNL     1      14.559   6.002  16.087  1.00  0.00     0.001 A 
ATOM     63  C   UNL     1      16.576   4.951  15.272  1.00  0.00     0.001 A 
ATOM     64  C   UNL     1      15.923   5.741  16.216  1.00  0.00     0.000 A 
ENDBRANCH  46  59
ENDBRANCH  20  21
ENDBRANCH  12  15
ENDBRANCH  10  11
ENDBRANCH   9  10
ENDBRANCH   8   9
ENDBRANCH   7   8
ENDBRANCH   5   7
ENDBRANCH   2   3
BRANCH   2  65
ATOM     65  C   UNL     1      -1.002  -0.637   0.963  1.00  0.00    -0.033 A 
ATOM     66  C   UNL     1      -1.756   0.546   1.015  1.00  0.00     0.005 A 
ATOM     67  C   UNL     1      -1.673  -1.864   0.938  1.00  0.00     0.044 A 
ATOM     68  C   UNL     1      -3.149   0.504   1.042  1.00  0.00     0.012 A 
ATOM     69  C   UNL     1      -3.064  -1.896   0.966  1.00  0.00     0.131 A 
ATOM     70  C   UNL     1      -3.828  -0.721   1.024  1.00  0.00     0.018 A 
ATOM     71  F   UNL     1      -3.666  -3.096   0.947  1.00  0.00    -0.206 F 
BRANCH  70  72
ATOM     72  C   UNL     1      -5.287  -0.754   1.162  1.00  0.00    -0.012 A 
ATOM     73  C   UNL     1      -6.132  -0.049   0.291  1.00  0.00     0.009 A 
ATOM     74  C   UNL     1      -5.858  -1.459   2.231  1.00  0.00     0.056 A 
ATOM     75  C   UNL     1      -7.515  -0.042   0.490  1.00  0.00     0.004 A 
ATOM     76  C   UNL     1      -7.231  -1.434   2.438  1.00  0.00     0.133 A 
ATOM     77  C   UNL     1      -8.065  -0.733   1.568  1.00  0.00     0.047 A 
BRANCH  76  78
ATOM     78  O   UNL     1      -7.877  -2.112   3.495  1.00  0.00    -0.410 OA
BRANCH  78  79
ATOM     79  C   UNL     1      -7.247  -2.680   4.599  1.00  0.00     0.412 C 
ATOM     80  O   UNL     1      -6.051  -2.656   4.859  1.00  0.00    -0.224 OA
ATOM     81  N   UNL     1      -8.122  -3.297   5.447  1.00  0.00    -0.321 N 
ATOM     82  H   UNL     1      -7.739  -3.819   6.189  1.00  0.00     0.167 HD
BRANCH  81  83
ATOM     83  C   UNL     1      -9.560  -3.246   5.348  1.00  0.00     0.120 C 
BRANCH  83  84
ATOM     84  C   UNL     1     -10.271  -4.489   5.880  1.00  0.00     0.026 C 
BRANCH  84  85
ATOM     85  C   UNL     1      -9.717  -5.158   7.144  1.00  0.00     0.037 C 
BRANCH  85  86
ATOM     86  C   UNL     1      -9.849  -4.488   8.492  1.00  0.00    -0.048 A 
ATOM     87  C   UNL     1     -10.062  -3.120   8.686  1.00  0.00     0.004 A 
ATOM     88  C   UNL     1      -9.686  -5.295   9.633  1.00  0.00     0.004 A 
ATOM     89  C   UNL     1     -10.105  -2.574   9.973  1.00  0.00     0.000 A 
ATOM     90  C   UNL     1      -9.741  -4.753  10.919  1.00  0.00     0.000 A 
ATOM     91  C   UNL     1      -9.946  -3.389  11.089  1.00  0.00     0.000 A 
ENDBRANCH  85  86
ENDBRANCH  84  85
ENDBRANCH  83  84
ENDBRANCH  81  83
ENDBRANCH  78  79
ENDBRANCH  76  78
ENDBRANCH  70  72
ENDBRANCH   2  65
TORSDOF 19
