REMARK SMILES Cc1nc(N[C@@H](C(=O)NCCCCNC(=O)c2ccc(-c3c4nc(c(-c5ccccc5)c5ccc([nH]5)c(-c5ccccc5)c5nc(c(-c6ccccc6)c6ccc3[nH]6)C=C5)C=C4)cc2)C(C)C)c2c3c(sc2n1)CCCC3
REMARK SMILES IDX 11 1 10 2 9 3 7 4 8 5 6 7 5 8 4 10 1 11 2 12 3 13 73 14
REMARK SMILES IDX 72 15 68 16 71 17 69 18 70 19 77 20 74 21 76 22 75 23 65 24
REMARK SMILES IDX 66 25 67 26 12 27 13 28 14 29 15 30 16 32 17 33 18 34 64 35
REMARK SMILES IDX 19 36 63 37 20 38 21 39 22 40 57 41 23 42 62 43 56 44 58 45
REMARK SMILES IDX 24 46 61 47 55 48 54 49 25 51 47 52 32 53 46 54 33 55 36 56
REMARK SMILES IDX 45 57 59 58 34 59 35 60 44 62 60 63 37 64 26 65 27 66 31 67
REMARK SMILES IDX 28 68 30 69 29 70 48 71 49 72 53 73 50 74 52 75 51 76 38 77
REMARK SMILES IDX 39 78 43 79 40 80 42 81 41 82
REMARK H PARENT 9 6 5 9 14 31 58 50 36 61
REMARK Flexibility Score: inf
ROOT
ATOM      1  C   UNL     1       0.292   4.343   3.886  1.00  0.00     0.023 C 
ENDROOT
BRANCH   1   2
ATOM      2  C   UNL     1       0.181   5.592   3.009  1.00  0.00     0.116 C 
BRANCH   2   3
ATOM      3  N   UNL     1       1.446   6.305   2.958  1.00  0.00    -0.354 N 
ATOM      4  C   UNL     1       2.284   6.536   1.897  1.00  0.00     0.242 C 
ATOM      5  O   UNL     1       3.367   7.073   2.144  1.00  0.00    -0.273 OA
ATOM      6  H   UNL     1       1.749   6.679   3.817  1.00  0.00     0.163 HD
BRANCH   4   7
ATOM      7  C   UNL     1       1.828   6.182   0.451  1.00  0.00     0.172 C 
BRANCH   7   8
ATOM      8  N   UNL     1       1.783   4.744   0.288  1.00  0.00    -0.358 N 
ATOM      9  H   UNL     1       2.632   4.301   0.517  1.00  0.00     0.162 HD
BRANCH   8  10
ATOM     10  C   UNL     1       0.810   3.870  -0.116  1.00  0.00     0.139 A 
ATOM     11  C   UNL     1       1.071   0.179  -0.080  1.00  0.00     0.090 C 
ATOM     12  C   UNL     1       0.490   1.545  -0.275  1.00  0.00     0.129 A 
ATOM     13  N   UNL     1       1.272   2.598  -0.003  1.00  0.00    -0.216 NA
ATOM     14  N   UNL     1      -0.783   1.613  -0.638  1.00  0.00    -0.222 NA
ATOM     15  C   UNL     1      -1.235   2.869  -0.759  1.00  0.00     0.129 A 
ATOM     16  C   UNL     1      -0.536   4.061  -0.552  1.00  0.00     0.057 A 
ATOM     17  S   UNL     1      -2.869   3.071  -1.182  1.00  0.00    -0.120 S 
ATOM     18  C   UNL     1      -1.442   5.183  -0.845  1.00  0.00    -0.021 A 
ATOM     19  C   UNL     1      -2.731   4.752  -1.127  1.00  0.00     0.011 A 
ATOM     20  C   UNL     1      -1.165   6.660  -0.834  1.00  0.00     0.037 C 
ATOM     21  C   UNL     1      -3.920   5.624  -1.413  1.00  0.00     0.047 C 
ATOM     22  C   UNL     1      -2.270   7.512  -1.473  1.00  0.00     0.005 C 
ATOM     23  C   UNL     1      -3.647   7.068  -0.986  1.00  0.00     0.006 C 
ENDBRANCH   8  10
ENDBRANCH   7   8
BRANCH   7  24
ATOM     24  C   UNL     1       2.766   6.822  -0.612  1.00  0.00     0.015 C 
ATOM     25  C   UNL     1       2.676   6.177  -2.003  1.00  0.00     0.010 C 
ATOM     26  C   UNL     1       2.473   8.324  -0.746  1.00  0.00     0.010 C 
ENDBRANCH   7  24
ENDBRANCH   4   7
ENDBRANCH   2   3
ENDBRANCH   1   2
BRANCH   1  27
ATOM     27  C   UNL     1       0.214   4.638   5.395  1.00  0.00     0.023 C 
BRANCH  27  28
ATOM     28  C   UNL     1      -1.200   4.914   5.928  1.00  0.00     0.116 C 
BRANCH  28  29
ATOM     29  N   UNL     1      -2.042   3.733   5.826  1.00  0.00    -0.352 N 
ATOM     30  C   UNL     1      -2.894   3.156   6.725  1.00  0.00     0.251 C 
ATOM     31  H   UNL     1      -1.988   3.268   4.960  1.00  0.00     0.163 HD
ATOM     32  O   UNL     1      -3.320   2.021   6.490  1.00  0.00    -0.269 OA
BRANCH  30  33
ATOM     33  C   UNL     1      -3.322   3.833   7.967  1.00  0.00     0.039 A 
ATOM     34  C   UNL     1      -3.440   3.052   9.123  1.00  0.00     0.014 A 
ATOM     35  C   UNL     1      -3.737   5.168   7.988  1.00  0.00     0.014 A 
ATOM     36  C   UNL     1      -3.936   3.610  10.301  1.00  0.00     0.010 A 
ATOM     37  C   UNL     1      -4.231   5.728   9.173  1.00  0.00     0.010 A 
ATOM     38  C   UNL     1      -4.327   4.956  10.340  1.00  0.00    -0.014 A 
BRANCH  38  39
ATOM     39  C   UNL     1      -4.734   5.518  11.644  1.00  0.00     0.031 A 
ATOM     40  C   UNL     1      -4.209   6.869  11.996  1.00  0.00     0.074 A 
ATOM     41  C   UNL     1      -5.871   5.152  12.272  1.00  0.00     0.049 A 
ATOM     42  N   UNL     1      -4.771   7.975  11.600  1.00  0.00    -0.248 NA
ATOM     43  C   UNL     1      -2.915   7.057  12.648  1.00  0.00     0.031 C 
ATOM     44  C   UNL     1      -7.106   4.771  11.578  1.00  0.00     0.029 A 
ATOM     45  N   UNL     1      -6.246   5.294  13.586  1.00  0.00    -0.354 N 
ATOM     46  C   UNL     1      -3.893   9.001  11.890  1.00  0.00     0.074 A 
ATOM     47  C   UNL     1      -2.763   8.387  12.556  1.00  0.00     0.031 C 
ATOM     48  C   UNL     1      -8.136   4.896  12.441  1.00  0.00     0.029 A 
ATOM     49  C   UNL     1      -7.618   5.180  13.774  1.00  0.00     0.049 A 
ATOM     50  H   UNL     1      -5.609   5.458  14.319  1.00  0.00     0.167 HD
ATOM     51  C   UNL     1      -4.122  10.297  11.556  1.00  0.00     0.031 A 
ATOM     52  C   UNL     1      -8.318   5.745  14.793  1.00  0.00     0.031 A 
ATOM     53  C   UNL     1      -5.374  10.569  10.917  1.00  0.00     0.049 A 
ATOM     54  C   UNL     1      -8.289   7.199  14.403  1.00  0.00     0.074 A 
ATOM     55  C   UNL     1      -5.861  10.604   9.627  1.00  0.00     0.029 A 
ATOM     56  N   UNL     1      -6.475  10.792  11.709  1.00  0.00    -0.354 N 
ATOM     57  N   UNL     1      -9.057   7.782  13.524  1.00  0.00    -0.248 NA
ATOM     58  C   UNL     1      -7.112   7.979  14.795  1.00  0.00     0.031 C 
ATOM     59  C   UNL     1      -7.271  10.392   9.743  1.00  0.00     0.029 A 
ATOM     60  C   UNL     1      -7.535  10.176  11.094  1.00  0.00     0.049 A 
ATOM     61  H   UNL     1      -6.498  11.296  12.555  1.00  0.00     0.167 HD
ATOM     62  C   UNL     1      -8.304   8.845  13.024  1.00  0.00     0.074 A 
ATOM     63  C   UNL     1      -7.142   8.943  13.885  1.00  0.00     0.031 C 
ATOM     64  C   UNL     1      -8.550   9.446  11.823  1.00  0.00     0.031 A 
BRANCH  51  65
ATOM     65  C   UNL     1      -3.206  11.408  11.882  1.00  0.00    -0.014 A 
ATOM     66  C   UNL     1      -3.519  12.258  12.953  1.00  0.00     0.009 A 
ATOM     67  C   UNL     1      -2.138  11.731  11.039  1.00  0.00     0.009 A 
ATOM     68  C   UNL     1      -2.799  13.435  13.155  1.00  0.00     0.001 A 
ATOM     69  C   UNL     1      -1.413  12.908  11.248  1.00  0.00     0.001 A 
ATOM     70  C   UNL     1      -1.753  13.764  12.297  1.00  0.00     0.000 A 
ENDBRANCH  51  65
BRANCH  52  71
ATOM     71  C   UNL     1      -7.948   5.263  16.165  1.00  0.00    -0.014 A 
ATOM     72  C   UNL     1      -7.899   3.869  16.381  1.00  0.00     0.009 A 
ATOM     73  C   UNL     1      -7.664   6.088  17.263  1.00  0.00     0.009 A 
ATOM     74  C   UNL     1      -7.482   3.328  17.600  1.00  0.00     0.001 A 
ATOM     75  C   UNL     1      -7.218   5.548  18.478  1.00  0.00     0.001 A 
ATOM     76  C   UNL     1      -7.114   4.170  18.641  1.00  0.00     0.000 A 
ENDBRANCH  52  71
BRANCH  64  77
ATOM     77  C   UNL     1      -9.819   9.060  11.134  1.00  0.00    -0.014 A 
ATOM     78  C   UNL     1     -11.053   9.511  11.620  1.00  0.00     0.009 A 
ATOM     79  C   UNL     1      -9.794   8.283   9.965  1.00  0.00     0.009 A 
ATOM     80  C   UNL     1     -12.233   9.219  10.931  1.00  0.00     0.001 A 
ATOM     81  C   UNL     1     -10.971   8.007   9.268  1.00  0.00     0.001 A 
ATOM     82  C   UNL     1     -12.189   8.480   9.749  1.00  0.00     0.000 A 
ENDBRANCH  64  77
ENDBRANCH  38  39
ENDBRANCH  30  33
ENDBRANCH  28  29
ENDBRANCH  27  28
ENDBRANCH   1  27
TORSDOF 14
