REMARK SMILES COC(=O)c1ccc([C@H]2Nc3c(C(=O)NCCCCNC(=O)c4ccc(-c5c6nc(c(-c7ccccc7)c7ccc([nH]7)c(-c7ccccc7)c7nc(c(-c8ccccc8)c8ccc5[nH]8)C=C7)C=C6)cc4)cccc3[C@H]3[C@H]4CC[C@H](C4)[C@H]32)cc1
REMARK SMILES IDX 17 1 16 2 15 3 13 4 14 5 12 7 9 8 10 9 81 10 11 11 75 13
REMARK SMILES IDX 79 14 74 15 76 16 78 17 80 18 71 19 73 20 77 21 72 22 8 23
REMARK SMILES IDX 5 24 6 25 83 26 7 27 82 28 3 29 4 30 2 31 1 32 18 33 19 34
REMARK SMILES IDX 20 35 21 36 22 38 23 39 24 40 70 41 25 42 69 43 26 44 27 45
REMARK SMILES IDX 28 46 63 47 29 48 68 49 62 50 64 51 30 52 67 53 61 54 60 55
REMARK SMILES IDX 31 57 53 58 38 59 52 60 39 61 42 62 51 63 65 64 40 65 41 66
REMARK SMILES IDX 50 68 66 69 43 70 32 71 33 72 37 73 34 74 36 75 35 76 54 77
REMARK SMILES IDX 55 78 59 79 56 80 58 81 57 82 44 83 45 84 49 85 46 86 48 87
REMARK SMILES IDX 47 88
REMARK H PARENT 15 6 10 12 20 37 64 56 42 67
REMARK Flexibility Score: inf
ROOT
ATOM      1  C   UNL     1       2.798 -11.152   4.872  1.00  0.00     0.023 C 
ENDROOT
BRANCH   1   2
ATOM      2  C   UNL     1       1.309 -10.967   4.601  1.00  0.00     0.116 C 
BRANCH   2   3
ATOM      3  N   UNL     1       0.839  -9.587   4.513  1.00  0.00    -0.352 N 
ATOM      4  C   UNL     1      -0.051  -9.030   3.599  1.00  0.00     0.253 C 
ATOM      5  O   UNL     1      -0.360  -7.844   3.673  1.00  0.00    -0.269 OA
ATOM      6  H   UNL     1       1.200  -8.968   5.189  1.00  0.00     0.163 HD
BRANCH   4   7
ATOM      7  C   UNL     1      -0.558  -9.876   2.486  1.00  0.00     0.063 A 
ATOM      8  C   UNL     1      -1.077  -7.902  -0.569  1.00  0.00     0.113 C 
ATOM      9  N   UNL     1      -0.380  -8.144   0.725  1.00  0.00    -0.377 N 
ATOM     10  C   UNL     1      -0.266  -8.708  -1.638  1.00  0.00     0.027 C 
ATOM     11  C   UNL     1      -0.365  -9.483   1.155  1.00  0.00     0.051 A 
ATOM     12  H   UNL     1       0.040  -7.419   1.242  1.00  0.00     0.161 HD
ATOM     13  C   UNL     1       0.355 -10.038  -1.125  1.00  0.00     0.030 C 
ATOM     14  C   UNL     1      -0.689  -9.087  -3.083  1.00  0.00    -0.005 C 
ATOM     15  C   UNL     1      -0.238 -10.489   0.180  1.00  0.00    -0.020 A 
ATOM     16  C   UNL     1       0.373 -10.940  -2.383  1.00  0.00    -0.003 C 
ATOM     17  C   UNL     1      -1.734 -10.215  -3.223  1.00  0.00     0.004 C 
ATOM     18  C   UNL     1       0.565  -9.894  -3.496  1.00  0.00     0.008 C 
ATOM     19  C   UNL     1      -1.046 -11.157   2.764  1.00  0.00     0.016 A 
ATOM     20  C   UNL     1      -0.528 -11.816   0.510  1.00  0.00     0.006 A 
ATOM     21  C   UNL     1      -1.015 -11.469  -2.740  1.00  0.00     0.004 C 
ATOM     22  C   UNL     1      -1.033 -12.129   1.770  1.00  0.00     0.001 A 
BRANCH   8  23
ATOM     23  C   UNL     1      -2.600  -8.049  -0.423  1.00  0.00    -0.025 A 
ATOM     24  C   UNL     1      -5.362  -8.609  -0.138  1.00  0.00     0.060 A 
ATOM     25  C   UNL     1      -4.599  -8.303   0.985  1.00  0.00     0.016 A 
ATOM     26  C   UNL     1      -4.798  -8.477  -1.405  1.00  0.00     0.016 A 
ATOM     27  C   UNL     1      -3.235  -8.026   0.838  1.00  0.00     0.007 A 
ATOM     28  C   UNL     1      -3.446  -8.130  -1.536  1.00  0.00     0.007 A 
BRANCH  24  29
ATOM     29  C   UNL     1      -6.750  -9.079   0.046  1.00  0.00     0.337 C 
ATOM     30  O   UNL     1      -7.541  -8.591   0.837  1.00  0.00    -0.246 OA
BRANCH  29  31
ATOM     31  O   UNL     1      -6.933 -10.182  -0.720  1.00  0.00    -0.465 OA
ATOM     32  C   UNL     1      -8.181 -10.856  -0.534  1.00  0.00     0.282 C 
ENDBRANCH  29  31
ENDBRANCH  24  29
ENDBRANCH   8  23
ENDBRANCH   4   7
ENDBRANCH   2   3
ENDBRANCH   1   2
BRANCH   1  33
ATOM     33  C   UNL     1       3.303 -10.715   6.240  1.00  0.00     0.023 C 
BRANCH  33  34
ATOM     34  C   UNL     1       2.583 -11.310   7.447  1.00  0.00     0.116 C 
BRANCH  34  35
ATOM     35  N   UNL     1       2.666 -12.761   7.534  1.00  0.00    -0.352 N 
ATOM     36  C   UNL     1       3.059 -13.563   8.582  1.00  0.00     0.251 C 
ATOM     37  H   UNL     1       2.399 -13.243   6.718  1.00  0.00     0.163 HD
ATOM     38  O   UNL     1       3.132 -14.780   8.426  1.00  0.00    -0.269 OA
BRANCH  36  39
ATOM     39  C   UNL     1       3.440 -12.971   9.885  1.00  0.00     0.039 A 
ATOM     40  C   UNL     1       4.594 -13.436  10.525  1.00  0.00     0.014 A 
ATOM     41  C   UNL     1       2.681 -11.958  10.475  1.00  0.00     0.014 A 
ATOM     42  C   UNL     1       5.034 -12.824  11.702  1.00  0.00     0.010 A 
ATOM     43  C   UNL     1       3.163 -11.296  11.602  1.00  0.00     0.010 A 
ATOM     44  C   UNL     1       4.349 -11.715  12.224  1.00  0.00    -0.014 A 
BRANCH  44  45
ATOM     45  C   UNL     1       4.866 -10.968  13.402  1.00  0.00     0.031 A 
ATOM     46  C   UNL     1       4.064 -10.901  14.673  1.00  0.00     0.074 A 
ATOM     47  C   UNL     1       6.023 -10.283  13.304  1.00  0.00     0.049 A 
ATOM     48  N   UNL     1       4.316 -10.237  15.774  1.00  0.00    -0.248 NA
ATOM     49  C   UNL     1       2.803 -11.658  14.703  1.00  0.00     0.031 C 
ATOM     50  C   UNL     1       6.880 -10.227  12.118  1.00  0.00     0.029 A 
ATOM     51  N   UNL     1       6.673  -9.492  14.219  1.00  0.00    -0.354 N 
ATOM     52  C   UNL     1       3.239 -10.481  16.617  1.00  0.00     0.074 A 
ATOM     53  C   UNL     1       2.310 -11.315  15.884  1.00  0.00     0.031 C 
ATOM     54  C   UNL     1       7.954  -9.466  12.386  1.00  0.00     0.029 A 
ATOM     55  C   UNL     1       7.841  -8.945  13.744  1.00  0.00     0.049 A 
ATOM     56  H   UNL     1       6.334  -9.331  15.130  1.00  0.00     0.167 HD
ATOM     57  C   UNL     1       3.046 -10.066  17.892  1.00  0.00     0.031 A 
ATOM     58  C   UNL     1       8.721  -8.111  14.331  1.00  0.00     0.031 A 
ATOM     59  C   UNL     1       3.971  -9.246  18.628  1.00  0.00     0.049 A 
ATOM     60  C   UNL     1       8.476  -7.652  15.741  1.00  0.00     0.074 A 
ATOM     61  C   UNL     1       3.888  -8.823  19.944  1.00  0.00     0.029 A 
ATOM     62  N   UNL     1       5.146  -8.723  18.113  1.00  0.00    -0.354 N 
ATOM     63  N   UNL     1       7.485  -7.948  16.546  1.00  0.00    -0.248 NA
ATOM     64  C   UNL     1       9.479  -6.749  16.326  1.00  0.00     0.031 C 
ATOM     65  C   UNL     1       4.989  -8.002  20.210  1.00  0.00     0.029 A 
ATOM     66  C   UNL     1       5.785  -7.960  19.077  1.00  0.00     0.049 A 
ATOM     67  H   UNL     1       5.477  -8.870  17.198  1.00  0.00     0.167 HD
ATOM     68  C   UNL     1       7.760  -7.293  17.740  1.00  0.00     0.074 A 
ATOM     69  C   UNL     1       9.016  -6.596  17.558  1.00  0.00     0.031 C 
ATOM     70  C   UNL     1       7.035  -7.272  18.885  1.00  0.00     0.031 A 
BRANCH  57  71
ATOM     71  C   UNL     1       1.773 -10.489  18.571  1.00  0.00    -0.014 A 
ATOM     72  C   UNL     1       1.560 -11.825  18.949  1.00  0.00     0.009 A 
ATOM     73  C   UNL     1       0.788  -9.534  18.869  1.00  0.00     0.009 A 
ATOM     74  C   UNL     1       0.371 -12.201  19.578  1.00  0.00     0.001 A 
ATOM     75  C   UNL     1      -0.386  -9.908  19.524  1.00  0.00     0.001 A 
ATOM     76  C   UNL     1      -0.599 -11.242  19.869  1.00  0.00     0.000 A 
ENDBRANCH  57  71
BRANCH  58  77
ATOM     77  C   UNL     1       9.929  -7.662  13.591  1.00  0.00    -0.014 A 
ATOM     78  C   UNL     1      11.201  -8.127  13.958  1.00  0.00     0.009 A 
ATOM     79  C   UNL     1       9.820  -6.758  12.522  1.00  0.00     0.009 A 
ATOM     80  C   UNL     1      12.341  -7.675  13.289  1.00  0.00     0.001 A 
ATOM     81  C   UNL     1      10.959  -6.331  11.836  1.00  0.00     0.001 A 
ATOM     82  C   UNL     1      12.219  -6.782  12.226  1.00  0.00     0.000 A 
ENDBRANCH  58  77
BRANCH  70  83
ATOM     83  C   UNL     1       7.601  -6.502  20.044  1.00  0.00    -0.014 A 
ATOM     84  C   UNL     1       7.616  -5.098  20.050  1.00  0.00     0.009 A 
ATOM     85  C   UNL     1       8.091  -7.193  21.163  1.00  0.00     0.009 A 
ATOM     86  C   UNL     1       8.141  -4.404  21.142  1.00  0.00     0.001 A 
ATOM     87  C   UNL     1       8.588  -6.495  22.265  1.00  0.00     0.001 A 
ATOM     88  C   UNL     1       8.621  -5.102  22.250  1.00  0.00     0.000 A 
ENDBRANCH  70  83
ENDBRANCH  44  45
ENDBRANCH  36  39
ENDBRANCH  34  35
ENDBRANCH  33  34
ENDBRANCH   1  33
TORSDOF 14
