REMARK SMILES CCN(CC(C)(C)O)C(=O)NCCCC(=O)NCCCCNC(=O)c1ccc(-c2c3nc(c(-c4ccccc4)c4ccc([nH]4)c(-c4ccccc4)c4nc(c(-c5ccccc5)c5ccc2[nH]5)C=C4)C=C3)cc1
REMARK SMILES IDX 15 1 16 2 17 3 14 5 13 6 12 7 11 8 9 9 10 10 3 12 2 13 1 14
REMARK SMILES IDX 4 15 5 16 6 17 7 18 8 19 18 21 19 22 20 23 21 24 22 25 23 26
REMARK SMILES IDX 24 28 25 29 26 30 72 31 27 32 71 33 28 34 29 35 30 36 65 37
REMARK SMILES IDX 31 38 70 39 64 40 66 41 32 42 69 43 63 44 62 45 33 47 55 48
REMARK SMILES IDX 40 49 54 50 41 51 44 52 53 53 67 54 42 55 43 56 52 58 68 59
REMARK SMILES IDX 45 60 34 61 35 62 39 63 36 64 38 65 37 66 56 67 57 68 61 69
REMARK SMILES IDX 58 70 60 71 59 72 46 73 47 74 51 75 48 76 50 77 49 78
REMARK H PARENT 17 4 11 11 8 20 22 27 66 46 44 57
REMARK Flexibility Score: inf
ROOT
ATOM      1  C   UNL     1       4.218  -7.536   0.271  1.00  0.00     0.220 C 
ATOM      2  O   UNL     1       4.168  -8.765   0.197  1.00  0.00    -0.275 OA
ATOM      3  N   UNL     1       4.002  -6.954   1.483  1.00  0.00    -0.356 N 
ATOM      4  H   UNL     1       3.918  -7.582   2.236  1.00  0.00     0.163 HD
ENDROOT
BRANCH   1   5
ATOM      5  C   UNL     1       4.489  -6.694  -0.961  1.00  0.00     0.102 C 
BRANCH   5   6
ATOM      6  C   UNL     1       3.231  -6.474  -1.797  1.00  0.00     0.031 C 
BRANCH   6   7
ATOM      7  C   UNL     1       2.307  -5.396  -1.253  1.00  0.00     0.118 C 
BRANCH   7   8
ATOM      8  N   UNL     1       2.796  -4.051  -1.469  1.00  0.00    -0.338 N 
ATOM      9  C   UNL     1       2.257  -2.819  -1.518  1.00  0.00     0.317 C 
ATOM     10  O   UNL     1       3.078  -1.908  -1.672  1.00  0.00    -0.249 OA
ATOM     11  H   UNL     1       3.769  -4.033  -1.618  1.00  0.00     0.165 HD
BRANCH   9  12
ATOM     12  N   UNL     1       0.916  -2.569  -1.407  1.00  0.00    -0.322 N 
BRANCH  12  13
ATOM     13  C   UNL     1       0.513  -1.153  -1.452  1.00  0.00     0.118 C 
ATOM     14  C   UNL     1       0.719  -0.441  -0.120  1.00  0.00     0.027 C 
ENDBRANCH  12  13
BRANCH  12  15
ATOM     15  C   UNL     1      -0.169  -3.527  -1.157  1.00  0.00     0.155 C 
BRANCH  15  16
ATOM     16  C   UNL     1      -0.890  -4.082  -2.428  1.00  0.00     0.077 C 
ATOM     17  C   UNL     1      -0.003  -4.632  -3.553  1.00  0.00     0.043 C 
ATOM     18  C   UNL     1      -1.870  -5.175  -1.979  1.00  0.00     0.043 C 
BRANCH  16  19
ATOM     19  O   UNL     1      -1.677  -3.031  -3.007  1.00  0.00    -0.389 OA
ATOM     20  H   UNL     1      -1.093  -2.316  -3.305  1.00  0.00     0.211 HD
ENDBRANCH  16  19
ENDBRANCH  15  16
ENDBRANCH  12  15
ENDBRANCH   9  12
ENDBRANCH   7   8
ENDBRANCH   6   7
ENDBRANCH   5   6
ENDBRANCH   1   5
BRANCH   3  21
ATOM     21  C   UNL     1       3.878  -5.552   1.837  1.00  0.00     0.116 C 
BRANCH  21  22
ATOM     22  C   UNL     1       2.432  -5.210   2.217  1.00  0.00     0.023 C 
BRANCH  22  23
ATOM     23  C   UNL     1       2.082  -5.361   3.689  1.00  0.00     0.023 C 
BRANCH  23  24
ATOM     24  C   UNL     1       2.862  -4.449   4.612  1.00  0.00     0.116 C 
BRANCH  24  25
ATOM     25  N   UNL     1       2.710  -3.029   4.332  1.00  0.00    -0.352 N 
ATOM     26  C   UNL     1       2.862  -1.989   5.226  1.00  0.00     0.251 C 
ATOM     27  H   UNL     1       2.475  -2.785   3.407  1.00  0.00     0.163 HD
ATOM     28  O   UNL     1       2.635  -0.833   4.907  1.00  0.00    -0.269 OA
BRANCH  26  29
ATOM     29  C   UNL     1       3.249  -2.330   6.611  1.00  0.00     0.039 A 
ATOM     30  C   UNL     1       2.436  -1.907   7.662  1.00  0.00     0.014 A 
ATOM     31  C   UNL     1       4.327  -3.188   6.841  1.00  0.00     0.014 A 
ATOM     32  C   UNL     1       2.664  -2.412   8.942  1.00  0.00     0.010 A 
ATOM     33  C   UNL     1       4.475  -3.778   8.086  1.00  0.00     0.010 A 
ATOM     34  C   UNL     1       3.656  -3.385   9.154  1.00  0.00    -0.014 A 
BRANCH  34  35
ATOM     35  C   UNL     1       3.870  -3.981  10.495  1.00  0.00     0.031 A 
ATOM     36  C   UNL     1       5.192  -3.796  11.190  1.00  0.00     0.074 A 
ATOM     37  C   UNL     1       2.901  -4.725  11.063  1.00  0.00     0.049 A 
ATOM     38  N   UNL     1       5.574  -4.231  12.364  1.00  0.00    -0.248 NA
ATOM     39  C   UNL     1       6.235  -3.059  10.457  1.00  0.00     0.031 C 
ATOM     40  C   UNL     1       1.605  -5.043  10.457  1.00  0.00     0.029 A 
ATOM     41  N   UNL     1       2.855  -5.343  12.286  1.00  0.00    -0.354 N 
ATOM     42  C   UNL     1       6.900  -3.840  12.494  1.00  0.00     0.074 A 
ATOM     43  C   UNL     1       7.280  -3.198  11.257  1.00  0.00     0.031 C 
ATOM     44  C   UNL     1       0.873  -5.751  11.333  1.00  0.00     0.029 A 
ATOM     45  C   UNL     1       1.655  -5.959  12.547  1.00  0.00     0.049 A 
ATOM     46  H   UNL     1       3.610  -5.345  12.918  1.00  0.00     0.167 HD
ATOM     47  C   UNL     1       7.722  -3.967  13.562  1.00  0.00     0.031 A 
ATOM     48  C   UNL     1       1.228  -6.599  13.651  1.00  0.00     0.031 A 
ATOM     49  C   UNL     1       7.334  -4.574  14.804  1.00  0.00     0.049 A 
ATOM     50  C   UNL     1       2.140  -6.688  14.842  1.00  0.00     0.074 A 
ATOM     51  C   UNL     1       8.065  -4.694  15.972  1.00  0.00     0.029 A 
ATOM     52  N   UNL     1       6.097  -5.154  15.039  1.00  0.00    -0.354 N 
ATOM     53  N   UNL     1       3.363  -6.236  14.981  1.00  0.00    -0.248 NA
ATOM     54  C   UNL     1       1.603  -7.354  16.036  1.00  0.00     0.031 C 
ATOM     55  C   UNL     1       7.280  -5.381  16.905  1.00  0.00     0.029 A 
ATOM     56  C   UNL     1       6.047  -5.645  16.331  1.00  0.00     0.049 A 
ATOM     57  H   UNL     1       5.364  -5.209  14.384  1.00  0.00     0.167 HD
ATOM     58  C   UNL     1       3.732  -6.538  16.285  1.00  0.00     0.074 A 
ATOM     59  C   UNL     1       2.596  -7.195  16.900  1.00  0.00     0.031 C 
ATOM     60  C   UNL     1       4.905  -6.294  16.920  1.00  0.00     0.031 A 
BRANCH  47  61
ATOM     61  C   UNL     1       9.116  -3.424  13.422  1.00  0.00    -0.014 A 
ATOM     62  C   UNL     1       9.352  -2.041  13.344  1.00  0.00     0.009 A 
ATOM     63  C   UNL     1      10.208  -4.302  13.369  1.00  0.00     0.009 A 
ATOM     64  C   UNL     1      10.648  -1.552  13.171  1.00  0.00     0.001 A 
ATOM     65  C   UNL     1      11.507  -3.809  13.227  1.00  0.00     0.001 A 
ATOM     66  C   UNL     1      11.724  -2.436  13.117  1.00  0.00     0.000 A 
ENDBRANCH  47  61
BRANCH  48  67
ATOM     67  C   UNL     1      -0.149  -7.156  13.707  1.00  0.00    -0.014 A 
ATOM     68  C   UNL     1      -1.131  -6.540  14.499  1.00  0.00     0.009 A 
ATOM     69  C   UNL     1      -0.489  -8.305  12.977  1.00  0.00     0.009 A 
ATOM     70  C   UNL     1      -2.417  -7.081  14.583  1.00  0.00     0.001 A 
ATOM     71  C   UNL     1      -1.783  -8.827  13.041  1.00  0.00     0.001 A 
ATOM     72  C   UNL     1      -2.743  -8.221  13.851  1.00  0.00     0.000 A 
ENDBRANCH  48  67
BRANCH  60  73
ATOM     73  C   UNL     1       5.001  -6.710  18.359  1.00  0.00    -0.014 A 
ATOM     74  C   UNL     1       5.107  -8.062  18.720  1.00  0.00     0.009 A 
ATOM     75  C   UNL     1       5.018  -5.730  19.364  1.00  0.00     0.009 A 
ATOM     76  C   UNL     1       5.191  -8.426  20.065  1.00  0.00     0.001 A 
ATOM     77  C   UNL     1       5.130  -6.096  20.705  1.00  0.00     0.001 A 
ATOM     78  C   UNL     1       5.206  -7.443  21.055  1.00  0.00     0.000 A 
ENDBRANCH  60  73
ENDBRANCH  34  35
ENDBRANCH  26  29
ENDBRANCH  24  25
ENDBRANCH  23  24
ENDBRANCH  22  23
ENDBRANCH  21  22
ENDBRANCH   3  21
TORSDOF 19
