REMARK SMILES [NH3+][C@H](C(=O)NCCCCNC(=O)c1ccc(-c2c3nc(c(-c4ccccc4)c4ccc([nH]4)c(-c4ccccc4)c4nc(c(-c5ccccc5)c5ccc2[nH]5)C=C4)C=C3)cc1)c1cccc(OCc2ccc(F)cc2)c1
REMARK SMILES IDX 6 1 5 2 3 3 4 4 2 6 1 7 61 11 62 12 75 13 63 14 65 15 64 16
REMARK SMILES IDX 66 17 67 18 68 19 69 20 74 21 70 22 73 23 71 24 72 25 7 26
REMARK SMILES IDX 8 27 9 28 10 29 11 30 12 32 13 33 14 34 60 35 15 36 59 37
REMARK SMILES IDX 16 38 17 39 18 40 53 41 19 42 58 43 52 44 54 45 20 46 57 47
REMARK SMILES IDX 51 48 50 49 21 51 43 52 28 53 42 54 29 55 32 56 41 57 55 58
REMARK SMILES IDX 30 59 31 60 40 62 56 63 33 64 22 65 23 66 27 67 24 68 26 69
REMARK SMILES IDX 25 70 44 71 45 72 49 73 46 74 48 75 47 76 34 77 35 78 39 79
REMARK SMILES IDX 36 80 38 81 37 82
REMARK H PARENT 5 5 1 8 1 9 1 10 10 31 54 50 32 61
REMARK Flexibility Score: inf
ROOT
ATOM      1  C   UNL     1       1.597  -2.088   1.018  1.00  0.00     0.116 C 
ENDROOT
BRANCH   1   2
ATOM      2  N   UNL     1       1.620  -0.945   0.126  1.00  0.00    -0.351 N 
ATOM      3  C   UNL     1       1.037   0.281   0.268  1.00  0.00     0.283 C 
ATOM      4  O   UNL     1       1.045   1.032  -0.714  1.00  0.00    -0.268 OA
ATOM      5  H   UNL     1       2.133  -1.071  -0.705  1.00  0.00     0.163 HD
BRANCH   3   6
ATOM      6  C   UNL     1       0.493   0.754   1.647  1.00  0.00     0.302 C 
BRANCH   6   7
ATOM      7  N   UNL     1       1.088   2.091   1.905  1.00  0.00    -0.343 N 
ATOM      8  H   UNL     1       0.757   2.443   2.804  1.00  0.00     0.345 HD
ATOM      9  H   UNL     1       0.809   2.735   1.165  1.00  0.00     0.345 HD
ATOM     10  H   UNL     1       2.104   2.013   1.923  1.00  0.00     0.345 HD
ENDBRANCH   6   7
BRANCH   6  11
ATOM     11  C   UNL     1      -1.032   0.754   1.696  1.00  0.00     0.023 A 
ATOM     12  C   UNL     1      -1.788   1.927   1.541  1.00  0.00     0.011 A 
ATOM     13  C   UNL     1      -1.728  -0.461   1.871  1.00  0.00     0.057 A 
ATOM     14  C   UNL     1      -3.183   1.891   1.571  1.00  0.00     0.004 A 
ATOM     15  C   UNL     1      -3.123  -0.512   1.811  1.00  0.00     0.120 A 
ATOM     16  C   UNL     1      -3.845   0.675   1.704  1.00  0.00     0.046 A 
BRANCH  15  17
ATOM     17  O   UNL     1      -3.896  -1.639   1.773  1.00  0.00    -0.489 OA
BRANCH  17  18
ATOM     18  C   UNL     1      -3.312  -2.885   1.383  1.00  0.00     0.265 C 
BRANCH  18  19
ATOM     19  C   UNL     1      -3.061  -3.091  -0.107  1.00  0.00    -0.011 A 
ATOM     20  C   UNL     1      -2.940  -4.408  -0.592  1.00  0.00     0.010 A 
ATOM     21  C   UNL     1      -2.824  -2.035  -1.003  1.00  0.00     0.010 A 
ATOM     22  C   UNL     1      -2.572  -4.654  -1.919  1.00  0.00     0.039 A 
ATOM     23  C   UNL     1      -2.428  -2.280  -2.320  1.00  0.00     0.039 A 
ATOM     24  C   UNL     1      -2.300  -3.587  -2.765  1.00  0.00     0.123 A 
ATOM     25  F   UNL     1      -1.873  -3.822  -4.012  1.00  0.00    -0.207 F 
ENDBRANCH  18  19
ENDBRANCH  17  18
ENDBRANCH  15  17
ENDBRANCH   6  11
ENDBRANCH   3   6
ENDBRANCH   1   2
BRANCH   1  26
ATOM     26  C   UNL     1       0.524  -3.080   0.578  1.00  0.00     0.023 C 
BRANCH  26  27
ATOM     27  C   UNL     1       0.865  -3.822  -0.707  1.00  0.00     0.023 C 
BRANCH  27  28
ATOM     28  C   UNL     1       1.927  -4.891  -0.531  1.00  0.00     0.116 C 
BRANCH  28  29
ATOM     29  N   UNL     1       1.428  -6.037   0.219  1.00  0.00    -0.352 N 
ATOM     30  C   UNL     1       1.125  -7.319  -0.176  1.00  0.00     0.251 C 
ATOM     31  H   UNL     1       1.282  -5.863   1.177  1.00  0.00     0.163 HD
ATOM     32  O   UNL     1       0.502  -8.046   0.594  1.00  0.00    -0.269 OA
BRANCH  30  33
ATOM     33  C   UNL     1       1.518  -7.830  -1.511  1.00  0.00     0.039 A 
ATOM     34  C   UNL     1       0.729  -8.809  -2.127  1.00  0.00     0.014 A 
ATOM     35  C   UNL     1       2.676  -7.392  -2.149  1.00  0.00     0.014 A 
ATOM     36  C   UNL     1       1.078  -9.296  -3.392  1.00  0.00     0.010 A 
ATOM     37  C   UNL     1       2.934  -7.757  -3.463  1.00  0.00     0.010 A 
ATOM     38  C   UNL     1       2.166  -8.747  -4.087  1.00  0.00    -0.014 A 
BRANCH  38  39
ATOM     39  C   UNL     1       2.580  -9.229  -5.431  1.00  0.00     0.031 A 
ATOM     40  C   UNL     1       3.981  -9.753  -5.638  1.00  0.00     0.074 A 
ATOM     41  C   UNL     1       1.742  -9.122  -6.479  1.00  0.00     0.049 A 
ATOM     42  N   UNL     1       4.580 -10.106  -6.747  1.00  0.00    -0.248 NA
ATOM     43  C   UNL     1       4.839  -9.845  -4.444  1.00  0.00     0.031 C 
ATOM     44  C   UNL     1       0.378  -8.591  -6.429  1.00  0.00     0.029 A 
ATOM     45  N   UNL     1       1.921  -9.454  -7.798  1.00  0.00    -0.354 N 
ATOM     46  C   UNL     1       5.888 -10.410  -6.388  1.00  0.00     0.074 A 
ATOM     47  C   UNL     1       6.015 -10.135  -4.975  1.00  0.00     0.031 C 
ATOM     48  C   UNL     1      -0.171  -8.677  -7.652  1.00  0.00     0.029 A 
ATOM     49  C   UNL     1       0.816  -9.219  -8.579  1.00  0.00     0.049 A 
ATOM     50  H   UNL     1       2.762  -9.824  -8.151  1.00  0.00     0.167 HD
ATOM     51  C   UNL     1       6.891 -10.902  -7.153  1.00  0.00     0.031 A 
ATOM     52  C   UNL     1       0.621  -9.419  -9.896  1.00  0.00     0.031 A 
ATOM     53  C   UNL     1       6.752 -11.217  -8.549  1.00  0.00     0.049 A 
ATOM     54  C   UNL     1       1.738  -9.985 -10.726  1.00  0.00     0.074 A 
ATOM     55  C   UNL     1       7.678 -11.793  -9.401  1.00  0.00     0.029 A 
ATOM     56  N   UNL     1       5.606 -10.988  -9.295  1.00  0.00    -0.354 N 
ATOM     57  N   UNL     1       2.950 -10.326 -10.360  1.00  0.00    -0.248 NA
ATOM     58  C   UNL     1       1.454 -10.205 -12.150  1.00  0.00     0.031 C 
ATOM     59  C   UNL     1       7.107 -11.866 -10.676  1.00  0.00     0.029 A 
ATOM     60  C   UNL     1       5.806 -11.393 -10.603  1.00  0.00     0.049 A 
ATOM     61  H   UNL     1       4.774 -10.596  -8.946  1.00  0.00     0.167 HD
ATOM     62  C   UNL     1       3.562 -10.834 -11.499  1.00  0.00     0.074 A 
ATOM     63  C   UNL     1       2.582 -10.765 -12.565  1.00  0.00     0.031 C 
ATOM     64  C   UNL     1       4.819 -11.319 -11.649  1.00  0.00     0.031 A 
BRANCH  51  65
ATOM     65  C   UNL     1       8.224 -11.120  -6.487  1.00  0.00    -0.014 A 
ATOM     66  C   UNL     1       8.396 -12.093  -5.488  1.00  0.00     0.009 A 
ATOM     67  C   UNL     1       9.326 -10.336  -6.861  1.00  0.00     0.009 A 
ATOM     68  C   UNL     1       9.624 -12.233  -4.836  1.00  0.00     0.001 A 
ATOM     69  C   UNL     1      10.563 -10.504  -6.234  1.00  0.00     0.001 A 
ATOM     70  C   UNL     1      10.707 -11.440  -5.212  1.00  0.00     0.000 A 
ENDBRANCH  51  65
BRANCH  52  71
ATOM     71  C   UNL     1      -0.706  -9.126 -10.500  1.00  0.00    -0.014 A 
ATOM     72  C   UNL     1      -1.546 -10.177 -10.900  1.00  0.00     0.009 A 
ATOM     73  C   UNL     1      -1.148  -7.804 -10.664  1.00  0.00     0.009 A 
ATOM     74  C   UNL     1      -2.791  -9.910 -11.472  1.00  0.00     0.001 A 
ATOM     75  C   UNL     1      -2.406  -7.541 -11.210  1.00  0.00     0.001 A 
ATOM     76  C   UNL     1      -3.223  -8.594 -11.621  1.00  0.00     0.000 A 
ENDBRANCH  52  71
BRANCH  64  77
ATOM     77  C   UNL     1       5.190 -11.860 -13.001  1.00  0.00    -0.014 A 
ATOM     78  C   UNL     1       5.392 -11.012 -14.101  1.00  0.00     0.009 A 
ATOM     79  C   UNL     1       5.378 -13.242 -13.162  1.00  0.00     0.009 A 
ATOM     80  C   UNL     1       5.740 -11.543 -15.345  1.00  0.00     0.001 A 
ATOM     81  C   UNL     1       5.757 -13.766 -14.398  1.00  0.00     0.001 A 
ATOM     82  C   UNL     1       5.927 -12.918 -15.491  1.00  0.00     0.000 A 
ENDBRANCH  64  77
ENDBRANCH  38  39
ENDBRANCH  30  33
ENDBRANCH  28  29
ENDBRANCH  27  28
ENDBRANCH  26  27
ENDBRANCH   1  26
TORSDOF 16
