REMARK SMILES Cc1cc(C)c(S(=O)(=O)Nc2ccc(N3CC[NH+](C)CC3)c(C(=O)NCCCCNC(=O)c3ccc(-c4c5nc(c(-c6ccccc6)c6ccc([nH]6)c(-c6ccccc6)c6nc(c(-c7ccccc7)c7ccc4[nH]7)C=C6)C=C5)cc3)c2)c(C)c1
REMARK SMILES IDX 27 1 26 2 25 3 23 4 24 5 22 7 11 8 12 9 81 10 13 11 14 12
REMARK SMILES IDX 10 13 7 15 8 16 9 17 6 18 1 19 2 20 3 21 84 22 4 23 82 24
REMARK SMILES IDX 5 25 83 26 15 27 16 28 21 29 17 30 20 31 18 32 19 33 28 35
REMARK SMILES IDX 29 36 30 37 31 38 32 40 33 41 34 42 80 43 35 44 79 45 36 46
REMARK SMILES IDX 37 47 38 48 73 49 39 50 78 51 72 52 74 53 40 54 77 55 71 56
REMARK SMILES IDX 70 57 41 59 63 60 48 61 62 62 49 63 52 64 61 65 75 66 50 67
REMARK SMILES IDX 51 68 60 70 76 71 53 72 42 73 43 74 47 75 44 76 46 77 45 78
REMARK SMILES IDX 64 79 65 80 69 81 66 82 68 83 67 84 54 85 55 86 59 87 56 88
REMARK SMILES IDX 58 89 57 90
REMARK H PARENT 25 6 10 14 18 34 30 39 74 58 52 69
REMARK Flexibility Score: inf
ROOT
ATOM      1  C   UNL     1      -0.169  -1.647   3.904  1.00  0.00     0.023 C 
ENDROOT
BRANCH   1   2
ATOM      2  C   UNL     1       0.834  -1.256   2.815  1.00  0.00     0.116 C 
BRANCH   2   3
ATOM      3  N   UNL     1       2.055  -2.014   2.970  1.00  0.00    -0.352 N 
ATOM      4  C   UNL     1       2.478  -3.232   2.495  1.00  0.00     0.253 C 
ATOM      5  O   UNL     1       3.493  -3.656   3.048  1.00  0.00    -0.269 OA
ATOM      6  H   UNL     1       2.724  -1.562   3.535  1.00  0.00     0.163 HD
BRANCH   4   7
ATOM      7  C   UNL     1       1.785  -4.007   1.400  1.00  0.00     0.065 A 
ATOM      8  C   UNL     1      -0.221  -4.391   0.072  1.00  0.00     0.050 A 
ATOM      9  C   UNL     1       0.446  -5.339  -0.690  1.00  0.00     0.029 A 
ATOM     10  C   UNL     1       0.396  -3.882   1.208  1.00  0.00     0.042 A 
ATOM     11  C   UNL     1       1.802  -5.552  -0.475  1.00  0.00     0.029 A 
ATOM     12  C   UNL     1       2.522  -4.806   0.480  1.00  0.00     0.050 A 
BRANCH   8  13
ATOM     13  N   UNL     1      -1.455  -3.915  -0.446  1.00  0.00    -0.280 N 
ATOM     14  H   UNL     1      -1.943  -4.522  -1.048  1.00  0.00     0.180 HD
BRANCH  13  15
ATOM     15  S   UNL     1      -2.167  -2.432  -0.140  1.00  0.00     0.262 S 
ATOM     16  O   UNL     1      -2.444  -2.404   1.286  1.00  0.00    -0.201 OA
ATOM     17  O   UNL     1      -3.235  -2.326  -1.109  1.00  0.00    -0.201 OA
BRANCH  15  18
ATOM     18  C   UNL     1      -1.059  -1.042  -0.464  1.00  0.00     0.093 A 
ATOM     19  C   UNL     1       1.851   2.152  -0.090  1.00  0.00     0.044 C 
ATOM     20  C   UNL     1       0.830   1.066  -0.252  1.00  0.00    -0.051 A 
ATOM     21  C   UNL     1      -0.471   1.240   0.210  1.00  0.00     0.008 A 
ATOM     22  C   UNL     1       1.129  -0.102  -0.954  1.00  0.00     0.008 A 
ATOM     23  C   UNL     1      -1.425   0.206   0.115  1.00  0.00    -0.030 A 
ATOM     24  C   UNL     1       0.185  -1.143  -1.118  1.00  0.00    -0.030 A 
ATOM     25  C   UNL     1      -2.827   0.574   0.541  1.00  0.00     0.046 C 
ATOM     26  C   UNL     1       0.605  -2.236  -2.053  1.00  0.00     0.046 C 
ENDBRANCH  15  18
ENDBRANCH  13  15
ENDBRANCH   8  13
BRANCH  12  27
ATOM     27  N   UNL     1       3.901  -4.770   0.353  1.00  0.00    -0.360 N 
ATOM     28  C   UNL     1       4.785  -5.458   1.302  1.00  0.00     0.178 C 
ATOM     29  C   UNL     1       4.505  -4.570  -0.973  1.00  0.00     0.178 C 
ATOM     30  C   UNL     1       6.101  -4.649   1.431  1.00  0.00     0.283 C 
ATOM     31  C   UNL     1       5.843  -3.814  -0.831  1.00  0.00     0.283 C 
ATOM     32  N   UNL     1       6.780  -4.454   0.120  1.00  0.00    -0.334 N 
ATOM     33  C   UNL     1       7.972  -3.622   0.280  1.00  0.00     0.332 C 
ATOM     34  H   UNL     1       7.067  -5.363  -0.243  1.00  0.00     0.347 HD
ENDBRANCH  12  27
ENDBRANCH   4   7
ENDBRANCH   2   3
ENDBRANCH   1   2
BRANCH   1  35
ATOM     35  C   UNL     1       0.154  -1.068   5.283  1.00  0.00     0.023 C 
BRANCH  35  36
ATOM     36  C   UNL     1       0.142   0.453   5.343  1.00  0.00     0.116 C 
BRANCH  36  37
ATOM     37  N   UNL     1      -1.123   1.030   4.919  1.00  0.00    -0.352 N 
ATOM     38  C   UNL     1      -1.687   2.217   5.311  1.00  0.00     0.251 C 
ATOM     39  H   UNL     1      -1.640   0.503   4.268  1.00  0.00     0.163 HD
ATOM     40  O   UNL     1      -2.812   2.532   4.941  1.00  0.00    -0.269 OA
BRANCH  38  41
ATOM     41  C   UNL     1      -0.930   3.104   6.216  1.00  0.00     0.039 A 
ATOM     42  C   UNL     1      -1.559   3.579   7.369  1.00  0.00     0.014 A 
ATOM     43  C   UNL     1       0.392   3.453   5.930  1.00  0.00     0.014 A 
ATOM     44  C   UNL     1      -0.845   4.381   8.259  1.00  0.00     0.010 A 
ATOM     45  C   UNL     1       1.120   4.202   6.847  1.00  0.00     0.010 A 
ATOM     46  C   UNL     1       0.503   4.685   8.010  1.00  0.00    -0.014 A 
BRANCH  46  47
ATOM     47  C   UNL     1       1.270   5.551   8.934  1.00  0.00     0.031 A 
ATOM     48  C   UNL     1       1.704   6.917   8.484  1.00  0.00     0.074 A 
ATOM     49  C   UNL     1       1.619   5.093  10.150  1.00  0.00     0.049 A 
ATOM     50  N   UNL     1       2.416   7.810   9.123  1.00  0.00    -0.248 NA
ATOM     51  C   UNL     1       1.308   7.323   7.125  1.00  0.00     0.031 C 
ATOM     52  C   UNL     1       1.294   3.769  10.685  1.00  0.00     0.029 A 
ATOM     53  N   UNL     1       2.328   5.696  11.156  1.00  0.00    -0.354 N 
ATOM     54  C   UNL     1       2.578   8.866   8.236  1.00  0.00     0.074 A 
ATOM     55  C   UNL     1       1.923   8.490   7.002  1.00  0.00     0.031 C 
ATOM     56  C   UNL     1       1.779   3.671  11.935  1.00  0.00     0.029 A 
ATOM     57  C   UNL     1       2.466   4.913  12.276  1.00  0.00     0.049 A 
ATOM     58  H   UNL     1       2.702   6.604  11.083  1.00  0.00     0.167 HD
ATOM     59  C   UNL     1       3.201  10.051   8.434  1.00  0.00     0.031 A 
ATOM     60  C   UNL     1       3.069   5.176  13.450  1.00  0.00     0.031 A 
ATOM     61  C   UNL     1       3.822  10.440   9.670  1.00  0.00     0.049 A 
ATOM     62  C   UNL     1       3.709   6.518  13.664  1.00  0.00     0.074 A 
ATOM     63  C   UNL     1       4.434  11.639   9.990  1.00  0.00     0.029 A 
ATOM     64  N   UNL     1       3.898   9.636  10.796  1.00  0.00    -0.354 N 
ATOM     65  N   UNL     1       3.807   7.528  12.834  1.00  0.00    -0.248 NA
ATOM     66  C   UNL     1       4.303   6.762  14.986  1.00  0.00     0.031 C 
ATOM     67  C   UNL     1       4.900  11.553  11.307  1.00  0.00     0.029 A 
ATOM     68  C   UNL     1       4.546  10.313  11.814  1.00  0.00     0.049 A 
ATOM     69  H   UNL     1       3.544   8.720  10.862  1.00  0.00     0.167 HD
ATOM     70  C   UNL     1       4.442   8.539  13.543  1.00  0.00     0.074 A 
ATOM     71  C   UNL     1       4.700   8.022  14.871  1.00  0.00     0.031 C 
ATOM     72  C   UNL     1       4.779   9.785  13.132  1.00  0.00     0.031 A 
BRANCH  59  73
ATOM     73  C   UNL     1       3.236  11.008   7.278  1.00  0.00    -0.014 A 
ATOM     74  C   UNL     1       2.082  11.697   6.871  1.00  0.00     0.009 A 
ATOM     75  C   UNL     1       4.439  11.229   6.592  1.00  0.00     0.009 A 
ATOM     76  C   UNL     1       2.125  12.561   5.776  1.00  0.00     0.001 A 
ATOM     77  C   UNL     1       4.485  12.113   5.512  1.00  0.00     0.001 A 
ATOM     78  C   UNL     1       3.326  12.770   5.099  1.00  0.00     0.000 A 
ENDBRANCH  59  73
BRANCH  60  79
ATOM     79  C   UNL     1       3.053   4.165  14.536  1.00  0.00    -0.014 A 
ATOM     80  C   UNL     1       2.209   4.335  15.644  1.00  0.00     0.009 A 
ATOM     81  C   UNL     1       3.881   3.035  14.476  1.00  0.00     0.009 A 
ATOM     82  C   UNL     1       2.214   3.404  16.685  1.00  0.00     0.001 A 
ATOM     83  C   UNL     1       3.868   2.095  15.509  1.00  0.00     0.001 A 
ATOM     84  C   UNL     1       3.041   2.285  16.616  1.00  0.00     0.000 A 
ENDBRANCH  60  79
BRANCH  72  85
ATOM     85  C   UNL     1       5.414  10.688  14.147  1.00  0.00    -0.014 A 
ATOM     86  C   UNL     1       6.755  10.529  14.525  1.00  0.00     0.009 A 
ATOM     87  C   UNL     1       4.663  11.733  14.707  1.00  0.00     0.009 A 
ATOM     88  C   UNL     1       7.324  11.382  15.472  1.00  0.00     0.001 A 
ATOM     89  C   UNL     1       5.242  12.597  15.637  1.00  0.00     0.001 A 
ATOM     90  C   UNL     1       6.569  12.416  16.024  1.00  0.00     0.000 A 
ENDBRANCH  72  85
ENDBRANCH  46  47
ENDBRANCH  38  41
ENDBRANCH  36  37
ENDBRANCH  35  36
ENDBRANCH   1  35
TORSDOF 15
