REMARK SMILES C[C@H](C(=O)NCCCCNC(=O)c1ccc(-c2c3nc(c(-c4ccccc4)c4ccc([nH]4)c(-c4ccccc4)c4nc(c(-c5ccccc5)c5ccc2[nH]5)C=C4)C=C3)cc1)[C@H](C)[S@@](=O)C(C)(C)C
REMARK SMILES IDX 7 1 6 2 5 3 3 4 4 5 2 7 1 8 61 9 62 10 63 11 64 12 65 13
REMARK SMILES IDX 66 14 67 15 68 16 8 17 9 18 10 19 11 20 12 22 13 23 14 24
REMARK SMILES IDX 60 25 15 26 59 27 16 28 17 29 18 30 53 31 19 32 58 33 52 34
REMARK SMILES IDX 54 35 20 36 57 37 51 38 50 39 21 41 43 42 28 43 42 44 29 45
REMARK SMILES IDX 32 46 41 47 55 48 30 49 31 50 40 52 56 53 33 54 22 55 23 56
REMARK SMILES IDX 27 57 24 58 26 59 25 60 44 61 45 62 49 63 46 64 48 65 47 66
REMARK SMILES IDX 34 67 35 68 39 69 36 70 38 71 37 72
REMARK H PARENT 5 6 10 21 54 40 32 51
REMARK Flexibility Score: inf
ROOT
ATOM      1  C   UNL     1      -3.026  -1.625  -4.722  1.00  0.00     0.023 C 
ENDROOT
BRANCH   1   2
ATOM      2  C   UNL     1      -3.207  -0.187  -4.243  1.00  0.00     0.116 C 
BRANCH   2   3
ATOM      3  N   UNL     1      -3.776  -0.162  -2.906  1.00  0.00    -0.356 N 
ATOM      4  C   UNL     1      -3.173  -0.286  -1.684  1.00  0.00     0.224 C 
ATOM      5  O   UNL     1      -3.899  -0.399  -0.694  1.00  0.00    -0.275 OA
ATOM      6  H   UNL     1      -4.752  -0.037  -2.874  1.00  0.00     0.163 HD
BRANCH   4   7
ATOM      7  C   UNL     1      -1.656  -0.120  -1.536  1.00  0.00     0.090 C 
ATOM      8  C   UNL     1      -1.489   1.242  -0.828  1.00  0.00     0.019 C 
BRANCH   7   9
ATOM      9  C   UNL     1      -0.994  -1.258  -0.717  1.00  0.00     0.089 C 
ATOM     10  C   UNL     1       0.448  -0.987  -0.285  1.00  0.00     0.023 C 
BRANCH   9  11
ATOM     11  S   UNL     1      -1.158  -2.957  -1.371  1.00  0.00     0.030 S 
ATOM     12  O   UNL     1      -2.577  -3.189  -1.784  1.00  0.00    -0.259 OA
BRANCH  11  13
ATOM     13  C   UNL     1      -0.031  -3.180  -2.813  1.00  0.00     0.038 C 
ATOM     14  C   UNL     1       0.241  -1.934  -3.646  1.00  0.00     0.025 C 
ATOM     15  C   UNL     1       1.313  -3.736  -2.319  1.00  0.00     0.025 C 
ATOM     16  C   UNL     1      -0.658  -4.268  -3.721  1.00  0.00     0.025 C 
ENDBRANCH  11  13
ENDBRANCH   9  11
ENDBRANCH   7   9
ENDBRANCH   4   7
ENDBRANCH   2   3
ENDBRANCH   1   2
BRANCH   1  17
ATOM     17  C   UNL     1      -4.128  -2.185  -5.605  1.00  0.00     0.023 C 
BRANCH  17  18
ATOM     18  C   UNL     1      -4.048  -1.702  -7.043  1.00  0.00     0.116 C 
BRANCH  18  19
ATOM     19  N   UNL     1      -2.807  -2.056  -7.731  1.00  0.00    -0.352 N 
ATOM     20  C   UNL     1      -2.611  -2.373  -9.055  1.00  0.00     0.251 C 
ATOM     21  H   UNL     1      -2.000  -2.070  -7.168  1.00  0.00     0.163 HD
ATOM     22  O   UNL     1      -1.498  -2.692  -9.462  1.00  0.00    -0.269 OA
BRANCH  20  23
ATOM     23  C   UNL     1      -3.772  -2.391  -9.966  1.00  0.00     0.039 A 
ATOM     24  C   UNL     1      -3.963  -3.499 -10.793  1.00  0.00     0.014 A 
ATOM     25  C   UNL     1      -4.723  -1.371  -9.918  1.00  0.00     0.014 A 
ATOM     26  C   UNL     1      -5.163  -3.632 -11.492  1.00  0.00     0.010 A 
ATOM     27  C   UNL     1      -5.960  -1.563 -10.515  1.00  0.00     0.010 A 
ATOM     28  C   UNL     1      -6.195  -2.696 -11.308  1.00  0.00    -0.014 A 
BRANCH  28  29
ATOM     29  C   UNL     1      -7.529  -2.885 -11.928  1.00  0.00     0.031 A 
ATOM     30  C   UNL     1      -8.073  -1.850 -12.875  1.00  0.00     0.074 A 
ATOM     31  C   UNL     1      -8.282  -3.948 -11.579  1.00  0.00     0.049 A 
ATOM     32  N   UNL     1      -9.237  -1.810 -13.472  1.00  0.00    -0.248 NA
ATOM     33  C   UNL     1      -7.215  -0.687 -13.158  1.00  0.00     0.031 C 
ATOM     34  C   UNL     1      -7.906  -4.978 -10.606  1.00  0.00     0.029 A 
ATOM     35  N   UNL     1      -9.526  -4.338 -12.006  1.00  0.00    -0.354 N 
ATOM     36  C   UNL     1      -9.256  -0.612 -14.175  1.00  0.00     0.074 A 
ATOM     37  C   UNL     1      -8.021   0.076 -13.879  1.00  0.00     0.031 C 
ATOM     38  C   UNL     1      -8.876  -5.905 -10.547  1.00  0.00     0.029 A 
ATOM     39  C   UNL     1      -9.954  -5.519 -11.450  1.00  0.00     0.049 A 
ATOM     40  H   UNL     1     -10.061  -3.821 -12.651  1.00  0.00     0.167 HD
ATOM     41  C   UNL     1     -10.202  -0.139 -15.020  1.00  0.00     0.031 A 
ATOM     42  C   UNL     1     -11.086  -6.218 -11.654  1.00  0.00     0.031 A 
ATOM     43  C   UNL     1     -11.413  -0.839 -15.345  1.00  0.00     0.049 A 
ATOM     44  C   UNL     1     -12.094  -5.699 -12.641  1.00  0.00     0.074 A 
ATOM     45  C   UNL     1     -12.409  -0.475 -16.234  1.00  0.00     0.029 A 
ATOM     46  N   UNL     1     -11.785  -2.057 -14.799  1.00  0.00    -0.354 N 
ATOM     47  N   UNL     1     -12.062  -4.599 -13.353  1.00  0.00    -0.248 NA
ATOM     48  C   UNL     1     -13.284  -6.531 -12.867  1.00  0.00     0.031 C 
ATOM     49  C   UNL     1     -13.398  -1.464 -16.207  1.00  0.00     0.029 A 
ATOM     50  C   UNL     1     -12.997  -2.460 -15.331  1.00  0.00     0.049 A 
ATOM     51  H   UNL     1     -11.264  -2.561 -14.133  1.00  0.00     0.167 HD
ATOM     52  C   UNL     1     -13.217  -4.615 -14.124  1.00  0.00     0.074 A 
ATOM     53  C   UNL     1     -13.912  -5.848 -13.813  1.00  0.00     0.031 C 
ATOM     54  C   UNL     1     -13.668  -3.691 -15.006  1.00  0.00     0.031 A 
BRANCH  41  55
ATOM     55  C   UNL     1      -9.941   1.192 -15.668  1.00  0.00    -0.014 A 
ATOM     56  C   UNL     1      -8.946   1.333 -16.650  1.00  0.00     0.009 A 
ATOM     57  C   UNL     1     -10.705   2.311 -15.309  1.00  0.00     0.009 A 
ATOM     58  C   UNL     1      -8.698   2.576 -17.233  1.00  0.00     0.001 A 
ATOM     59  C   UNL     1     -10.474   3.548 -15.915  1.00  0.00     0.001 A 
ATOM     60  C   UNL     1      -9.465   3.682 -16.868  1.00  0.00     0.000 A 
ENDBRANCH  41  55
BRANCH  42  61
ATOM     61  C   UNL     1     -11.315  -7.503 -10.944  1.00  0.00    -0.014 A 
ATOM     62  C   UNL     1     -11.253  -8.720 -11.640  1.00  0.00     0.009 A 
ATOM     63  C   UNL     1     -11.616  -7.520  -9.573  1.00  0.00     0.009 A 
ATOM     64  C   UNL     1     -11.523  -9.925 -10.987  1.00  0.00     0.001 A 
ATOM     65  C   UNL     1     -11.858  -8.729  -8.917  1.00  0.00     0.001 A 
ATOM     66  C   UNL     1     -11.822  -9.929  -9.626  1.00  0.00     0.000 A 
ENDBRANCH  42  61
BRANCH  54  67
ATOM     67  C   UNL     1     -14.957  -3.996 -15.709  1.00  0.00    -0.014 A 
ATOM     68  C   UNL     1     -16.185  -3.924 -15.033  1.00  0.00     0.009 A 
ATOM     69  C   UNL     1     -14.944  -4.339 -17.069  1.00  0.00     0.009 A 
ATOM     70  C   UNL     1     -17.374  -4.228 -15.699  1.00  0.00     0.001 A 
ATOM     71  C   UNL     1     -16.136  -4.616 -17.739  1.00  0.00     0.001 A 
ATOM     72  C   UNL     1     -17.348  -4.570 -17.051  1.00  0.00     0.000 A 
ENDBRANCH  54  67
ENDBRANCH  28  29
ENDBRANCH  20  23
ENDBRANCH  18  19
ENDBRANCH  17  18
ENDBRANCH   1  17
TORSDOF 14
