REMARK SMILES CC(=O)C1=C(c2ccccc2)NC(=S)N[C@@H]1c1cc(Cl)ccc1OCC(=O)NCCCCNC(=O)c1ccc(-c2c3nc(c(-c4ccccc4)c4ccc([nH]4)c(-c4ccccc4)c4nc(c(-c5ccccc5)c5ccc2[nH]5)C=C4)C=C3)cc1
REMARK SMILES IDX 29 1 28 2 26 3 27 4 25 6 24 7 23 8 17 9 18 10 19 11 22 12
REMARK SMILES IDX 20 13 21 14 16 15 4 16 5 17 12 18 15 19 13 20 14 23 2 24
REMARK SMILES IDX 1 25 3 26 6 27 7 28 11 29 8 30 10 31 9 32 30 33 31 34 32 35
REMARK SMILES IDX 33 36 34 37 35 39 36 40 37 41 83 42 38 43 82 44 39 45 40 46
REMARK SMILES IDX 41 47 76 48 42 49 81 50 75 51 77 52 43 53 80 54 74 55 73 56
REMARK SMILES IDX 44 58 66 59 51 60 65 61 52 62 55 63 64 64 78 65 53 66 54 67
REMARK SMILES IDX 63 69 79 70 56 71 45 72 46 73 50 74 47 75 49 76 48 77 67 78
REMARK SMILES IDX 68 79 72 80 69 81 71 82 70 83 57 84 58 85 62 86 59 87 61 88
REMARK SMILES IDX 60 89
REMARK H PARENT 28 5 12 21 15 22 33 38 77 57 55 68
REMARK Flexibility Score: inf
ROOT
ATOM      1  C   UNL     1       5.801  -3.647   5.069  1.00  0.00     0.116 C 
ENDROOT
BRANCH   1   2
ATOM      2  N   UNL     1       4.551  -4.047   4.449  1.00  0.00    -0.353 N 
ATOM      3  C   UNL     1       4.159  -3.858   3.150  1.00  0.00     0.257 C 
ATOM      4  O   UNL     1       3.257  -4.560   2.688  1.00  0.00    -0.271 OA
ATOM      5  H   UNL     1       3.908  -4.511   5.033  1.00  0.00     0.163 HD
BRANCH   3   6
ATOM      6  C   UNL     1       4.816  -2.772   2.295  1.00  0.00     0.329 C 
BRANCH   6   7
ATOM      7  O   UNL     1       5.218  -1.597   2.957  1.00  0.00    -0.483 OA
BRANCH   7   8
ATOM      8  C   UNL     1       4.456  -0.484   3.157  1.00  0.00     0.125 A 
ATOM      9  C   UNL     1       3.057  -0.300   3.229  1.00  0.00     0.023 A 
ATOM     10  C   UNL     1       2.599   0.974   3.665  1.00  0.00     0.030 A 
ATOM     11  C   UNL     1       3.468   2.029   3.946  1.00  0.00     0.041 A 
ATOM     12  C   UNL     1       5.313   0.598   3.457  1.00  0.00     0.048 A 
ATOM     13  Cl  UNL     1       2.845   3.545   4.462  1.00  0.00    -0.084 Cl
ATOM     14  C   UNL     1       4.832   1.847   3.837  1.00  0.00     0.024 A 
BRANCH   9  15
ATOM     15  C   UNL     1       2.014  -1.401   3.040  1.00  0.00     0.152 C 
ATOM     16  C   UNL     1       0.592  -1.006   2.678  1.00  0.00     0.046 C 
ATOM     17  C   UNL     1      -0.469  -1.615   3.248  1.00  0.00     0.057 C 
ATOM     18  N   UNL     1      -0.244  -2.634   4.148  1.00  0.00    -0.332 N 
ATOM     19  N   UNL     1       2.010  -2.191   4.264  1.00  0.00    -0.351 N 
ATOM     20  C   UNL     1       0.960  -2.931   4.689  1.00  0.00     0.171 C 
ATOM     21  H   UNL     1      -1.015  -3.185   4.416  1.00  0.00     0.169 HD
ATOM     22  H   UNL     1       2.824  -2.187   4.818  1.00  0.00     0.163 HD
ATOM     23  S   UNL     1       1.117  -4.075   5.883  1.00  0.00    -0.041 S 
BRANCH  16  24
ATOM     24  C   UNL     1       0.392   0.050   1.645  1.00  0.00     0.160 C 
ATOM     25  C   UNL     1       0.998  -0.177   0.285  1.00  0.00     0.093 C 
ATOM     26  O   UNL     1      -0.226   1.079   1.907  1.00  0.00    -0.295 OA
ENDBRANCH  16  24
BRANCH  17  27
ATOM     27  C   UNL     1      -1.895  -1.270   3.083  1.00  0.00    -0.002 A 
ATOM     28  C   UNL     1      -2.606  -0.907   4.242  1.00  0.00     0.010 A 
ATOM     29  C   UNL     1      -2.580  -1.349   1.868  1.00  0.00     0.010 A 
ATOM     30  C   UNL     1      -3.972  -0.640   4.195  1.00  0.00     0.001 A 
ATOM     31  C   UNL     1      -3.950  -1.068   1.819  1.00  0.00     0.001 A 
ATOM     32  C   UNL     1      -4.645  -0.721   2.980  1.00  0.00     0.000 A 
ENDBRANCH  17  27
ENDBRANCH   9  15
ENDBRANCH   7   8
ENDBRANCH   6   7
ENDBRANCH   3   6
ENDBRANCH   1   2
BRANCH   1  33
ATOM     33  C   UNL     1       5.672  -2.547   6.123  1.00  0.00     0.023 C 
BRANCH  33  34
ATOM     34  C   UNL     1       4.852  -2.873   7.372  1.00  0.00     0.023 C 
BRANCH  34  35
ATOM     35  C   UNL     1       5.136  -4.208   8.052  1.00  0.00     0.116 C 
BRANCH  35  36
ATOM     36  N   UNL     1       6.532  -4.383   8.422  1.00  0.00    -0.352 N 
ATOM     37  C   UNL     1       7.090  -4.828   9.594  1.00  0.00     0.251 C 
ATOM     38  H   UNL     1       7.179  -4.143   7.720  1.00  0.00     0.163 HD
ATOM     39  O   UNL     1       8.314  -4.814   9.721  1.00  0.00    -0.269 OA
BRANCH  37  40
ATOM     40  C   UNL     1       6.245  -5.289  10.720  1.00  0.00     0.039 A 
ATOM     41  C   UNL     1       6.606  -4.915  12.019  1.00  0.00     0.014 A 
ATOM     42  C   UNL     1       5.122  -6.095  10.519  1.00  0.00     0.014 A 
ATOM     43  C   UNL     1       5.807  -5.289  13.103  1.00  0.00     0.010 A 
ATOM     44  C   UNL     1       4.284  -6.402  11.591  1.00  0.00     0.010 A 
ATOM     45  C   UNL     1       4.617  -6.004  12.895  1.00  0.00    -0.014 A 
BRANCH  45  46
ATOM     46  C   UNL     1       3.711  -6.335  14.028  1.00  0.00     0.031 A 
ATOM     47  C   UNL     1       3.445  -7.768  14.401  1.00  0.00     0.074 A 
ATOM     48  C   UNL     1       3.086  -5.343  14.693  1.00  0.00     0.049 A 
ATOM     49  N   UNL     1       2.656  -8.247  15.331  1.00  0.00    -0.248 NA
ATOM     50  C   UNL     1       4.139  -8.800  13.614  1.00  0.00     0.031 C 
ATOM     51  C   UNL     1       3.226  -3.913  14.414  1.00  0.00     0.029 A 
ATOM     52  N   UNL     1       2.200  -5.389  15.742  1.00  0.00    -0.354 N 
ATOM     53  C   UNL     1       2.750  -9.630  15.232  1.00  0.00     0.074 A 
ATOM     54  C   UNL     1       3.629  -9.914  14.118  1.00  0.00     0.031 C 
ATOM     55  C   UNL     1       2.480  -3.218  15.287  1.00  0.00     0.029 A 
ATOM     56  C   UNL     1       1.773  -4.151  16.158  1.00  0.00     0.049 A 
ATOM     57  H   UNL     1       1.900  -6.230  16.157  1.00  0.00     0.167 HD
ATOM     58  C   UNL     1       2.176 -10.580  16.008  1.00  0.00     0.031 A 
ATOM     59  C   UNL     1       0.903  -3.804  17.126  1.00  0.00     0.031 A 
ATOM     60  C   UNL     1       1.299 -10.302  17.115  1.00  0.00     0.049 A 
ATOM     61  C   UNL     1       0.252  -4.879  17.952  1.00  0.00     0.074 A 
ATOM     62  C   UNL     1       0.701 -11.196  17.988  1.00  0.00     0.029 A 
ATOM     63  N   UNL     1       0.888  -9.035  17.500  1.00  0.00    -0.354 N 
ATOM     64  N   UNL     1       0.406  -6.179  17.888  1.00  0.00    -0.248 NA
ATOM     65  C   UNL     1      -0.683  -4.434  18.995  1.00  0.00     0.031 C 
ATOM     66  C   UNL     1      -0.116 -10.474  18.863  1.00  0.00     0.029 A 
ATOM     67  C   UNL     1       0.026  -9.126  18.580  1.00  0.00     0.049 A 
ATOM     68  H   UNL     1       1.168  -8.195  17.068  1.00  0.00     0.167 HD
ATOM     69  C   UNL     1      -0.385  -6.705  18.902  1.00  0.00     0.074 A 
ATOM     70  C   UNL     1      -1.002  -5.582  19.577  1.00  0.00     0.031 C 
ATOM     71  C   UNL     1      -0.581  -8.001  19.245  1.00  0.00     0.031 A 
BRANCH  58  72
ATOM     72  C   UNL     1       2.474 -12.018  15.678  1.00  0.00    -0.014 A 
ATOM     73  C   UNL     1       3.754 -12.560  15.877  1.00  0.00     0.009 A 
ATOM     74  C   UNL     1       1.454 -12.852  15.195  1.00  0.00     0.009 A 
ATOM     75  C   UNL     1       4.016 -13.896  15.561  1.00  0.00     0.001 A 
ATOM     76  C   UNL     1       1.709 -14.195  14.911  1.00  0.00     0.001 A 
ATOM     77  C   UNL     1       2.992 -14.713  15.084  1.00  0.00     0.000 A 
ENDBRANCH  58  72
BRANCH  59  78
ATOM     78  C   UNL     1       0.599  -2.370  17.380  1.00  0.00    -0.014 A 
ATOM     79  C   UNL     1       1.014  -1.753  18.571  1.00  0.00     0.009 A 
ATOM     80  C   UNL     1      -0.128  -1.616  16.445  1.00  0.00     0.009 A 
ATOM     81  C   UNL     1       0.678  -0.423  18.835  1.00  0.00     0.001 A 
ATOM     82  C   UNL     1      -0.433  -0.277  16.697  1.00  0.00     0.001 A 
ATOM     83  C   UNL     1      -0.042   0.315  17.896  1.00  0.00     0.000 A 
ENDBRANCH  59  78
BRANCH  71  84
ATOM     84  C   UNL     1      -1.462  -8.274  20.434  1.00  0.00    -0.014 A 
ATOM     85  C   UNL     1      -2.848  -8.059  20.387  1.00  0.00     0.009 A 
ATOM     86  C   UNL     1      -0.894  -8.783  21.613  1.00  0.00     0.009 A 
ATOM     87  C   UNL     1      -3.640  -8.309  21.510  1.00  0.00     0.001 A 
ATOM     88  C   UNL     1      -1.693  -9.064  22.722  1.00  0.00     0.001 A 
ATOM     89  C   UNL     1      -3.063  -8.816  22.674  1.00  0.00     0.000 A 
ENDBRANCH  71  84
ENDBRANCH  45  46
ENDBRANCH  37  40
ENDBRANCH  35  36
ENDBRANCH  34  35
ENDBRANCH  33  34
ENDBRANCH   1  33
TORSDOF 16
