REMARK SMILES C[NH2+][C@@]1(C(=O)NCCCCNC(=O)c2ccc(-c3c4nc(c(-c5ccccc5)c5ccc([nH]5)c(-c5ccccc5)c5nc(c(-c6ccccc6)c6ccc3[nH]6)C=C5)C=C4)cc2)CC[C@H](Sc2ccc(C)c(C)c2)C1
REMARK SMILES IDX 8 1 7 2 6 3 4 4 5 5 3 7 62 8 74 9 63 10 64 11 2 12 1 13
REMARK SMILES IDX 65 16 66 17 67 18 73 19 68 20 71 21 69 22 72 23 70 24 9 25
REMARK SMILES IDX 10 26 11 27 12 28 13 30 14 31 15 32 61 33 16 34 60 35 17 36
REMARK SMILES IDX 18 37 19 38 54 39 20 40 59 41 53 42 55 43 21 44 58 45 52 46
REMARK SMILES IDX 51 47 22 49 44 50 29 51 43 52 30 53 33 54 42 55 56 56 31 57
REMARK SMILES IDX 32 58 41 60 57 61 34 62 23 63 24 64 28 65 25 66 27 67 26 68
REMARK SMILES IDX 45 69 46 70 50 71 47 72 49 73 48 74 35 75 36 76 40 77 37 78
REMARK SMILES IDX 39 79 38 80
REMARK H PARENT 6 6 2 14 2 15 11 29 55 48 33 59
REMARK Flexibility Score: inf
ROOT
ATOM      1  C   UNL     1      -4.567  -0.321   2.485  1.00  0.00     0.023 C 
ENDROOT
BRANCH   1   2
ATOM      2  C   UNL     1      -3.826   0.923   2.029  1.00  0.00     0.116 C 
BRANCH   2   3
ATOM      3  N   UNL     1      -2.479   1.020   2.527  1.00  0.00    -0.351 N 
ATOM      4  C   UNL     1      -1.304   1.166   1.857  1.00  0.00     0.281 C 
ATOM      5  O   UNL     1      -0.309   1.367   2.570  1.00  0.00    -0.268 OA
ATOM      6  H   UNL     1      -2.395   0.973   3.507  1.00  0.00     0.163 HD
BRANCH   4   7
ATOM      7  C   UNL     1      -1.169   1.139   0.273  1.00  0.00     0.176 C 
ATOM      8  C   UNL     1      -1.808   2.395  -0.364  1.00  0.00     0.080 C 
ATOM      9  C   UNL     1      -1.860  -0.059  -0.407  1.00  0.00     0.094 C 
ATOM     10  C   UNL     1      -3.088   1.962  -1.080  1.00  0.00     0.022 C 
ATOM     11  C   UNL     1      -2.868   0.496  -1.435  1.00  0.00     0.058 C 
BRANCH   7  12
ATOM     12  N   UNL     1       0.296   1.239  -0.033  1.00  0.00    -0.336 N 
ATOM     13  C   UNL     1       1.042  -0.008   0.118  1.00  0.00     0.331 C 
ATOM     14  H   UNL     1       0.397   1.554  -0.998  1.00  0.00     0.346 HD
ATOM     15  H   UNL     1       0.687   1.891   0.647  1.00  0.00     0.346 HD
ENDBRANCH   7  12
BRANCH  11  16
ATOM     16  S   UNL     1      -4.254  -0.721  -1.589  1.00  0.00    -0.122 SA
BRANCH  16  17
ATOM     17  C   UNL     1      -5.809   0.101  -1.300  1.00  0.00     0.008 A 
ATOM     18  C   UNL     1      -6.174   1.298  -1.902  1.00  0.00     0.015 A 
ATOM     19  C   UNL     1      -6.785  -0.594  -0.561  1.00  0.00     0.018 A 
ATOM     20  C   UNL     1      -7.477   1.792  -1.762  1.00  0.00     0.005 A 
ATOM     21  C   UNL     1      -8.096  -0.105  -0.393  1.00  0.00    -0.047 A 
ATOM     22  C   UNL     1      -8.454   1.094  -1.030  1.00  0.00    -0.048 A 
ATOM     23  C   UNL     1      -9.078  -0.920   0.409  1.00  0.00     0.044 C 
ATOM     24  C   UNL     1      -9.855   1.649  -1.026  1.00  0.00     0.044 C 
ENDBRANCH  16  17
ENDBRANCH  11  16
ENDBRANCH   4   7
ENDBRANCH   2   3
ENDBRANCH   1   2
BRANCH   1  25
ATOM     25  C   UNL     1      -5.338  -0.186   3.785  1.00  0.00     0.023 C 
BRANCH  25  26
ATOM     26  C   UNL     1      -6.180   1.074   3.936  1.00  0.00     0.116 C 
BRANCH  26  27
ATOM     27  N   UNL     1      -7.081   1.376   2.828  1.00  0.00    -0.352 N 
ATOM     28  C   UNL     1      -8.380   1.834   2.901  1.00  0.00     0.251 C 
ATOM     29  H   UNL     1      -6.719   1.236   1.923  1.00  0.00     0.163 HD
ATOM     30  O   UNL     1      -9.012   2.196   1.924  1.00  0.00    -0.269 OA
BRANCH  28  31
ATOM     31  C   UNL     1      -9.034   1.835   4.214  1.00  0.00     0.039 A 
ATOM     32  C   UNL     1     -10.122   0.984   4.421  1.00  0.00     0.014 A 
ATOM     33  C   UNL     1      -8.483   2.585   5.251  1.00  0.00     0.014 A 
ATOM     34  C   UNL     1     -10.621   0.825   5.711  1.00  0.00     0.010 A 
ATOM     35  C   UNL     1      -8.919   2.352   6.543  1.00  0.00     0.010 A 
ATOM     36  C   UNL     1      -9.994   1.477   6.783  1.00  0.00    -0.014 A 
BRANCH  36  37
ATOM     37  C   UNL     1     -10.460   1.317   8.177  1.00  0.00     0.031 A 
ATOM     38  C   UNL     1     -10.957   2.530   8.909  1.00  0.00     0.074 A 
ATOM     39  C   UNL     1     -10.331   0.135   8.806  1.00  0.00     0.049 A 
ATOM     40  N   UNL     1     -11.214   2.682  10.181  1.00  0.00    -0.248 NA
ATOM     41  C   UNL     1     -11.138   3.752   8.105  1.00  0.00     0.031 C 
ATOM     42  C   UNL     1      -9.833  -1.105   8.204  1.00  0.00     0.029 A 
ATOM     43  N   UNL     1     -10.588  -0.209  10.109  1.00  0.00    -0.354 N 
ATOM     44  C   UNL     1     -11.534   4.024  10.335  1.00  0.00     0.074 A 
ATOM     45  C   UNL     1     -11.396   4.652   9.040  1.00  0.00     0.031 C 
ATOM     46  C   UNL     1      -9.835  -2.076   9.133  1.00  0.00     0.029 A 
ATOM     47  C   UNL     1     -10.287  -1.516  10.403  1.00  0.00     0.049 A 
ATOM     48  H   UNL     1     -10.954   0.422  10.770  1.00  0.00     0.167 HD
ATOM     49  C   UNL     1     -11.924   4.673  11.456  1.00  0.00     0.031 A 
ATOM     50  C   UNL     1     -10.353  -2.179  11.572  1.00  0.00     0.031 A 
ATOM     51  C   UNL     1     -12.099   4.030  12.728  1.00  0.00     0.049 A 
ATOM     52  C   UNL     1     -10.818  -1.444  12.799  1.00  0.00     0.074 A 
ATOM     53  C   UNL     1     -12.559   4.574  13.913  1.00  0.00     0.029 A 
ATOM     54  N   UNL     1     -11.832   2.692  12.973  1.00  0.00    -0.354 N 
ATOM     55  N   UNL     1     -11.159  -0.184  12.926  1.00  0.00    -0.248 NA
ATOM     56  C   UNL     1     -10.914  -2.224  14.040  1.00  0.00     0.031 C 
ATOM     57  C   UNL     1     -12.534   3.570  14.887  1.00  0.00     0.029 A 
ATOM     58  C   UNL     1     -12.107   2.392  14.294  1.00  0.00     0.049 A 
ATOM     59  H   UNL     1     -11.498   2.050  12.305  1.00  0.00     0.167 HD
ATOM     60  C   UNL     1     -11.536  -0.025  14.253  1.00  0.00     0.074 A 
ATOM     61  C   UNL     1     -11.394  -1.322  14.885  1.00  0.00     0.031 C 
ATOM     62  C   UNL     1     -11.960   1.091  14.893  1.00  0.00     0.031 A 
BRANCH  49  63
ATOM     63  C   UNL     1     -12.175   6.151  11.345  1.00  0.00    -0.014 A 
ATOM     64  C   UNL     1     -13.266   6.655  10.619  1.00  0.00     0.009 A 
ATOM     65  C   UNL     1     -11.309   7.052  11.982  1.00  0.00     0.009 A 
ATOM     66  C   UNL     1     -13.459   8.032  10.497  1.00  0.00     0.001 A 
ATOM     67  C   UNL     1     -11.523   8.428  11.885  1.00  0.00     0.001 A 
ATOM     68  C   UNL     1     -12.590   8.917  11.134  1.00  0.00     0.000 A 
ENDBRANCH  49  63
BRANCH  50  69
ATOM     69  C   UNL     1      -9.984  -3.618  11.637  1.00  0.00    -0.014 A 
ATOM     70  C   UNL     1     -10.975  -4.596  11.812  1.00  0.00     0.009 A 
ATOM     71  C   UNL     1      -8.645  -4.022  11.523  1.00  0.00     0.009 A 
ATOM     72  C   UNL     1     -10.630  -5.947  11.895  1.00  0.00     0.001 A 
ATOM     73  C   UNL     1      -8.306  -5.377  11.579  1.00  0.00     0.001 A 
ATOM     74  C   UNL     1      -9.298  -6.337  11.774  1.00  0.00     0.000 A 
ENDBRANCH  50  69
BRANCH  62  75
ATOM     75  C   UNL     1     -12.339   0.948  16.339  1.00  0.00    -0.014 A 
ATOM     76  C   UNL     1     -11.363   0.795  17.335  1.00  0.00     0.009 A 
ATOM     77  C   UNL     1     -13.691   1.020  16.710  1.00  0.00     0.009 A 
ATOM     78  C   UNL     1     -11.739   0.688  18.675  1.00  0.00     0.001 A 
ATOM     79  C   UNL     1     -14.060   0.941  18.052  1.00  0.00     0.001 A 
ATOM     80  C   UNL     1     -13.085   0.767  19.033  1.00  0.00     0.000 A 
ENDBRANCH  62  75
ENDBRANCH  36  37
ENDBRANCH  28  31
ENDBRANCH  26  27
ENDBRANCH  25  26
ENDBRANCH   1  25
TORSDOF 14
