REMARK SMILES C=CCN(CC(=O)NCCCCNC(=O)c1ccc(-c2c3nc(c(-c4ccccc4)c4ccc([nH]4)c(-c4ccccc4)c4nc(c(-c5ccccc5)c5ccc2[nH]5)C=C4)C=C3)cc1)c1ccc([N+](=O)[O-])cc1Br
REMARK SMILES IDX 10 1 9 2 8 3 6 4 7 5 5 7 4 8 3 9 2 10 1 11 64 12 65 13 72 14
REMARK SMILES IDX 66 15 71 16 73 17 67 18 68 19 69 20 70 21 11 22 12 23 13 24
REMARK SMILES IDX 14 25 15 27 16 28 17 29 63 30 18 31 62 32 19 33 20 34 21 35
REMARK SMILES IDX 56 36 22 37 61 38 55 39 57 40 23 41 60 42 54 43 53 44 24 46
REMARK SMILES IDX 46 47 31 48 45 49 32 50 35 51 44 52 58 53 33 54 34 55 43 57
REMARK SMILES IDX 59 58 36 59 25 60 26 61 30 62 27 63 29 64 28 65 47 66 48 67
REMARK SMILES IDX 52 68 49 69 51 70 50 71 37 72 38 73 42 74 39 75 41 76 40 77
REMARK H PARENT 8 6 13 26 57 45 35 56
REMARK Flexibility Score: inf
ROOT
ATOM      1  C   UNL     1      -4.153  -0.088  -0.519  1.00  0.00     0.023 C 
ENDROOT
BRANCH   1   2
ATOM      2  C   UNL     1      -4.419  -0.509   0.928  1.00  0.00     0.116 C 
BRANCH   2   3
ATOM      3  N   UNL     1      -4.571  -1.940   1.071  1.00  0.00    -0.355 N 
ATOM      4  C   UNL     1      -3.667  -2.896   1.443  1.00  0.00     0.239 C 
ATOM      5  O   UNL     1      -4.085  -4.058   1.495  1.00  0.00    -0.273 OA
ATOM      6  H   UNL     1      -5.472  -2.281   0.868  1.00  0.00     0.163 HD
BRANCH   4   7
ATOM      7  C   UNL     1      -2.212  -2.560   1.817  1.00  0.00     0.216 C 
BRANCH   7   8
ATOM      8  N   UNL     1      -1.336  -2.090   0.721  1.00  0.00    -0.358 N 
BRANCH   8   9
ATOM      9  C   UNL     1      -1.036  -0.660   0.625  1.00  0.00     0.144 C 
BRANCH   9  10
ATOM     10  C   UNL     1       0.399  -0.341   0.884  1.00  0.00    -0.014 C 
ATOM     11  C   UNL     1       1.162   0.384   0.054  1.00  0.00     0.006 C 
ENDBRANCH   9  10
ENDBRANCH   8   9
BRANCH   8  12
ATOM     12  C   UNL     1      -1.098  -2.908  -0.384  1.00  0.00     0.052 A 
ATOM     13  C   UNL     1      -2.155  -3.226  -1.261  1.00  0.00     0.034 A 
ATOM     14  C   UNL     1       0.172  -3.427  -0.721  1.00  0.00     0.048 A 
ATOM     15  C   UNL     1      -1.966  -3.958  -2.437  1.00  0.00     0.088 A 
ATOM     16  C   UNL     1       0.390  -4.122  -1.922  1.00  0.00     0.103 A 
ATOM     17  Br  UNL     1       1.660  -3.370   0.466  1.00  0.00    -0.048 Br
ATOM     18  C   UNL     1      -0.683  -4.376  -2.777  1.00  0.00     0.270 A 
BRANCH  18  19
ATOM     19  N   UNL     1      -0.465  -5.095  -4.034  1.00  0.00     0.062 N 
ATOM     20  O   UNL     1      -1.460  -5.548  -4.618  1.00  0.00    -0.258 OA
ATOM     21  O   UNL     1       0.700  -5.194  -4.444  1.00  0.00    -0.258 OA
ENDBRANCH  18  19
ENDBRANCH   8  12
ENDBRANCH   7   8
ENDBRANCH   4   7
ENDBRANCH   2   3
ENDBRANCH   1   2
BRANCH   1  22
ATOM     22  C   UNL     1      -5.333  -0.248  -1.477  1.00  0.00     0.023 C 
BRANCH  22  23
ATOM     23  C   UNL     1      -6.564   0.574  -1.125  1.00  0.00     0.116 C 
BRANCH  23  24
ATOM     24  N   UNL     1      -6.297   2.002  -1.041  1.00  0.00    -0.352 N 
ATOM     25  C   UNL     1      -7.097   3.051  -1.423  1.00  0.00     0.251 C 
ATOM     26  H   UNL     1      -5.425   2.249  -0.658  1.00  0.00     0.163 HD
ATOM     27  O   UNL     1      -6.671   4.201  -1.375  1.00  0.00    -0.269 OA
BRANCH  25  28
ATOM     28  C   UNL     1      -8.457   2.784  -1.933  1.00  0.00     0.039 A 
ATOM     29  C   UNL     1      -8.871   3.416  -3.109  1.00  0.00     0.014 A 
ATOM     30  C   UNL     1      -9.308   1.895  -1.272  1.00  0.00     0.014 A 
ATOM     31  C   UNL     1     -10.113   3.100  -3.661  1.00  0.00     0.010 A 
ATOM     32  C   UNL     1     -10.513   1.528  -1.861  1.00  0.00     0.010 A 
ATOM     33  C   UNL     1     -10.926   2.126  -3.062  1.00  0.00    -0.014 A 
BRANCH  33  34
ATOM     34  C   UNL     1     -12.212   1.710  -3.671  1.00  0.00     0.031 A 
ATOM     35  C   UNL     1     -13.506   1.968  -2.953  1.00  0.00     0.074 A 
ATOM     36  C   UNL     1     -12.210   1.033  -4.835  1.00  0.00     0.049 A 
ATOM     37  N   UNL     1     -14.721   1.614  -3.286  1.00  0.00    -0.248 NA
ATOM     38  C   UNL     1     -13.418   2.697  -1.677  1.00  0.00     0.031 C 
ATOM     39  C   UNL     1     -11.020   0.687  -5.615  1.00  0.00     0.029 A 
ATOM     40  N   UNL     1     -13.249   0.507  -5.561  1.00  0.00    -0.354 N 
ATOM     41  C   UNL     1     -15.537   2.057  -2.255  1.00  0.00     0.074 A 
ATOM     42  C   UNL     1     -14.676   2.662  -1.262  1.00  0.00     0.031 C 
ATOM     43  C   UNL     1     -11.399   0.033  -6.725  1.00  0.00     0.029 A 
ATOM     44  C   UNL     1     -12.850  -0.122  -6.715  1.00  0.00     0.049 A 
ATOM     45  H   UNL     1     -14.190   0.573  -5.282  1.00  0.00     0.167 HD
ATOM     46  C   UNL     1     -16.886   1.985  -2.149  1.00  0.00     0.031 A 
ATOM     47  C   UNL     1     -13.571  -0.755  -7.658  1.00  0.00     0.031 A 
ATOM     48  C   UNL     1     -17.745   1.393  -3.139  1.00  0.00     0.049 A 
ATOM     49  C   UNL     1     -15.064  -0.838  -7.512  1.00  0.00     0.074 A 
ATOM     50  C   UNL     1     -19.127   1.322  -3.151  1.00  0.00     0.029 A 
ATOM     51  N   UNL     1     -17.301   0.768  -4.293  1.00  0.00    -0.354 N 
ATOM     52  N   UNL     1     -15.828  -0.361  -6.560  1.00  0.00    -0.248 NA
ATOM     53  C   UNL     1     -15.793  -1.541  -8.578  1.00  0.00     0.031 C 
ATOM     54  C   UNL     1     -19.517   0.613  -4.292  1.00  0.00     0.029 A 
ATOM     55  C   UNL     1     -18.381   0.287  -5.015  1.00  0.00     0.049 A 
ATOM     56  H   UNL     1     -16.358   0.678  -4.561  1.00  0.00     0.167 HD
ATOM     57  C   UNL     1     -17.129  -0.682  -6.923  1.00  0.00     0.074 A 
ATOM     58  C   UNL     1     -17.051  -1.385  -8.188  1.00  0.00     0.031 C 
ATOM     59  C   UNL     1     -18.286  -0.413  -6.269  1.00  0.00     0.031 A 
BRANCH  46  60
ATOM     60  C   UNL     1     -17.505   2.556  -0.904  1.00  0.00    -0.014 A 
ATOM     61  C   UNL     1     -17.526   3.941  -0.671  1.00  0.00     0.009 A 
ATOM     62  C   UNL     1     -18.081   1.699   0.046  1.00  0.00     0.009 A 
ATOM     63  C   UNL     1     -18.068   4.452   0.510  1.00  0.00     0.001 A 
ATOM     64  C   UNL     1     -18.649   2.215   1.212  1.00  0.00     0.001 A 
ATOM     65  C   UNL     1     -18.631   3.589   1.449  1.00  0.00     0.000 A 
ENDBRANCH  46  60
BRANCH  47  66
ATOM     66  C   UNL     1     -12.891  -1.335  -8.844  1.00  0.00    -0.014 A 
ATOM     67  C   UNL     1     -13.008  -0.715 -10.097  1.00  0.00     0.009 A 
ATOM     68  C   UNL     1     -12.114  -2.497  -8.729  1.00  0.00     0.009 A 
ATOM     69  C   UNL     1     -12.374  -1.258 -11.217  1.00  0.00     0.001 A 
ATOM     70  C   UNL     1     -11.462  -3.025  -9.847  1.00  0.00     0.001 A 
ATOM     71  C   UNL     1     -11.598  -2.409 -11.090  1.00  0.00     0.000 A 
ENDBRANCH  47  66
BRANCH  59  72
ATOM     72  C   UNL     1     -19.562  -0.853  -6.927  1.00  0.00    -0.014 A 
ATOM     73  C   UNL     1     -19.940  -2.204  -6.955  1.00  0.00     0.009 A 
ATOM     74  C   UNL     1     -20.418   0.106  -7.490  1.00  0.00     0.009 A 
ATOM     75  C   UNL     1     -21.137  -2.588  -7.561  1.00  0.00     0.001 A 
ATOM     76  C   UNL     1     -21.627  -0.278  -8.072  1.00  0.00     0.001 A 
ATOM     77  C   UNL     1     -21.982  -1.625  -8.114  1.00  0.00     0.000 A 
ENDBRANCH  59  72
ENDBRANCH  33  34
ENDBRANCH  25  28
ENDBRANCH  23  24
ENDBRANCH  22  23
ENDBRANCH   1  22
TORSDOF 16
