REMARK SMILES COc1cccc([C@@H]2CC(c3cccc(C)c3)=NN2C(=O)CCC(=O)NCCCCNC(=O)c2ccc(-c3c4nc(c(-c5ccccc5)c5ccc([nH]5)c(-c5ccccc5)c5nc(c(-c6ccccc6)c6ccc3[nH]6)C=C5)C=C4)cc2)c1
REMARK SMILES IDX 27 1 26 2 24 3 25 4 23 6 22 7 20 8 21 9 19 10 8 11 9 12
REMARK SMILES IDX 10 13 18 14 7 15 3 16 4 17 82 18 5 19 6 20 2 21 1 22 11 23
REMARK SMILES IDX 12 24 17 25 13 26 15 27 14 28 16 29 28 30 29 31 30 32 31 33
REMARK SMILES IDX 32 34 33 36 34 37 35 38 81 39 36 40 80 41 37 42 38 43 39 44
REMARK SMILES IDX 74 45 40 46 79 47 73 48 75 49 41 50 78 51 72 52 71 53 42 55
REMARK SMILES IDX 64 56 49 57 63 58 50 59 53 60 62 61 76 62 51 63 52 64 61 66
REMARK SMILES IDX 77 67 54 68 43 69 44 70 48 71 45 72 47 73 46 74 65 75 66 76
REMARK SMILES IDX 70 77 67 78 69 79 68 80 55 81 56 82 60 83 57 84 59 85 58 86
REMARK H PARENT 26 5 31 35 75 54 53 65
REMARK Flexibility Score: inf
ROOT
ATOM      1  C   UNL     1       4.772  -0.400   3.053  1.00  0.00     0.116 C 
ENDROOT
BRANCH   1   2
ATOM      2  N   UNL     1       3.417   0.426   3.240  1.00  0.00    -0.356 N 
ATOM      3  C   UNL     1       2.946   1.294   4.170  1.00  0.00     0.220 C 
ATOM      4  O   UNL     1       1.773   1.654   4.032  1.00  0.00    -0.275 OA
ATOM      5  H   UNL     1       2.775   0.268   2.511  1.00  0.00     0.163 HD
BRANCH   3   6
ATOM      6  C   UNL     1       3.801   1.800   5.306  1.00  0.00     0.110 C 
BRANCH   6   7
ATOM      7  C   UNL     1       4.544   0.807   6.203  1.00  0.00     0.112 C 
BRANCH   7   8
ATOM      8  C   UNL     1       5.812   0.217   5.572  1.00  0.00     0.243 C 
ATOM      9  O   UNL     1       6.886   0.808   5.642  1.00  0.00    -0.273 OA
BRANCH   8  10
ATOM     10  N   UNL     1       5.571  -0.930   4.776  1.00  0.00    -0.225 N 
ATOM     11  C   UNL     1       3.825  -1.544   4.525  1.00  0.00     0.147 C 
ATOM     12  C   UNL     1       3.797  -1.869   2.500  1.00  0.00     0.091 C 
ATOM     13  C   UNL     1       5.877  -1.684   2.042  1.00  0.00     0.071 C 
ATOM     14  N   UNL     1       6.632  -1.129   3.291  1.00  0.00    -0.174 NA
BRANCH  11  15
ATOM     15  C   UNL     1       3.684  -2.538   5.793  1.00  0.00    -0.019 A 
ATOM     16  C   UNL     1       2.393  -3.435   7.649  1.00  0.00     0.119 A 
ATOM     17  C   UNL     1       3.562  -3.877   8.279  1.00  0.00     0.046 A 
ATOM     18  C   UNL     1       2.445  -2.784   6.401  1.00  0.00     0.052 A 
ATOM     19  C   UNL     1       4.793  -3.683   7.682  1.00  0.00     0.004 A 
ATOM     20  C   UNL     1       4.849  -3.018   6.464  1.00  0.00     0.006 A 
BRANCH  16  21
ATOM     21  O   UNL     1       1.272  -3.669   8.399  1.00  0.00    -0.497 OA
ATOM     22  C   UNL     1       0.030  -3.282   7.840  1.00  0.00     0.278 C 
ENDBRANCH  16  21
ENDBRANCH  11  15
BRANCH  13  23
ATOM     23  C   UNL     1       6.982  -2.579   1.020  1.00  0.00    -0.002 A 
ATOM     24  C   UNL     1       8.319  -2.556   1.357  1.00  0.00     0.010 A 
ATOM     25  C   UNL     1       6.705  -3.539  -0.072  1.00  0.00     0.013 A 
ATOM     26  C   UNL     1       9.184  -3.429   0.679  1.00  0.00     0.001 A 
ATOM     27  C   UNL     1       7.496  -3.943  -1.245  1.00  0.00    -0.050 A 
ATOM     28  C   UNL     1       8.795  -4.119  -0.528  1.00  0.00     0.003 A 
ATOM     29  C   UNL     1       7.061  -3.522  -3.298  1.00  0.00     0.044 C 
ENDBRANCH  13  23
ENDBRANCH   8  10
ENDBRANCH   7   8
ENDBRANCH   6   7
ENDBRANCH   3   6
ENDBRANCH   1   2
BRANCH   1  30
ATOM     30  C   UNL     1       5.161  -2.554   3.470  1.00  0.00     0.023 C 
BRANCH  30  31
ATOM     31  C   UNL     1       4.821  -3.720   1.986  1.00  0.00     0.023 C 
BRANCH  31  32
ATOM     32  C   UNL     1       4.159  -3.024   0.426  1.00  0.00     0.116 C 
BRANCH  32  33
ATOM     33  N   UNL     1       4.691  -1.620  -0.243  1.00  0.00    -0.352 N 
ATOM     34  C   UNL     1       5.739  -1.139  -1.111  1.00  0.00     0.251 C 
ATOM     35  H   UNL     1       4.113  -0.873   0.035  1.00  0.00     0.163 HD
ATOM     36  O   UNL     1       5.992   0.057  -1.189  1.00  0.00    -0.269 OA
BRANCH  34  37
ATOM     37  C   UNL     1       6.515  -2.116  -1.925  1.00  0.00     0.039 A 
ATOM     38  C   UNL     1       8.325  -2.319  -2.306  1.00  0.00     0.014 A 
ATOM     39  C   UNL     1       5.410  -3.531  -2.094  1.00  0.00     0.014 A 
ATOM     40  C   UNL     1       8.949  -4.000  -2.849  1.00  0.00     0.010 A 
ATOM     41  C   UNL     1       6.038  -5.155  -2.441  1.00  0.00     0.010 A 
ATOM     42  C   UNL     1       7.760  -5.424  -2.875  1.00  0.00    -0.014 A 
BRANCH  42  43
ATOM     43  C   UNL     1       7.724  -6.787  -3.579  1.00  0.00     0.031 A 
ATOM     44  C   UNL     1       6.915  -6.948  -4.899  1.00  0.00     0.074 A 
ATOM     45  C   UNL     1       7.773  -7.899  -2.804  1.00  0.00     0.049 A 
ATOM     46  N   UNL     1       6.333  -8.014  -5.419  1.00  0.00    -0.248 NA
ATOM     47  C   UNL     1       6.643  -5.735  -5.682  1.00  0.00     0.031 C 
ATOM     48  C   UNL     1       8.228  -7.948  -1.415  1.00  0.00     0.029 A 
ATOM     49  N   UNL     1       7.340  -9.193  -3.049  1.00  0.00    -0.354 N 
ATOM     50  C   UNL     1       5.637  -7.574  -6.552  1.00  0.00     0.074 A 
ATOM     51  C   UNL     1       5.764  -6.143  -6.581  1.00  0.00     0.031 C 
ATOM     52  C   UNL     1       8.060  -9.195  -0.936  1.00  0.00     0.029 A 
ATOM     53  C   UNL     1       7.459 -10.041  -1.968  1.00  0.00     0.049 A 
ATOM     54  H   UNL     1       6.980  -9.481  -3.918  1.00  0.00     0.167 HD
ATOM     55  C   UNL     1       4.991  -8.256  -7.534  1.00  0.00     0.031 A 
ATOM     56  C   UNL     1       7.131 -11.344  -1.810  1.00  0.00     0.031 A 
ATOM     57  C   UNL     1       4.819  -9.678  -7.564  1.00  0.00     0.049 A 
ATOM     58  C   UNL     1       6.490 -12.131  -2.930  1.00  0.00     0.074 A 
ATOM     59  C   UNL     1       4.287 -10.469  -8.569  1.00  0.00     0.029 A 
ATOM     60  N   UNL     1       5.165 -10.521  -6.528  1.00  0.00    -0.354 N 
ATOM     61  N   UNL     1       6.055 -11.715  -4.093  1.00  0.00    -0.248 NA
ATOM     62  C   UNL     1       6.318 -13.582  -2.720  1.00  0.00     0.031 C 
ATOM     63  C   UNL     1       4.276 -11.793  -8.123  1.00  0.00     0.029 A 
ATOM     64  C   UNL     1       4.850 -11.823  -6.864  1.00  0.00     0.049 A 
ATOM     65  H   UNL     1       5.573 -10.237  -5.678  1.00  0.00     0.167 HD
ATOM     66  C   UNL     1       5.620 -12.854  -4.767  1.00  0.00     0.074 A 
ATOM     67  C   UNL     1       5.831 -13.979  -3.887  1.00  0.00     0.031 C 
ATOM     68  C   UNL     1       5.099 -12.952  -6.014  1.00  0.00     0.031 A 
BRANCH  55  69
ATOM     69  C   UNL     1       4.483  -7.472  -8.724  1.00  0.00    -0.014 A 
ATOM     70  C   UNL     1       5.392  -6.876  -9.617  1.00  0.00     0.009 A 
ATOM     71  C   UNL     1       3.110  -7.381  -9.003  1.00  0.00     0.009 A 
ATOM     72  C   UNL     1       4.939  -6.171 -10.734  1.00  0.00     0.001 A 
ATOM     73  C   UNL     1       2.661  -6.702 -10.140  1.00  0.00     0.001 A 
ATOM     74  C   UNL     1       3.574  -6.089 -10.998  1.00  0.00     0.000 A 
ENDBRANCH  55  69
BRANCH  56  75
ATOM     75  C   UNL     1       7.488 -12.058  -0.549  1.00  0.00    -0.014 A 
ATOM     76  C   UNL     1       8.568 -12.959  -0.548  1.00  0.00     0.009 A 
ATOM     77  C   UNL     1       6.747 -11.892   0.629  1.00  0.00     0.009 A 
ATOM     78  C   UNL     1       8.876 -13.703   0.592  1.00  0.00     0.001 A 
ATOM     79  C   UNL     1       7.077 -12.618   1.779  1.00  0.00     0.001 A 
ATOM     80  C   UNL     1       8.133 -13.529   1.757  1.00  0.00     0.000 A 
ENDBRANCH  56  75
BRANCH  68  81
ATOM     81  C   UNL     1       4.799 -14.315  -6.567  1.00  0.00    -0.014 A 
ATOM     82  C   UNL     1       3.680 -15.050  -6.152  1.00  0.00     0.009 A 
ATOM     83  C   UNL     1       5.605 -14.825  -7.598  1.00  0.00     0.009 A 
ATOM     84  C   UNL     1       3.386 -16.279  -6.748  1.00  0.00     0.001 A 
ATOM     85  C   UNL     1       5.296 -16.041  -8.207  1.00  0.00     0.001 A 
ATOM     86  C   UNL     1       4.189 -16.770  -7.778  1.00  0.00     0.000 A 
ENDBRANCH  68  81
ENDBRANCH  42  43
ENDBRANCH  34  37
ENDBRANCH  32  33
ENDBRANCH  31  32
ENDBRANCH  30  31
ENDBRANCH   1  30
TORSDOF 17
