REMARK SMILES CC1=NN(c2ccccc2)C(=O)/C1=C\c1ccc(-c2cc(C(=O)NCCCCNC(=O)c3ccc(-c4c5nc(c(-c6ccccc6)c6ccc([nH]6)c(-c6ccccc6)c6nc(c(-c7ccccc7)c7ccc4[nH]7)C=C6)C=C5)cc3)ccc2Cl)o1
REMARK SMILES IDX 26 1 25 2 24 3 22 4 23 5 21 7 19 8 20 9 82 10 81 11 83 12
REMARK SMILES IDX 80 13 18 14 15 15 16 16 84 17 17 18 14 19 1 20 2 21 3 22
REMARK SMILES IDX 13 23 4 24 11 25 12 26 5 27 6 28 10 29 7 30 9 31 8 32 27 33
REMARK SMILES IDX 28 34 29 35 30 36 31 38 32 39 33 40 79 41 34 42 78 43 35 44
REMARK SMILES IDX 36 45 37 46 72 47 38 48 77 49 71 50 73 51 39 52 76 53 70 54
REMARK SMILES IDX 69 55 40 57 62 58 47 59 61 60 48 61 51 62 60 63 74 64 49 65
REMARK SMILES IDX 50 66 59 68 75 69 52 70 41 71 42 72 46 73 43 74 45 75 44 76
REMARK SMILES IDX 63 77 64 78 68 79 65 80 67 81 66 82 53 83 54 84 58 85 55 86
REMARK SMILES IDX 57 87 56 88
REMARK H PARENT 24 6 29 37 73 56 51 67
REMARK Flexibility Score: inf
ROOT
ATOM      1  C   UNL     1       5.322  -9.069  -5.476  1.00  0.00     0.023 C 
ENDROOT
BRANCH   1   2
ATOM      2  C   UNL     1       6.102  -7.936  -4.824  1.00  0.00     0.116 C 
BRANCH   2   3
ATOM      3  N   UNL     1       5.745  -6.604  -5.291  1.00  0.00    -0.352 N 
ATOM      4  C   UNL     1       5.401  -5.466  -4.589  1.00  0.00     0.251 C 
ATOM      5  O   UNL     1       5.107  -4.448  -5.210  1.00  0.00    -0.269 OA
ATOM      6  H   UNL     1       5.750  -6.497  -6.270  1.00  0.00     0.163 HD
BRANCH   4   7
ATOM      7  C   UNL     1       5.333  -5.466  -3.103  1.00  0.00     0.040 A 
ATOM      8  C   UNL     1       4.176  -4.806  -1.058  1.00  0.00     0.037 A 
ATOM      9  C   UNL     1       4.333  -4.720  -2.454  1.00  0.00     0.027 A 
ATOM     10  C   UNL     1       4.977  -5.724  -0.350  1.00  0.00     0.052 A 
ATOM     11  C   UNL     1       6.034  -6.376  -0.979  1.00  0.00     0.022 A 
ATOM     12  Cl  UNL     1       4.710  -6.122   1.316  1.00  0.00    -0.084 Cl
ATOM     13  C   UNL     1       6.256  -6.181  -2.336  1.00  0.00     0.015 A 
BRANCH   8  14
ATOM     14  C   UNL     1       3.323  -3.866  -0.338  1.00  0.00     0.136 A 
ATOM     15  C   UNL     1       1.503  -2.650   0.015  1.00  0.00     0.128 A 
ATOM     16  C   UNL     1       2.386  -2.417   1.064  1.00  0.00     0.051 A 
ATOM     17  O   UNL     1       2.078  -3.584  -0.827  1.00  0.00    -0.457 OA
ATOM     18  C   UNL     1       3.559  -3.137   0.806  1.00  0.00     0.051 A 
BRANCH  15  19
ATOM     19  C   UNL     1       0.225  -2.048  -0.161  1.00  0.00     0.063 C 
ATOM     20  C   UNL     1      -2.481  -0.488   0.074  1.00  0.00     0.069 C 
ATOM     21  C   UNL     1      -1.107   0.089   0.009  1.00  0.00     0.071 C 
ATOM     22  N   UNL     1      -0.843   1.362   0.167  1.00  0.00    -0.169 NA
ATOM     23  C   UNL     1       0.112  -0.713  -0.197  1.00  0.00     0.068 C 
ATOM     24  N   UNL     1       0.526   1.491  -0.045  1.00  0.00    -0.196 N 
ATOM     25  C   UNL     1       1.196   0.293  -0.316  1.00  0.00     0.280 C 
ATOM     26  O   UNL     1       2.363   0.087  -0.578  1.00  0.00    -0.267 OA
BRANCH  24  27
ATOM     27  C   UNL     1       1.115   2.770  -0.066  1.00  0.00     0.069 A 
ATOM     28  C   UNL     1       0.679   3.773   0.805  1.00  0.00     0.028 A 
ATOM     29  C   UNL     1       2.169   3.046  -0.948  1.00  0.00     0.028 A 
ATOM     30  C   UNL     1       1.321   5.016   0.821  1.00  0.00     0.002 A 
ATOM     31  C   UNL     1       2.773   4.302  -0.968  1.00  0.00     0.002 A 
ATOM     32  C   UNL     1       2.359   5.283  -0.072  1.00  0.00     0.000 A 
ENDBRANCH  24  27
ENDBRANCH  15  19
ENDBRANCH   8  14
ENDBRANCH   4   7
ENDBRANCH   2   3
ENDBRANCH   1   2
BRANCH   1  33
ATOM     33  C   UNL     1       5.561  -9.278  -6.964  1.00  0.00     0.023 C 
BRANCH  33  34
ATOM     34  C   UNL     1       7.019  -9.389  -7.389  1.00  0.00     0.116 C 
BRANCH  34  35
ATOM     35  N   UNL     1       7.742 -10.469  -6.730  1.00  0.00    -0.352 N 
ATOM     36  C   UNL     1       8.457 -11.509  -7.278  1.00  0.00     0.251 C 
ATOM     37  H   UNL     1       7.715 -10.451  -5.746  1.00  0.00     0.163 HD
ATOM     38  O   UNL     1       8.917 -12.389  -6.557  1.00  0.00    -0.269 OA
BRANCH  36  39
ATOM     39  C   UNL     1       8.635 -11.587  -8.743  1.00  0.00     0.039 A 
ATOM     40  C   UNL     1       8.397 -12.802  -9.390  1.00  0.00     0.014 A 
ATOM     41  C   UNL     1       8.994 -10.457  -9.481  1.00  0.00     0.014 A 
ATOM     42  C   UNL     1       8.432 -12.860 -10.784  1.00  0.00     0.010 A 
ATOM     43  C   UNL     1       8.932 -10.493 -10.870  1.00  0.00     0.010 A 
ATOM     44  C   UNL     1       8.649 -11.694 -11.538  1.00  0.00    -0.014 A 
BRANCH  44  45
ATOM     45  C   UNL     1       8.576 -11.709 -13.022  1.00  0.00     0.031 A 
ATOM     46  C   UNL     1       9.781 -11.341 -13.843  1.00  0.00     0.074 A 
ATOM     47  C   UNL     1       7.407 -11.989 -13.632  1.00  0.00     0.049 A 
ATOM     48  N   UNL     1       9.897 -11.247 -15.144  1.00  0.00    -0.248 NA
ATOM     49  C   UNL     1      11.012 -11.009 -13.107  1.00  0.00     0.031 C 
ATOM     50  C   UNL     1       6.152 -12.320 -12.953  1.00  0.00     0.029 A 
ATOM     51  N   UNL     1       7.083 -12.038 -14.965  1.00  0.00    -0.354 N 
ATOM     52  C   UNL     1      11.202 -10.832 -15.378  1.00  0.00     0.074 A 
ATOM     53  C   UNL     1      11.821 -10.635 -14.086  1.00  0.00     0.031 C 
ATOM     54  C   UNL     1       5.206 -12.572 -13.872  1.00  0.00     0.029 A 
ATOM     55  C   UNL     1       5.771 -12.373 -15.203  1.00  0.00     0.049 A 
ATOM     56  H   UNL     1       7.729 -11.851 -15.684  1.00  0.00     0.167 HD
ATOM     57  C   UNL     1      11.838 -10.653 -16.560  1.00  0.00     0.031 A 
ATOM     58  C   UNL     1       5.095 -12.499 -16.360  1.00  0.00     0.031 A 
ATOM     59  C   UNL     1      11.223 -10.852 -17.846  1.00  0.00     0.049 A 
ATOM     60  C   UNL     1       5.816 -12.265 -17.660  1.00  0.00     0.074 A 
ATOM     61  C   UNL     1      11.798 -10.748 -19.100  1.00  0.00     0.029 A 
ATOM     62  N   UNL     1       9.893 -11.187 -18.041  1.00  0.00    -0.354 N 
ATOM     63  N   UNL     1       7.071 -11.948 -17.864  1.00  0.00    -0.248 NA
ATOM     64  C   UNL     1       5.026 -12.419 -18.890  1.00  0.00     0.031 C 
ATOM     65  C   UNL     1      10.800 -10.956 -20.056  1.00  0.00     0.029 A 
ATOM     66  C   UNL     1       9.620 -11.263 -19.397  1.00  0.00     0.049 A 
ATOM     67  H   UNL     1       9.238 -11.347 -17.323  1.00  0.00     0.167 HD
ATOM     68  C   UNL     1       7.230 -11.896 -19.243  1.00  0.00     0.074 A 
ATOM     69  C   UNL     1       5.947 -12.232 -19.825  1.00  0.00     0.031 C 
ATOM     70  C   UNL     1       8.339 -11.598 -19.963  1.00  0.00     0.031 A 
BRANCH  57  71
ATOM     71  C   UNL     1      13.275 -10.209 -16.514  1.00  0.00    -0.014 A 
ATOM     72  C   UNL     1      14.287 -11.056 -16.033  1.00  0.00     0.009 A 
ATOM     73  C   UNL     1      13.628  -8.937 -16.991  1.00  0.00     0.009 A 
ATOM     74  C   UNL     1      15.614 -10.623 -15.992  1.00  0.00     0.001 A 
ATOM     75  C   UNL     1      14.960  -8.520 -16.981  1.00  0.00     0.001 A 
ATOM     76  C   UNL     1      15.950  -9.358 -16.471  1.00  0.00     0.000 A 
ENDBRANCH  57  71
BRANCH  58  77
ATOM     77  C   UNL     1       3.655 -12.876 -16.350  1.00  0.00    -0.014 A 
ATOM     78  C   UNL     1       3.239 -14.123 -16.843  1.00  0.00     0.009 A 
ATOM     79  C   UNL     1       2.687 -11.984 -15.862  1.00  0.00     0.009 A 
ATOM     80  C   UNL     1       1.883 -14.455 -16.877  1.00  0.00     0.001 A 
ATOM     81  C   UNL     1       1.334 -12.333 -15.866  1.00  0.00     0.001 A 
ATOM     82  C   UNL     1       0.932 -13.563 -16.384  1.00  0.00     0.000 A 
ENDBRANCH  58  77
BRANCH  70  83
ATOM     83  C   UNL     1       8.227 -11.663 -21.462  1.00  0.00    -0.014 A 
ATOM     84  C   UNL     1       7.484 -10.717 -22.185  1.00  0.00     0.009 A 
ATOM     85  C   UNL     1       8.915 -12.666 -22.163  1.00  0.00     0.009 A 
ATOM     86  C   UNL     1       7.401 -10.799 -23.577  1.00  0.00     0.001 A 
ATOM     87  C   UNL     1       8.860 -12.724 -23.556  1.00  0.00     0.001 A 
ATOM     88  C   UNL     1       8.094 -11.797 -24.261  1.00  0.00     0.000 A 
ENDBRANCH  70  83
ENDBRANCH  44  45
ENDBRANCH  36  39
ENDBRANCH  34  35
ENDBRANCH  33  34
ENDBRANCH   1  33
TORSDOF 14
