REMARK SMILES Cc1cc2c(c(C)c1Cl)C=C(C(=O)NCCCCNC(=O)c1ccc(-c3c4nc(c(-c5ccccc5)c5ccc([nH]5)c(-c5ccccc5)c5nc(c(-c6ccccc6)c6ccc3[nH]6)C=C5)C=C4)cc1)[C@H](C(F)(F)F)O2
REMARK SMILES IDX 17 1 16 2 15 3 14 4 12 5 13 6 11 8 1 9 2 10 3 11 8 12 4 13
REMARK SMILES IDX 6 14 9 15 5 16 75 17 7 18 10 19 70 20 71 21 72 22 73 23
REMARK SMILES IDX 74 24 18 25 19 26 20 27 21 29 22 30 23 31 69 32 24 33 68 34
REMARK SMILES IDX 25 35 26 36 27 37 62 38 28 39 67 40 61 41 63 42 29 43 66 44
REMARK SMILES IDX 60 45 59 46 30 48 52 49 37 50 51 51 38 52 41 53 50 54 64 55
REMARK SMILES IDX 39 56 40 57 49 59 65 60 42 61 31 62 32 63 36 64 33 65 35 66
REMARK SMILES IDX 34 67 53 68 54 69 58 70 55 71 57 72 56 73 43 74 44 75 48 76
REMARK SMILES IDX 45 77 47 78 46 79
REMARK H PARENT 14 7 19 28 63 47 41 58
REMARK Flexibility Score: inf
ROOT
ATOM      1  C   UNL     1      -5.097   7.316   5.217  1.00  0.00     0.023 C 
ENDROOT
BRANCH   1   2
ATOM      2  C   UNL     1      -4.585   6.095   4.448  1.00  0.00     0.023 C 
BRANCH   2   3
ATOM      3  C   UNL     1      -4.568   6.266   2.930  1.00  0.00     0.116 C 
BRANCH   3   4
ATOM      4  N   UNL     1      -3.374   6.958   2.485  1.00  0.00    -0.352 N 
ATOM      5  C   UNL     1      -2.194   6.615   1.919  1.00  0.00     0.251 C 
ATOM      6  O   UNL     1      -1.464   7.567   1.622  1.00  0.00    -0.270 OA
ATOM      7  H   UNL     1      -3.439   7.929   2.633  1.00  0.00     0.163 HD
BRANCH   5   8
ATOM      8  C   UNL     1      -1.733   5.221   1.647  1.00  0.00     0.067 C 
ATOM      9  C   UNL     1       1.347  -0.205  -0.217  1.00  0.00     0.046 C 
ATOM     10  C   UNL     1       0.892   1.204   0.050  1.00  0.00    -0.028 A 
ATOM     11  C   UNL     1      -0.335   1.397   0.694  1.00  0.00     0.052 A 
ATOM     12  C   UNL     1       1.634   2.333  -0.356  1.00  0.00     0.047 A 
ATOM     13  C   UNL     1      -0.801   2.681   0.955  1.00  0.00     0.128 A 
ATOM     14  C   UNL     1       1.169   3.646  -0.098  1.00  0.00    -0.021 A 
ATOM     15  Cl  UNL     1       3.129   2.078  -1.205  1.00  0.00    -0.084 Cl
ATOM     16  C   UNL     1      -0.077   3.809   0.556  1.00  0.00     0.022 A 
ATOM     17  O   UNL     1      -2.015   2.756   1.580  1.00  0.00    -0.475 OA
ATOM     18  C   UNL     1       1.959   4.867  -0.508  1.00  0.00     0.047 C 
ATOM     19  C   UNL     1      -0.680   5.120   0.815  1.00  0.00     0.026 C 
ATOM     20  C   UNL     1      -2.282   3.988   2.303  1.00  0.00     0.314 C 
BRANCH  20  21
ATOM     21  C   UNL     1      -1.883   3.839   3.780  1.00  0.00     0.429 C 
ATOM     22  F   UNL     1      -0.830   3.012   3.962  1.00  0.00    -0.167 F 
ATOM     23  F   UNL     1      -1.559   5.020   4.354  1.00  0.00    -0.167 F 
ATOM     24  F   UNL     1      -2.921   3.330   4.494  1.00  0.00    -0.167 F 
ENDBRANCH  20  21
ENDBRANCH   5   8
ENDBRANCH   3   4
ENDBRANCH   2   3
ENDBRANCH   1   2
BRANCH   1  25
ATOM     25  C   UNL     1      -6.529   7.728   4.898  1.00  0.00     0.116 C 
BRANCH  25  26
ATOM     26  N   UNL     1      -7.496   6.649   5.041  1.00  0.00    -0.352 N 
ATOM     27  C   UNL     1      -8.815   6.741   5.414  1.00  0.00     0.251 C 
ATOM     28  H   UNL     1      -7.164   5.743   4.845  1.00  0.00     0.163 HD
ATOM     29  O   UNL     1      -9.502   5.737   5.560  1.00  0.00    -0.269 OA
BRANCH  27  30
ATOM     30  C   UNL     1      -9.375   8.076   5.689  1.00  0.00     0.039 A 
ATOM     31  C   UNL     1      -9.941   8.321   6.941  1.00  0.00     0.014 A 
ATOM     32  C   UNL     1      -9.252   9.099   4.744  1.00  0.00     0.014 A 
ATOM     33  C   UNL     1     -10.314   9.621   7.278  1.00  0.00     0.010 A 
ATOM     34  C   UNL     1      -9.565  10.403   5.105  1.00  0.00     0.010 A 
ATOM     35  C   UNL     1     -10.089  10.675   6.378  1.00  0.00    -0.014 A 
BRANCH  35  36
ATOM     36  C   UNL     1     -10.388  12.075   6.757  1.00  0.00     0.031 A 
ATOM     37  C   UNL     1     -11.483  12.824   6.057  1.00  0.00     0.074 A 
ATOM     38  C   UNL     1      -9.636  12.685   7.693  1.00  0.00     0.049 A 
ATOM     39  N   UNL     1     -11.869  14.063   6.224  1.00  0.00    -0.248 NA
ATOM     40  C   UNL     1     -12.228  12.095   5.018  1.00  0.00     0.031 C 
ATOM     41  C   UNL     1      -8.516  12.075   8.414  1.00  0.00     0.029 A 
ATOM     42  N   UNL     1      -9.704  13.957   8.201  1.00  0.00    -0.354 N 
ATOM     43  C   UNL     1     -12.888  14.264   5.304  1.00  0.00     0.074 A 
ATOM     44  C   UNL     1     -13.031  13.038   4.550  1.00  0.00     0.031 C 
ATOM     45  C   UNL     1      -8.031  12.959   9.300  1.00  0.00     0.029 A 
ATOM     46  C   UNL     1      -8.782  14.205   9.189  1.00  0.00     0.049 A 
ATOM     47  H   UNL     1     -10.352  14.629   7.888  1.00  0.00     0.167 HD
ATOM     48  C   UNL     1     -13.654  15.364   5.119  1.00  0.00     0.031 A 
ATOM     49  C   UNL     1      -8.574  15.310   9.929  1.00  0.00     0.031 A 
ATOM     50  C   UNL     1     -13.528  16.574   5.882  1.00  0.00     0.049 A 
ATOM     51  C   UNL     1      -9.441  16.516   9.709  1.00  0.00     0.074 A 
ATOM     52  C   UNL     1     -14.289  17.727   5.800  1.00  0.00     0.029 A 
ATOM     53  N   UNL     1     -12.584  16.782   6.874  1.00  0.00    -0.354 N 
ATOM     54  N   UNL     1     -10.431  16.675   8.866  1.00  0.00    -0.248 NA
ATOM     55  C   UNL     1      -9.166  17.692  10.548  1.00  0.00     0.031 C 
ATOM     56  C   UNL     1     -13.786  18.645   6.726  1.00  0.00     0.029 A 
ATOM     57  C   UNL     1     -12.736  18.049   7.407  1.00  0.00     0.049 A 
ATOM     58  H   UNL     1     -11.906  16.127   7.157  1.00  0.00     0.167 HD
ATOM     59  C   UNL     1     -10.913  17.958   9.086  1.00  0.00     0.074 A 
ATOM     60  C   UNL     1     -10.111  18.533  10.147  1.00  0.00     0.031 C 
ATOM     61  C   UNL     1     -11.931  18.600   8.466  1.00  0.00     0.031 A 
BRANCH  48  62
ATOM     62  C   UNL     1     -14.706  15.296   4.051  1.00  0.00    -0.014 A 
ATOM     63  C   UNL     1     -15.873  14.538   4.238  1.00  0.00     0.009 A 
ATOM     64  C   UNL     1     -14.544  16.017   2.859  1.00  0.00     0.009 A 
ATOM     65  C   UNL     1     -16.844  14.479   3.238  1.00  0.00     0.001 A 
ATOM     66  C   UNL     1     -15.528  15.974   1.870  1.00  0.00     0.001 A 
ATOM     67  C   UNL     1     -16.672  15.200   2.057  1.00  0.00     0.000 A 
ENDBRANCH  48  62
BRANCH  49  68
ATOM     68  C   UNL     1      -7.528  15.306  10.982  1.00  0.00    -0.014 A 
ATOM     69  C   UNL     1      -7.893  15.206  12.333  1.00  0.00     0.009 A 
ATOM     70  C   UNL     1      -6.168  15.381  10.647  1.00  0.00     0.009 A 
ATOM     71  C   UNL     1      -6.915  15.195  13.331  1.00  0.00     0.001 A 
ATOM     72  C   UNL     1      -5.192  15.351  11.646  1.00  0.00     0.001 A 
ATOM     73  C   UNL     1      -5.566  15.263  12.986  1.00  0.00     0.000 A 
ENDBRANCH  49  68
BRANCH  61  74
ATOM     74  C   UNL     1     -12.258  19.988   8.929  1.00  0.00    -0.014 A 
ATOM     75  C   UNL     1     -11.480  21.083   8.527  1.00  0.00     0.009 A 
ATOM     76  C   UNL     1     -13.406  20.208   9.706  1.00  0.00     0.009 A 
ATOM     77  C   UNL     1     -11.841  22.377   8.907  1.00  0.00     0.001 A 
ATOM     78  C   UNL     1     -13.774  21.504  10.068  1.00  0.00     0.001 A 
ATOM     79  C   UNL     1     -12.990  22.586   9.671  1.00  0.00     0.000 A 
ENDBRANCH  61  74
ENDBRANCH  35  36
ENDBRANCH  27  30
ENDBRANCH  25  26
ENDBRANCH   1  25
TORSDOF 12
