REMARK SMILES CCOc1ccc(-c2nn(-c3ccccc3)cc2/C=C2/SC(=S)N(CC(=O)NCCCCNC(=O)c3ccc(-c4c5nc(c(-c6ccccc6)c6ccc([nH]6)c(-c6ccccc6)c6nc(c(-c7ccccc7)c7ccc4[nH]7)C=C6)C=C5)cc3)C2=O)cc1F
REMARK SMILES IDX 29 1 28 2 26 3 27 4 25 6 24 7 19 8 20 9 21 10 84 11 22 12
REMARK SMILES IDX 85 13 23 14 18 15 8 16 9 17 10 18 17 19 7 20 4 21 5 22 87 23
REMARK SMILES IDX 6 24 86 25 88 26 3 27 2 28 1 29 11 30 12 31 16 32 13 33
REMARK SMILES IDX 15 34 14 35 30 36 31 37 32 38 33 39 34 40 35 42 36 43 37 44
REMARK SMILES IDX 83 45 38 46 82 47 39 48 40 49 41 50 76 51 42 52 81 53 75 54
REMARK SMILES IDX 77 55 43 56 80 57 74 58 73 59 44 61 66 62 51 63 65 64 52 65
REMARK SMILES IDX 55 66 64 67 78 68 53 69 54 70 63 72 79 73 56 74 45 75 46 76
REMARK SMILES IDX 50 77 47 78 49 79 48 80 67 81 68 82 72 83 69 84 71 85 70 86
REMARK SMILES IDX 57 87 58 88 62 89 59 90 61 91 60 92
REMARK H PARENT 28 5 33 41 77 60 55 71
REMARK Flexibility Score: inf
ROOT
ATOM      1  C   UNL     1      10.706   8.387   1.464  1.00  0.00     0.116 C 
ENDROOT
BRANCH   1   2
ATOM      2  N   UNL     1      10.684   8.279   0.021  1.00  0.00    -0.355 N 
ATOM      3  C   UNL     1       9.687   8.581  -0.863  1.00  0.00     0.240 C 
ATOM      4  O   UNL     1      10.022   8.763  -2.038  1.00  0.00    -0.273 OA
ATOM      5  H   UNL     1      11.513   7.936  -0.384  1.00  0.00     0.163 HD
BRANCH   3   6
ATOM      6  C   UNL     1       8.244   8.850  -0.405  1.00  0.00     0.227 C 
BRANCH   6   7
ATOM      7  N   UNL     1       7.730   7.820   0.498  1.00  0.00    -0.283 N 
ATOM      8  C   UNL     1       7.151   4.252   0.922  1.00  0.00     0.033 C 
ATOM      9  C   UNL     1       7.196   5.588   1.043  1.00  0.00     0.081 C 
ATOM     10  S   UNL     1       6.772   6.458   2.464  1.00  0.00    -0.054 SA
ATOM     11  C   UNL     1       7.624   6.542  -0.020  1.00  0.00     0.266 C 
ATOM     12  C   UNL     1       7.196   8.015   1.750  1.00  0.00     0.148 C 
ATOM     13  O   UNL     1       7.833   6.248  -1.182  1.00  0.00    -0.268 OA
ATOM     14  S   UNL     1       6.941   9.454   2.553  1.00  0.00    -0.052 S 
BRANCH   8  15
ATOM     15  C   UNL     1       7.481   3.558  -0.275  1.00  0.00     0.022 A 
ATOM     16  C   UNL     1       6.615   3.029  -1.264  1.00  0.00     0.100 A 
ATOM     17  N   UNL     1       7.309   2.652  -2.346  1.00  0.00    -0.167 NA
ATOM     18  N   UNL     1       8.607   2.843  -2.017  1.00  0.00    -0.240 N 
ATOM     19  C   UNL     1       8.754   3.313  -0.732  1.00  0.00     0.123 A 
BRANCH  16  20
ATOM     20  C   UNL     1       5.175   2.821  -1.195  1.00  0.00     0.006 A 
ATOM     21  C   UNL     1       2.438   2.283  -0.960  1.00  0.00     0.154 A 
ATOM     22  C   UNL     1       2.907   3.587  -0.791  1.00  0.00     0.050 A 
ATOM     23  C   UNL     1       3.330   1.269  -1.299  1.00  0.00     0.165 A 
ATOM     24  C   UNL     1       4.278   3.857  -0.904  1.00  0.00     0.014 A 
ATOM     25  C   UNL     1       4.689   1.525  -1.401  1.00  0.00     0.053 A 
ATOM     26  F   UNL     1       2.897   0.026  -1.550  1.00  0.00    -0.203 F 
BRANCH  21  27
ATOM     27  O   UNL     1       1.089   2.060  -0.912  1.00  0.00    -0.491 OA
BRANCH  27  28
ATOM     28  C   UNL     1       0.668   1.427   0.303  1.00  0.00     0.226 C 
ATOM     29  C   UNL     1       0.711  -0.091   0.214  1.00  0.00     0.049 C 
ENDBRANCH  27  28
ENDBRANCH  21  27
ENDBRANCH  16  20
BRANCH  18  30
ATOM     30  C   UNL     1       9.638   2.537  -2.933  1.00  0.00     0.065 A 
ATOM     31  C   UNL     1       9.448   2.811  -4.293  1.00  0.00     0.028 A 
ATOM     32  C   UNL     1      10.832   1.962  -2.485  1.00  0.00     0.028 A 
ATOM     33  C   UNL     1      10.469   2.533  -5.202  1.00  0.00     0.002 A 
ATOM     34  C   UNL     1      11.825   1.635  -3.410  1.00  0.00     0.002 A 
ATOM     35  C   UNL     1      11.649   1.932  -4.763  1.00  0.00     0.000 A 
ENDBRANCH  18  30
ENDBRANCH   8  15
ENDBRANCH   6   7
ENDBRANCH   3   6
ENDBRANCH   1   2
BRANCH   1  36
ATOM     36  C   UNL     1      10.861   7.041   2.171  1.00  0.00     0.023 C 
BRANCH  36  37
ATOM     37  C   UNL     1      12.196   6.313   1.957  1.00  0.00     0.023 C 
BRANCH  37  38
ATOM     38  C   UNL     1      13.443   7.106   2.332  1.00  0.00     0.116 C 
BRANCH  38  39
ATOM     39  N   UNL     1      13.494   7.468   3.745  1.00  0.00    -0.352 N 
ATOM     40  C   UNL     1      14.429   8.265   4.379  1.00  0.00     0.251 C 
ATOM     41  H   UNL     1      12.779   7.101   4.313  1.00  0.00     0.163 HD
ATOM     42  O   UNL     1      14.625   8.157   5.582  1.00  0.00    -0.269 OA
BRANCH  40  43
ATOM     43  C   UNL     1      15.197   9.246   3.587  1.00  0.00     0.039 A 
ATOM     44  C   UNL     1      16.556   9.449   3.829  1.00  0.00     0.014 A 
ATOM     45  C   UNL     1      14.546   9.962   2.582  1.00  0.00     0.014 A 
ATOM     46  C   UNL     1      17.267  10.302   2.987  1.00  0.00     0.010 A 
ATOM     47  C   UNL     1      15.270  10.709   1.676  1.00  0.00     0.010 A 
ATOM     48  C   UNL     1      16.630  10.902   1.882  1.00  0.00    -0.014 A 
BRANCH  48  49
ATOM     49  C   UNL     1      17.433  11.584   0.865  1.00  0.00     0.031 A 
ATOM     50  C   UNL     1      18.619  10.805   0.423  1.00  0.00     0.074 A 
ATOM     51  C   UNL     1      17.117  12.737   0.237  1.00  0.00     0.049 A 
ATOM     52  N   UNL     1      19.846  11.032   0.750  1.00  0.00    -0.248 NA
ATOM     53  C   UNL     1      18.418   9.553  -0.323  1.00  0.00     0.031 C 
ATOM     54  C   UNL     1      15.879  13.516   0.320  1.00  0.00     0.029 A 
ATOM     55  N   UNL     1      17.837  13.425  -0.699  1.00  0.00    -0.354 N 
ATOM     56  C   UNL     1      20.605  10.090   0.069  1.00  0.00     0.074 A 
ATOM     57  C   UNL     1      19.673   9.104  -0.420  1.00  0.00     0.031 C 
ATOM     58  C   UNL     1      15.842  14.424  -0.683  1.00  0.00     0.029 A 
ATOM     59  C   UNL     1      17.122  14.412  -1.369  1.00  0.00     0.049 A 
ATOM     60  H   UNL     1      18.785  13.236  -0.884  1.00  0.00     0.167 HD
ATOM     61  C   UNL     1      21.896  10.361  -0.270  1.00  0.00     0.031 A 
ATOM     62  C   UNL     1      17.549  15.171  -2.410  1.00  0.00     0.031 A 
ATOM     63  C   UNL     1      22.409  11.494   0.468  1.00  0.00     0.049 A 
ATOM     64  C   UNL     1      19.026  15.177  -2.374  1.00  0.00     0.074 A 
ATOM     65  C   UNL     1      22.537  11.818   1.805  1.00  0.00     0.029 A 
ATOM     66  N   UNL     1      22.507  12.684  -0.214  1.00  0.00    -0.354 N 
ATOM     67  N   UNL     1      19.714  15.778  -1.449  1.00  0.00    -0.248 NA
ATOM     68  C   UNL     1      19.742  14.169  -3.134  1.00  0.00     0.031 C 
ATOM     69  C   UNL     1      22.218  13.209   1.880  1.00  0.00     0.029 A 
ATOM     70  C   UNL     1      21.996  13.672   0.583  1.00  0.00     0.049 A 
ATOM     71  H   UNL     1      22.879  12.804  -1.118  1.00  0.00     0.167 HD
ATOM     72  C   UNL     1      20.760  14.909  -1.183  1.00  0.00     0.074 A 
ATOM     73  C   UNL     1      20.797  14.005  -2.332  1.00  0.00     0.031 C 
ATOM     74  C   UNL     1      21.300  14.831   0.070  1.00  0.00     0.031 A 
BRANCH  61  75
ATOM     75  C   UNL     1      22.503   9.942  -1.591  1.00  0.00    -0.014 A 
ATOM     76  C   UNL     1      23.825  10.335  -1.871  1.00  0.00     0.009 A 
ATOM     77  C   UNL     1      21.742   9.473  -2.679  1.00  0.00     0.009 A 
ATOM     78  C   UNL     1      24.313  10.373  -3.183  1.00  0.00     0.001 A 
ATOM     79  C   UNL     1      22.241   9.467  -3.984  1.00  0.00     0.001 A 
ATOM     80  C   UNL     1      23.514   9.953  -4.240  1.00  0.00     0.000 A 
ENDBRANCH  61  75
BRANCH  62  81
ATOM     81  C   UNL     1      16.807  15.736  -3.558  1.00  0.00    -0.014 A 
ATOM     82  C   UNL     1      17.402  16.707  -4.383  1.00  0.00     0.009 A 
ATOM     83  C   UNL     1      15.646  15.101  -4.030  1.00  0.00     0.009 A 
ATOM     84  C   UNL     1      16.891  16.985  -5.658  1.00  0.00     0.001 A 
ATOM     85  C   UNL     1      15.133  15.382  -5.302  1.00  0.00     0.001 A 
ATOM     86  C   UNL     1      15.768  16.308  -6.124  1.00  0.00     0.000 A 
ENDBRANCH  62  81
BRANCH  74  87
ATOM     87  C   UNL     1      20.952  15.914   1.063  1.00  0.00    -0.014 A 
ATOM     88  C   UNL     1      19.637  16.229   1.450  1.00  0.00     0.009 A 
ATOM     89  C   UNL     1      22.008  16.568   1.715  1.00  0.00     0.009 A 
ATOM     90  C   UNL     1      19.391  17.201   2.427  1.00  0.00     0.001 A 
ATOM     91  C   UNL     1      21.764  17.519   2.708  1.00  0.00     0.001 A 
ATOM     92  C   UNL     1      20.455  17.843   3.057  1.00  0.00     0.000 A 
ENDBRANCH  74  87
ENDBRANCH  48  49
ENDBRANCH  40  43
ENDBRANCH  38  39
ENDBRANCH  37  38
ENDBRANCH  36  37
ENDBRANCH   1  36
TORSDOF 17
