REMARK SMILES O=C(NCCCCNC(=O)c1ccc(C(F)(F)F)cc1NC(=O)c1ccon1)c1ccc(-c2c3nc(c(-c4ccccc4)c4ccc([nH]4)c(-c4ccccc4)c4nc(c(-c5ccccc5)c5ccc2[nH]5)C=C4)C=C3)cc1
REMARK SMILES IDX 5 1 4 2 3 3 1 4 2 5 29 7 30 8 76 9 31 10 75 11 32 12 33 13
REMARK SMILES IDX 34 14 69 15 35 16 74 17 68 18 70 19 36 20 73 21 67 22 66 23
REMARK SMILES IDX 37 25 59 26 44 27 58 28 45 29 48 30 57 31 71 32 46 33 47 34
REMARK SMILES IDX 56 36 72 37 49 38 38 39 39 40 43 41 40 42 42 43 41 44 60 45
REMARK SMILES IDX 61 46 65 47 62 48 64 49 63 50 50 51 51 52 55 53 52 54 54 55
REMARK SMILES IDX 53 56 6 57 7 58 8 59 9 60 10 62 11 63 12 64 20 65 13 66
REMARK SMILES IDX 19 67 14 68 21 69 22 70 23 72 24 73 25 74 28 75 26 76 27 77
REMARK SMILES IDX 15 78 16 79 17 80 18 81
REMARK H PARENT 3 6 70 24 48 35 8 61 21 71
REMARK Flexibility Score: inf
ROOT
ATOM      1  C   UNL     1       4.855  -2.472  -1.150  1.00  0.00     0.023 C 
ENDROOT
BRANCH   1   2
ATOM      2  C   UNL     1       4.561  -0.985  -0.990  1.00  0.00     0.116 C 
BRANCH   2   3
ATOM      3  N   UNL     1       3.139  -0.684  -0.948  1.00  0.00    -0.352 N 
ATOM      4  O   UNL     1       1.176  -0.032  -0.048  1.00  0.00    -0.269 OA
ATOM      5  C   UNL     1       2.400  -0.077   0.041  1.00  0.00     0.251 C 
ATOM      6  H   UNL     1       2.630  -0.954  -1.746  1.00  0.00     0.163 HD
BRANCH   5   7
ATOM      7  C   UNL     1       3.074   0.485   1.232  1.00  0.00     0.039 A 
ATOM      8  C   UNL     1       4.232   1.252   1.103  1.00  0.00     0.014 A 
ATOM      9  C   UNL     1       2.544   0.226   2.499  1.00  0.00     0.014 A 
ATOM     10  C   UNL     1       4.956   1.603   2.237  1.00  0.00     0.010 A 
ATOM     11  C   UNL     1       3.225   0.662   3.640  1.00  0.00     0.010 A 
ATOM     12  C   UNL     1       4.462   1.312   3.520  1.00  0.00    -0.014 A 
BRANCH  12  13
ATOM     13  C   UNL     1       5.250   1.724   4.710  1.00  0.00     0.031 A 
ATOM     14  C   UNL     1       5.835   0.706   5.651  1.00  0.00     0.074 A 
ATOM     15  C   UNL     1       5.485   3.036   4.911  1.00  0.00     0.049 A 
ATOM     16  N   UNL     1       6.606   0.896   6.694  1.00  0.00    -0.248 NA
ATOM     17  C   UNL     1       5.511  -0.707   5.399  1.00  0.00     0.031 C 
ATOM     18  C   UNL     1       4.972   4.122   4.073  1.00  0.00     0.029 A 
ATOM     19  N   UNL     1       6.241   3.675   5.859  1.00  0.00    -0.354 N 
ATOM     20  C   UNL     1       6.835  -0.362   7.235  1.00  0.00     0.074 A 
ATOM     21  C   UNL     1       6.107  -1.310   6.419  1.00  0.00     0.031 C 
ATOM     22  C   UNL     1       5.485   5.285   4.501  1.00  0.00     0.029 A 
ATOM     23  C   UNL     1       6.310   5.035   5.676  1.00  0.00     0.049 A 
ATOM     24  H   UNL     1       6.691   3.206   6.599  1.00  0.00     0.167 HD
ATOM     25  C   UNL     1       7.586  -0.700   8.312  1.00  0.00     0.031 A 
ATOM     26  C   UNL     1       6.963   5.980   6.376  1.00  0.00     0.031 A 
ATOM     27  C   UNL     1       8.323   0.237   9.118  1.00  0.00     0.049 A 
ATOM     28  C   UNL     1       7.774   5.579   7.571  1.00  0.00     0.074 A 
ATOM     29  C   UNL     1       9.146  -0.017  10.202  1.00  0.00     0.029 A 
ATOM     30  N   UNL     1       8.324   1.611   8.930  1.00  0.00    -0.354 N 
ATOM     31  N   UNL     1       8.006   4.380   8.046  1.00  0.00    -0.248 NA
ATOM     32  C   UNL     1       8.412   6.665   8.327  1.00  0.00     0.031 C 
ATOM     33  C   UNL     1       9.609   1.207  10.698  1.00  0.00     0.029 A 
ATOM     34  C   UNL     1       9.113   2.219   9.893  1.00  0.00     0.049 A 
ATOM     35  H   UNL     1       7.837   2.083   8.217  1.00  0.00     0.167 HD
ATOM     36  C   UNL     1       8.829   4.565   9.148  1.00  0.00     0.074 A 
ATOM     37  C   UNL     1       9.071   5.990   9.258  1.00  0.00     0.031 C 
ATOM     38  C   UNL     1       9.336   3.637   9.995  1.00  0.00     0.031 A 
BRANCH  25  39
ATOM     39  C   UNL     1       7.624  -2.152   8.703  1.00  0.00    -0.014 A 
ATOM     40  C   UNL     1       8.345  -3.094   7.952  1.00  0.00     0.009 A 
ATOM     41  C   UNL     1       6.961  -2.575   9.866  1.00  0.00     0.009 A 
ATOM     42  C   UNL     1       8.374  -4.436   8.342  1.00  0.00     0.001 A 
ATOM     43  C   UNL     1       7.011  -3.911  10.266  1.00  0.00     0.001 A 
ATOM     44  C   UNL     1       7.710  -4.842   9.500  1.00  0.00     0.000 A 
ENDBRANCH  25  39
BRANCH  26  45
ATOM     45  C   UNL     1       6.877   7.400   5.953  1.00  0.00    -0.014 A 
ATOM     46  C   UNL     1       7.988   8.040   5.383  1.00  0.00     0.009 A 
ATOM     47  C   UNL     1       5.679   8.117   6.100  1.00  0.00     0.009 A 
ATOM     48  C   UNL     1       7.904   9.375   4.983  1.00  0.00     0.001 A 
ATOM     49  C   UNL     1       5.591   9.443   5.674  1.00  0.00     0.001 A 
ATOM     50  C   UNL     1       6.705  10.073   5.123  1.00  0.00     0.000 A 
ENDBRANCH  26  45
BRANCH  38  51
ATOM     51  C   UNL     1      10.223   4.139  11.098  1.00  0.00    -0.014 A 
ATOM     52  C   UNL     1       9.689   4.816  12.206  1.00  0.00     0.009 A 
ATOM     53  C   UNL     1      11.607   3.922  11.032  1.00  0.00     0.009 A 
ATOM     54  C   UNL     1      10.532   5.296  13.210  1.00  0.00     0.001 A 
ATOM     55  C   UNL     1      12.444   4.382  12.049  1.00  0.00     0.001 A 
ATOM     56  C   UNL     1      11.907   5.077  13.132  1.00  0.00     0.000 A 
ENDBRANCH  38  51
ENDBRANCH  12  13
ENDBRANCH   5   7
ENDBRANCH   2   3
ENDBRANCH   1   2
BRANCH   1  57
ATOM     57  C   UNL     1       4.370  -3.102  -2.454  1.00  0.00     0.023 C 
BRANCH  57  58
ATOM     58  C   UNL     1       4.760  -2.357  -3.727  1.00  0.00     0.116 C 
BRANCH  58  59
ATOM     59  N   UNL     1       6.196  -2.165  -3.855  1.00  0.00    -0.352 N 
ATOM     60  C   UNL     1       7.012  -2.440  -4.922  1.00  0.00     0.253 C 
ATOM     61  H   UNL     1       6.644  -1.785  -3.066  1.00  0.00     0.163 HD
ATOM     62  O   UNL     1       8.225  -2.286  -4.834  1.00  0.00    -0.269 OA
BRANCH  60  63
ATOM     63  C   UNL     1       6.428  -2.938  -6.183  1.00  0.00     0.063 A 
ATOM     64  C   UNL     1       6.823  -4.225  -6.574  1.00  0.00     0.016 A 
ATOM     65  C   UNL     1       5.513  -2.188  -6.950  1.00  0.00     0.054 A 
ATOM     66  C   UNL     1       6.272  -4.804  -7.713  1.00  0.00     0.014 A 
ATOM     67  C   UNL     1       5.029  -2.765  -8.128  1.00  0.00     0.040 A 
ATOM     68  C   UNL     1       5.358  -4.085  -8.493  1.00  0.00     0.058 A 
BRANCH  65  69
ATOM     69  N   UNL     1       5.137  -0.899  -6.509  1.00  0.00    -0.320 N 
ATOM     70  C   UNL     1       4.088  -0.054  -6.820  1.00  0.00     0.277 C 
ATOM     71  H   UNL     1       5.753  -0.523  -5.839  1.00  0.00     0.170 HD
ATOM     72  O   UNL     1       4.083   1.061  -6.296  1.00  0.00    -0.267 OA
BRANCH  70  73
ATOM     73  C   UNL     1       2.983  -0.518  -7.647  1.00  0.00     0.171 A 
ATOM     74  C   UNL     1       2.097  -1.607  -7.420  1.00  0.00     0.079 A 
ATOM     75  N   UNL     1       2.682   0.101  -8.800  1.00  0.00    -0.075 NA
ATOM     76  C   UNL     1       1.290  -1.626  -8.527  1.00  0.00     0.232 A 
ATOM     77  O   UNL     1       1.631  -0.607  -9.351  1.00  0.00    -0.364 OA
ENDBRANCH  70  73
ENDBRANCH  65  69
BRANCH  68  78
ATOM     78  C   UNL     1       4.734  -4.726  -9.712  1.00  0.00     0.416 C 
ATOM     79  F   UNL     1       5.617  -4.888 -10.731  1.00  0.00    -0.166 F 
ATOM     80  F   UNL     1       4.235  -5.964  -9.439  1.00  0.00    -0.166 F 
ATOM     81  F   UNL     1       3.689  -4.014 -10.218  1.00  0.00    -0.166 F 
ENDBRANCH  68  78
ENDBRANCH  60  63
ENDBRANCH  58  59
ENDBRANCH  57  58
ENDBRANCH   1  57
TORSDOF 14
