REMARK SMILES Cc1nc(C)c(C(=O)N2CCC([C@H](C)C(=O)NCCCCNC(=O)c3ccc(-c4c5nc(c(-c6ccccc6)c6ccc([nH]6)c(-c6ccccc6)c6nc(c(-c7ccccc7)c7ccc4[nH]7)C=C6)C=C5)cc3)CC2)s1
REMARK SMILES IDX 19 1 18 2 17 3 15 4 16 5 13 7 14 8 12 9 7 10 8 11 9 12 10 13
REMARK SMILES IDX 74 14 11 15 73 16 6 17 1 18 2 19 3 20 75 21 4 22 5 23 20 24
REMARK SMILES IDX 21 25 22 26 23 27 24 29 25 30 26 31 72 32 27 33 71 34 28 35
REMARK SMILES IDX 29 36 30 37 65 38 31 39 70 40 64 41 66 42 32 43 69 44 63 45
REMARK SMILES IDX 62 46 33 48 55 49 40 50 54 51 41 52 44 53 53 54 67 55 42 56
REMARK SMILES IDX 43 57 52 59 68 60 45 61 34 62 35 63 39 64 36 65 38 66 37 67
REMARK SMILES IDX 56 68 57 69 61 70 58 71 60 72 59 73 46 74 47 75 51 76 48 77
REMARK SMILES IDX 50 78 49 79
REMARK H PARENT 17 6 22 28 66 47 44 58
REMARK Flexibility Score: inf
ROOT
ATOM      1  C   UNL     1       3.690  -6.322   1.621  1.00  0.00     0.023 C 
ENDROOT
BRANCH   1   2
ATOM      2  C   UNL     1       2.648  -7.413   1.441  1.00  0.00     0.116 C 
BRANCH   2   3
ATOM      3  N   UNL     1       1.815  -7.616   2.603  1.00  0.00    -0.356 N 
ATOM      4  C   UNL     1       0.477  -7.845   2.675  1.00  0.00     0.223 C 
ATOM      5  O   UNL     1       0.010  -8.130   3.781  1.00  0.00    -0.275 OA
ATOM      6  H   UNL     1       2.284  -7.584   3.468  1.00  0.00     0.163 HD
BRANCH   4   7
ATOM      7  C   UNL     1      -0.441  -7.759   1.447  1.00  0.00     0.078 C 
ATOM      8  C   UNL     1      -0.514  -6.324   0.915  1.00  0.00     0.018 C 
BRANCH   7   9
ATOM      9  C   UNL     1      -0.309  -8.897   0.380  1.00  0.00     0.005 C 
ATOM     10  C   UNL     1       2.357 -11.157  -1.886  1.00  0.00     0.265 C 
ATOM     11  O   UNL     1       3.159 -10.321  -2.308  1.00  0.00    -0.268 OA
ATOM     12  N   UNL     1       1.148 -10.728  -1.335  1.00  0.00    -0.338 N 
ATOM     13  C   UNL     1       0.446  -9.621  -1.952  1.00  0.00     0.120 C 
ATOM     14  C   UNL     1       0.549 -11.270  -0.122  1.00  0.00     0.120 C 
ATOM     15  C   UNL     1       0.264  -8.463  -0.986  1.00  0.00     0.026 C 
ATOM     16  C   UNL     1       0.384 -10.168   0.926  1.00  0.00     0.026 C 
BRANCH  10  17
ATOM     17  C   UNL     1       2.578 -12.589  -2.035  1.00  0.00     0.115 A 
ATOM     18  C   UNL     1       1.806 -16.337  -2.743  1.00  0.00     0.079 C 
ATOM     19  C   UNL     1       2.331 -14.971  -2.481  1.00  0.00     0.091 A 
ATOM     20  N   UNL     1       3.605 -14.652  -2.473  1.00  0.00    -0.246 NA
ATOM     21  S   UNL     1       1.253 -13.678  -2.205  1.00  0.00    -0.113 S 
ATOM     22  C   UNL     1       3.761 -13.285  -2.258  1.00  0.00     0.061 A 
ATOM     23  C   UNL     1       5.151 -12.752  -2.332  1.00  0.00     0.068 C 
ENDBRANCH  10  17
ENDBRANCH   7   9
ENDBRANCH   4   7
ENDBRANCH   2   3
ENDBRANCH   1   2
BRANCH   1  24
ATOM     24  C   UNL     1       4.774  -6.633   2.645  1.00  0.00     0.023 C 
BRANCH  24  25
ATOM     25  C   UNL     1       5.483  -7.969   2.454  1.00  0.00     0.116 C 
BRANCH  25  26
ATOM     26  N   UNL     1       6.116  -8.107   1.150  1.00  0.00    -0.352 N 
ATOM     27  C   UNL     1       7.419  -8.425   0.852  1.00  0.00     0.251 C 
ATOM     28  H   UNL     1       5.529  -7.952   0.375  1.00  0.00     0.163 HD
ATOM     29  O   UNL     1       7.831  -8.369  -0.303  1.00  0.00    -0.269 OA
BRANCH  27  30
ATOM     30  C   UNL     1       8.338  -8.803   1.944  1.00  0.00     0.039 A 
ATOM     31  C   UNL     1       9.584  -8.178   2.027  1.00  0.00     0.014 A 
ATOM     32  C   UNL     1       7.948  -9.738   2.906  1.00  0.00     0.014 A 
ATOM     33  C   UNL     1      10.407  -8.432   3.125  1.00  0.00     0.010 A 
ATOM     34  C   UNL     1       8.731  -9.924   4.040  1.00  0.00     0.010 A 
ATOM     35  C   UNL     1       9.967  -9.272   4.162  1.00  0.00    -0.014 A 
BRANCH  35  36
ATOM     36  C   UNL     1      10.787  -9.479   5.382  1.00  0.00     0.031 A 
ATOM     37  C   UNL     1      11.312 -10.848   5.715  1.00  0.00     0.074 A 
ATOM     38  C   UNL     1      11.007  -8.449   6.222  1.00  0.00     0.049 A 
ATOM     39  N   UNL     1      12.002 -11.236   6.758  1.00  0.00    -0.248 NA
ATOM     40  C   UNL     1      10.998 -11.929   4.766  1.00  0.00     0.031 C 
ATOM     41  C   UNL     1      10.511  -7.083   6.040  1.00  0.00     0.029 A 
ATOM     42  N   UNL     1      11.702  -8.394   7.404  1.00  0.00    -0.354 N 
ATOM     43  C   UNL     1      12.194 -12.602   6.594  1.00  0.00     0.074 A 
ATOM     44  C   UNL     1      11.498 -12.987   5.386  1.00  0.00     0.031 C 
ATOM     45  C   UNL     1      10.942  -6.319   7.057  1.00  0.00     0.029 A 
ATOM     46  C   UNL     1      11.710  -7.147   7.981  1.00  0.00     0.049 A 
ATOM     47  H   UNL     1      12.153  -9.174   7.800  1.00  0.00     0.167 HD
ATOM     48  C   UNL     1      12.907 -13.457   7.365  1.00  0.00     0.031 A 
ATOM     49  C   UNL     1      12.271  -6.719   9.127  1.00  0.00     0.031 A 
ATOM     50  C   UNL     1      13.605 -13.076   8.563  1.00  0.00     0.049 A 
ATOM     51  C   UNL     1      13.049  -7.690   9.971  1.00  0.00     0.074 A 
ATOM     52  C   UNL     1      14.391 -13.859   9.389  1.00  0.00     0.029 A 
ATOM     53  N   UNL     1      13.600 -11.800   9.105  1.00  0.00    -0.354 N 
ATOM     54  N   UNL     1      13.277  -8.964   9.767  1.00  0.00    -0.248 NA
ATOM     55  C   UNL     1      13.659  -7.157  11.198  1.00  0.00     0.031 C 
ATOM     56  C   UNL     1      14.825 -13.068  10.457  1.00  0.00     0.029 A 
ATOM     57  C   UNL     1      14.355 -11.778  10.265  1.00  0.00     0.049 A 
ATOM     58  H   UNL     1      13.129 -11.025   8.722  1.00  0.00     0.167 HD
ATOM     59  C   UNL     1      14.079  -9.379  10.822  1.00  0.00     0.074 A 
ATOM     60  C   UNL     1      14.312  -8.217  11.654  1.00  0.00     0.031 C 
ATOM     61  C   UNL     1      14.577 -10.613  11.081  1.00  0.00     0.031 A 
BRANCH  48  62
ATOM     62  C   UNL     1      12.966 -14.893   6.925  1.00  0.00    -0.014 A 
ATOM     63  C   UNL     1      13.680 -15.270   5.776  1.00  0.00     0.009 A 
ATOM     64  C   UNL     1      12.325 -15.886   7.681  1.00  0.00     0.009 A 
ATOM     65  C   UNL     1      13.718 -16.606   5.371  1.00  0.00     0.001 A 
ATOM     66  C   UNL     1      12.390 -17.226   7.292  1.00  0.00     0.001 A 
ATOM     67  C   UNL     1      13.078 -17.583   6.132  1.00  0.00     0.000 A 
ENDBRANCH  48  62
BRANCH  49  68
ATOM     68  C   UNL     1      12.131  -5.298   9.542  1.00  0.00    -0.014 A 
ATOM     69  C   UNL     1      13.238  -4.436   9.519  1.00  0.00     0.009 A 
ATOM     70  C   UNL     1      10.893  -4.800   9.977  1.00  0.00     0.009 A 
ATOM     71  C   UNL     1      13.116  -3.114   9.953  1.00  0.00     0.001 A 
ATOM     72  C   UNL     1      10.767  -3.469  10.382  1.00  0.00     0.001 A 
ATOM     73  C   UNL     1      11.880  -2.631  10.380  1.00  0.00     0.000 A 
ENDBRANCH  49  68
BRANCH  61  74
ATOM     74  C   UNL     1      15.453 -10.759  12.293  1.00  0.00    -0.014 A 
ATOM     75  C   UNL     1      14.918 -10.711  13.590  1.00  0.00     0.009 A 
ATOM     76  C   UNL     1      16.829 -10.981  12.131  1.00  0.00     0.009 A 
ATOM     77  C   UNL     1      15.752 -10.848  14.701  1.00  0.00     0.001 A 
ATOM     78  C   UNL     1      17.655 -11.147  13.243  1.00  0.00     0.001 A 
ATOM     79  C   UNL     1      17.118 -11.071  14.527  1.00  0.00     0.000 A 
ENDBRANCH  61  74
ENDBRANCH  35  36
ENDBRANCH  27  30
ENDBRANCH  25  26
ENDBRANCH  24  25
ENDBRANCH   1  24
TORSDOF 13
