REMARK SMILES C[C@H](CC[NH2+]Cc1cc(C(=O)NCCCCNC(=O)c2ccc(-c3c4nc(c(-c5ccccc5)c5ccc([nH]5)c(-c5ccccc5)c5nc(c(-c6ccccc6)c6ccc3[nH]6)C=C5)C=C4)cc2)cs1)c1ccccc1
REMARK SMILES IDX 10 1 11 2 12 3 9 5 7 6 8 7 69 8 68 9 6 10 5 11 4 14 3 15
REMARK SMILES IDX 2 16 1 17 70 18 71 19 75 20 72 21 74 22 73 23 13 24 14 25
REMARK SMILES IDX 15 26 16 27 17 28 18 29 19 31 20 32 21 33 67 34 22 35 66 36
REMARK SMILES IDX 23 37 24 38 25 39 60 40 26 41 65 42 59 43 61 44 27 45 64 46
REMARK SMILES IDX 58 47 57 48 28 50 50 51 35 52 49 53 36 54 39 55 48 56 62 57
REMARK SMILES IDX 37 58 38 59 47 61 63 62 40 63 29 64 30 65 34 66 31 67 33 68
REMARK SMILES IDX 32 69 51 70 52 71 56 72 53 73 55 74 54 75 41 76 42 77 46 78
REMARK SMILES IDX 43 79 45 80 44 81
REMARK H PARENT 12 4 5 12 5 13 17 30 61 49 39 60
REMARK Flexibility Score: inf
ROOT
ATOM      1  C   UNL     1      -5.299  -3.017  -0.479  1.00  0.00     0.252 C 
ATOM      2  O   UNL     1      -6.509  -2.871  -0.298  1.00  0.00    -0.269 OA
ATOM      3  N   UNL     1      -4.899  -3.404  -1.738  1.00  0.00    -0.352 N 
ATOM      4  H   UNL     1      -5.623  -3.748  -2.310  1.00  0.00     0.163 HD
ENDROOT
BRANCH   1   5
ATOM      5  C   UNL     1      -4.327  -2.701   0.573  1.00  0.00     0.051 A 
ATOM      6  C   UNL     1      -2.311  -2.557   1.794  1.00  0.00     0.059 A 
ATOM      7  C   UNL     1      -3.018  -3.241   0.820  1.00  0.00     0.035 A 
ATOM      8  S   UNL     1      -3.321  -1.443   2.607  1.00  0.00    -0.142 S 
ATOM      9  C   UNL     1      -4.631  -1.778   1.563  1.00  0.00     0.079 A 
BRANCH   6  10
ATOM     10  C   UNL     1      -0.869  -2.726   2.191  1.00  0.00     0.308 C 
BRANCH  10  11
ATOM     11  N   UNL     1       0.064  -2.179   1.190  1.00  0.00    -0.342 N 
ATOM     12  H   UNL     1       0.976  -2.616   1.321  1.00  0.00     0.346 HD
ATOM     13  H   UNL     1      -0.321  -2.381   0.267  1.00  0.00     0.346 HD
BRANCH  11  14
ATOM     14  C   UNL     1       0.218  -0.727   1.299  1.00  0.00     0.261 C 
BRANCH  14  15
ATOM     15  C   UNL     1       1.220  -0.115   0.292  1.00  0.00     0.069 C 
BRANCH  15  16
ATOM     16  C   UNL     1       0.854  -0.096  -1.216  1.00  0.00     0.021 C 
ATOM     17  C   UNL     1       1.240  -1.393  -1.938  1.00  0.00     0.013 C 
BRANCH  16  18
ATOM     18  C   UNL     1      -0.575   0.373  -1.427  1.00  0.00    -0.045 A 
ATOM     19  C   UNL     1      -0.856   1.748  -1.471  1.00  0.00     0.004 A 
ATOM     20  C   UNL     1      -1.648  -0.520  -1.443  1.00  0.00     0.004 A 
ATOM     21  C   UNL     1      -2.174   2.213  -1.470  1.00  0.00     0.000 A 
ATOM     22  C   UNL     1      -2.962  -0.049  -1.417  1.00  0.00     0.000 A 
ATOM     23  C   UNL     1      -3.228   1.312  -1.419  1.00  0.00     0.000 A 
ENDBRANCH  16  18
ENDBRANCH  15  16
ENDBRANCH  14  15
ENDBRANCH  11  14
ENDBRANCH  10  11
ENDBRANCH   6  10
ENDBRANCH   1   5
BRANCH   3  24
ATOM     24  C   UNL     1      -3.591  -3.391  -2.365  1.00  0.00     0.116 C 
BRANCH  24  25
ATOM     25  C   UNL     1      -3.422  -4.470  -3.426  1.00  0.00     0.023 C 
BRANCH  25  26
ATOM     26  C   UNL     1      -3.889  -4.046  -4.818  1.00  0.00     0.023 C 
BRANCH  26  27
ATOM     27  C   UNL     1      -3.148  -2.851  -5.421  1.00  0.00     0.116 C 
BRANCH  27  28
ATOM     28  N   UNL     1      -1.717  -3.078  -5.582  1.00  0.00    -0.352 N 
ATOM     29  C   UNL     1      -0.963  -3.186  -6.726  1.00  0.00     0.251 C 
ATOM     30  H   UNL     1      -1.213  -3.167  -4.742  1.00  0.00     0.163 HD
ATOM     31  O   UNL     1       0.218  -3.518  -6.656  1.00  0.00    -0.269 OA
BRANCH  29  32
ATOM     32  C   UNL     1      -1.579  -2.941  -8.046  1.00  0.00     0.039 A 
ATOM     33  C   UNL     1      -1.364  -3.861  -9.075  1.00  0.00     0.014 A 
ATOM     34  C   UNL     1      -2.384  -1.821  -8.264  1.00  0.00     0.014 A 
ATOM     35  C   UNL     1      -2.030  -3.704 -10.292  1.00  0.00     0.010 A 
ATOM     36  C   UNL     1      -3.119  -1.717  -9.442  1.00  0.00     0.010 A 
ATOM     37  C   UNL     1      -2.953  -2.659 -10.469  1.00  0.00    -0.014 A 
BRANCH  37  38
ATOM     38  C   UNL     1      -3.762  -2.551 -11.711  1.00  0.00     0.031 A 
ATOM     39  C   UNL     1      -3.636  -1.345 -12.602  1.00  0.00     0.074 A 
ATOM     40  C   UNL     1      -4.655  -3.516 -12.012  1.00  0.00     0.049 A 
ATOM     41  N   UNL     1      -4.279  -1.066 -13.709  1.00  0.00    -0.248 NA
ATOM     42  C   UNL     1      -2.684  -0.303 -12.183  1.00  0.00     0.031 C 
ATOM     43  C   UNL     1      -4.913  -4.714 -11.209  1.00  0.00     0.029 A 
ATOM     44  N   UNL     1      -5.514  -3.641 -13.076  1.00  0.00    -0.354 N 
ATOM     45  C   UNL     1      -3.820   0.183 -14.108  1.00  0.00     0.074 A 
ATOM     46  C   UNL     1      -2.889   0.634 -13.097  1.00  0.00     0.031 C 
ATOM     47  C   UNL     1      -5.836  -5.468 -11.827  1.00  0.00     0.029 A 
ATOM     48  C   UNL     1      -6.268  -4.790 -13.045  1.00  0.00     0.049 A 
ATOM     49  H   UNL     1      -5.583  -2.971 -13.794  1.00  0.00     0.167 HD
ATOM     50  C   UNL     1      -4.125   0.884 -15.226  1.00  0.00     0.031 A 
ATOM     51  C   UNL     1      -7.205  -5.247 -13.897  1.00  0.00     0.031 A 
ATOM     52  C   UNL     1      -5.045   0.434 -16.237  1.00  0.00     0.049 A 
ATOM     53  C   UNL     1      -7.539  -4.441 -15.122  1.00  0.00     0.074 A 
ATOM     54  C   UNL     1      -5.375   1.046 -17.433  1.00  0.00     0.029 A 
ATOM     55  N   UNL     1      -5.787  -0.734 -16.166  1.00  0.00    -0.354 N 
ATOM     56  N   UNL     1      -7.033  -3.301 -15.526  1.00  0.00    -0.248 NA
ATOM     57  C   UNL     1      -8.567  -4.994 -16.017  1.00  0.00     0.031 C 
ATOM     58  C   UNL     1      -6.362   0.278 -18.059  1.00  0.00     0.029 A 
ATOM     59  C   UNL     1      -6.597  -0.847 -17.284  1.00  0.00     0.049 A 
ATOM     60  H   UNL     1      -5.745  -1.388 -15.431  1.00  0.00     0.167 HD
ATOM     61  C   UNL     1      -7.659  -3.015 -16.733  1.00  0.00     0.074 A 
ATOM     62  C   UNL     1      -8.565  -4.111 -17.005  1.00  0.00     0.031 C 
ATOM     63  C   UNL     1      -7.496  -1.941 -17.543  1.00  0.00     0.031 A 
BRANCH  50  64
ATOM     64  C   UNL     1      -3.460   2.220 -15.411  1.00  0.00    -0.014 A 
ATOM     65  C   UNL     1      -2.083   2.319 -15.674  1.00  0.00     0.009 A 
ATOM     66  C   UNL     1      -4.226   3.395 -15.363  1.00  0.00     0.009 A 
ATOM     67  C   UNL     1      -1.483   3.568 -15.845  1.00  0.00     0.001 A 
ATOM     68  C   UNL     1      -3.628   4.640 -15.568  1.00  0.00     0.001 A 
ATOM     69  C   UNL     1      -2.256   4.726 -15.798  1.00  0.00     0.000 A 
ENDBRANCH  50  64
BRANCH  51  70
ATOM     70  C   UNL     1      -7.890  -6.541 -13.634  1.00  0.00    -0.014 A 
ATOM     71  C   UNL     1      -7.662  -7.652 -14.460  1.00  0.00     0.009 A 
ATOM     72  C   UNL     1      -8.791  -6.668 -12.564  1.00  0.00     0.009 A 
ATOM     73  C   UNL     1      -8.344  -8.851 -14.242  1.00  0.00     0.001 A 
ATOM     74  C   UNL     1      -9.447  -7.878 -12.328  1.00  0.00     0.001 A 
ATOM     75  C   UNL     1      -9.232  -8.964 -13.174  1.00  0.00     0.000 A 
ENDBRANCH  51  70
BRANCH  63  76
ATOM     76  C   UNL     1      -8.289  -1.915 -18.820  1.00  0.00    -0.014 A 
ATOM     77  C   UNL     1      -9.678  -1.713 -18.816  1.00  0.00     0.009 A 
ATOM     78  C   UNL     1      -7.627  -2.054 -20.050  1.00  0.00     0.009 A 
ATOM     79  C   UNL     1     -10.391  -1.688 -20.016  1.00  0.00     0.001 A 
ATOM     80  C   UNL     1      -8.337  -1.995 -21.250  1.00  0.00     0.001 A 
ATOM     81  C   UNL     1      -9.720  -1.822 -21.231  1.00  0.00     0.000 A 
ENDBRANCH  63  76
ENDBRANCH  37  38
ENDBRANCH  29  32
ENDBRANCH  27  28
ENDBRANCH  26  27
ENDBRANCH  25  26
ENDBRANCH  24  25
ENDBRANCH   3  24
TORSDOF 17
