REMARK SMILES O=C(NCCCCNC(=O)[C@@H](CCOCCO)c1cccc(F)c1)c1ccc(-c2c3nc(c(-c4ccccc4)c4ccc([nH]4)c(-c4ccccc4)c4nc(c(-c5ccccc5)c5ccc2[nH]5)C=C4)C=C3)cc1
REMARK SMILES IDX 8 1 9 2 10 3 7 5 6 6 5 7 4 8 3 9 1 10 2 11 25 13 26 14 72 15
REMARK SMILES IDX 27 16 71 17 28 18 29 19 30 20 65 21 31 22 70 23 64 24 66 25
REMARK SMILES IDX 32 26 69 27 63 28 62 29 33 31 55 32 40 33 54 34 41 35 44 36
REMARK SMILES IDX 53 37 67 38 42 39 43 40 52 42 68 43 45 44 34 45 35 46 39 47
REMARK SMILES IDX 36 48 38 49 37 50 56 51 57 52 61 53 58 54 60 55 59 56 46 57
REMARK SMILES IDX 47 58 51 59 48 60 50 61 49 62 11 63 12 64 13 65 14 66 15 67
REMARK SMILES IDX 16 68 17 69 18 71 19 72 24 73 20 74 22 75 21 76 23 77
REMARK H PARENT 8 4 3 12 66 30 44 41 17 70
REMARK Flexibility Score: inf
ROOT
ATOM      1  N   UNL     1       7.308  -1.492  -4.481  1.00  0.00    -0.356 N 
ATOM      2  C   UNL     1       7.459  -0.942  -5.721  1.00  0.00     0.227 C 
ATOM      3  O   UNL     1       8.608  -0.584  -6.012  1.00  0.00    -0.274 OA
ATOM      4  H   UNL     1       7.899  -2.250  -4.269  1.00  0.00     0.163 HD
ENDROOT
BRANCH   1   5
ATOM      5  C   UNL     1       6.380  -1.093  -3.439  1.00  0.00     0.116 C 
BRANCH   5   6
ATOM      6  C   UNL     1       5.503  -2.231  -2.910  1.00  0.00     0.023 C 
BRANCH   6   7
ATOM      7  C   UNL     1       5.326  -2.200  -1.389  1.00  0.00     0.023 C 
BRANCH   7   8
ATOM      8  C   UNL     1       4.831  -0.882  -0.804  1.00  0.00     0.116 C 
BRANCH   8   9
ATOM      9  N   UNL     1       3.395  -0.680  -0.917  1.00  0.00    -0.352 N 
ATOM     10  O   UNL     1       1.322  -0.153  -0.148  1.00  0.00    -0.269 OA
ATOM     11  C   UNL     1       2.527  -0.245   0.064  1.00  0.00     0.251 C 
ATOM     12  H   UNL     1       2.996  -0.877  -1.795  1.00  0.00     0.163 HD
BRANCH  11  13
ATOM     13  C   UNL     1       3.074   0.058   1.406  1.00  0.00     0.039 A 
ATOM     14  C   UNL     1       4.152   0.936   1.538  1.00  0.00     0.014 A 
ATOM     15  C   UNL     1       2.587  -0.637   2.516  1.00  0.00     0.014 A 
ATOM     16  C   UNL     1       4.856   0.975   2.736  1.00  0.00     0.010 A 
ATOM     17  C   UNL     1       3.246  -0.526   3.745  1.00  0.00     0.010 A 
ATOM     18  C   UNL     1       4.418   0.240   3.853  1.00  0.00    -0.014 A 
BRANCH  18  19
ATOM     19  C   UNL     1       5.186   0.314   5.124  1.00  0.00     0.031 A 
ATOM     20  C   UNL     1       5.862  -0.898   5.710  1.00  0.00     0.074 A 
ATOM     21  C   UNL     1       5.304   1.507   5.739  1.00  0.00     0.049 A 
ATOM     22  N   UNL     1       6.576  -0.993   6.806  1.00  0.00    -0.248 NA
ATOM     23  C   UNL     1       5.719  -2.168   4.982  1.00  0.00     0.031 C 
ATOM     24  C   UNL     1       4.698   2.757   5.273  1.00  0.00     0.029 A 
ATOM     25  N   UNL     1       5.988   1.870   6.870  1.00  0.00    -0.354 N 
ATOM     26  C   UNL     1       6.938  -2.330   6.915  1.00  0.00     0.074 A 
ATOM     27  C   UNL     1       6.357  -3.015   5.780  1.00  0.00     0.031 C 
ATOM     28  C   UNL     1       5.080   3.757   6.079  1.00  0.00     0.029 A 
ATOM     29  C   UNL     1       5.897   3.210   7.155  1.00  0.00     0.049 A 
ATOM     30  H   UNL     1       6.495   1.233   7.423  1.00  0.00     0.167 HD
ATOM     31  C   UNL     1       7.684  -2.932   7.874  1.00  0.00     0.031 A 
ATOM     32  C   UNL     1       6.395   3.926   8.180  1.00  0.00     0.031 A 
ATOM     33  C   UNL     1       8.274  -2.249   8.997  1.00  0.00     0.049 A 
ATOM     34  C   UNL     1       7.204   3.232   9.233  1.00  0.00     0.074 A 
ATOM     35  C   UNL     1       9.077  -2.770   9.999  1.00  0.00     0.029 A 
ATOM     36  N   UNL     1       8.126  -0.898   9.268  1.00  0.00    -0.354 N 
ATOM     37  N   UNL     1       7.547   1.970   9.309  1.00  0.00    -0.248 NA
ATOM     38  C   UNL     1       7.689   4.061  10.344  1.00  0.00     0.031 C 
ATOM     39  C   UNL     1       9.373  -1.744  10.902  1.00  0.00     0.029 A 
ATOM     40  C   UNL     1       8.800  -0.573  10.435  1.00  0.00     0.049 A 
ATOM     41  H   UNL     1       7.617  -0.263   8.714  1.00  0.00     0.167 HD
ATOM     42  C   UNL     1       8.294   1.853  10.472  1.00  0.00     0.074 A 
ATOM     43  C   UNL     1       8.375   3.177  11.055  1.00  0.00     0.031 C 
ATOM     44  C   UNL     1       8.858   0.745  11.011  1.00  0.00     0.031 A 
BRANCH  31  45
ATOM     45  C   UNL     1       7.885  -4.421   7.776  1.00  0.00    -0.014 A 
ATOM     46  C   UNL     1       8.750  -4.983   6.825  1.00  0.00     0.009 A 
ATOM     47  C   UNL     1       7.249  -5.268   8.699  1.00  0.00     0.009 A 
ATOM     48  C   UNL     1       8.953  -6.366   6.783  1.00  0.00     0.001 A 
ATOM     49  C   UNL     1       7.472  -6.646   8.671  1.00  0.00     0.001 A 
ATOM     50  C   UNL     1       8.318  -7.195   7.709  1.00  0.00     0.000 A 
ENDBRANCH  31  45
BRANCH  32  51
ATOM     51  C   UNL     1       6.112   5.381   8.258  1.00  0.00    -0.014 A 
ATOM     52  C   UNL     1       7.126   6.321   8.023  1.00  0.00     0.009 A 
ATOM     53  C   UNL     1       4.812   5.834   8.532  1.00  0.00     0.009 A 
ATOM     54  C   UNL     1       6.843   7.688   8.070  1.00  0.00     0.001 A 
ATOM     55  C   UNL     1       4.526   7.200   8.548  1.00  0.00     0.001 A 
ATOM     56  C   UNL     1       5.543   8.125   8.323  1.00  0.00     0.000 A 
ENDBRANCH  32  51
BRANCH  44  57
ATOM     57  C   UNL     1       9.624   0.928  12.289  1.00  0.00    -0.014 A 
ATOM     58  C   UNL     1       8.960   1.150  13.506  1.00  0.00     0.009 A 
ATOM     59  C   UNL     1      11.025   0.863  12.278  1.00  0.00     0.009 A 
ATOM     60  C   UNL     1       9.689   1.337  14.682  1.00  0.00     0.001 A 
ATOM     61  C   UNL     1      11.750   1.024  13.460  1.00  0.00     0.001 A 
ATOM     62  C   UNL     1      11.082   1.271  14.658  1.00  0.00     0.000 A 
ENDBRANCH  44  57
ENDBRANCH  18  19
ENDBRANCH  11  13
ENDBRANCH   8   9
ENDBRANCH   7   8
ENDBRANCH   6   7
ENDBRANCH   5   6
ENDBRANCH   1   5
BRANCH   2  63
ATOM     63  C   UNL     1       6.335  -0.891  -6.779  1.00  0.00     0.111 C 
BRANCH  63  64
ATOM     64  C   UNL     1       5.176  -1.897  -6.562  1.00  0.00     0.047 C 
BRANCH  64  65
ATOM     65  C   UNL     1       3.824  -1.353  -6.089  1.00  0.00     0.161 C 
BRANCH  65  66
ATOM     66  O   UNL     1       3.995  -0.339  -5.112  1.00  0.00    -0.379 OA
BRANCH  66  67
ATOM     67  C   UNL     1       3.080   0.752  -5.255  1.00  0.00     0.188 C 
BRANCH  67  68
ATOM     68  C   UNL     1       3.423   1.800  -4.197  1.00  0.00     0.184 C 
BRANCH  68  69
ATOM     69  O   UNL     1       4.788   2.200  -4.291  1.00  0.00    -0.394 OA
ATOM     70  H   UNL     1       5.362   1.431  -4.147  1.00  0.00     0.210 HD
ENDBRANCH  68  69
ENDBRANCH  67  68
ENDBRANCH  66  67
ENDBRANCH  65  66
ENDBRANCH  64  65
ENDBRANCH  63  64
BRANCH  63  71
ATOM     71  C   UNL     1       5.966   0.482  -7.352  1.00  0.00    -0.033 A 
ATOM     72  C   UNL     1       4.998   0.576  -8.376  1.00  0.00     0.005 A 
ATOM     73  C   UNL     1       6.574   1.676  -6.936  1.00  0.00     0.043 A 
ATOM     74  C   UNL     1       4.564   1.812  -8.869  1.00  0.00     0.003 A 
ATOM     75  C   UNL     1       6.150   2.905  -7.447  1.00  0.00     0.123 A 
ATOM     76  C   UNL     1       5.133   2.984  -8.388  1.00  0.00     0.039 A 
ATOM     77  F   UNL     1       6.727   4.034  -7.014  1.00  0.00    -0.207 F 
ENDBRANCH  63  71
ENDBRANCH   2  63
TORSDOF 18
