REMARK SMILES O=C(CC1CN(C(=O)C[C@H]2CCCCO2)C1)NCCCCNC(=O)c1ccc(-c2c3nc(c(-c4ccccc4)c4ccc([nH]4)c(-c4ccccc4)c4nc(c(-c5ccccc5)c5ccc2[nH]5)C=C4)C=C3)cc1
REMARK SMILES IDX 19 1 18 2 17 3 1 4 2 5 3 7 4 8 5 9 16 10 6 11 7 12 8 13 9 14
REMARK SMILES IDX 10 15 11 16 15 17 12 18 14 19 13 20 20 21 21 22 22 23 23 24
REMARK SMILES IDX 24 26 25 27 26 28 72 29 27 30 71 31 28 32 29 33 30 34 65 35
REMARK SMILES IDX 31 36 70 37 64 38 66 39 32 40 69 41 63 42 62 43 33 45 55 46
REMARK SMILES IDX 40 47 54 48 41 49 44 50 53 51 67 52 42 53 43 54 52 56 68 57
REMARK SMILES IDX 45 58 34 59 35 60 39 61 36 62 38 63 37 64 56 65 57 66 61 67
REMARK SMILES IDX 58 68 60 69 59 70 46 71 47 72 51 73 48 74 50 75 49 76
REMARK H PARENT 17 6 22 25 66 44 44 55
REMARK Flexibility Score: inf
ROOT
ATOM      1  C   UNL     1       5.562 -12.734   5.804  1.00  0.00     0.023 C 
ENDROOT
BRANCH   1   2
ATOM      2  C   UNL     1       4.875 -11.387   5.594  1.00  0.00     0.116 C 
BRANCH   2   3
ATOM      3  N   UNL     1       3.835 -11.447   4.582  1.00  0.00    -0.356 N 
ATOM      4  O   UNL     1       2.140 -10.770   5.972  1.00  0.00    -0.275 OA
ATOM      5  C   UNL     1       2.532 -11.096   4.856  1.00  0.00     0.220 C 
ATOM      6  H   UNL     1       4.068 -11.748   3.674  1.00  0.00     0.163 HD
BRANCH   5   7
ATOM      7  C   UNL     1       1.588 -11.159   3.672  1.00  0.00     0.107 C 
BRANCH   7   8
ATOM      8  C   UNL     1       2.014 -10.347   2.452  1.00  0.00     0.037 C 
ATOM      9  C   UNL     1       0.933  -9.443   1.801  1.00  0.00     0.125 C 
ATOM     10  C   UNL     1       2.813  -9.055   2.702  1.00  0.00     0.125 C 
ATOM     11  N   UNL     1       1.980  -8.447   1.691  1.00  0.00    -0.342 N 
ATOM     12  C   UNL     1       2.050  -7.295   0.963  1.00  0.00     0.225 C 
ATOM     13  O   UNL     1       1.122  -6.915   0.247  1.00  0.00    -0.275 OA
BRANCH  12  14
ATOM     14  C   UNL     1       3.365  -6.531   1.007  1.00  0.00     0.132 C 
BRANCH  14  15
ATOM     15  C   UNL     1       3.567  -5.640   2.235  1.00  0.00     0.127 C 
ATOM     16  C   UNL     1       2.638  -4.423   2.247  1.00  0.00     0.033 C 
ATOM     17  O   UNL     1       3.423  -6.430   3.413  1.00  0.00    -0.378 OA
ATOM     18  C   UNL     1       2.793  -3.639   3.548  1.00  0.00     0.005 C 
ATOM     19  C   UNL     1       3.591  -5.728   4.637  1.00  0.00     0.160 C 
ATOM     20  C   UNL     1       2.616  -4.569   4.740  1.00  0.00     0.029 C 
ENDBRANCH  14  15
ENDBRANCH  12  14
ENDBRANCH   7   8
ENDBRANCH   5   7
ENDBRANCH   2   3
ENDBRANCH   1   2
BRANCH   1  21
ATOM     21  C   UNL     1       6.293 -13.285   4.576  1.00  0.00     0.023 C 
BRANCH  21  22
ATOM     22  C   UNL     1       7.385 -12.386   4.005  1.00  0.00     0.116 C 
BRANCH  22  23
ATOM     23  N   UNL     1       8.501 -12.194   4.918  1.00  0.00    -0.352 N 
ATOM     24  C   UNL     1       9.848 -12.349   4.697  1.00  0.00     0.251 C 
ATOM     25  H   UNL     1       8.255 -11.911   5.828  1.00  0.00     0.163 HD
ATOM     26  O   UNL     1      10.636 -12.273   5.637  1.00  0.00    -0.269 OA
BRANCH  24  27
ATOM     27  C   UNL     1      10.358 -12.640   3.338  1.00  0.00     0.039 A 
ATOM     28  C   UNL     1      11.336 -13.627   3.184  1.00  0.00     0.014 A 
ATOM     29  C   UNL     1       9.884 -11.949   2.220  1.00  0.00     0.014 A 
ATOM     30  C   UNL     1      11.781 -13.973   1.905  1.00  0.00     0.010 A 
ATOM     31  C   UNL     1      10.273 -12.346   0.941  1.00  0.00     0.010 A 
ATOM     32  C   UNL     1      11.222 -13.365   0.768  1.00  0.00    -0.014 A 
BRANCH  32  33
ATOM     33  C   UNL     1      11.598 -13.802  -0.602  1.00  0.00     0.031 A 
ATOM     34  C   UNL     1      12.268 -12.849  -1.554  1.00  0.00     0.074 A 
ATOM     35  C   UNL     1      11.278 -15.044  -1.016  1.00  0.00     0.049 A 
ATOM     36  N   UNL     1      12.613 -13.038  -2.803  1.00  0.00    -0.248 NA
ATOM     37  C   UNL     1      12.571 -11.501  -1.046  1.00  0.00     0.031 C 
ATOM     38  C   UNL     1      10.594 -16.057  -0.209  1.00  0.00     0.029 A 
ATOM     39  N   UNL     1      11.481 -15.665  -2.224  1.00  0.00    -0.354 N 
ATOM     40  C   UNL     1      13.155 -11.833  -3.233  1.00  0.00     0.074 A 
ATOM     41  C   UNL     1      13.054 -10.906  -2.127  1.00  0.00     0.031 C 
ATOM     42  C   UNL     1      10.460 -17.179  -0.933  1.00  0.00     0.029 A 
ATOM     43  C   UNL     1      11.005 -16.954  -2.268  1.00  0.00     0.049 A 
ATOM     44  H   UNL     1      11.925 -15.229  -2.987  1.00  0.00     0.167 HD
ATOM     45  C   UNL     1      13.701 -11.530  -4.435  1.00  0.00     0.031 A 
ATOM     46  C   UNL     1      10.997 -17.854  -3.270  1.00  0.00     0.031 A 
ATOM     47  C   UNL     1      13.814 -12.453  -5.534  1.00  0.00     0.049 A 
ATOM     48  C   UNL     1      11.599 -17.489  -4.597  1.00  0.00     0.074 A 
ATOM     49  C   UNL     1      14.408 -12.250  -6.768  1.00  0.00     0.029 A 
ATOM     50  N   UNL     1      13.321 -13.748  -5.535  1.00  0.00    -0.354 N 
ATOM     51  N   UNL     1      12.159 -16.364  -4.967  1.00  0.00    -0.248 NA
ATOM     52  C   UNL     1      11.578 -18.524  -5.641  1.00  0.00     0.031 C 
ATOM     53  C   UNL     1      14.220 -13.401  -7.538  1.00  0.00     0.029 A 
ATOM     54  C   UNL     1      13.572 -14.346  -6.759  1.00  0.00     0.049 A 
ATOM     55  H   UNL     1      12.861 -14.179  -4.779  1.00  0.00     0.167 HD
ATOM     56  C   UNL     1      12.580 -16.562  -6.276  1.00  0.00     0.074 A 
ATOM     57  C   UNL     1      12.225 -17.921  -6.629  1.00  0.00     0.031 C 
ATOM     58  C   UNL     1      13.207 -15.695  -7.107  1.00  0.00     0.031 A 
BRANCH  45  59
ATOM     59  C   UNL     1      14.216 -10.131  -4.636  1.00  0.00    -0.014 A 
ATOM     60  C   UNL     1      15.375  -9.679  -3.985  1.00  0.00     0.009 A 
ATOM     61  C   UNL     1      13.569  -9.275  -5.542  1.00  0.00     0.009 A 
ATOM     62  C   UNL     1      15.860  -8.390  -4.218  1.00  0.00     0.001 A 
ATOM     63  C   UNL     1      14.073  -7.998  -5.795  1.00  0.00     0.001 A 
ATOM     64  C   UNL     1      15.213  -7.554  -5.127  1.00  0.00     0.000 A 
ENDBRANCH  45  59
BRANCH  46  65
ATOM     65  C   UNL     1      10.403 -19.199  -3.047  1.00  0.00    -0.014 A 
ATOM     66  C   UNL     1      11.222 -20.336  -2.968  1.00  0.00     0.009 A 
ATOM     67  C   UNL     1       9.016 -19.351  -2.898  1.00  0.00     0.009 A 
ATOM     68  C   UNL     1      10.661 -21.599  -2.762  1.00  0.00     0.001 A 
ATOM     69  C   UNL     1       8.461 -20.610  -2.662  1.00  0.00     0.001 A 
ATOM     70  C   UNL     1       9.283 -21.734  -2.602  1.00  0.00     0.000 A 
ENDBRANCH  46  65
BRANCH  58  71
ATOM     71  C   UNL     1      13.582 -16.194  -8.475  1.00  0.00    -0.014 A 
ATOM     72  C   UNL     1      12.611 -16.435  -9.459  1.00  0.00     0.009 A 
ATOM     73  C   UNL     1      14.936 -16.378  -8.799  1.00  0.00     0.009 A 
ATOM     74  C   UNL     1      12.986 -16.881 -10.728  1.00  0.00     0.001 A 
ATOM     75  C   UNL     1      15.311 -16.793 -10.077  1.00  0.00     0.001 A 
ATOM     76  C   UNL     1      14.335 -17.053 -11.038  1.00  0.00     0.000 A 
ENDBRANCH  58  71
ENDBRANCH  32  33
ENDBRANCH  24  27
ENDBRANCH  22  23
ENDBRANCH  21  22
ENDBRANCH   1  21
TORSDOF 14
