REMARK SMILES CC[C@H](C(=O)NCCCCNC(=O)c1ccc(-c2c3nc(c(-c4ccccc4)c4ccc([nH]4)c(-c4ccccc4)c4nc(c(-c5ccccc5)c5ccc2[nH]5)C=C4)C=C3)cc1)N(C)c1cc(C)ccc1[N+](=O)[O-]
REMARK SMILES IDX 8 1 7 2 6 3 4 4 5 5 3 7 2 8 1 9 62 10 63 11 64 12 65 13
REMARK SMILES IDX 70 14 66 15 69 16 67 17 68 18 71 19 72 20 73 21 9 22 10 23
REMARK SMILES IDX 11 24 12 25 13 27 14 28 15 29 61 30 16 31 60 32 17 33 18 34
REMARK SMILES IDX 19 35 54 36 20 37 59 38 53 39 55 40 21 41 58 42 52 43 51 44
REMARK SMILES IDX 22 46 44 47 29 48 43 49 30 50 33 51 42 52 56 53 31 54 32 55
REMARK SMILES IDX 41 57 57 58 34 59 23 60 24 61 28 62 25 63 27 64 26 65 45 66
REMARK SMILES IDX 46 67 50 68 47 69 49 70 48 71 35 72 36 73 40 74 37 75 39 76
REMARK SMILES IDX 38 77
REMARK H PARENT 6 6 11 26 55 45 33 56
REMARK Flexibility Score: inf
ROOT
ATOM      1  C   UNL     1      -1.489  -0.457  -2.380  1.00  0.00     0.023 C 
ENDROOT
BRANCH   1   2
ATOM      2  C   UNL     1      -1.356   0.706  -1.399  1.00  0.00     0.116 C 
BRANCH   2   3
ATOM      3  N   UNL     1      -0.368   0.405  -0.387  1.00  0.00    -0.354 N 
ATOM      4  C   UNL     1       0.745   1.066   0.023  1.00  0.00     0.242 C 
ATOM      5  O   UNL     1       1.418   0.502   0.895  1.00  0.00    -0.273 OA
ATOM      6  H   UNL     1      -0.533  -0.437   0.095  1.00  0.00     0.163 HD
BRANCH   4   7
ATOM      7  C   UNL     1       1.160   2.460  -0.493  1.00  0.00     0.171 C 
BRANCH   7   8
ATOM      8  C   UNL     1       1.191   2.708  -2.008  1.00  0.00     0.032 C 
ATOM      9  C   UNL     1       1.820   1.565  -2.798  1.00  0.00     0.006 C 
ENDBRANCH   7   8
BRANCH   7  10
ATOM     10  N   UNL     1       0.535   3.594   0.257  1.00  0.00    -0.357 N 
ATOM     11  C   UNL     1       1.422   4.707   0.604  1.00  0.00     0.144 C 
BRANCH  10  12
ATOM     12  C   UNL     1      -0.828   3.848   0.358  1.00  0.00     0.116 A 
ATOM     13  C   UNL     1      -1.370   4.980  -0.294  1.00  0.00     0.036 A 
ATOM     14  C   UNL     1      -1.737   3.133   1.164  1.00  0.00     0.292 A 
ATOM     15  C   UNL     1      -2.718   5.373  -0.160  1.00  0.00    -0.049 A 
ATOM     16  C   UNL     1      -3.107   3.458   1.242  1.00  0.00     0.088 A 
ATOM     17  C   UNL     1      -3.182   6.680  -0.736  1.00  0.00     0.044 C 
ATOM     18  C   UNL     1      -3.592   4.580   0.582  1.00  0.00     0.010 A 
BRANCH  14  19
ATOM     19  N   UNL     1      -1.295   2.118   2.109  1.00  0.00     0.064 N 
ATOM     20  O   UNL     1      -1.907   1.036   2.090  1.00  0.00    -0.258 OA
ATOM     21  O   UNL     1      -0.429   2.436   2.935  1.00  0.00    -0.258 OA
ENDBRANCH  14  19
ENDBRANCH  10  12
ENDBRANCH   7  10
ENDBRANCH   4   7
ENDBRANCH   2   3
ENDBRANCH   1   2
BRANCH   1  22
ATOM     22  C   UNL     1      -2.287  -1.639  -1.829  1.00  0.00     0.023 C 
BRANCH  22  23
ATOM     23  C   UNL     1      -3.720  -1.307  -1.431  1.00  0.00     0.116 C 
BRANCH  23  24
ATOM     24  N   UNL     1      -4.490  -0.722  -2.521  1.00  0.00    -0.352 N 
ATOM     25  C   UNL     1      -5.768  -1.023  -2.920  1.00  0.00     0.251 C 
ATOM     26  H   UNL     1      -4.034  -0.019  -3.039  1.00  0.00     0.163 HD
ATOM     27  O   UNL     1      -6.243  -0.536  -3.941  1.00  0.00    -0.269 OA
BRANCH  25  28
ATOM     28  C   UNL     1      -6.553  -1.970  -2.110  1.00  0.00     0.039 A 
ATOM     29  C   UNL     1      -7.111  -3.091  -2.727  1.00  0.00     0.014 A 
ATOM     30  C   UNL     1      -6.664  -1.780  -0.730  1.00  0.00     0.014 A 
ATOM     31  C   UNL     1      -7.725  -4.067  -1.942  1.00  0.00     0.010 A 
ATOM     32  C   UNL     1      -7.213  -2.784   0.054  1.00  0.00     0.010 A 
ATOM     33  C   UNL     1      -7.746  -3.937  -0.544  1.00  0.00    -0.014 A 
BRANCH  33  34
ATOM     34  C   UNL     1      -8.317  -4.996   0.322  1.00  0.00     0.031 A 
ATOM     35  C   UNL     1      -9.529  -4.702   1.158  1.00  0.00     0.074 A 
ATOM     36  C   UNL     1      -7.695  -6.186   0.420  1.00  0.00     0.049 A 
ATOM     37  N   UNL     1     -10.121  -5.457   2.047  1.00  0.00    -0.248 NA
ATOM     38  C   UNL     1     -10.139  -3.372   0.994  1.00  0.00     0.031 C 
ATOM     39  C   UNL     1      -6.483  -6.577  -0.305  1.00  0.00     0.029 A 
ATOM     40  N   UNL     1      -7.994  -7.286   1.183  1.00  0.00    -0.354 N 
ATOM     41  C   UNL     1     -11.152  -4.685   2.567  1.00  0.00     0.074 A 
ATOM     42  C   UNL     1     -11.079  -3.390   1.926  1.00  0.00     0.031 C 
ATOM     43  C   UNL     1      -6.156  -7.835   0.033  1.00  0.00     0.029 A 
ATOM     44  C   UNL     1      -7.110  -8.325   1.022  1.00  0.00     0.049 A 
ATOM     45  H   UNL     1      -8.769  -7.327   1.789  1.00  0.00     0.167 HD
ATOM     46  C   UNL     1     -12.086  -5.029   3.484  1.00  0.00     0.031 A 
ATOM     47  C   UNL     1      -7.069  -9.534   1.612  1.00  0.00     0.031 A 
ATOM     48  C   UNL     1     -12.172  -6.322   4.103  1.00  0.00     0.049 A 
ATOM     49  C   UNL     1      -8.125  -9.895   2.619  1.00  0.00     0.074 A 
ATOM     50  C   UNL     1     -13.121  -6.790   4.994  1.00  0.00     0.029 A 
ATOM     51  N   UNL     1     -11.273  -7.356   3.892  1.00  0.00    -0.354 N 
ATOM     52  N   UNL     1      -9.133  -9.178   3.050  1.00  0.00    -0.248 NA
ATOM     53  C   UNL     1      -8.040 -11.238   3.212  1.00  0.00     0.031 C 
ATOM     54  C   UNL     1     -12.775  -8.098   5.352  1.00  0.00     0.029 A 
ATOM     55  C   UNL     1     -11.636  -8.457   4.649  1.00  0.00     0.049 A 
ATOM     56  H   UNL     1     -10.493  -7.314   3.293  1.00  0.00     0.167 HD
ATOM     57  C   UNL     1      -9.818  -9.989   3.945  1.00  0.00     0.074 A 
ATOM     58  C   UNL     1      -9.118 -11.257   3.985  1.00  0.00     0.031 C 
ATOM     59  C   UNL     1     -10.928  -9.710   4.670  1.00  0.00     0.031 A 
BRANCH  46  60
ATOM     60  C   UNL     1     -13.090  -3.980   3.869  1.00  0.00    -0.014 A 
ATOM     61  C   UNL     1     -14.096  -3.576   2.977  1.00  0.00     0.009 A 
ATOM     62  C   UNL     1     -13.041  -3.402   5.147  1.00  0.00     0.009 A 
ATOM     63  C   UNL     1     -15.011  -2.588   3.345  1.00  0.00     0.001 A 
ATOM     64  C   UNL     1     -13.974  -2.434   5.521  1.00  0.00     0.001 A 
ATOM     65  C   UNL     1     -14.952  -2.021   4.617  1.00  0.00     0.000 A 
ENDBRANCH  46  60
BRANCH  47  66
ATOM     66  C   UNL     1      -6.003 -10.503   1.252  1.00  0.00    -0.014 A 
ATOM     67  C   UNL     1      -6.306 -11.633   0.476  1.00  0.00     0.009 A 
ATOM     68  C   UNL     1      -4.682 -10.308   1.682  1.00  0.00     0.009 A 
ATOM     69  C   UNL     1      -5.312 -12.561   0.160  1.00  0.00     0.001 A 
ATOM     70  C   UNL     1      -3.685 -11.226   1.343  1.00  0.00     0.001 A 
ATOM     71  C   UNL     1      -4.002 -12.356   0.591  1.00  0.00     0.000 A 
ENDBRANCH  47  66
BRANCH  59  72
ATOM     72  C   UNL     1     -11.474 -10.805   5.538  1.00  0.00    -0.014 A 
ATOM     73  C   UNL     1     -10.846 -11.159   6.742  1.00  0.00     0.009 A 
ATOM     74  C   UNL     1     -12.660 -11.459   5.168  1.00  0.00     0.009 A 
ATOM     75  C   UNL     1     -11.382 -12.167   7.545  1.00  0.00     0.001 A 
ATOM     76  C   UNL     1     -13.206 -12.448   5.985  1.00  0.00     0.001 A 
ATOM     77  C   UNL     1     -12.563 -12.806   7.169  1.00  0.00     0.000 A 
ENDBRANCH  59  72
ENDBRANCH  33  34
ENDBRANCH  25  28
ENDBRANCH  23  24
ENDBRANCH  22  23
ENDBRANCH   1  22
TORSDOF 15
