REMARK SMILES Cc1cc(=O)oc2cc(O[C@@H](C)C(=O)N[C@H](CC(C)C)C(=O)NCCCCNC(=O)c3ccc(-c4c5nc(c(-c6ccccc6)c6ccc([nH]6)c(-c6ccccc6)c6nc(c(-c7ccccc7)c7ccc4[nH]7)C=C6)C=C5)cc3)ccc12
REMARK SMILES IDX 24 1 23 2 21 3 22 4 16 6 15 7 13 8 14 9 11 11 12 12 10 13
REMARK SMILES IDX 9 14 1 15 2 16 3 17 81 18 4 19 7 20 80 21 5 22 6 23 8 24
REMARK SMILES IDX 79 25 17 26 18 27 19 28 20 29 25 30 26 31 27 32 28 33 29 34
REMARK SMILES IDX 30 36 31 37 32 38 78 39 33 40 77 41 34 42 35 43 36 44 71 45
REMARK SMILES IDX 37 46 76 47 70 48 72 49 38 50 75 51 69 52 68 53 39 55 61 56
REMARK SMILES IDX 46 57 60 58 47 59 50 60 59 61 73 62 48 63 49 64 58 66 74 67
REMARK SMILES IDX 51 68 40 69 41 70 45 71 42 72 44 73 43 74 62 75 63 76 67 77
REMARK SMILES IDX 64 78 66 79 65 80 52 81 53 82 57 83 54 84 56 85 55 86
REMARK H PARENT 23 5 15 10 28 35 72 54 50 65
REMARK Flexibility Score: inf
ROOT
ATOM      1  C   UNL     1      -1.367   2.881   2.755  1.00  0.00     0.116 C 
ENDROOT
BRANCH   1   2
ATOM      2  N   UNL     1      -0.762   3.353   1.527  1.00  0.00    -0.354 N 
ATOM      3  C   UNL     1       0.507   3.151   1.079  1.00  0.00     0.242 C 
ATOM      4  O   UNL     1       1.126   4.109   0.622  1.00  0.00    -0.273 OA
ATOM      5  H   UNL     1      -1.343   3.889   0.940  1.00  0.00     0.163 HD
BRANCH   3   6
ATOM      6  C   UNL     1       1.266   1.887   1.411  1.00  0.00     0.171 C 
BRANCH   6   7
ATOM      7  N   UNL     1       0.297   0.800   1.442  1.00  0.00    -0.341 N 
ATOM      8  C   UNL     1      -0.608   0.373   0.497  1.00  0.00     0.261 C 
ATOM      9  O   UNL     1      -1.243  -0.642   0.832  1.00  0.00    -0.271 OA
ATOM     10  H   UNL     1       0.288   0.283   2.280  1.00  0.00     0.164 HD
BRANCH   8  11
ATOM     11  C   UNL     1      -0.901   1.004  -0.960  1.00  0.00     0.258 C 
ATOM     12  C   UNL     1       0.204   0.641  -1.946  1.00  0.00     0.064 C 
BRANCH  11  13
ATOM     13  O   UNL     1      -1.674   2.178  -1.267  1.00  0.00    -0.481 OA
BRANCH  13  14
ATOM     14  C   UNL     1      -1.194   3.425  -1.542  1.00  0.00     0.124 A 
ATOM     15  C   UNL     1       0.036   7.953   0.579  1.00  0.00     0.045 C 
ATOM     16  C   UNL     1       0.688   6.990  -0.370  1.00  0.00    -0.033 A 
ATOM     17  C   UNL     1       2.024   6.856  -0.388  1.00  0.00     0.098 A 
ATOM     18  C   UNL     1      -0.109   5.984  -1.106  1.00  0.00     0.021 A 
ATOM     19  C   UNL     1       2.730   5.828  -1.178  1.00  0.00     0.336 A 
ATOM     20  C   UNL     1       0.579   5.010  -1.839  1.00  0.00     0.142 A 
ATOM     21  C   UNL     1      -1.468   5.762  -0.875  1.00  0.00     0.016 A 
ATOM     22  O   UNL     1       3.933   5.667  -1.068  1.00  0.00    -0.246 OA
ATOM     23  O   UNL     1       1.962   5.119  -2.088  1.00  0.00    -0.423 OA
ATOM     24  C   UNL     1       0.034   3.743  -2.093  1.00  0.00     0.094 A 
ATOM     25  C   UNL     1      -2.009   4.483  -1.104  1.00  0.00     0.047 A 
ENDBRANCH  13  14
ENDBRANCH  11  13
ENDBRANCH   8  11
ENDBRANCH   6   7
BRANCH   6  26
ATOM     26  C   UNL     1       1.945   2.421   2.707  1.00  0.00     0.038 C 
BRANCH  26  27
ATOM     27  C   UNL     1       2.881   1.680   3.647  1.00  0.00    -0.015 C 
ATOM     28  C   UNL     1       4.089   1.093   2.938  1.00  0.00     0.007 C 
ATOM     29  C   UNL     1       3.357   2.738   4.676  1.00  0.00     0.007 C 
ENDBRANCH  26  27
ENDBRANCH   6  26
ENDBRANCH   3   6
ENDBRANCH   1   2
BRANCH   1  30
ATOM     30  C   UNL     1      -1.593   4.110   3.632  1.00  0.00     0.023 C 
BRANCH  30  31
ATOM     31  C   UNL     1      -2.862   4.871   3.241  1.00  0.00     0.023 C 
BRANCH  31  32
ATOM     32  C   UNL     1      -4.140   4.063   3.433  1.00  0.00     0.116 C 
BRANCH  32  33
ATOM     33  N   UNL     1      -4.243   3.519   4.779  1.00  0.00    -0.352 N 
ATOM     34  C   UNL     1      -5.291   3.584   5.654  1.00  0.00     0.251 C 
ATOM     35  H   UNL     1      -3.448   3.038   5.104  1.00  0.00     0.163 HD
ATOM     36  O   UNL     1      -5.146   3.257   6.828  1.00  0.00    -0.269 OA
BRANCH  34  37
ATOM     37  C   UNL     1      -6.593   4.068   5.169  1.00  0.00     0.039 A 
ATOM     38  C   UNL     1      -7.273   5.034   5.910  1.00  0.00     0.014 A 
ATOM     39  C   UNL     1      -7.121   3.578   3.970  1.00  0.00     0.014 A 
ATOM     40  C   UNL     1      -8.469   5.552   5.419  1.00  0.00     0.010 A 
ATOM     41  C   UNL     1      -8.274   4.146   3.448  1.00  0.00     0.010 A 
ATOM     42  C   UNL     1      -8.960   5.132   4.172  1.00  0.00    -0.014 A 
BRANCH  42  43
ATOM     43  C   UNL     1     -10.199   5.711   3.607  1.00  0.00     0.031 A 
ATOM     44  C   UNL     1     -11.411   4.846   3.417  1.00  0.00     0.074 A 
ATOM     45  C   UNL     1     -10.207   6.996   3.206  1.00  0.00     0.049 A 
ATOM     46  N   UNL     1     -12.567   5.152   2.886  1.00  0.00    -0.248 NA
ATOM     47  C   UNL     1     -11.303   3.445   3.859  1.00  0.00     0.031 C 
ATOM     48  C   UNL     1      -9.076   7.922   3.301  1.00  0.00     0.029 A 
ATOM     49  N   UNL     1     -11.202   7.742   2.631  1.00  0.00    -0.354 N 
ATOM     50  C   UNL     1     -13.314   3.982   2.913  1.00  0.00     0.074 A 
ATOM     51  C   UNL     1     -12.468   2.949   3.468  1.00  0.00     0.031 C 
ATOM     52  C   UNL     1      -9.451   9.121   2.825  1.00  0.00     0.029 A 
ATOM     53  C   UNL     1     -10.831   9.036   2.360  1.00  0.00     0.049 A 
ATOM     54  H   UNL     1     -12.097   7.385   2.430  1.00  0.00     0.167 HD
ATOM     55  C   UNL     1     -14.596   3.790   2.526  1.00  0.00     0.031 A 
ATOM     56  C   UNL     1     -11.527  10.040   1.797  1.00  0.00     0.031 A 
ATOM     57  C   UNL     1     -15.440   4.822   1.988  1.00  0.00     0.049 A 
ATOM     58  C   UNL     1     -12.947   9.800   1.372  1.00  0.00     0.074 A 
ATOM     59  C   UNL     1     -16.773   4.743   1.623  1.00  0.00     0.029 A 
ATOM     60  N   UNL     1     -15.031   6.122   1.738  1.00  0.00    -0.354 N 
ATOM     61  N   UNL     1     -13.662   8.705   1.465  1.00  0.00    -0.248 NA
ATOM     62  C   UNL     1     -13.659  10.937   0.773  1.00  0.00     0.031 C 
ATOM     63  C   UNL     1     -17.158   5.987   1.111  1.00  0.00     0.029 A 
ATOM     64  C   UNL     1     -16.078   6.851   1.202  1.00  0.00     0.049 A 
ATOM     65  H   UNL     1     -14.129   6.475   1.915  1.00  0.00     0.167 HD
ATOM     66  C   UNL     1     -14.914   9.027   0.958  1.00  0.00     0.074 A 
ATOM     67  C   UNL     1     -14.864  10.423   0.574  1.00  0.00     0.031 C 
ATOM     68  C   UNL     1     -16.007   8.238   0.823  1.00  0.00     0.031 A 
BRANCH  55  69
ATOM     69  C   UNL     1     -15.159   2.405   2.670  1.00  0.00    -0.014 A 
ATOM     70  C   UNL     1     -15.447   1.865   3.934  1.00  0.00     0.009 A 
ATOM     71  C   UNL     1     -15.428   1.638   1.526  1.00  0.00     0.009 A 
ATOM     72  C   UNL     1     -15.960   0.572   4.051  1.00  0.00     0.001 A 
ATOM     73  C   UNL     1     -15.966   0.355   1.645  1.00  0.00     0.001 A 
ATOM     74  C   UNL     1     -16.223  -0.180   2.906  1.00  0.00     0.000 A 
ENDBRANCH  55  69
BRANCH  56  75
ATOM     75  C   UNL     1     -10.895  11.372   1.619  1.00  0.00    -0.014 A 
ATOM     76  C   UNL     1     -11.285  12.455   2.422  1.00  0.00     0.009 A 
ATOM     77  C   UNL     1      -9.901  11.568   0.648  1.00  0.00     0.009 A 
ATOM     78  C   UNL     1     -10.709  13.714   2.239  1.00  0.00     0.001 A 
ATOM     79  C   UNL     1      -9.309  12.822   0.485  1.00  0.00     0.001 A 
ATOM     80  C   UNL     1      -9.720  13.896   1.274  1.00  0.00     0.000 A 
ENDBRANCH  56  75
BRANCH  68  81
ATOM     81  C   UNL     1     -17.244   8.875   0.261  1.00  0.00    -0.014 A 
ATOM     82  C   UNL     1     -17.346   9.181  -1.104  1.00  0.00     0.009 A 
ATOM     83  C   UNL     1     -18.336   9.135   1.104  1.00  0.00     0.009 A 
ATOM     84  C   UNL     1     -18.510   9.764  -1.609  1.00  0.00     0.001 A 
ATOM     85  C   UNL     1     -19.507   9.693   0.591  1.00  0.00     0.001 A 
ATOM     86  C   UNL     1     -19.590  10.014  -0.763  1.00  0.00     0.000 A 
ENDBRANCH  68  81
ENDBRANCH  42  43
ENDBRANCH  34  37
ENDBRANCH  32  33
ENDBRANCH  31  32
ENDBRANCH  30  31
ENDBRANCH   1  30
TORSDOF 17
