REMARK SMILES Cc1cccc(C[N@@H+](C)C[C@]2(C(=O)NCCCCNC(=O)c3ccc(-c4c5nc(c(-c6ccccc6)c6ccc([nH]6)c(-c6ccccc6)c6nc(c(-c7ccccc7)c7ccc4[nH]7)C=C6)C=C5)cc3)CCOC2)n1
REMARK SMILES IDX 15 1 14 2 12 3 13 4 11 6 70 7 73 8 71 9 72 10 10 11 8 12
REMARK SMILES IDX 9 13 7 15 6 16 1 17 2 18 3 19 74 20 4 21 5 22 16 23 17 24
REMARK SMILES IDX 18 25 19 26 20 27 21 29 22 30 23 31 69 32 24 33 68 34 25 35
REMARK SMILES IDX 26 36 27 37 62 38 28 39 67 40 61 41 63 42 29 43 66 44 60 45
REMARK SMILES IDX 59 46 30 48 52 49 37 50 51 51 38 52 41 53 50 54 64 55 39 56
REMARK SMILES IDX 40 57 49 59 65 60 42 61 31 62 32 63 36 64 33 65 35 66 34 67
REMARK SMILES IDX 53 68 54 69 58 70 55 71 57 72 56 73 43 74 44 75 48 76 45 77
REMARK SMILES IDX 47 78 46 79
REMARK H PARENT 14 5 8 14 19 28 63 47 41 58
REMARK Flexibility Score: inf
ROOT
ATOM      1  C   UNL     1      -6.519   2.166   2.241  1.00  0.00     0.116 C 
ENDROOT
BRANCH   1   2
ATOM      2  N   UNL     1      -5.481   1.930   1.260  1.00  0.00    -0.355 N 
ATOM      3  C   UNL     1      -4.144   2.115   1.237  1.00  0.00     0.234 C 
ATOM      4  O   UNL     1      -3.670   1.962   0.111  1.00  0.00    -0.274 OA
ATOM      5  H   UNL     1      -5.829   1.550   0.421  1.00  0.00     0.163 HD
BRANCH   3   6
ATOM      6  C   UNL     1      -3.285   2.421   2.470  1.00  0.00     0.123 C 
ATOM      7  C   UNL     1      -3.719   3.669   3.244  1.00  0.00     0.054 C 
ATOM      8  C   UNL     1      -3.523   1.279   3.489  1.00  0.00     0.183 C 
ATOM      9  C   UNL     1      -3.779   3.216   4.688  1.00  0.00     0.161 C 
ATOM     10  O   UNL     1      -4.162   1.844   4.643  1.00  0.00    -0.380 OA
BRANCH   6  11
ATOM     11  C   UNL     1      -1.748   2.434   2.145  1.00  0.00     0.281 C 
BRANCH  11  12
ATOM     12  N   UNL     1      -1.088   3.258   1.120  1.00  0.00    -0.331 N 
ATOM     13  C   UNL     1      -1.575   4.620   0.985  1.00  0.00     0.333 C 
ATOM     14  H   UNL     1      -0.162   3.315   1.543  1.00  0.00     0.348 HD
BRANCH  12  15
ATOM     15  C   UNL     1      -0.879   2.638  -0.211  1.00  0.00     0.319 C 
BRANCH  15  16
ATOM     16  C   UNL     1      -0.334   1.215  -0.228  1.00  0.00     0.095 A 
ATOM     17  C   UNL     1       2.981  -0.341   0.101  1.00  0.00     0.067 C 
ATOM     18  C   UNL     1       1.495  -0.211  -0.034  1.00  0.00     0.038 A 
ATOM     19  C   UNL     1       0.686  -1.337  -0.133  1.00  0.00     0.023 A 
ATOM     20  N   UNL     1       1.004   1.051  -0.067  1.00  0.00    -0.252 NA
ATOM     21  C   UNL     1      -0.679  -1.163  -0.307  1.00  0.00     0.004 A 
ATOM     22  C   UNL     1      -1.193   0.126  -0.375  1.00  0.00     0.030 A 
ENDBRANCH  15  16
ENDBRANCH  12  15
ENDBRANCH  11  12
ENDBRANCH   6  11
ENDBRANCH   3   6
ENDBRANCH   1   2
BRANCH   1  23
ATOM     23  C   UNL     1      -7.386   3.355   1.824  1.00  0.00     0.023 C 
BRANCH  23  24
ATOM     24  C   UNL     1      -7.953   3.276   0.400  1.00  0.00     0.023 C 
BRANCH  24  25
ATOM     25  C   UNL     1      -8.631   1.961   0.031  1.00  0.00     0.116 C 
BRANCH  25  26
ATOM     26  N   UNL     1      -9.705   1.609   0.942  1.00  0.00    -0.352 N 
ATOM     27  C   UNL     1     -10.983   1.197   0.656  1.00  0.00     0.251 C 
ATOM     28  H   UNL     1      -9.486   1.674   1.899  1.00  0.00     0.163 HD
ATOM     29  O   UNL     1     -11.803   1.058   1.554  1.00  0.00    -0.269 OA
BRANCH  27  30
ATOM     30  C   UNL     1     -11.374   0.957  -0.748  1.00  0.00     0.039 A 
ATOM     31  C   UNL     1     -12.551   1.541  -1.220  1.00  0.00     0.014 A 
ATOM     32  C   UNL     1     -10.583   0.172  -1.591  1.00  0.00     0.014 A 
ATOM     33  C   UNL     1     -12.907   1.386  -2.560  1.00  0.00     0.010 A 
ATOM     34  C   UNL     1     -10.907   0.071  -2.942  1.00  0.00     0.010 A 
ATOM     35  C   UNL     1     -12.072   0.676  -3.438  1.00  0.00    -0.014 A 
BRANCH  35  36
ATOM     36  C   UNL     1     -12.401   0.559  -4.879  1.00  0.00     0.031 A 
ATOM     37  C   UNL     1     -12.729  -0.781  -5.473  1.00  0.00     0.074 A 
ATOM     38  C   UNL     1     -12.346   1.652  -5.665  1.00  0.00     0.049 A 
ATOM     39  N   UNL     1     -12.981  -1.093  -6.718  1.00  0.00    -0.248 NA
ATOM     40  C   UNL     1     -12.752  -1.927  -4.549  1.00  0.00     0.031 C 
ATOM     41  C   UNL     1     -12.006   3.004  -5.217  1.00  0.00     0.029 A 
ATOM     42  N   UNL     1     -12.566   1.794  -7.012  1.00  0.00    -0.354 N 
ATOM     43  C   UNL     1     -13.175  -2.468  -6.731  1.00  0.00     0.074 A 
ATOM     44  C   UNL     1     -12.967  -2.937  -5.378  1.00  0.00     0.031 C 
ATOM     45  C   UNL     1     -12.062   3.841  -6.265  1.00  0.00     0.029 A 
ATOM     46  C   UNL     1     -12.403   3.081  -7.463  1.00  0.00     0.049 A 
ATOM     47  H   UNL     1     -12.818   1.045  -7.599  1.00  0.00     0.167 HD
ATOM     48  C   UNL     1     -13.511  -3.267  -7.771  1.00  0.00     0.031 A 
ATOM     49  C   UNL     1     -12.508   3.591  -8.705  1.00  0.00     0.031 A 
ATOM     50  C   UNL     1     -13.729  -2.798  -9.114  1.00  0.00     0.049 A 
ATOM     51  C   UNL     1     -12.870   2.682  -9.845  1.00  0.00     0.074 A 
ATOM     52  C   UNL     1     -14.130  -3.521 -10.224  1.00  0.00     0.029 A 
ATOM     53  N   UNL     1     -13.562  -1.486  -9.527  1.00  0.00    -0.354 N 
ATOM     54  N   UNL     1     -13.115   1.394  -9.828  1.00  0.00    -0.248 NA
ATOM     55  C   UNL     1     -12.980   3.299 -11.174  1.00  0.00     0.031 C 
ATOM     56  C   UNL     1     -14.159  -2.654 -11.321  1.00  0.00     0.029 A 
ATOM     57  C   UNL     1     -13.828  -1.382 -10.882  1.00  0.00     0.049 A 
ATOM     58  H   UNL     1     -13.294  -0.739  -8.945  1.00  0.00     0.167 HD
ATOM     59  C   UNL     1     -13.433   1.052 -11.136  1.00  0.00     0.074 A 
ATOM     60  C   UNL     1     -13.364   2.270 -11.917  1.00  0.00     0.031 C 
ATOM     61  C   UNL     1     -13.755  -0.162 -11.644  1.00  0.00     0.031 A 
BRANCH  48  62
ATOM     62  C   UNL     1     -13.655  -4.737  -7.494  1.00  0.00    -0.014 A 
ATOM     63  C   UNL     1     -14.732  -5.234  -6.742  1.00  0.00     0.009 A 
ATOM     64  C   UNL     1     -12.718  -5.641  -8.017  1.00  0.00     0.009 A 
ATOM     65  C   UNL     1     -14.845  -6.602  -6.488  1.00  0.00     0.001 A 
ATOM     66  C   UNL     1     -12.849  -7.011  -7.785  1.00  0.00     0.001 A 
ATOM     67  C   UNL     1     -13.907  -7.489  -7.013  1.00  0.00     0.000 A 
ENDBRANCH  48  62
BRANCH  49  68
ATOM     68  C   UNL     1     -12.279   5.041  -8.934  1.00  0.00    -0.014 A 
ATOM     69  C   UNL     1     -13.352   5.890  -9.243  1.00  0.00     0.009 A 
ATOM     70  C   UNL     1     -10.987   5.582  -8.849  1.00  0.00     0.009 A 
ATOM     71  C   UNL     1     -13.133   7.248  -9.486  1.00  0.00     0.001 A 
ATOM     72  C   UNL     1     -10.774   6.945  -9.066  1.00  0.00     0.001 A 
ATOM     73  C   UNL     1     -11.845   7.775  -9.393  1.00  0.00     0.000 A 
ENDBRANCH  49  68
BRANCH  61  74
ATOM     74  C   UNL     1     -14.090  -0.228 -13.106  1.00  0.00    -0.014 A 
ATOM     75  C   UNL     1     -13.092  -0.122 -14.087  1.00  0.00     0.009 A 
ATOM     76  C   UNL     1     -15.418  -0.445 -13.505  1.00  0.00     0.009 A 
ATOM     77  C   UNL     1     -13.424  -0.203 -15.441  1.00  0.00     0.001 A 
ATOM     78  C   UNL     1     -15.743  -0.553 -14.857  1.00  0.00     0.001 A 
ATOM     79  C   UNL     1     -14.747  -0.424 -15.824  1.00  0.00     0.000 A 
ENDBRANCH  61  74
ENDBRANCH  35  36
ENDBRANCH  27  30
ENDBRANCH  25  26
ENDBRANCH  24  25
ENDBRANCH  23  24
ENDBRANCH   1  23
TORSDOF 15
