REMARK SMILES O=C(Cc1cc(=O)[nH]c(=O)[nH]1)Nc1cccc(C(=O)NCCCCNC(=O)c2ccc(-c3c4nc(c(-c5ccccc5)c5ccc([nH]5)c(-c5ccccc5)c5nc(c(-c6ccccc6)c6ccc3[nH]6)C=C5)C=C4)cc2)c1
REMARK SMILES IDX 22 1 21 2 20 3 18 4 19 5 17 7 13 8 14 9 76 10 15 11 16 12
REMARK SMILES IDX 12 13 1 14 2 15 3 17 4 18 5 19 11 20 6 21 9 22 7 24 8 25
REMARK SMILES IDX 10 26 23 28 24 29 25 30 26 31 27 33 28 34 29 35 75 36 30 37
REMARK SMILES IDX 74 38 31 39 32 40 33 41 68 42 34 43 73 44 67 45 69 46 35 47
REMARK SMILES IDX 72 48 66 49 65 50 36 52 58 53 43 54 57 55 44 56 47 57 56 58
REMARK SMILES IDX 70 59 45 60 46 61 55 63 71 64 48 65 37 66 38 67 42 68 39 69
REMARK SMILES IDX 41 70 40 71 59 72 60 73 64 74 61 75 63 76 62 77 49 78 50 79
REMARK SMILES IDX 54 80 51 81 53 82 52 83
REMARK H PARENT 20 6 12 16 11 23 8 27 25 32 69 51 47 62
REMARK Flexibility Score: inf
ROOT
ATOM      1  C   UNL     1       0.419  -3.610   2.953  1.00  0.00     0.023 C 
ENDROOT
BRANCH   1   2
ATOM      2  C   UNL     1       0.078  -2.142   2.733  1.00  0.00     0.116 C 
BRANCH   2   3
ATOM      3  N   UNL     1      -0.624  -1.499   3.838  1.00  0.00    -0.352 N 
ATOM      4  C   UNL     1      -0.439  -0.246   4.395  1.00  0.00     0.251 C 
ATOM      5  O   UNL     1      -1.139   0.106   5.341  1.00  0.00    -0.269 OA
ATOM      6  H   UNL     1      -1.337  -2.037   4.249  1.00  0.00     0.163 HD
BRANCH   4   7
ATOM      7  C   UNL     1       0.648   0.646   3.914  1.00  0.00     0.041 A 
ATOM      8  C   UNL     1       2.202   1.216   2.155  1.00  0.00     0.041 A 
ATOM      9  C   UNL     1       2.983   1.911   3.084  1.00  0.00     0.026 A 
ATOM     10  C   UNL     1       0.967   0.720   2.559  1.00  0.00     0.040 A 
ATOM     11  C   UNL     1       2.573   2.009   4.419  1.00  0.00     0.003 A 
ATOM     12  C   UNL     1       1.424   1.341   4.844  1.00  0.00     0.014 A 
BRANCH   8  13
ATOM     13  N   UNL     1       2.761   0.924   0.888  1.00  0.00    -0.326 N 
ATOM     14  O   UNL     1       1.125  -0.473  -0.015  1.00  0.00    -0.274 OA
ATOM     15  C   UNL     1       2.231   0.063  -0.063  1.00  0.00     0.230 C 
ATOM     16  H   UNL     1       3.606   1.375   0.660  1.00  0.00     0.169 HD
BRANCH  15  17
ATOM     17  C   UNL     1       3.183  -0.319  -1.195  1.00  0.00     0.154 C 
BRANCH  17  18
ATOM     18  C   UNL     1       4.026   0.771  -1.796  1.00  0.00     0.034 A 
ATOM     19  C   UNL     1       5.215   0.498  -2.352  1.00  0.00     0.093 A 
ATOM     20  N   UNL     1       3.568   2.066  -1.781  1.00  0.00    -0.311 N 
ATOM     21  C   UNL     1       6.005   1.589  -2.953  1.00  0.00     0.253 A 
ATOM     22  C   UNL     1       4.263   3.131  -2.287  1.00  0.00     0.325 A 
ATOM     23  H   UNL     1       2.684   2.239  -1.382  1.00  0.00     0.171 HD
ATOM     24  O   UNL     1       7.081   1.360  -3.492  1.00  0.00    -0.269 OA
ATOM     25  N   UNL     1       5.465   2.838  -2.859  1.00  0.00    -0.274 N 
ATOM     26  O   UNL     1       3.828   4.274  -2.213  1.00  0.00    -0.248 OA
ATOM     27  H   UNL     1       5.984   3.586  -3.233  1.00  0.00     0.175 HD
ENDBRANCH  17  18
ENDBRANCH  15  17
ENDBRANCH   8  13
ENDBRANCH   4   7
ENDBRANCH   2   3
ENDBRANCH   1   2
BRANCH   1  28
ATOM     28  C   UNL     1      -0.758  -4.558   3.124  1.00  0.00     0.023 C 
BRANCH  28  29
ATOM     29  C   UNL     1      -1.843  -4.474   2.058  1.00  0.00     0.116 C 
BRANCH  29  30
ATOM     30  N   UNL     1      -1.368  -4.730   0.707  1.00  0.00    -0.352 N 
ATOM     31  C   UNL     1      -1.833  -5.620  -0.237  1.00  0.00     0.251 C 
ATOM     32  H   UNL     1      -0.598  -4.184   0.424  1.00  0.00     0.163 HD
ATOM     33  O   UNL     1      -1.244  -5.754  -1.303  1.00  0.00    -0.269 OA
BRANCH  31  34
ATOM     34  C   UNL     1      -3.023  -6.451   0.055  1.00  0.00     0.039 A 
ATOM     35  C   UNL     1      -2.978  -7.819  -0.229  1.00  0.00     0.014 A 
ATOM     36  C   UNL     1      -4.168  -5.894   0.628  1.00  0.00     0.014 A 
ATOM     37  C   UNL     1      -4.044  -8.641   0.146  1.00  0.00     0.010 A 
ATOM     38  C   UNL     1      -5.191  -6.725   1.078  1.00  0.00     0.010 A 
ATOM     39  C   UNL     1      -5.138  -8.108   0.845  1.00  0.00    -0.014 A 
BRANCH  39  40
ATOM     40  C   UNL     1      -6.242  -8.972   1.339  1.00  0.00     0.031 A 
ATOM     41  C   UNL     1      -7.641  -8.774   0.822  1.00  0.00     0.074 A 
ATOM     42  C   UNL     1      -6.005  -9.885   2.301  1.00  0.00     0.049 A 
ATOM     43  N   UNL     1      -8.751  -9.362   1.193  1.00  0.00    -0.248 NA
ATOM     44  C   UNL     1      -7.821  -7.763  -0.234  1.00  0.00     0.031 C 
ATOM     45  C   UNL     1      -4.703 -10.156   2.917  1.00  0.00     0.029 A 
ATOM     46  N   UNL     1      -6.857 -10.754   2.937  1.00  0.00    -0.354 N 
ATOM     47  C   UNL     1      -9.758  -8.779   0.434  1.00  0.00     0.074 A 
ATOM     48  C   UNL     1      -9.138  -7.758  -0.381  1.00  0.00     0.031 C 
ATOM     49  C   UNL     1      -4.840 -11.143   3.818  1.00  0.00     0.029 A 
ATOM     50  C   UNL     1      -6.241 -11.546   3.875  1.00  0.00     0.049 A 
ATOM     51  H   UNL     1      -7.821 -10.804   2.740  1.00  0.00     0.167 HD
ATOM     52  C   UNL     1     -11.078  -9.079   0.399  1.00  0.00     0.031 A 
ATOM     53  C   UNL     1      -6.747 -12.489   4.693  1.00  0.00     0.031 A 
ATOM     54  C   UNL     1     -11.697 -10.106   1.192  1.00  0.00     0.049 A 
ATOM     55  C   UNL     1      -8.219 -12.796   4.640  1.00  0.00     0.074 A 
ATOM     56  C   UNL     1     -13.021 -10.510   1.198  1.00  0.00     0.029 A 
ATOM     57  N   UNL     1     -11.032 -10.896   2.116  1.00  0.00    -0.354 N 
ATOM     58  N   UNL     1      -9.147 -12.268   3.881  1.00  0.00    -0.248 NA
ATOM     59  C   UNL     1      -8.707 -13.842   5.552  1.00  0.00     0.031 C 
ATOM     60  C   UNL     1     -13.164 -11.525   2.150  1.00  0.00     0.029 A 
ATOM     61  C   UNL     1     -11.919 -11.782   2.703  1.00  0.00     0.049 A 
ATOM     62  H   UNL     1     -10.072 -10.837   2.323  1.00  0.00     0.167 HD
ATOM     63  C   UNL     1     -10.321 -12.940   4.198  1.00  0.00     0.074 A 
ATOM     64  C   UNL     1      -9.985 -13.921   5.208  1.00  0.00     0.031 C 
ATOM     65  C   UNL     1     -11.566 -12.762   3.695  1.00  0.00     0.031 A 
BRANCH  52  66
ATOM     66  C   UNL     1     -11.940  -8.286  -0.541  1.00  0.00    -0.014 A 
ATOM     67  C   UNL     1     -11.850  -8.466  -1.930  1.00  0.00     0.009 A 
ATOM     68  C   UNL     1     -12.876  -7.372  -0.033  1.00  0.00     0.009 A 
ATOM     69  C   UNL     1     -12.656  -7.722  -2.794  1.00  0.00     0.001 A 
ATOM     70  C   UNL     1     -13.700  -6.649  -0.898  1.00  0.00     0.001 A 
ATOM     71  C   UNL     1     -13.583  -6.818  -2.277  1.00  0.00     0.000 A 
ENDBRANCH  52  66
BRANCH  53  72
ATOM     72  C   UNL     1      -5.859 -13.234   5.623  1.00  0.00    -0.014 A 
ATOM     73  C   UNL     1      -5.576 -14.591   5.396  1.00  0.00     0.009 A 
ATOM     74  C   UNL     1      -5.317 -12.608   6.755  1.00  0.00     0.009 A 
ATOM     75  C   UNL     1      -4.797 -15.313   6.302  1.00  0.00     0.001 A 
ATOM     76  C   UNL     1      -4.515 -13.327   7.645  1.00  0.00     0.001 A 
ATOM     77  C   UNL     1      -4.265 -14.680   7.424  1.00  0.00     0.000 A 
ENDBRANCH  53  72
BRANCH  65  78
ATOM     78  C   UNL     1     -12.645 -13.681   4.189  1.00  0.00    -0.014 A 
ATOM     79  C   UNL     1     -13.189 -13.546   5.475  1.00  0.00     0.009 A 
ATOM     80  C   UNL     1     -13.151 -14.674   3.335  1.00  0.00     0.009 A 
ATOM     81  C   UNL     1     -14.197 -14.409   5.908  1.00  0.00     0.001 A 
ATOM     82  C   UNL     1     -14.178 -15.518   3.761  1.00  0.00     0.001 A 
ATOM     83  C   UNL     1     -14.693 -15.390   5.049  1.00  0.00     0.000 A 
ENDBRANCH  65  78
ENDBRANCH  39  40
ENDBRANCH  31  34
ENDBRANCH  29  30
ENDBRANCH  28  29
ENDBRANCH   1  28
TORSDOF 14
