REMARK SMILES O=C(CCCc1nc(-c2ccc(Cl)c(Cl)c2)c(-c2ccccc2)o1)NCCCCNC(=O)c1ccc(-c2c3nc(c(-c4ccccc4)c4ccc([nH]4)c(-c4ccccc4)c4nc(c(-c5ccccc5)c5ccc2[nH]5)C=C4)C=C3)cc1
REMARK SMILES IDX 26 1 25 2 1 3 2 4 3 6 4 7 5 8 6 9 7 10 24 11 8 12 17 13 9 14
REMARK SMILES IDX 10 15 16 16 11 17 14 18 12 19 15 20 13 21 18 22 19 23 23 24
REMARK SMILES IDX 20 25 22 26 21 27 27 28 28 29 29 30 30 31 31 32 32 34 33 35
REMARK SMILES IDX 34 36 80 37 35 38 79 39 36 40 37 41 38 42 73 43 39 44 78 45
REMARK SMILES IDX 72 46 74 47 40 48 77 49 71 50 70 51 41 53 63 54 48 55 62 56
REMARK SMILES IDX 49 57 52 58 61 59 75 60 50 61 51 62 60 64 76 65 53 66 42 67
REMARK SMILES IDX 43 68 47 69 44 70 46 71 45 72 64 73 65 74 69 75 66 76 68 77
REMARK SMILES IDX 67 78 54 79 55 80 59 81 56 82 58 83 57 84
REMARK H PARENT 25 5 30 33 74 52 52 63
REMARK Flexibility Score: inf
ROOT
ATOM      1  C   UNL     1       1.980   2.384  -0.852  1.00  0.00     0.116 C 
ENDROOT
BRANCH   1   2
ATOM      2  N   UNL     1       2.631   1.260  -0.209  1.00  0.00    -0.356 N 
ATOM      3  O   UNL     1       0.969  -0.245  -0.707  1.00  0.00    -0.275 OA
ATOM      4  C   UNL     1       2.062   0.006  -0.210  1.00  0.00     0.220 C 
ATOM      5  H   UNL     1       3.497   1.396   0.239  1.00  0.00     0.163 HD
BRANCH   4   6
ATOM      6  C   UNL     1       2.925  -1.066   0.416  1.00  0.00     0.100 C 
BRANCH   6   7
ATOM      7  C   UNL     1       3.882  -1.689  -0.603  1.00  0.00     0.020 C 
BRANCH   7   8
ATOM      8  C   UNL     1       5.059  -0.799  -1.016  1.00  0.00     0.098 C 
BRANCH   8   9
ATOM      9  C   UNL     1       5.907  -0.417   0.144  1.00  0.00     0.195 A 
ATOM     10  N   UNL     1       6.629  -1.199   0.921  1.00  0.00    -0.213 NA
ATOM     11  O   UNL     1       5.912   0.909   0.499  1.00  0.00    -0.440 OA
ATOM     12  C   UNL     1       7.145  -0.340   1.856  1.00  0.00     0.117 A 
ATOM     13  C   UNL     1       6.751   0.955   1.584  1.00  0.00     0.162 A 
BRANCH  12  14
ATOM     14  C   UNL     1       7.988  -0.755   2.954  1.00  0.00     0.006 A 
ATOM     15  C   UNL     1       9.156  -1.479   2.701  1.00  0.00     0.012 A 
ATOM     16  C   UNL     1       7.650  -0.422   4.273  1.00  0.00     0.032 A 
ATOM     17  C   UNL     1       9.999  -1.838   3.756  1.00  0.00     0.023 A 
ATOM     18  C   UNL     1       8.487  -0.790   5.330  1.00  0.00     0.060 A 
ATOM     19  C   UNL     1       9.669  -1.492   5.071  1.00  0.00     0.059 A 
ATOM     20  Cl  UNL     1       8.005  -0.340   6.927  1.00  0.00    -0.083 Cl
ATOM     21  Cl  UNL     1      10.764  -1.956   6.324  1.00  0.00    -0.083 Cl
ENDBRANCH  12  14
BRANCH  13  22
ATOM     22  C   UNL     1       7.063   2.260   2.135  1.00  0.00     0.020 A 
ATOM     23  C   UNL     1       6.055   3.122   2.577  1.00  0.00     0.012 A 
ATOM     24  C   UNL     1       8.403   2.653   2.278  1.00  0.00     0.012 A 
ATOM     25  C   UNL     1       6.379   4.357   3.145  1.00  0.00     0.001 A 
ATOM     26  C   UNL     1       8.727   3.884   2.849  1.00  0.00     0.001 A 
ATOM     27  C   UNL     1       7.714   4.736   3.282  1.00  0.00     0.000 A 
ENDBRANCH  13  22
ENDBRANCH   8   9
ENDBRANCH   7   8
ENDBRANCH   6   7
ENDBRANCH   4   6
ENDBRANCH   1   2
BRANCH   1  28
ATOM     28  C   UNL     1       2.353   3.723  -0.221  1.00  0.00     0.023 C 
BRANCH  28  29
ATOM     29  C   UNL     1       3.838   4.085  -0.295  1.00  0.00     0.023 C 
BRANCH  29  30
ATOM     30  C   UNL     1       4.432   4.176  -1.695  1.00  0.00     0.116 C 
BRANCH  30  31
ATOM     31  N   UNL     1       3.870   5.269  -2.470  1.00  0.00    -0.352 N 
ATOM     32  C   UNL     1       4.502   6.314  -3.097  1.00  0.00     0.251 C 
ATOM     33  H   UNL     1       2.890   5.258  -2.560  1.00  0.00     0.163 HD
ATOM     34  O   UNL     1       3.836   7.235  -3.569  1.00  0.00    -0.269 OA
BRANCH  32  35
ATOM     35  C   UNL     1       5.979   6.362  -3.190  1.00  0.00     0.039 A 
ATOM     36  C   UNL     1       6.628   7.578  -2.950  1.00  0.00     0.014 A 
ATOM     37  C   UNL     1       6.725   5.232  -3.535  1.00  0.00     0.014 A 
ATOM     38  C   UNL     1       8.023   7.644  -2.989  1.00  0.00     0.010 A 
ATOM     39  C   UNL     1       8.119   5.283  -3.508  1.00  0.00     0.010 A 
ATOM     40  C   UNL     1       8.783   6.488  -3.233  1.00  0.00    -0.014 A 
BRANCH  40  41
ATOM     41  C   UNL     1      10.268   6.521  -3.194  1.00  0.00     0.031 A 
ATOM     42  C   UNL     1      11.070   6.246  -4.436  1.00  0.00     0.074 A 
ATOM     43  C   UNL     1      10.899   6.738  -2.024  1.00  0.00     0.049 A 
ATOM     44  N   UNL     1      12.370   6.166  -4.579  1.00  0.00    -0.248 NA
ATOM     45  C   UNL     1      10.314   6.007  -5.676  1.00  0.00     0.031 C 
ATOM     46  C   UNL     1      10.243   6.983  -0.738  1.00  0.00     0.029 A 
ATOM     47  N   UNL     1      12.239   6.780  -1.726  1.00  0.00    -0.354 N 
ATOM     48  C   UNL     1      12.586   5.853  -5.915  1.00  0.00     0.074 A 
ATOM     49  C   UNL     1      11.283   5.714  -6.531  1.00  0.00     0.031 C 
ATOM     50  C   UNL     1      11.181   7.173   0.204  1.00  0.00     0.029 A 
ATOM     51  C   UNL     1      12.501   7.023  -0.400  1.00  0.00     0.049 A 
ATOM     52  H   UNL     1      12.945   6.648  -2.400  1.00  0.00     0.167 HD
ATOM     53  C   UNL     1      13.760   5.709  -6.576  1.00  0.00     0.031 A 
ATOM     54  C   UNL     1      13.672   7.108   0.260  1.00  0.00     0.031 A 
ATOM     55  C   UNL     1      15.057   5.855  -5.971  1.00  0.00     0.049 A 
ATOM     56  C   UNL     1      14.961   6.933  -0.493  1.00  0.00     0.074 A 
ATOM     57  C   UNL     1      16.302   5.775  -6.572  1.00  0.00     0.029 A 
ATOM     58  N   UNL     1      15.278   6.112  -4.628  1.00  0.00    -0.354 N 
ATOM     59  N   UNL     1      15.146   6.692  -1.768  1.00  0.00    -0.248 NA
ATOM     60  C   UNL     1      16.203   7.052   0.284  1.00  0.00     0.031 C 
ATOM     61  C   UNL     1      17.277   5.938  -5.583  1.00  0.00     0.029 A 
ATOM     62  C   UNL     1      16.638   6.172  -4.376  1.00  0.00     0.049 A 
ATOM     63  H   UNL     1      14.572   6.233  -3.952  1.00  0.00     0.167 HD
ATOM     64  C   UNL     1      16.523   6.656  -1.950  1.00  0.00     0.074 A 
ATOM     65  C   UNL     1      17.125   6.915  -0.659  1.00  0.00     0.031 C 
ATOM     66  C   UNL     1      17.225   6.429  -3.087  1.00  0.00     0.031 A 
BRANCH  53  67
ATOM     67  C   UNL     1      13.692   5.367  -8.038  1.00  0.00    -0.014 A 
ATOM     68  C   UNL     1      13.264   6.311  -8.986  1.00  0.00     0.009 A 
ATOM     69  C   UNL     1      14.099   4.099  -8.480  1.00  0.00     0.009 A 
ATOM     70  C   UNL     1      13.212   5.980 -10.341  1.00  0.00     0.001 A 
ATOM     71  C   UNL     1      14.072   3.779  -9.839  1.00  0.00     0.001 A 
ATOM     72  C   UNL     1      13.620   4.716 -10.767  1.00  0.00     0.000 A 
ENDBRANCH  53  67
BRANCH  54  73
ATOM     73  C   UNL     1      13.682   7.380   1.721  1.00  0.00    -0.014 A 
ATOM     74  C   UNL     1      14.117   8.622   2.209  1.00  0.00     0.009 A 
ATOM     75  C   UNL     1      13.267   6.398   2.633  1.00  0.00     0.009 A 
ATOM     76  C   UNL     1      14.160   8.865   3.584  1.00  0.00     0.001 A 
ATOM     77  C   UNL     1      13.285   6.654   4.006  1.00  0.00     0.001 A 
ATOM     78  C   UNL     1      13.740   7.883   4.480  1.00  0.00     0.000 A 
ENDBRANCH  54  73
BRANCH  66  79
ATOM     79  C   UNL     1      18.723   6.482  -2.991  1.00  0.00    -0.014 A 
ATOM     80  C   UNL     1      19.451   5.456  -2.370  1.00  0.00     0.009 A 
ATOM     81  C   UNL     1      19.418   7.558  -3.567  1.00  0.00     0.009 A 
ATOM     82  C   UNL     1      20.844   5.523  -2.299  1.00  0.00     0.001 A 
ATOM     83  C   UNL     1      20.811   7.608  -3.518  1.00  0.00     0.001 A 
ATOM     84  C   UNL     1      21.523   6.595  -2.877  1.00  0.00     0.000 A 
ENDBRANCH  66  79
ENDBRANCH  40  41
ENDBRANCH  32  35
ENDBRANCH  30  31
ENDBRANCH  29  30
ENDBRANCH  28  29
ENDBRANCH   1  28
TORSDOF 16
