REMARK SMILES CCOC(=O)N[C@H]1C=C[C@H](C(=O)NCCCCNC(=O)c2ccc(-c3c4nc(c(-c5ccccc5)c5ccc([nH]5)c(-c5ccccc5)c5nc(c(-c6ccccc6)c6ccc3[nH]6)C=C5)C=C4)cc2)C1
REMARK SMILES IDX 15 1 14 2 13 3 11 4 12 5 10 7 7 8 8 9 69 10 9 11 6 12 4 13
REMARK SMILES IDX 5 14 3 16 2 17 1 18 16 19 17 20 18 21 19 22 20 24 21 25
REMARK SMILES IDX 22 26 68 27 23 28 67 29 24 30 25 31 26 32 61 33 27 34 66 35
REMARK SMILES IDX 60 36 62 37 28 38 65 39 59 40 58 41 29 43 51 44 36 45 50 46
REMARK SMILES IDX 37 47 40 48 49 49 63 50 38 51 39 52 48 54 64 55 41 56 30 57
REMARK SMILES IDX 31 58 35 59 32 60 34 61 33 62 52 63 53 64 57 65 54 66 56 67
REMARK SMILES IDX 55 68 42 69 43 70 47 71 44 72 46 73 45 74
REMARK H PARENT 13 6 6 15 18 23 62 42 40 53
REMARK Flexibility Score: inf
ROOT
ATOM      1  C   UNL     1       0.295   3.916   5.222  1.00  0.00     0.023 C 
ENDROOT
BRANCH   1   2
ATOM      2  C   UNL     1       1.144   3.769   6.488  1.00  0.00     0.116 C 
BRANCH   2   3
ATOM      3  N   UNL     1       0.581   2.773   7.376  1.00  0.00    -0.356 N 
ATOM      4  C   UNL     1       0.972   1.485   7.602  1.00  0.00     0.227 C 
ATOM      5  O   UNL     1       0.284   0.818   8.377  1.00  0.00    -0.274 OA
ATOM      6  H   UNL     1      -0.202   3.070   7.894  1.00  0.00     0.163 HD
BRANCH   4   7
ATOM      7  C   UNL     1       2.281   0.963   6.986  1.00  0.00     0.103 C 
ATOM      8  C   UNL     1       2.044  -0.442   4.980  1.00  0.00     0.109 C 
ATOM      9  C   UNL     1       2.370  -1.257   6.182  1.00  0.00    -0.006 C 
ATOM     10  C   UNL     1       2.352   0.978   5.454  1.00  0.00     0.047 C 
ATOM     11  C   UNL     1       2.490  -0.497   7.278  1.00  0.00    -0.016 C 
BRANCH   8  12
ATOM     12  N   UNL     1       2.904  -0.826   3.893  1.00  0.00    -0.315 N 
ATOM     13  C   UNL     1       2.544  -0.955   2.586  1.00  0.00     0.407 C 
ATOM     14  O   UNL     1       3.354  -1.301   1.734  1.00  0.00    -0.225 OA
ATOM     15  H   UNL     1       3.845  -1.013   4.115  1.00  0.00     0.167 HD
BRANCH  13  16
ATOM     16  O   UNL     1       1.235  -0.689   2.359  1.00  0.00    -0.450 OA
BRANCH  16  17
ATOM     17  C   UNL     1       0.752  -1.016   1.048  1.00  0.00     0.231 C 
ATOM     18  C   UNL     1       1.058   0.083   0.048  1.00  0.00     0.049 C 
ENDBRANCH  16  17
ENDBRANCH  13  16
ENDBRANCH   8  12
ENDBRANCH   4   7
ENDBRANCH   2   3
ENDBRANCH   1   2
BRANCH   1  19
ATOM     19  C   UNL     1      -1.076   4.548   5.447  1.00  0.00     0.023 C 
BRANCH  19  20
ATOM     20  C   UNL     1      -1.036   5.946   6.039  1.00  0.00     0.116 C 
BRANCH  20  21
ATOM     21  N   UNL     1      -0.294   6.886   5.213  1.00  0.00    -0.352 N 
ATOM     22  C   UNL     1      -0.631   8.171   4.864  1.00  0.00     0.251 C 
ATOM     23  H   UNL     1       0.563   6.558   4.858  1.00  0.00     0.163 HD
ATOM     24  O   UNL     1       0.032   8.784   4.035  1.00  0.00    -0.269 OA
BRANCH  22  25
ATOM     25  C   UNL     1      -1.821   8.795   5.477  1.00  0.00     0.039 A 
ATOM     26  C   UNL     1      -2.720   9.483   4.661  1.00  0.00     0.014 A 
ATOM     27  C   UNL     1      -2.061   8.670   6.848  1.00  0.00     0.014 A 
ATOM     28  C   UNL     1      -3.890  10.004   5.216  1.00  0.00     0.010 A 
ATOM     29  C   UNL     1      -3.269   9.102   7.378  1.00  0.00     0.010 A 
ATOM     30  C   UNL     1      -4.187   9.791   6.573  1.00  0.00    -0.014 A 
BRANCH  30  31
ATOM     31  C   UNL     1      -5.438  10.310   7.178  1.00  0.00     0.031 A 
ATOM     32  C   UNL     1      -5.369  11.331   8.282  1.00  0.00     0.074 A 
ATOM     33  C   UNL     1      -6.628   9.827   6.776  1.00  0.00     0.049 A 
ATOM     34  N   UNL     1      -6.345  11.888   8.953  1.00  0.00    -0.248 NA
ATOM     35  C   UNL     1      -4.027  11.759   8.708  1.00  0.00     0.031 C 
ATOM     36  C   UNL     1      -6.828   8.812   5.740  1.00  0.00     0.029 A 
ATOM     37  N   UNL     1      -7.900  10.134   7.190  1.00  0.00    -0.354 N 
ATOM     38  C   UNL     1      -5.733  12.709   9.892  1.00  0.00     0.074 A 
ATOM     39  C   UNL     1      -4.306  12.531   9.746  1.00  0.00     0.031 C 
ATOM     40  C   UNL     1      -8.145   8.616   5.565  1.00  0.00     0.029 A 
ATOM     41  C   UNL     1      -8.879   9.455   6.507  1.00  0.00     0.049 A 
ATOM     42  H   UNL     1      -8.092  10.779   7.908  1.00  0.00     0.167 HD
ATOM     43  C   UNL     1      -6.304  13.553  10.784  1.00  0.00     0.031 A 
ATOM     44  C   UNL     1     -10.219   9.507   6.624  1.00  0.00     0.031 A 
ATOM     45  C   UNL     1      -7.724  13.734  10.923  1.00  0.00     0.049 A 
ATOM     46  C   UNL     1     -10.831  10.432   7.639  1.00  0.00     0.074 A 
ATOM     47  C   UNL     1      -8.405  14.611  11.748  1.00  0.00     0.029 A 
ATOM     48  N   UNL     1      -8.682  13.014  10.225  1.00  0.00    -0.354 N 
ATOM     49  N   UNL     1     -10.242  11.263   8.465  1.00  0.00    -0.248 NA
ATOM     50  C   UNL     1     -12.298  10.432   7.728  1.00  0.00     0.031 C 
ATOM     51  C   UNL     1      -9.775  14.373  11.600  1.00  0.00     0.029 A 
ATOM     52  C   UNL     1      -9.950  13.402  10.627  1.00  0.00     0.049 A 
ATOM     53  H   UNL     1      -8.490  12.329   9.544  1.00  0.00     0.167 HD
ATOM     54  C   UNL     1     -11.265  11.914   9.142  1.00  0.00     0.074 A 
ATOM     55  C   UNL     1     -12.511  11.387   8.622  1.00  0.00     0.031 C 
ATOM     56  C   UNL     1     -11.181  12.868  10.102  1.00  0.00     0.031 A 
BRANCH  43  57
ATOM     57  C   UNL     1      -5.384  14.321  11.695  1.00  0.00    -0.014 A 
ATOM     58  C   UNL     1      -4.510  15.305  11.202  1.00  0.00     0.009 A 
ATOM     59  C   UNL     1      -5.394  14.058  13.074  1.00  0.00     0.009 A 
ATOM     60  C   UNL     1      -3.630  15.967  12.060  1.00  0.00     0.001 A 
ATOM     61  C   UNL     1      -4.540  14.748  13.936  1.00  0.00     0.001 A 
ATOM     62  C   UNL     1      -3.648  15.691  13.427  1.00  0.00     0.000 A 
ENDBRANCH  43  57
BRANCH  44  63
ATOM     63  C   UNL     1     -11.079   8.689   5.727  1.00  0.00    -0.014 A 
ATOM     64  C   UNL     1     -11.862   9.309   4.740  1.00  0.00     0.009 A 
ATOM     65  C   UNL     1     -11.127   7.292   5.852  1.00  0.00     0.009 A 
ATOM     66  C   UNL     1     -12.694   8.550   3.916  1.00  0.00     0.001 A 
ATOM     67  C   UNL     1     -11.937   6.533   5.005  1.00  0.00     0.001 A 
ATOM     68  C   UNL     1     -12.727   7.162   4.045  1.00  0.00     0.000 A 
ENDBRANCH  44  63
BRANCH  56  69
ATOM     69  C   UNL     1     -12.473  13.441  10.619  1.00  0.00    -0.014 A 
ATOM     70  C   UNL     1     -13.350  12.687  11.413  1.00  0.00     0.009 A 
ATOM     71  C   UNL     1     -12.797  14.777  10.332  1.00  0.00     0.009 A 
ATOM     72  C   UNL     1     -14.544  13.246  11.873  1.00  0.00     0.001 A 
ATOM     73  C   UNL     1     -13.973  15.345  10.823  1.00  0.00     0.001 A 
ATOM     74  C   UNL     1     -14.851  14.575  11.582  1.00  0.00     0.000 A 
ENDBRANCH  56  69
ENDBRANCH  30  31
ENDBRANCH  22  25
ENDBRANCH  20  21
ENDBRANCH  19  20
ENDBRANCH   1  19
TORSDOF 14
