REMARK SMILES O=C(CN1C(=O)/C(=C\c2cccs2)SC1=S)Nc1ccccc1C(=O)NCCCCNC(=O)c1ccc(-c2c3nc(c(-c4ccccc4)c4ccc([nH]4)c(-c4ccccc4)c4nc(c(-c5ccccc5)c5ccc2[nH]5)C=C4)C=C3)cc1
REMARK SMILES IDX 27 1 26 2 24 3 25 4 23 6 18 7 19 8 20 9 22 10 21 11 17 12
REMARK SMILES IDX 1 13 2 14 3 16 4 17 5 18 15 19 6 20 7 21 14 22 16 23 8 24
REMARK SMILES IDX 9 25 10 26 13 27 11 28 12 29 28 30 29 31 30 32 31 33 32 34
REMARK SMILES IDX 33 36 34 37 35 38 81 39 36 40 80 41 37 42 38 43 39 44 74 45
REMARK SMILES IDX 40 46 79 47 73 48 75 49 41 50 78 51 72 52 71 53 42 55 64 56
REMARK SMILES IDX 49 57 63 58 50 59 53 60 62 61 76 62 51 63 52 64 61 66 77 67
REMARK SMILES IDX 54 68 43 69 44 70 48 71 45 72 47 73 46 74 65 75 66 76 70 77
REMARK SMILES IDX 67 78 69 79 68 80 55 81 56 82 60 83 57 84 59 85 58 86
REMARK H PARENT 26 5 17 15 31 35 75 54 53 65
REMARK Flexibility Score: inf
ROOT
ATOM      1  C   UNL     1       2.820   1.924   0.201  1.00  0.00     0.116 C 
ENDROOT
BRANCH   1   2
ATOM      2  N   UNL     1       1.536   2.491  -0.109  1.00  0.00    -0.352 N 
ATOM      3  C   UNL     1       0.667   2.118  -1.123  1.00  0.00     0.253 C 
ATOM      4  O   UNL     1      -0.492   2.534  -1.046  1.00  0.00    -0.269 OA
ATOM      5  H   UNL     1       1.238   3.232   0.467  1.00  0.00     0.163 HD
BRANCH   3   6
ATOM      6  C   UNL     1       1.111   1.430  -2.387  1.00  0.00     0.063 A 
ATOM      7  C   UNL     1       2.038   0.378  -2.558  1.00  0.00     0.054 A 
ATOM      8  C   UNL     1       2.548   0.127  -3.849  1.00  0.00     0.027 A 
ATOM      9  C   UNL     1       2.049   0.789  -4.974  1.00  0.00     0.002 A 
ATOM     10  C   UNL     1       0.596   2.061  -3.546  1.00  0.00     0.016 A 
ATOM     11  C   UNL     1       1.044   1.733  -4.826  1.00  0.00     0.001 A 
BRANCH   7  12
ATOM     12  N   UNL     1       2.528  -0.503  -1.558  1.00  0.00    -0.324 N 
ATOM     13  O   UNL     1       0.566  -0.836  -0.405  1.00  0.00    -0.273 OA
ATOM     14  C   UNL     1       1.778  -1.015  -0.517  1.00  0.00     0.244 C 
ATOM     15  H   UNL     1       3.474  -0.770  -1.610  1.00  0.00     0.170 HD
BRANCH  14  16
ATOM     16  C   UNL     1       2.578  -1.619   0.655  1.00  0.00     0.227 C 
BRANCH  16  17
ATOM     17  N   UNL     1       3.678  -2.539   0.393  1.00  0.00    -0.283 N 
ATOM     18  C   UNL     1       4.917  -2.022   0.055  1.00  0.00     0.266 C 
ATOM     19  C   UNL     1       3.619  -3.893   0.638  1.00  0.00     0.148 C 
ATOM     20  O   UNL     1       5.103  -0.844  -0.236  1.00  0.00    -0.268 OA
ATOM     21  C   UNL     1       5.951  -3.095   0.039  1.00  0.00     0.081 C 
ATOM     22  S   UNL     1       5.194  -4.616   0.356  1.00  0.00    -0.054 SA
ATOM     23  S   UNL     1       2.311  -4.790   1.149  1.00  0.00    -0.052 S 
ATOM     24  C   UNL     1       7.268  -2.994  -0.183  1.00  0.00     0.040 C 
BRANCH  24  25
ATOM     25  C   UNL     1       7.941  -1.767  -0.409  1.00  0.00     0.028 A 
ATOM     26  C   UNL     1       8.239  -0.755   0.486  1.00  0.00     0.020 A 
ATOM     27  S   UNL     1       8.582  -1.418  -1.965  1.00  0.00    -0.144 S 
ATOM     28  C   UNL     1       8.971   0.312  -0.112  1.00  0.00     0.012 A 
ATOM     29  C   UNL     1       9.216   0.082  -1.446  1.00  0.00     0.065 A 
ENDBRANCH  24  25
ENDBRANCH  16  17
ENDBRANCH  14  16
ENDBRANCH   7  12
ENDBRANCH   3   6
ENDBRANCH   1   2
BRANCH   1  30
ATOM     30  C   UNL     1       3.784   2.714   1.071  1.00  0.00     0.023 C 
BRANCH  30  31
ATOM     31  C   UNL     1       3.554   2.679   2.585  1.00  0.00     0.023 C 
BRANCH  31  32
ATOM     32  C   UNL     1       3.358   1.323   3.268  1.00  0.00     0.116 C 
BRANCH  32  33
ATOM     33  N   UNL     1       4.426   0.351   3.068  1.00  0.00    -0.352 N 
ATOM     34  C   UNL     1       4.896  -0.605   3.948  1.00  0.00     0.251 C 
ATOM     35  H   UNL     1       4.871   0.380   2.190  1.00  0.00     0.163 HD
ATOM     36  O   UNL     1       5.735  -1.421   3.576  1.00  0.00    -0.269 OA
BRANCH  34  37
ATOM     37  C   UNL     1       4.438  -0.596   5.361  1.00  0.00     0.039 A 
ATOM     38  C   UNL     1       5.399  -0.521   6.374  1.00  0.00     0.014 A 
ATOM     39  C   UNL     1       3.081  -0.573   5.688  1.00  0.00     0.014 A 
ATOM     40  C   UNL     1       4.999  -0.310   7.699  1.00  0.00     0.010 A 
ATOM     41  C   UNL     1       2.688  -0.287   6.998  1.00  0.00     0.010 A 
ATOM     42  C   UNL     1       3.642  -0.130   8.016  1.00  0.00    -0.014 A 
BRANCH  42  43
ATOM     43  C   UNL     1       3.224   0.268   9.391  1.00  0.00     0.031 A 
ATOM     44  C   UNL     1       2.347  -0.629  10.224  1.00  0.00     0.074 A 
ATOM     45  C   UNL     1       3.596   1.469   9.882  1.00  0.00     0.049 A 
ATOM     46  N   UNL     1       1.896  -0.445  11.440  1.00  0.00    -0.248 NA
ATOM     47  C   UNL     1       1.903  -1.886   9.603  1.00  0.00     0.031 C 
ATOM     48  C   UNL     1       4.402   2.464   9.169  1.00  0.00     0.029 A 
ATOM     49  N   UNL     1       3.349   2.059  11.099  1.00  0.00    -0.354 N 
ATOM     50  C   UNL     1       1.112  -1.556  11.726  1.00  0.00     0.074 A 
ATOM     51  C   UNL     1       1.102  -2.380  10.536  1.00  0.00     0.031 C 
ATOM     52  C   UNL     1       4.616   3.518   9.973  1.00  0.00     0.029 A 
ATOM     53  C   UNL     1       3.932   3.297  11.243  1.00  0.00     0.049 A 
ATOM     54  H   UNL     1       2.806   1.635  11.802  1.00  0.00     0.167 HD
ATOM     55  C   UNL     1       0.475  -1.878  12.878  1.00  0.00     0.031 A 
ATOM     56  C   UNL     1       3.921   4.160  12.278  1.00  0.00     0.031 A 
ATOM     57  C   UNL     1       0.473  -1.059  14.063  1.00  0.00     0.049 A 
ATOM     58  C   UNL     1       3.187   3.790  13.538  1.00  0.00     0.074 A 
ATOM     59  C   UNL     1      -0.105  -1.324  15.293  1.00  0.00     0.029 A 
ATOM     60  N   UNL     1       1.068   0.189  14.163  1.00  0.00    -0.354 N 
ATOM     61  N   UNL     1       2.521   2.696  13.818  1.00  0.00    -0.248 NA
ATOM     62  C   UNL     1       3.219   4.771  14.633  1.00  0.00     0.031 C 
ATOM     63  C   UNL     1       0.089  -0.211  16.117  1.00  0.00     0.029 A 
ATOM     64  C   UNL     1       0.849   0.718  15.425  1.00  0.00     0.049 A 
ATOM     65  H   UNL     1       1.573   0.633  13.444  1.00  0.00     0.167 HD
ATOM     66  C   UNL     1       2.083   2.844  15.128  1.00  0.00     0.074 A 
ATOM     67  C   UNL     1       2.577   4.123  15.594  1.00  0.00     0.031 C 
ATOM     68  C   UNL     1       1.339   1.994  15.878  1.00  0.00     0.031 A 
BRANCH  55  69
ATOM     69  C   UNL     1      -0.287  -3.176  12.908  1.00  0.00    -0.014 A 
ATOM     70  C   UNL     1       0.379  -4.413  12.866  1.00  0.00     0.009 A 
ATOM     71  C   UNL     1      -1.687  -3.166  13.013  1.00  0.00     0.009 A 
ATOM     72  C   UNL     1      -0.343  -5.608  12.884  1.00  0.00     0.001 A 
ATOM     73  C   UNL     1      -2.404  -4.363  13.066  1.00  0.00     0.001 A 
ATOM     74  C   UNL     1      -1.732  -5.583  12.989  1.00  0.00     0.000 A 
ENDBRANCH  55  69
BRANCH  56  75
ATOM     75  C   UNL     1       4.645   5.458  12.182  1.00  0.00    -0.014 A 
ATOM     76  C   UNL     1       5.786   5.700  12.964  1.00  0.00     0.009 A 
ATOM     77  C   UNL     1       4.187   6.471  11.325  1.00  0.00     0.009 A 
ATOM     78  C   UNL     1       6.432   6.938  12.914  1.00  0.00     0.001 A 
ATOM     79  C   UNL     1       4.855   7.695  11.251  1.00  0.00     0.001 A 
ATOM     80  C   UNL     1       5.969   7.932  12.054  1.00  0.00     0.000 A 
ENDBRANCH  56  75
BRANCH  68  81
ATOM     81  C   UNL     1       1.048   2.404  17.297  1.00  0.00    -0.014 A 
ATOM     82  C   UNL     1       0.187   3.472  17.593  1.00  0.00     0.009 A 
ATOM     83  C   UNL     1       1.632   1.691  18.357  1.00  0.00     0.009 A 
ATOM     84  C   UNL     1      -0.046   3.846  18.919  1.00  0.00     0.001 A 
ATOM     85  C   UNL     1       1.369   2.044  19.681  1.00  0.00     0.001 A 
ATOM     86  C   UNL     1       0.541   3.129  19.961  1.00  0.00     0.000 A 
ENDBRANCH  68  81
ENDBRANCH  42  43
ENDBRANCH  34  37
ENDBRANCH  32  33
ENDBRANCH  31  32
ENDBRANCH  30  31
ENDBRANCH   1  30
TORSDOF 15
