REMARK SMILES CC(C)OC(=O)c1cccc(-c2ccc([C@H]3[NH2+][C@H](C(=O)NCCCCNC(=O)c4ccc(-c5c6nc(c(-c7ccccc7)c7ccc([nH]7)c(-c7ccccc7)c7nc(c(-c8ccccc8)c8ccc5[nH]8)C=C7)C=C6)cc4)C(C)(C)S3)o2)c1
REMARK SMILES IDX 22 1 21 2 19 3 20 4 18 6 16 7 17 8 80 9 77 12 78 13 79 14
REMARK SMILES IDX 15 15 12 16 13 17 81 18 14 19 11 20 7 21 8 22 82 23 9 24
REMARK SMILES IDX 10 25 5 26 6 27 4 28 2 29 1 30 3 31 23 32 24 33 25 34 26 35
REMARK SMILES IDX 27 36 28 38 29 39 30 40 76 41 31 42 75 43 32 44 33 45 34 46
REMARK SMILES IDX 69 47 35 48 74 49 68 50 70 51 36 52 73 53 67 54 66 55 37 57
REMARK SMILES IDX 59 58 44 59 58 60 45 61 48 62 57 63 71 64 46 65 47 66 56 68
REMARK SMILES IDX 72 69 49 70 38 71 39 72 43 73 40 74 42 75 41 76 60 77 61 78
REMARK SMILES IDX 65 79 62 80 64 81 63 82 50 83 51 84 55 85 52 86 54 87 53 88
REMARK H PARENT 21 5 17 10 17 11 26 37 70 56 48 67
REMARK Flexibility Score: inf
ROOT
ATOM      1  C   UNL     1     -10.701   6.104  -4.489  1.00  0.00     0.116 C 
ENDROOT
BRANCH   1   2
ATOM      2  N   UNL     1      -9.472   6.596  -3.907  1.00  0.00    -0.351 N 
ATOM      3  C   UNL     1      -8.207   6.709  -4.387  1.00  0.00     0.279 C 
ATOM      4  O   UNL     1      -7.505   7.534  -3.779  1.00  0.00    -0.268 OA
ATOM      5  H   UNL     1      -9.572   6.912  -2.980  1.00  0.00     0.163 HD
BRANCH   3   6
ATOM      6  C   UNL     1      -7.537   5.841  -5.505  1.00  0.00     0.289 C 
ATOM      7  C   UNL     1      -7.678   3.606  -4.656  1.00  0.00     0.311 C 
ATOM      8  N   UNL     1      -6.780   4.753  -4.826  1.00  0.00    -0.317 N 
ATOM      9  S   UNL     1      -8.861   3.621  -6.055  1.00  0.00    -0.078 SA
ATOM     10  H   UNL     1      -5.979   4.482  -5.397  1.00  0.00     0.348 HD
ATOM     11  H   UNL     1      -6.441   5.072  -3.919  1.00  0.00     0.348 HD
ATOM     12  C   UNL     1      -8.267   5.228  -6.715  1.00  0.00     0.078 C 
ATOM     13  C   UNL     1      -7.292   4.832  -7.849  1.00  0.00     0.030 C 
ATOM     14  C   UNL     1      -9.332   6.137  -7.345  1.00  0.00     0.030 C 
BRANCH   7  15
ATOM     15  C   UNL     1      -6.882   2.338  -4.621  1.00  0.00     0.172 A 
ATOM     16  C   UNL     1      -5.687   0.791  -3.609  1.00  0.00     0.134 A 
ATOM     17  C   UNL     1      -5.593   0.533  -4.958  1.00  0.00     0.051 A 
ATOM     18  O   UNL     1      -6.485   1.876  -3.389  1.00  0.00    -0.454 OA
ATOM     19  C   UNL     1      -6.365   1.518  -5.609  1.00  0.00     0.054 A 
BRANCH  16  20
ATOM     20  C   UNL     1      -5.098   0.145  -2.450  1.00  0.00     0.018 A 
ATOM     21  C   UNL     1      -3.122  -0.665  -1.294  1.00  0.00     0.060 A 
ATOM     22  C   UNL     1      -3.931  -1.389  -0.411  1.00  0.00     0.016 A 
ATOM     23  C   UNL     1      -3.703   0.101  -2.312  1.00  0.00     0.027 A 
ATOM     24  C   UNL     1      -5.320  -1.317  -0.523  1.00  0.00     0.002 A 
ATOM     25  C   UNL     1      -5.901  -0.550  -1.537  1.00  0.00     0.012 A 
BRANCH  21  26
ATOM     26  C   UNL     1      -1.653  -0.801  -1.180  1.00  0.00     0.338 C 
ATOM     27  O   UNL     1      -1.107  -1.850  -0.867  1.00  0.00    -0.246 OA
BRANCH  26  28
ATOM     28  O   UNL     1      -1.063   0.388  -1.434  1.00  0.00    -0.459 OA
BRANCH  28  29
ATOM     29  C   UNL     1       0.379   0.495  -1.399  1.00  0.00     0.170 C 
ATOM     30  C   UNL     1       0.986   0.091  -0.058  1.00  0.00     0.052 C 
ATOM     31  C   UNL     1       1.010  -0.230  -2.581  1.00  0.00     0.052 C 
ENDBRANCH  28  29
ENDBRANCH  26  28
ENDBRANCH  21  26
ENDBRANCH  16  20
ENDBRANCH   7  15
ENDBRANCH   3   6
ENDBRANCH   1   2
BRANCH   1  32
ATOM     32  C   UNL     1     -11.652   5.465  -3.488  1.00  0.00     0.023 C 
BRANCH  32  33
ATOM     33  C   UNL     1     -12.324   6.436  -2.525  1.00  0.00     0.023 C 
BRANCH  33  34
ATOM     34  C   UNL     1     -12.966   7.660  -3.166  1.00  0.00     0.116 C 
BRANCH  34  35
ATOM     35  N   UNL     1     -13.939   7.343  -4.206  1.00  0.00    -0.352 N 
ATOM     36  C   UNL     1     -15.214   7.837  -4.365  1.00  0.00     0.251 C 
ATOM     37  H   UNL     1     -13.645   6.691  -4.883  1.00  0.00     0.163 HD
ATOM     38  O   UNL     1     -15.946   7.432  -5.260  1.00  0.00    -0.269 OA
BRANCH  36  39
ATOM     39  C   UNL     1     -15.701   8.837  -3.398  1.00  0.00     0.039 A 
ATOM     40  C   UNL     1     -16.845   8.555  -2.649  1.00  0.00     0.014 A 
ATOM     41  C   UNL     1     -14.946   9.986  -3.152  1.00  0.00     0.014 A 
ATOM     42  C   UNL     1     -17.180   9.382  -1.577  1.00  0.00     0.010 A 
ATOM     43  C   UNL     1     -15.233  10.757  -2.035  1.00  0.00     0.010 A 
ATOM     44  C   UNL     1     -16.346  10.457  -1.230  1.00  0.00    -0.014 A 
BRANCH  44  45
ATOM     45  C   UNL     1     -16.604  11.296  -0.034  1.00  0.00     0.031 A 
ATOM     46  C   UNL     1     -16.869  12.765  -0.207  1.00  0.00     0.074 A 
ATOM     47  C   UNL     1     -16.499  10.768   1.201  1.00  0.00     0.049 A 
ATOM     48  N   UNL     1     -16.960  13.702   0.700  1.00  0.00    -0.248 NA
ATOM     49  C   UNL     1     -17.011  13.248  -1.591  1.00  0.00     0.031 C 
ATOM     50  C   UNL     1     -16.216   9.364   1.509  1.00  0.00     0.029 A 
ATOM     51  N   UNL     1     -16.605  11.362   2.434  1.00  0.00    -0.354 N 
ATOM     52  C   UNL     1     -17.134  14.886  -0.003  1.00  0.00     0.074 A 
ATOM     53  C   UNL     1     -17.088  14.557  -1.411  1.00  0.00     0.031 C 
ATOM     54  C   UNL     1     -16.195   9.202   2.842  1.00  0.00     0.029 A 
ATOM     55  C   UNL     1     -16.416  10.494   3.483  1.00  0.00     0.049 A 
ATOM     56  H   UNL     1     -16.798  12.319   2.556  1.00  0.00     0.167 HD
ATOM     57  C   UNL     1     -17.334  16.136   0.478  1.00  0.00     0.031 A 
ATOM     58  C   UNL     1     -16.410  10.718   4.811  1.00  0.00     0.031 A 
ATOM     59  C   UNL     1     -17.408  16.459   1.875  1.00  0.00     0.049 A 
ATOM     60  C   UNL     1     -16.632  12.115   5.322  1.00  0.00     0.074 A 
ATOM     61  C   UNL     1     -17.659  17.686   2.465  1.00  0.00     0.029 A 
ATOM     62  N   UNL     1     -17.238  15.545   2.903  1.00  0.00    -0.354 N 
ATOM     63  N   UNL     1     -16.838  13.218   4.645  1.00  0.00    -0.248 NA
ATOM     64  C   UNL     1     -16.626  12.294   6.781  1.00  0.00     0.031 C 
ATOM     65  C   UNL     1     -17.607  17.520   3.853  1.00  0.00     0.029 A 
ATOM     66  C   UNL     1     -17.369  16.182   4.125  1.00  0.00     0.049 A 
ATOM     67  H   UNL     1     -17.051  14.586   2.783  1.00  0.00     0.167 HD
ATOM     68  C   UNL     1     -17.022  14.215   5.594  1.00  0.00     0.074 A 
ATOM     69  C   UNL     1     -16.907  13.585   6.893  1.00  0.00     0.031 C 
ATOM     70  C   UNL     1     -17.267  15.534   5.406  1.00  0.00     0.031 A 
BRANCH  57  71
ATOM     71  C   UNL     1     -17.482  17.241  -0.529  1.00  0.00    -0.014 A 
ATOM     72  C   UNL     1     -18.622  17.335  -1.343  1.00  0.00     0.009 A 
ATOM     73  C   UNL     1     -16.471  18.206  -0.660  1.00  0.00     0.009 A 
ATOM     74  C   UNL     1     -18.726  18.346  -2.300  1.00  0.00     0.001 A 
ATOM     75  C   UNL     1     -16.592  19.233  -1.597  1.00  0.00     0.001 A 
ATOM     76  C   UNL     1     -17.713  19.296  -2.424  1.00  0.00     0.000 A 
ENDBRANCH  57  71
BRANCH  58  77
ATOM     77  C   UNL     1     -16.208   9.591   5.758  1.00  0.00    -0.014 A 
ATOM     78  C   UNL     1     -17.281   9.117   6.529  1.00  0.00     0.009 A 
ATOM     79  C   UNL     1     -14.949   8.989   5.905  1.00  0.00     0.009 A 
ATOM     80  C   UNL     1     -17.092   8.081   7.446  1.00  0.00     0.001 A 
ATOM     81  C   UNL     1     -14.769   7.936   6.805  1.00  0.00     0.001 A 
ATOM     82  C   UNL     1     -15.837   7.489   7.581  1.00  0.00     0.000 A 
ENDBRANCH  58  77
BRANCH  70  83
ATOM     83  C   UNL     1     -17.485  16.378   6.629  1.00  0.00    -0.014 A 
ATOM     84  C   UNL     1     -16.415  16.763   7.450  1.00  0.00     0.009 A 
ATOM     85  C   UNL     1     -18.776  16.843   6.925  1.00  0.00     0.009 A 
ATOM     86  C   UNL     1     -16.639  17.582   8.559  1.00  0.00     0.001 A 
ATOM     87  C   UNL     1     -18.992  17.682   8.018  1.00  0.00     0.001 A 
ATOM     88  C   UNL     1     -17.925  18.045   8.838  1.00  0.00     0.000 A 
ENDBRANCH  70  83
ENDBRANCH  44  45
ENDBRANCH  36  39
ENDBRANCH  34  35
ENDBRANCH  33  34
ENDBRANCH  32  33
ENDBRANCH   1  32
TORSDOF 16
