REMARK SMILES CCN(C(=O)N(C)Cc1cccc(C)n1)C(C)(C)C(=O)NCCCCNC(=O)c1ccc(-c2c3nc(c(-c4ccccc4)c4ccc([nH]4)c(-c4ccccc4)c4nc(c(-c5ccccc5)c5ccc2[nH]5)C=C4)C=C3)cc1
REMARK SMILES IDX 22 1 21 2 19 3 20 4 16 6 17 7 18 8 3 9 2 10 1 11 4 12 5 13
REMARK SMILES IDX 6 14 7 15 8 16 9 17 10 18 15 19 11 20 13 21 12 22 14 23
REMARK SMILES IDX 23 24 24 25 25 26 26 27 27 28 28 30 29 31 30 32 76 33 31 34
REMARK SMILES IDX 75 35 32 36 33 37 34 38 69 39 35 40 74 41 68 42 70 43 36 44
REMARK SMILES IDX 73 45 67 46 66 47 37 49 59 50 44 51 58 52 45 53 48 54 57 55
REMARK SMILES IDX 71 56 46 57 47 58 56 60 72 61 49 62 38 63 39 64 43 65 40 66
REMARK SMILES IDX 42 67 41 68 60 69 61 70 65 71 62 72 64 73 63 74 50 75 51 76
REMARK SMILES IDX 55 77 52 78 54 79 53 80
REMARK H PARENT 21 5 26 29 70 48 48 59
REMARK Flexibility Score: inf
ROOT
ATOM      1  C   UNL     1       5.156  -1.098  -3.600  1.00  0.00     0.116 C 
ENDROOT
BRANCH   1   2
ATOM      2  N   UNL     1       3.865  -1.638  -3.996  1.00  0.00    -0.354 N 
ATOM      3  C   UNL     1       2.615  -1.486  -3.450  1.00  0.00     0.245 C 
ATOM      4  O   UNL     1       1.827  -2.405  -3.694  1.00  0.00    -0.272 OA
ATOM      5  H   UNL     1       3.892  -2.212  -4.795  1.00  0.00     0.163 HD
BRANCH   3   6
ATOM      6  C   UNL     1       2.273  -0.302  -2.454  1.00  0.00     0.117 C 
ATOM      7  C   UNL     1       2.813   1.052  -2.978  1.00  0.00     0.045 C 
ATOM      8  C   UNL     1       2.974  -0.741  -1.145  1.00  0.00     0.045 C 
BRANCH   6   9
ATOM      9  N   UNL     1       0.779  -0.135  -2.173  1.00  0.00    -0.311 N 
BRANCH   9  10
ATOM     10  C   UNL     1       0.401   0.741  -1.050  1.00  0.00     0.119 C 
ATOM     11  C   UNL     1       0.350   0.057   0.313  1.00  0.00     0.027 C 
ENDBRANCH   9  10
BRANCH   9  12
ATOM     12  C   UNL     1      -0.068  -0.248  -3.283  1.00  0.00     0.320 C 
ATOM     13  O   UNL     1       0.384  -0.103  -4.423  1.00  0.00    -0.248 OA
BRANCH  12  14
ATOM     14  N   UNL     1      -1.377  -0.673  -3.089  1.00  0.00    -0.322 N 
ATOM     15  C   UNL     1      -2.217  -0.575  -1.905  1.00  0.00     0.149 C 
BRANCH  14  16
ATOM     16  C   UNL     1      -1.998  -1.397  -4.210  1.00  0.00     0.177 C 
BRANCH  16  17
ATOM     17  C   UNL     1      -1.942  -2.918  -4.075  1.00  0.00     0.060 A 
ATOM     18  C   UNL     1      -1.051  -3.550  -3.207  1.00  0.00     0.026 A 
ATOM     19  N   UNL     1      -2.775  -3.633  -4.878  1.00  0.00    -0.256 NA
ATOM     20  C   UNL     1      -0.999  -4.938  -3.164  1.00  0.00     0.004 A 
ATOM     21  C   UNL     1      -2.697  -4.988  -4.840  1.00  0.00     0.038 A 
ATOM     22  C   UNL     1      -1.831  -5.672  -3.995  1.00  0.00     0.023 A 
ATOM     23  C   UNL     1      -3.593  -5.740  -5.777  1.00  0.00     0.067 C 
ENDBRANCH  16  17
ENDBRANCH  14  16
ENDBRANCH  12  14
ENDBRANCH   9  12
ENDBRANCH   6   9
ENDBRANCH   3   6
ENDBRANCH   1   2
BRANCH   1  24
ATOM     24  C   UNL     1       6.045  -2.192  -3.005  1.00  0.00     0.023 C 
BRANCH  24  25
ATOM     25  C   UNL     1       6.610  -3.174  -4.031  1.00  0.00     0.023 C 
BRANCH  25  26
ATOM     26  C   UNL     1       7.466  -2.541  -5.122  1.00  0.00     0.116 C 
BRANCH  26  27
ATOM     27  N   UNL     1       8.614  -1.816  -4.597  1.00  0.00    -0.352 N 
ATOM     28  C   UNL     1       9.932  -1.878  -4.990  1.00  0.00     0.251 C 
ATOM     29  H   UNL     1       8.421  -1.194  -3.858  1.00  0.00     0.163 HD
ATOM     30  O   UNL     1      10.799  -1.294  -4.361  1.00  0.00    -0.269 OA
BRANCH  28  31
ATOM     31  C   UNL     1      10.288  -2.697  -6.167  1.00  0.00     0.039 A 
ATOM     32  C   UNL     1      11.300  -3.652  -6.043  1.00  0.00     0.014 A 
ATOM     33  C   UNL     1       9.583  -2.559  -7.365  1.00  0.00     0.014 A 
ATOM     34  C   UNL     1      11.545  -4.534  -7.097  1.00  0.00     0.010 A 
ATOM     35  C   UNL     1       9.784  -3.479  -8.389  1.00  0.00     0.010 A 
ATOM     36  C   UNL     1      10.755  -4.485  -8.258  1.00  0.00    -0.014 A 
BRANCH  36  37
ATOM     37  C   UNL     1      10.893  -5.498  -9.333  1.00  0.00     0.031 A 
ATOM     38  C   UNL     1      11.338  -5.085 -10.707  1.00  0.00     0.074 A 
ATOM     39  C   UNL     1      10.514  -6.770  -9.097  1.00  0.00     0.049 A 
ATOM     40  N   UNL     1      11.400  -5.799 -11.802  1.00  0.00    -0.248 NA
ATOM     41  C   UNL     1      11.740  -3.679 -10.881  1.00  0.00     0.031 C 
ATOM     42  C   UNL     1      10.017  -7.288  -7.820  1.00  0.00     0.029 A 
ATOM     43  N   UNL     1      10.464  -7.856  -9.936  1.00  0.00    -0.354 N 
ATOM     44  C   UNL     1      11.817  -4.925 -12.797  1.00  0.00     0.074 A 
ATOM     45  C   UNL     1      11.968  -3.623 -12.185  1.00  0.00     0.031 C 
ATOM     46  C   UNL     1       9.720  -8.590  -7.958  1.00  0.00     0.029 A 
ATOM     47  C   UNL     1       9.965  -8.989  -9.340  1.00  0.00     0.049 A 
ATOM     48  H   UNL     1      10.759  -7.826 -10.874  1.00  0.00     0.167 HD
ATOM     49  C   UNL     1      12.061  -5.188 -14.103  1.00  0.00     0.031 A 
ATOM     50  C   UNL     1       9.712 -10.208  -9.853  1.00  0.00     0.031 A 
ATOM     51  C   UNL     1      11.940  -6.487 -14.706  1.00  0.00     0.049 A 
ATOM     52  C   UNL     1       9.999 -10.469 -11.305  1.00  0.00     0.074 A 
ATOM     53  C   UNL     1      12.254  -6.867 -16.000  1.00  0.00     0.029 A 
ATOM     54  N   UNL     1      11.465  -7.616 -14.060  1.00  0.00    -0.354 N 
ATOM     55  N   UNL     1      10.479  -9.653 -12.212  1.00  0.00    -0.248 NA
ATOM     56  C   UNL     1       9.713 -11.823 -11.803  1.00  0.00     0.031 C 
ATOM     57  C   UNL     1      11.923  -8.217 -16.151  1.00  0.00     0.029 A 
ATOM     58  C   UNL     1      11.448  -8.687 -14.937  1.00  0.00     0.049 A 
ATOM     59  H   UNL     1      11.181  -7.652 -13.118  1.00  0.00     0.167 HD
ATOM     60  C   UNL     1      10.575 -10.400 -13.378  1.00  0.00     0.074 A 
ATOM     61  C   UNL     1      10.122 -11.738 -13.061  1.00  0.00     0.031 C 
ATOM     62  C   UNL     1      10.999 -10.012 -14.604  1.00  0.00     0.031 A 
BRANCH  49  63
ATOM     63  C   UNL     1      12.480  -4.043 -14.979  1.00  0.00    -0.014 A 
ATOM     64  C   UNL     1      13.770  -3.496 -14.893  1.00  0.00     0.009 A 
ATOM     65  C   UNL     1      11.595  -3.553 -15.952  1.00  0.00     0.009 A 
ATOM     66  C   UNL     1      14.156  -2.464 -15.751  1.00  0.00     0.001 A 
ATOM     67  C   UNL     1      11.992  -2.538 -16.823  1.00  0.00     0.001 A 
ATOM     68  C   UNL     1      13.270  -1.991 -16.719  1.00  0.00     0.000 A 
ENDBRANCH  49  63
BRANCH  50  69
ATOM     69  C   UNL     1       9.141 -11.281  -8.997  1.00  0.00    -0.014 A 
ATOM     70  C   UNL     1       9.918 -12.391  -8.633  1.00  0.00     0.009 A 
ATOM     71  C   UNL     1       7.805 -11.218  -8.572  1.00  0.00     0.009 A 
ATOM     72  C   UNL     1       9.359 -13.433  -7.890  1.00  0.00     0.001 A 
ATOM     73  C   UNL     1       7.257 -12.248  -7.804  1.00  0.00     0.001 A 
ATOM     74  C   UNL     1       8.030 -13.359  -7.475  1.00  0.00     0.000 A 
ENDBRANCH  50  69
BRANCH  62  75
ATOM     75  C   UNL     1      11.022 -11.055 -15.684  1.00  0.00    -0.014 A 
ATOM     76  C   UNL     1       9.836 -11.507 -16.281  1.00  0.00     0.009 A 
ATOM     77  C   UNL     1      12.251 -11.561 -16.136  1.00  0.00     0.009 A 
ATOM     78  C   UNL     1       9.879 -12.471 -17.290  1.00  0.00     0.001 A 
ATOM     79  C   UNL     1      12.292 -12.504 -17.163  1.00  0.00     0.001 A 
ATOM     80  C   UNL     1      11.106 -12.964 -17.733  1.00  0.00     0.000 A 
ENDBRANCH  62  75
ENDBRANCH  36  37
ENDBRANCH  28  31
ENDBRANCH  26  27
ENDBRANCH  25  26
ENDBRANCH  24  25
ENDBRANCH   1  24
TORSDOF 17
