REMARK SMILES CCOc1cc2c(cc1OCC)[C@@H](C(=O)NCCCCNC(=O)c1ccc(-c3c4nc(c(-c5ccccc5)c5ccc([nH]5)c(-c5ccccc5)c5nc(c(-c6ccccc6)c6ccc3[nH]6)C=C5)C=C4)cc1)[C@H](c1ccc(F)cc1Cl)N(C)C2=O
REMARK SMILES IDX 18 1 17 2 16 3 14 4 15 5 13 7 4 8 5 9 9 10 6 11 8 12 7 13
REMARK SMILES IDX 83 14 81 15 84 16 72 17 82 18 3 19 2 20 1 21 10 22 11 23
REMARK SMILES IDX 12 24 73 25 74 26 79 27 75 28 78 29 80 30 76 31 77 32 19 33
REMARK SMILES IDX 20 34 21 35 22 36 23 38 24 39 25 40 71 41 26 42 70 43 27 44
REMARK SMILES IDX 28 45 29 46 64 47 30 48 69 49 63 50 65 51 31 52 68 53 62 54
REMARK SMILES IDX 61 55 32 57 54 58 39 59 53 60 40 61 43 62 52 63 66 64 41 65
REMARK SMILES IDX 42 66 51 68 67 69 44 70 33 71 34 72 38 73 35 74 37 75 36 76
REMARK SMILES IDX 55 77 56 78 60 79 57 80 59 81 58 82 45 83 46 84 50 85 47 86
REMARK SMILES IDX 49 87 48 88
REMARK H PARENT 16 6 21 37 65 56 43 67
REMARK Flexibility Score: inf
ROOT
ATOM      1  C   UNL     1       7.721   0.719  -0.420  1.00  0.00     0.023 C 
ENDROOT
BRANCH   1   2
ATOM      2  C   UNL     1       6.984   0.483  -1.739  1.00  0.00     0.116 C 
BRANCH   2   3
ATOM      3  N   UNL     1       7.625  -0.568  -2.510  1.00  0.00    -0.355 N 
ATOM      4  C   UNL     1       7.492  -1.915  -2.551  1.00  0.00     0.230 C 
ATOM      5  O   UNL     1       8.346  -2.507  -3.229  1.00  0.00    -0.274 OA
ATOM      6  H   UNL     1       8.303  -0.228  -3.137  1.00  0.00     0.163 HD
BRANCH   4   7
ATOM      7  C   UNL     1       6.447  -2.756  -1.824  1.00  0.00     0.136 C 
ATOM      8  C   UNL     1       2.306  -1.598  -1.582  1.00  0.00     0.161 A 
ATOM      9  C   UNL     1       3.168  -1.411  -0.491  1.00  0.00     0.064 A 
ATOM     10  C   UNL     1       2.794  -2.138  -2.779  1.00  0.00     0.161 A 
ATOM     11  C   UNL     1       4.520  -1.733  -0.590  1.00  0.00     0.048 A 
ATOM     12  C   UNL     1       4.163  -2.438  -2.869  1.00  0.00     0.056 A 
ATOM     13  C   UNL     1       5.027  -2.258  -1.780  1.00  0.00    -0.016 A 
ATOM     14  C   UNL     1       5.428  -1.480   0.562  1.00  0.00     0.254 C 
ATOM     15  N   UNL     1       6.637  -2.177   0.573  1.00  0.00    -0.333 N 
ATOM     16  O   UNL     1       5.107  -0.644   1.401  1.00  0.00    -0.269 OA
ATOM     17  C   UNL     1       6.911  -3.225  -0.409  1.00  0.00     0.134 C 
ATOM     18  C   UNL     1       7.613  -1.954   1.633  1.00  0.00     0.147 C 
BRANCH   8  19
ATOM     19  O   UNL     1       0.977  -1.344  -1.382  1.00  0.00    -0.490 OA
BRANCH  19  20
ATOM     20  C   UNL     1       0.675   0.058  -1.362  1.00  0.00     0.226 C 
ATOM     21  C   UNL     1       0.565   0.583   0.060  1.00  0.00     0.049 C 
ENDBRANCH  19  20
ENDBRANCH   8  19
BRANCH  10  22
ATOM     22  O   UNL     1       2.128  -2.460  -3.927  1.00  0.00    -0.490 OA
BRANCH  22  23
ATOM     23  C   UNL     1       0.710  -2.384  -4.006  1.00  0.00     0.226 C 
ATOM     24  C   UNL     1       0.038  -3.592  -3.377  1.00  0.00     0.049 C 
ENDBRANCH  22  23
ENDBRANCH  10  22
BRANCH  17  25
ATOM     25  C   UNL     1       6.346  -4.628  -0.054  1.00  0.00    -0.005 A 
ATOM     26  C   UNL     1       6.702  -5.670  -0.952  1.00  0.00     0.010 A 
ATOM     27  C   UNL     1       5.516  -4.994   1.033  1.00  0.00     0.049 A 
ATOM     28  C   UNL     1       6.193  -6.965  -0.830  1.00  0.00     0.040 A 
ATOM     29  C   UNL     1       5.020  -6.301   1.154  1.00  0.00     0.060 A 
ATOM     30  Cl  UNL     1       5.021  -3.970   2.333  1.00  0.00    -0.084 Cl
ATOM     31  C   UNL     1       5.347  -7.265   0.219  1.00  0.00     0.124 A 
ATOM     32  F   UNL     1       4.848  -8.502   0.342  1.00  0.00    -0.207 F 
ENDBRANCH  17  25
ENDBRANCH   4   7
ENDBRANCH   2   3
ENDBRANCH   1   2
BRANCH   1  33
ATOM     33  C   UNL     1       8.379   2.083  -0.276  1.00  0.00     0.023 C 
BRANCH  33  34
ATOM     34  C   UNL     1       7.402   3.247  -0.233  1.00  0.00     0.116 C 
BRANCH  34  35
ATOM     35  N   UNL     1       6.525   3.265   0.932  1.00  0.00    -0.352 N 
ATOM     36  C   UNL     1       6.073   4.374   1.621  1.00  0.00     0.251 C 
ATOM     37  H   UNL     1       6.220   2.390   1.264  1.00  0.00     0.163 HD
ATOM     38  O   UNL     1       5.373   4.274   2.619  1.00  0.00    -0.269 OA
BRANCH  36  39
ATOM     39  C   UNL     1       6.508   5.706   1.151  1.00  0.00     0.039 A 
ATOM     40  C   UNL     1       7.190   6.549   2.032  1.00  0.00     0.014 A 
ATOM     41  C   UNL     1       6.359   6.050  -0.194  1.00  0.00     0.014 A 
ATOM     42  C   UNL     1       7.819   7.693   1.536  1.00  0.00     0.010 A 
ATOM     43  C   UNL     1       7.061   7.135  -0.698  1.00  0.00     0.010 A 
ATOM     44  C   UNL     1       7.807   7.963   0.158  1.00  0.00    -0.014 A 
BRANCH  44  45
ATOM     45  C   UNL     1       8.554   9.102  -0.432  1.00  0.00     0.031 A 
ATOM     46  C   UNL     1       7.801  10.158  -1.193  1.00  0.00     0.074 A 
ATOM     47  C   UNL     1       9.901   9.131  -0.391  1.00  0.00     0.049 A 
ATOM     48  N   UNL     1       8.262  11.120  -1.951  1.00  0.00    -0.248 NA
ATOM     49  C   UNL     1       6.332  10.093  -1.128  1.00  0.00     0.031 C 
ATOM     50  C   UNL     1      10.759   8.150   0.278  1.00  0.00     0.029 A 
ATOM     51  N   UNL     1      10.788  10.021  -0.946  1.00  0.00    -0.354 N 
ATOM     52  C   UNL     1       7.142  11.736  -2.493  1.00  0.00     0.074 A 
ATOM     53  C   UNL     1       5.983  11.020  -2.006  1.00  0.00     0.031 C 
ATOM     54  C   UNL     1      12.044   8.506   0.116  1.00  0.00     0.029 A 
ATOM     55  C   UNL     1      12.105   9.711  -0.705  1.00  0.00     0.049 A 
ATOM     56  H   UNL     1      10.507  10.807  -1.468  1.00  0.00     0.167 HD
ATOM     57  C   UNL     1       7.080  12.813  -3.310  1.00  0.00     0.031 A 
ATOM     58  C   UNL     1      13.234  10.325  -1.107  1.00  0.00     0.031 A 
ATOM     59  C   UNL     1       8.225  13.560  -3.748  1.00  0.00     0.049 A 
ATOM     60  C   UNL     1      13.138  11.550  -1.974  1.00  0.00     0.074 A 
ATOM     61  C   UNL     1       8.263  14.704  -4.526  1.00  0.00     0.029 A 
ATOM     62  N   UNL     1       9.536  13.248  -3.426  1.00  0.00    -0.354 N 
ATOM     63  N   UNL     1      12.070  12.139  -2.453  1.00  0.00    -0.248 NA
ATOM     64  C   UNL     1      14.404  12.198  -2.348  1.00  0.00     0.031 C 
ATOM     65  C   UNL     1       9.602  15.074  -4.690  1.00  0.00     0.029 A 
ATOM     66  C   UNL     1      10.391  14.179  -3.986  1.00  0.00     0.049 A 
ATOM     67  H   UNL     1       9.816  12.478  -2.880  1.00  0.00     0.167 HD
ATOM     68  C   UNL     1      12.531  13.245  -3.155  1.00  0.00     0.074 A 
ATOM     69  C   UNL     1      13.975  13.246  -3.039  1.00  0.00     0.031 C 
ATOM     70  C   UNL     1      11.822  14.176  -3.835  1.00  0.00     0.031 A 
BRANCH  57  71
ATOM     71  C   UNL     1       5.719  13.242  -3.776  1.00  0.00    -0.014 A 
ATOM     72  C   UNL     1       4.807  13.847  -2.896  1.00  0.00     0.009 A 
ATOM     73  C   UNL     1       5.346  13.046  -5.115  1.00  0.00     0.009 A 
ATOM     74  C   UNL     1       3.533  14.208  -3.338  1.00  0.00     0.001 A 
ATOM     75  C   UNL     1       4.082  13.434  -5.560  1.00  0.00     0.001 A 
ATOM     76  C   UNL     1       3.173  14.004  -4.670  1.00  0.00     0.000 A 
ENDBRANCH  57  71
BRANCH  58  77
ATOM     77  C   UNL     1      14.559   9.811  -0.675  1.00  0.00    -0.014 A 
ATOM     78  C   UNL     1      15.298  10.501   0.298  1.00  0.00     0.009 A 
ATOM     79  C   UNL     1      15.096   8.643  -1.235  1.00  0.00     0.009 A 
ATOM     80  C   UNL     1      16.561  10.045   0.684  1.00  0.00     0.001 A 
ATOM     81  C   UNL     1      16.349   8.176  -0.830  1.00  0.00     0.001 A 
ATOM     82  C   UNL     1      17.084   8.882   0.122  1.00  0.00     0.000 A 
ENDBRANCH  58  77
BRANCH  70  83
ATOM     83  C   UNL     1      12.584  15.309  -4.455  1.00  0.00    -0.014 A 
ATOM     84  C   UNL     1      13.295  15.139  -5.652  1.00  0.00     0.009 A 
ATOM     85  C   UNL     1      12.529  16.581  -3.865  1.00  0.00     0.009 A 
ATOM     86  C   UNL     1      13.953  16.222  -6.237  1.00  0.00     0.001 A 
ATOM     87  C   UNL     1      13.170  17.666  -4.463  1.00  0.00     0.001 A 
ATOM     88  C   UNL     1      13.885  17.484  -5.646  1.00  0.00     0.000 A 
ENDBRANCH  70  83
ENDBRANCH  44  45
ENDBRANCH  36  39
ENDBRANCH  34  35
ENDBRANCH  33  34
ENDBRANCH   1  33
TORSDOF 16
