REMARK SMILES Cc1ccccc1NC(=O)CSc1nc(C(=O)NCCCCNC(=O)c2ccc(-c3c4nc(c(-c5ccccc5)c5ccc([nH]5)c(-c5ccccc5)c5nc(c(-c6ccccc6)c6ccc3[nH]6)C=C5)C=C4)cc2)c2ccccc2n1
REMARK SMILES IDX 19 1 18 2 16 3 17 4 15 6 13 7 14 8 80 9 79 10 74 11 78 12
REMARK SMILES IDX 75 13 77 14 76 15 12 16 11 17 9 18 8 19 10 21 7 22 1 23 2 24
REMARK SMILES IDX 3 25 4 26 6 27 5 28 20 29 21 30 22 31 23 32 24 33 25 35
REMARK SMILES IDX 26 36 27 37 73 38 28 39 72 40 29 41 30 42 31 43 66 44 32 45
REMARK SMILES IDX 71 46 65 47 67 48 33 49 70 50 64 51 63 52 34 54 56 55 41 56
REMARK SMILES IDX 55 57 42 58 45 59 54 60 68 61 43 62 44 63 53 65 69 66 46 67
REMARK SMILES IDX 35 68 36 69 40 70 37 71 39 72 38 73 57 74 58 75 62 76 59 77
REMARK SMILES IDX 61 78 60 79 47 80 48 81 52 82 49 83 51 84 50 85
REMARK H PARENT 18 5 8 20 23 34 67 53 45 64
REMARK Flexibility Score: inf
ROOT
ATOM      1  C   UNL     1      -1.472   6.967  -6.985  1.00  0.00     0.116 C 
ENDROOT
BRANCH   1   2
ATOM      2  N   UNL     1      -1.388   7.648  -5.703  1.00  0.00    -0.351 N 
ATOM      3  C   UNL     1      -0.958   7.182  -4.467  1.00  0.00     0.270 C 
ATOM      4  O   UNL     1      -0.851   7.996  -3.550  1.00  0.00    -0.267 OA
ATOM      5  H   UNL     1      -1.682   8.588  -5.712  1.00  0.00     0.163 HD
BRANCH   3   6
ATOM      6  C   UNL     1      -0.717   5.722  -4.203  1.00  0.00     0.140 A 
ATOM      7  C   UNL     1      -1.437   3.936  -2.993  1.00  0.00     0.189 A 
ATOM      8  N   UNL     1      -1.429   5.256  -3.148  1.00  0.00    -0.217 NA
ATOM      9  N   UNL     1      -0.909   3.061  -3.857  1.00  0.00    -0.222 NA
ATOM     10  C   UNL     1      -0.195   3.546  -4.876  1.00  0.00     0.076 A 
ATOM     11  C   UNL     1       0.041   4.909  -5.054  1.00  0.00     0.032 A 
ATOM     12  C   UNL     1       0.301   2.661  -5.825  1.00  0.00     0.029 A 
ATOM     13  C   UNL     1       0.936   5.336  -6.071  1.00  0.00     0.013 A 
ATOM     14  C   UNL     1       1.075   3.093  -6.906  1.00  0.00     0.002 A 
ATOM     15  C   UNL     1       1.426   4.432  -7.009  1.00  0.00     0.001 A 
BRANCH   7  16
ATOM     16  S   UNL     1      -2.345   3.256  -1.639  1.00  0.00    -0.076 SA
BRANCH  16  17
ATOM     17  C   UNL     1      -1.396   3.938  -0.249  1.00  0.00     0.178 C 
BRANCH  17  18
ATOM     18  C   UNL     1       0.075   3.584  -0.271  1.00  0.00     0.234 C 
ATOM     19  N   UNL     1       0.594   2.342  -0.065  1.00  0.00    -0.325 N 
ATOM     20  H   UNL     1       1.578   2.352  -0.059  1.00  0.00     0.169 HD
ATOM     21  O   UNL     1       0.908   4.482  -0.466  1.00  0.00    -0.274 OA
BRANCH  19  22
ATOM     22  C   UNL     1       0.079   1.046   0.143  1.00  0.00     0.044 A 
ATOM     23  C   UNL     1       2.450   0.024  -0.150  1.00  0.00     0.046 C 
ATOM     24  C   UNL     1       0.955  -0.062   0.035  1.00  0.00    -0.027 A 
ATOM     25  C   UNL     1       0.426  -1.370   0.072  1.00  0.00     0.005 A 
ATOM     26  C   UNL     1      -0.931  -1.594   0.266  1.00  0.00     0.000 A 
ATOM     27  C   UNL     1      -1.266   0.791   0.425  1.00  0.00     0.026 A 
ATOM     28  C   UNL     1      -1.772  -0.512   0.471  1.00  0.00     0.002 A 
ENDBRANCH  19  22
ENDBRANCH  17  18
ENDBRANCH  16  17
ENDBRANCH   7  16
ENDBRANCH   3   6
ENDBRANCH   1   2
BRANCH   1  29
ATOM     29  C   UNL     1      -2.683   7.291  -7.852  1.00  0.00     0.023 C 
BRANCH  29  30
ATOM     30  C   UNL     1      -2.890   8.745  -8.242  1.00  0.00     0.023 C 
BRANCH  30  31
ATOM     31  C   UNL     1      -1.724   9.456  -8.914  1.00  0.00     0.116 C 
BRANCH  31  32
ATOM     32  N   UNL     1      -1.459   9.093 -10.299  1.00  0.00    -0.352 N 
ATOM     33  C   UNL     1      -0.546   9.630 -11.208  1.00  0.00     0.251 C 
ATOM     34  H   UNL     1      -2.008   8.354 -10.649  1.00  0.00     0.163 HD
ATOM     35  O   UNL     1      -0.485   9.184 -12.332  1.00  0.00    -0.269 OA
BRANCH  33  36
ATOM     36  C   UNL     1       0.454  10.646 -10.758  1.00  0.00     0.039 A 
ATOM     37  C   UNL     1       1.760  10.554 -11.260  1.00  0.00     0.014 A 
ATOM     38  C   UNL     1       0.188  11.522  -9.717  1.00  0.00     0.014 A 
ATOM     39  C   UNL     1       2.816  11.101 -10.531  1.00  0.00     0.010 A 
ATOM     40  C   UNL     1       1.226  11.934  -8.916  1.00  0.00     0.010 A 
ATOM     41  C   UNL     1       2.543  11.664  -9.290  1.00  0.00    -0.014 A 
BRANCH  41  42
ATOM     42  C   UNL     1       3.535  11.874  -8.244  1.00  0.00     0.031 A 
ATOM     43  C   UNL     1       3.851  13.235  -7.773  1.00  0.00     0.074 A 
ATOM     44  C   UNL     1       3.978  10.794  -7.565  1.00  0.00     0.049 A 
ATOM     45  N   UNL     1       4.857  13.529  -7.025  1.00  0.00    -0.248 NA
ATOM     46  C   UNL     1       3.064  14.402  -8.158  1.00  0.00     0.031 C 
ATOM     47  C   UNL     1       4.610  10.755  -6.249  1.00  0.00     0.029 A 
ATOM     48  N   UNL     1       4.120   9.493  -8.053  1.00  0.00    -0.354 N 
ATOM     49  C   UNL     1       4.668  14.812  -6.568  1.00  0.00     0.074 A 
ATOM     50  C   UNL     1       3.603  15.346  -7.382  1.00  0.00     0.031 C 
ATOM     51  C   UNL     1       5.290   9.603  -6.128  1.00  0.00     0.029 A 
ATOM     52  C   UNL     1       5.258   8.951  -7.426  1.00  0.00     0.049 A 
ATOM     53  H   UNL     1       3.538   9.043  -8.707  1.00  0.00     0.167 HD
ATOM     54  C   UNL     1       5.333  15.219  -5.450  1.00  0.00     0.031 A 
ATOM     55  C   UNL     1       6.370   8.641  -8.159  1.00  0.00     0.031 A 
ATOM     56  C   UNL     1       6.317  14.223  -5.021  1.00  0.00     0.049 A 
ATOM     57  C   UNL     1       7.600   9.436  -7.771  1.00  0.00     0.074 A 
ATOM     58  C   UNL     1       6.344  13.287  -3.999  1.00  0.00     0.029 A 
ATOM     59  N   UNL     1       7.355  13.890  -5.884  1.00  0.00    -0.354 N 
ATOM     60  N   UNL     1       7.570  10.544  -7.083  1.00  0.00    -0.248 NA
ATOM     61  C   UNL     1       8.958   9.057  -8.149  1.00  0.00     0.031 C 
ATOM     62  C   UNL     1       7.364  12.342  -4.297  1.00  0.00     0.029 A 
ATOM     63  C   UNL     1       7.974  12.724  -5.479  1.00  0.00     0.049 A 
ATOM     64  H   UNL     1       7.613  14.414  -6.676  1.00  0.00     0.167 HD
ATOM     65  C   UNL     1       8.844  11.024  -6.919  1.00  0.00     0.074 A 
ATOM     66  C   UNL     1       9.679  10.050  -7.597  1.00  0.00     0.031 C 
ATOM     67  C   UNL     1       9.093  12.189  -6.247  1.00  0.00     0.031 A 
BRANCH  54  68
ATOM     68  C   UNL     1       4.901  16.389  -4.592  1.00  0.00    -0.014 A 
ATOM     69  C   UNL     1       5.300  16.443  -3.243  1.00  0.00     0.009 A 
ATOM     70  C   UNL     1       4.052  17.426  -5.013  1.00  0.00     0.009 A 
ATOM     71  C   UNL     1       4.815  17.417  -2.358  1.00  0.00     0.001 A 
ATOM     72  C   UNL     1       3.540  18.388  -4.131  1.00  0.00     0.001 A 
ATOM     73  C   UNL     1       3.914  18.378  -2.797  1.00  0.00     0.000 A 
ENDBRANCH  54  68
BRANCH  55  74
ATOM     74  C   UNL     1       6.051   8.171  -9.538  1.00  0.00    -0.014 A 
ATOM     75  C   UNL     1       5.363   6.947  -9.678  1.00  0.00     0.009 A 
ATOM     76  C   UNL     1       6.055   9.062 -10.620  1.00  0.00     0.009 A 
ATOM     77  C   UNL     1       4.595   6.681 -10.816  1.00  0.00     0.001 A 
ATOM     78  C   UNL     1       5.297   8.782 -11.767  1.00  0.00     0.001 A 
ATOM     79  C   UNL     1       4.538   7.615 -11.846  1.00  0.00     0.000 A 
ENDBRANCH  55  74
BRANCH  67  80
ATOM     80  C   UNL     1      10.407  12.940  -6.187  1.00  0.00    -0.014 A 
ATOM     81  C   UNL     1      11.483  12.745  -7.060  1.00  0.00     0.009 A 
ATOM     82  C   UNL     1      10.534  14.011  -5.269  1.00  0.00     0.009 A 
ATOM     83  C   UNL     1      12.633  13.547  -6.996  1.00  0.00     0.001 A 
ATOM     84  C   UNL     1      11.654  14.844  -5.234  1.00  0.00     0.001 A 
ATOM     85  C   UNL     1      12.713  14.603  -6.093  1.00  0.00     0.000 A 
ENDBRANCH  67  80
ENDBRANCH  41  42
ENDBRANCH  33  36
ENDBRANCH  31  32
ENDBRANCH  30  31
ENDBRANCH  29  30
ENDBRANCH   1  29
TORSDOF 15
