REMARK SMILES COc1cccc(C(=O)Nc2ccc(NC(=O)[C@@H]3[C@@H](C(=O)NCCCCNC(=O)c4ccc(-c5c6nc(c(-c7ccccc7)c7ccc([nH]7)c(-c7ccccc7)c7nc(c(-c8ccccc8)c8ccc5[nH]8)C=C7)C=C6)cc4)[C@@H]4C=C[C@H]3C4)cc2)c1
REMARK SMILES IDX 23 1 22 2 20 3 21 4 19 6 18 7 81 8 78 9 80 10 82 11 79 12
REMARK SMILES IDX 16 13 15 14 17 16 14 17 11 18 12 19 84 20 13 21 83 22 10 23
REMARK SMILES IDX 8 24 9 25 7 27 3 28 4 29 85 30 5 31 6 32 2 33 1 34 24 35
REMARK SMILES IDX 25 36 26 37 27 38 28 39 29 41 30 42 31 43 77 44 32 45 76 46
REMARK SMILES IDX 33 47 34 48 35 49 70 50 36 51 75 52 69 53 71 54 37 55 74 56
REMARK SMILES IDX 68 57 67 58 38 60 60 61 45 62 59 63 46 64 49 65 58 66 72 67
REMARK SMILES IDX 47 68 48 69 57 71 73 72 50 73 39 74 40 75 44 76 41 77 43 78
REMARK SMILES IDX 42 79 61 80 62 81 66 82 63 83 65 84 64 85 51 86 52 87 56 88
REMARK SMILES IDX 53 89 55 90 54 91
REMARK H PARENT 22 5 15 15 10 26 27 40 71 59 49 70
REMARK Flexibility Score: inf
ROOT
ATOM      1  C   UNL     1       4.017   6.093   0.851  1.00  0.00     0.116 C 
ENDROOT
BRANCH   1   2
ATOM      2  N   UNL     1       4.672   5.758   2.113  1.00  0.00    -0.356 N 
ATOM      3  C   UNL     1       5.175   4.523   2.500  1.00  0.00     0.224 C 
ATOM      4  O   UNL     1       5.823   4.430   3.538  1.00  0.00    -0.275 OA
ATOM      5  H   UNL     1       4.767   6.491   2.763  1.00  0.00     0.163 HD
BRANCH   3   6
ATOM      6  C   UNL     1       4.904   3.343   1.577  1.00  0.00     0.098 C 
ATOM      7  C   UNL     1       5.473   1.887   1.948  1.00  0.00     0.099 C 
ATOM      8  C   UNL     1       6.238   1.561   0.657  1.00  0.00     0.025 C 
ATOM      9  C   UNL     1       5.651   3.650   0.241  1.00  0.00     0.025 C 
ATOM     10  C   UNL     1       5.298   1.568  -0.539  1.00  0.00    -0.027 C 
ATOM     11  C   UNL     1       6.949   2.879   0.399  1.00  0.00     0.017 C 
ATOM     12  C   UNL     1       4.965   2.833  -0.803  1.00  0.00    -0.027 C 
BRANCH   7  13
ATOM     13  C   UNL     1       4.396   0.916   2.473  1.00  0.00     0.228 C 
ATOM     14  N   UNL     1       4.215  -0.420   2.205  1.00  0.00    -0.326 N 
ATOM     15  H   UNL     1       3.726  -0.897   2.914  1.00  0.00     0.169 HD
ATOM     16  O   UNL     1       3.579   1.370   3.295  1.00  0.00    -0.274 OA
BRANCH  14  17
ATOM     17  C   UNL     1       4.582  -1.249   1.127  1.00  0.00     0.041 A 
ATOM     18  C   UNL     1       4.845  -1.915  -1.547  1.00  0.00     0.041 A 
ATOM     19  C   UNL     1       5.984  -1.658  -0.778  1.00  0.00     0.028 A 
ATOM     20  C   UNL     1       3.694  -2.283  -0.871  1.00  0.00     0.028 A 
ATOM     21  C   UNL     1       5.848  -1.360   0.587  1.00  0.00     0.028 A 
ATOM     22  C   UNL     1       3.554  -1.933   0.477  1.00  0.00     0.028 A 
BRANCH  18  23
ATOM     23  N   UNL     1       4.911  -1.616  -2.922  1.00  0.00    -0.322 N 
ATOM     24  C   UNL     1       3.963  -1.320  -3.886  1.00  0.00     0.255 C 
ATOM     25  O   UNL     1       4.353  -1.061  -5.027  1.00  0.00    -0.269 OA
ATOM     26  H   UNL     1       5.831  -1.618  -3.273  1.00  0.00     0.170 HD
BRANCH  24  27
ATOM     27  C   UNL     1       2.500  -1.289  -3.643  1.00  0.00     0.043 A 
ATOM     28  C   UNL     1       0.550  -0.780  -2.302  1.00  0.00     0.119 A 
ATOM     29  C   UNL     1      -0.236  -1.515  -3.196  1.00  0.00     0.046 A 
ATOM     30  C   UNL     1       1.910  -0.605  -2.570  1.00  0.00     0.060 A 
ATOM     31  C   UNL     1       0.321  -2.076  -4.343  1.00  0.00     0.005 A 
ATOM     32  C   UNL     1       1.692  -1.970  -4.563  1.00  0.00     0.014 A 
BRANCH  28  33
ATOM     33  O   UNL     1      -0.128  -0.335  -1.202  1.00  0.00    -0.497 OA
ATOM     34  C   UNL     1       0.594   0.367  -0.200  1.00  0.00     0.278 C 
ENDBRANCH  28  33
ENDBRANCH  24  27
ENDBRANCH  18  23
ENDBRANCH  14  17
ENDBRANCH   7  13
ENDBRANCH   3   6
ENDBRANCH   1   2
BRANCH   1  35
ATOM     35  C   UNL     1       3.023   7.244   0.899  1.00  0.00     0.023 C 
BRANCH  35  36
ATOM     36  C   UNL     1       3.632   8.625   1.126  1.00  0.00     0.023 C 
BRANCH  36  37
ATOM     37  C   UNL     1       4.749   9.040   0.170  1.00  0.00     0.116 C 
BRANCH  37  38
ATOM     38  N   UNL     1       4.335   9.116  -1.225  1.00  0.00    -0.352 N 
ATOM     39  C   UNL     1       4.365  10.188  -2.089  1.00  0.00     0.251 C 
ATOM     40  H   UNL     1       3.984   8.279  -1.606  1.00  0.00     0.163 HD
ATOM     41  O   UNL     1       3.873  10.097  -3.211  1.00  0.00    -0.269 OA
BRANCH  39  42
ATOM     42  C   UNL     1       4.957  11.468  -1.649  1.00  0.00     0.039 A 
ATOM     43  C   UNL     1       4.227  12.647  -1.813  1.00  0.00     0.014 A 
ATOM     44  C   UNL     1       6.211  11.496  -1.034  1.00  0.00     0.014 A 
ATOM     45  C   UNL     1       4.712  13.840  -1.273  1.00  0.00     0.010 A 
ATOM     46  C   UNL     1       6.651  12.666  -0.423  1.00  0.00     0.010 A 
ATOM     47  C   UNL     1       5.903  13.849  -0.530  1.00  0.00    -0.014 A 
BRANCH  47  48
ATOM     48  C   UNL     1       6.379  15.079   0.156  1.00  0.00     0.031 A 
ATOM     49  C   UNL     1       7.696  15.697  -0.227  1.00  0.00     0.074 A 
ATOM     50  C   UNL     1       5.664  15.598   1.174  1.00  0.00     0.049 A 
ATOM     51  N   UNL     1       8.309  16.727   0.300  1.00  0.00    -0.248 NA
ATOM     52  C   UNL     1       8.434  15.057  -1.328  1.00  0.00     0.031 C 
ATOM     53  C   UNL     1       4.393  15.070   1.676  1.00  0.00     0.029 A 
ATOM     54  N   UNL     1       5.909  16.685   1.976  1.00  0.00    -0.354 N 
ATOM     55  C   UNL     1       9.508  16.845  -0.391  1.00  0.00     0.074 A 
ATOM     56  C   UNL     1       9.562  15.752  -1.336  1.00  0.00     0.031 C 
ATOM     57  C   UNL     1       3.957  15.851   2.678  1.00  0.00     0.029 A 
ATOM     58  C   UNL     1       4.934  16.908   2.918  1.00  0.00     0.049 A 
ATOM     59  H   UNL     1       6.709  17.252   1.884  1.00  0.00     0.167 HD
ATOM     60  C   UNL     1      10.471  17.789  -0.266  1.00  0.00     0.031 A 
ATOM     61  C   UNL     1       4.838  17.853   3.872  1.00  0.00     0.031 A 
ATOM     62  C   UNL     1      10.414  18.884   0.664  1.00  0.00     0.049 A 
ATOM     63  C   UNL     1       5.926  18.883   3.998  1.00  0.00     0.074 A 
ATOM     64  C   UNL     1      11.311  19.926   0.824  1.00  0.00     0.029 A 
ATOM     65  N   UNL     1       9.405  19.078   1.594  1.00  0.00    -0.354 N 
ATOM     66  N   UNL     1       7.019  19.022   3.288  1.00  0.00    -0.248 NA
ATOM     67  C   UNL     1       5.760  19.894   5.053  1.00  0.00     0.031 C 
ATOM     68  C   UNL     1      10.871  20.722   1.886  1.00  0.00     0.029 A 
ATOM     69  C   UNL     1       9.669  20.209   2.348  1.00  0.00     0.049 A 
ATOM     70  H   UNL     1       8.617  18.497   1.702  1.00  0.00     0.167 HD
ATOM     71  C   UNL     1       7.655  20.151   3.789  1.00  0.00     0.074 A 
ATOM     72  C   UNL     1       6.817  20.667   4.853  1.00  0.00     0.031 C 
ATOM     73  C   UNL     1       8.827  20.710   3.402  1.00  0.00     0.031 A 
BRANCH  60  74
ATOM     74  C   UNL     1      11.675  17.671  -1.159  1.00  0.00    -0.014 A 
ATOM     75  C   UNL     1      11.581  17.898  -2.542  1.00  0.00     0.009 A 
ATOM     76  C   UNL     1      12.927  17.358  -0.607  1.00  0.00     0.009 A 
ATOM     77  C   UNL     1      12.707  17.775  -3.358  1.00  0.00     0.001 A 
ATOM     78  C   UNL     1      14.057  17.266  -1.421  1.00  0.00     0.001 A 
ATOM     79  C   UNL     1      13.945  17.464  -2.796  1.00  0.00     0.000 A 
ENDBRANCH  60  74
BRANCH  61  80
ATOM     80  C   UNL     1       3.658  17.886   4.776  1.00  0.00    -0.014 A 
ATOM     81  C   UNL     1       2.707  18.912   4.667  1.00  0.00     0.009 A 
ATOM     82  C   UNL     1       3.481  16.900   5.760  1.00  0.00     0.009 A 
ATOM     83  C   UNL     1       1.619  18.967   5.542  1.00  0.00     0.001 A 
ATOM     84  C   UNL     1       2.377  16.941   6.614  1.00  0.00     0.001 A 
ATOM     85  C   UNL     1       1.453  17.980   6.511  1.00  0.00     0.000 A 
ENDBRANCH  61  80
BRANCH  73  86
ATOM     86  C   UNL     1       9.255  21.968   4.106  1.00  0.00    -0.014 A 
ATOM     87  C   UNL     1       9.719  21.942   5.429  1.00  0.00     0.009 A 
ATOM     88  C   UNL     1       9.231  23.190   3.415  1.00  0.00     0.009 A 
ATOM     89  C   UNL     1      10.120  23.123   6.058  1.00  0.00     0.001 A 
ATOM     90  C   UNL     1       9.661  24.363   4.036  1.00  0.00     0.001 A 
ATOM     91  C   UNL     1      10.096  24.330   5.360  1.00  0.00     0.000 A 
ENDBRANCH  73  86
ENDBRANCH  47  48
ENDBRANCH  39  42
ENDBRANCH  37  38
ENDBRANCH  36  37
ENDBRANCH  35  36
ENDBRANCH   1  35
TORSDOF 16
