REMARK SMILES CC[C@]1(C(=O)NCCCCNC(=O)c2ccc(-c3c4nc(c(-c5ccccc5)c5ccc([nH]5)c(-c5ccccc5)c5nc(c(-c6ccccc6)c6ccc3[nH]6)C=C5)C=C4)cc2)CCC[N@@H+](Cc2cc(OC)ccc2F)C1
REMARK SMILES IDX 8 1 7 2 6 3 4 4 5 5 3 7 62 8 76 9 63 10 65 11 64 12 2 14
REMARK SMILES IDX 1 15 66 16 67 17 68 18 74 19 69 20 73 21 75 22 72 23 70 24
REMARK SMILES IDX 71 25 9 26 10 27 11 28 12 29 13 31 14 32 15 33 61 34 16 35
REMARK SMILES IDX 60 36 17 37 18 38 19 39 54 40 20 41 59 42 53 43 55 44 21 45
REMARK SMILES IDX 58 46 52 47 51 48 22 50 44 51 29 52 43 53 30 54 33 55 42 56
REMARK SMILES IDX 56 57 31 58 32 59 41 61 57 62 34 63 23 64 24 65 28 66 25 67
REMARK SMILES IDX 27 68 26 69 45 70 46 71 50 72 47 73 49 74 48 75 35 76 36 77
REMARK SMILES IDX 40 78 37 79 39 80 38 81
REMARK H PARENT 6 6 65 13 11 30 55 49 33 60
REMARK Flexibility Score: inf
ROOT
ATOM      1  C   UNL     1       0.920   1.997   6.067  1.00  0.00     0.023 C 
ENDROOT
BRANCH   1   2
ATOM      2  C   UNL     1       1.798   1.443   4.950  1.00  0.00     0.116 C 
BRANCH   2   3
ATOM      3  N   UNL     1       1.478   0.057   4.647  1.00  0.00    -0.355 N 
ATOM      4  C   UNL     1       1.028  -0.561   3.515  1.00  0.00     0.231 C 
ATOM      5  O   UNL     1       0.817  -1.773   3.629  1.00  0.00    -0.274 OA
ATOM      6  H   UNL     1       1.611  -0.555   5.406  1.00  0.00     0.163 HD
BRANCH   4   7
ATOM      7  C   UNL     1       0.802   0.195   2.171  1.00  0.00     0.098 C 
ATOM      8  C   UNL     1      -0.302   1.262   2.380  1.00  0.00     0.028 C 
ATOM      9  C   UNL     1       2.162   0.805   1.754  1.00  0.00     0.279 C 
ATOM     10  C   UNL     1      -0.224   2.448   1.424  1.00  0.00     0.063 C 
ATOM     11  N   UNL     1       2.097   1.923   0.805  1.00  0.00    -0.330 N 
ATOM     12  C   UNL     1       1.197   2.984   1.248  1.00  0.00     0.262 C 
ATOM     13  H   UNL     1       1.676   1.554  -0.047  1.00  0.00     0.348 HD
BRANCH   7  14
ATOM     14  C   UNL     1       0.327  -0.857   1.105  1.00  0.00     0.019 C 
ATOM     15  C   UNL     1       0.499  -0.509  -0.369  1.00  0.00     0.005 C 
ENDBRANCH   7  14
BRANCH  11  16
ATOM     16  C   UNL     1       3.432   2.404   0.393  1.00  0.00     0.302 C 
BRANCH  16  17
ATOM     17  C   UNL     1       4.303   3.070   1.440  1.00  0.00     0.046 A 
ATOM     18  C   UNL     1       4.514   4.459   1.423  1.00  0.00     0.059 A 
ATOM     19  C   UNL     1       4.974   2.326   2.417  1.00  0.00     0.132 A 
ATOM     20  C   UNL     1       5.354   5.071   2.363  1.00  0.00     0.119 A 
ATOM     21  C   UNL     1       5.730   2.937   3.413  1.00  0.00     0.043 A 
ATOM     22  F   UNL     1       4.910   0.988   2.417  1.00  0.00    -0.206 F 
ATOM     23  C   UNL     1       5.913   4.316   3.394  1.00  0.00     0.049 A 
BRANCH  20  24
ATOM     24  O   UNL     1       5.567   6.412   2.186  1.00  0.00    -0.497 OA
ATOM     25  C   UNL     1       6.813   6.894   2.689  1.00  0.00     0.278 C 
ENDBRANCH  20  24
ENDBRANCH  16  17
ENDBRANCH  11  16
ENDBRANCH   4   7
ENDBRANCH   2   3
ENDBRANCH   1   2
BRANCH   1  26
ATOM     26  C   UNL     1       1.194   1.403   7.448  1.00  0.00     0.023 C 
BRANCH  26  27
ATOM     27  C   UNL     1       2.633   1.527   7.936  1.00  0.00     0.116 C 
BRANCH  27  28
ATOM     28  N   UNL     1       3.118   2.899   7.960  1.00  0.00    -0.352 N 
ATOM     29  C   UNL     1       3.817   3.559   8.939  1.00  0.00     0.251 C 
ATOM     30  H   UNL     1       2.914   3.430   7.157  1.00  0.00     0.163 HD
ATOM     31  O   UNL     1       4.042   4.763   8.827  1.00  0.00    -0.269 OA
BRANCH  29  32
ATOM     32  C   UNL     1       4.274   2.835  10.144  1.00  0.00     0.039 A 
ATOM     33  C   UNL     1       4.106   3.438  11.393  1.00  0.00     0.014 A 
ATOM     34  C   UNL     1       4.859   1.569  10.050  1.00  0.00     0.014 A 
ATOM     35  C   UNL     1       4.471   2.745  12.549  1.00  0.00     0.010 A 
ATOM     36  C   UNL     1       5.141   0.847  11.207  1.00  0.00     0.010 A 
ATOM     37  C   UNL     1       4.958   1.430  12.468  1.00  0.00    -0.014 A 
BRANCH  37  38
ATOM     38  C   UNL     1       5.271   0.663  13.701  1.00  0.00     0.031 A 
ATOM     39  C   UNL     1       6.679   0.217  13.991  1.00  0.00     0.074 A 
ATOM     40  C   UNL     1       4.276   0.341  14.551  1.00  0.00     0.049 A 
ATOM     41  N   UNL     1       7.142  -0.420  15.037  1.00  0.00    -0.248 NA
ATOM     42  C   UNL     1       7.694   0.499  12.964  1.00  0.00     0.031 C 
ATOM     43  C   UNL     1       2.859   0.658  14.357  1.00  0.00     0.029 A 
ATOM     44  N   UNL     1       4.307  -0.316  15.756  1.00  0.00    -0.354 N 
ATOM     45  C   UNL     1       8.495  -0.621  14.790  1.00  0.00     0.074 A 
ATOM     46  C   UNL     1       8.765  -0.093  13.471  1.00  0.00     0.031 C 
ATOM     47  C   UNL     1       2.165   0.239  15.427  1.00  0.00     0.029 A 
ATOM     48  C   UNL     1       3.078  -0.403  16.365  1.00  0.00     0.049 A 
ATOM     49  H   UNL     1       5.130  -0.688  16.146  1.00  0.00     0.167 HD
ATOM     50  C   UNL     1       9.435  -1.170  15.596  1.00  0.00     0.031 A 
ATOM     51  C   UNL     1       2.728  -0.930  17.553  1.00  0.00     0.031 A 
ATOM     52  C   UNL     1       9.169  -1.692  16.911  1.00  0.00     0.049 A 
ATOM     53  C   UNL     1       3.791  -1.523  18.434  1.00  0.00     0.074 A 
ATOM     54  C   UNL     1      10.062  -2.218  17.828  1.00  0.00     0.029 A 
ATOM     55  N   UNL     1       7.913  -1.757  17.494  1.00  0.00    -0.354 N 
ATOM     56  N   UNL     1       5.080  -1.626  18.222  1.00  0.00    -0.248 NA
ATOM     57  C   UNL     1       3.349  -2.054  19.731  1.00  0.00     0.031 C 
ATOM     58  C   UNL     1       9.339  -2.649  18.945  1.00  0.00     0.029 A 
ATOM     59  C   UNL     1       8.004  -2.334  18.750  1.00  0.00     0.049 A 
ATOM     60  H   UNL     1       7.079  -1.440  17.077  1.00  0.00     0.167 HD
ATOM     61  C   UNL     1       5.608  -2.206  19.368  1.00  0.00     0.074 A 
ATOM     62  C   UNL     1       4.501  -2.409  20.281  1.00  0.00     0.031 C 
ATOM     63  C   UNL     1       6.893  -2.539  19.643  1.00  0.00     0.031 A 
BRANCH  50  64
ATOM     64  C   UNL     1      10.844  -1.234  15.071  1.00  0.00    -0.014 A 
ATOM     65  C   UNL     1      11.608  -0.069  14.893  1.00  0.00     0.009 A 
ATOM     66  C   UNL     1      11.426  -2.476  14.778  1.00  0.00     0.009 A 
ATOM     67  C   UNL     1      12.911  -0.144  14.396  1.00  0.00     0.001 A 
ATOM     68  C   UNL     1      12.740  -2.551  14.311  1.00  0.00     0.001 A 
ATOM     69  C   UNL     1      13.477  -1.385  14.110  1.00  0.00     0.000 A 
ENDBRANCH  50  64
BRANCH  51  70
ATOM     70  C   UNL     1       1.311  -0.885  18.000  1.00  0.00    -0.014 A 
ATOM     71  C   UNL     1       0.924  -0.052  19.062  1.00  0.00     0.009 A 
ATOM     72  C   UNL     1       0.339  -1.681  17.375  1.00  0.00     0.009 A 
ATOM     73  C   UNL     1      -0.399  -0.042  19.509  1.00  0.00     0.001 A 
ATOM     74  C   UNL     1      -0.990  -1.645  17.803  1.00  0.00     0.001 A 
ATOM     75  C   UNL     1      -1.355  -0.835  18.877  1.00  0.00     0.000 A 
ENDBRANCH  51  70
BRANCH  63  76
ATOM     76  C   UNL     1       7.170  -3.126  20.999  1.00  0.00    -0.014 A 
ATOM     77  C   UNL     1       6.727  -4.413  21.345  1.00  0.00     0.009 A 
ATOM     78  C   UNL     1       7.893  -2.380  21.943  1.00  0.00     0.009 A 
ATOM     79  C   UNL     1       6.960  -4.919  22.626  1.00  0.00     0.001 A 
ATOM     80  C   UNL     1       8.154  -2.902  23.210  1.00  0.00     0.001 A 
ATOM     81  C   UNL     1       7.675  -4.165  23.556  1.00  0.00     0.000 A 
ENDBRANCH  63  76
ENDBRANCH  37  38
ENDBRANCH  29  32
ENDBRANCH  27  28
ENDBRANCH  26  27
ENDBRANCH   1  26
TORSDOF 15
