REMARK SMILES Cc1ccc(C(=O)N[C@@H]2C=C[C@H](C(=O)NCCCCNC(=O)c3ccc(-c4c5nc(c(-c6ccccc6)c6ccc([nH]6)c(-c6ccccc6)c6nc(c(-c7ccccc7)c7ccc4[nH]7)C=C6)C=C5)cc3)C2)c(F)c1
REMARK SMILES IDX 17 1 16 2 15 3 13 4 14 5 12 7 9 8 10 9 71 10 11 11 8 12 6 13
REMARK SMILES IDX 7 14 5 16 1 17 2 18 3 19 74 20 4 21 72 22 73 23 18 24 19 25
REMARK SMILES IDX 20 26 21 27 22 29 23 30 24 31 70 32 25 33 69 34 26 35 27 36
REMARK SMILES IDX 28 37 63 38 29 39 68 40 62 41 64 42 30 43 67 44 61 45 60 46
REMARK SMILES IDX 31 48 53 49 38 50 52 51 39 52 42 53 51 54 65 55 40 56 41 57
REMARK SMILES IDX 50 59 66 60 43 61 32 62 33 63 37 64 34 65 36 66 35 67 54 68
REMARK SMILES IDX 55 69 59 70 56 71 58 72 57 73 44 74 45 75 49 76 46 77 48 78
REMARK SMILES IDX 47 79
REMARK H PARENT 15 6 8 15 20 28 64 47 42 58
REMARK Flexibility Score: inf
ROOT
ATOM      1  C   UNL     1       1.576  -9.213   3.025  1.00  0.00     0.023 C 
ENDROOT
BRANCH   1   2
ATOM      2  C   UNL     1       1.764  -7.703   3.160  1.00  0.00     0.116 C 
BRANCH   2   3
ATOM      3  N   UNL     1       2.343  -7.088   1.980  1.00  0.00    -0.356 N 
ATOM      4  C   UNL     1       2.110  -5.839   1.462  1.00  0.00     0.227 C 
ATOM      5  O   UNL     1       2.840  -5.443   0.554  1.00  0.00    -0.274 OA
ATOM      6  H   UNL     1       2.989  -7.641   1.485  1.00  0.00     0.163 HD
BRANCH   4   7
ATOM      7  C   UNL     1       0.921  -5.039   2.000  1.00  0.00     0.103 C 
ATOM      8  C   UNL     1      -0.816  -4.411   0.344  1.00  0.00     0.106 C 
ATOM      9  C   UNL     1      -0.008  -3.237   0.807  1.00  0.00    -0.006 C 
ATOM     10  C   UNL     1      -0.357  -5.519   1.307  1.00  0.00     0.047 C 
ATOM     11  C   UNL     1       0.947  -3.580   1.679  1.00  0.00    -0.016 C 
BRANCH   8  12
ATOM     12  N   UNL     1      -0.567  -4.566  -1.079  1.00  0.00    -0.346 N 
ATOM     13  C   UNL     1      -0.914  -5.534  -1.990  1.00  0.00     0.254 C 
ATOM     14  O   UNL     1      -0.879  -5.276  -3.189  1.00  0.00    -0.269 OA
ATOM     15  H   UNL     1      -0.045  -3.828  -1.469  1.00  0.00     0.164 HD
BRANCH  13  16
ATOM     16  C   UNL     1      -1.226  -6.902  -1.550  1.00  0.00     0.075 A 
ATOM     17  C   UNL     1      -1.266 -10.760   0.329  1.00  0.00     0.044 C 
ATOM     18  C   UNL     1      -1.327  -9.446  -0.391  1.00  0.00    -0.048 A 
ATOM     19  C   UNL     1      -2.222  -8.445   0.017  1.00  0.00     0.004 A 
ATOM     20  C   UNL     1      -0.487  -9.204  -1.482  1.00  0.00     0.043 A 
ATOM     21  C   UNL     1      -2.190  -7.178  -0.577  1.00  0.00     0.017 A 
ATOM     22  C   UNL     1      -0.431  -7.935  -2.049  1.00  0.00     0.136 A 
ATOM     23  F   UNL     1       0.457  -7.721  -3.030  1.00  0.00    -0.206 F 
ENDBRANCH  13  16
ENDBRANCH   8  12
ENDBRANCH   4   7
ENDBRANCH   2   3
ENDBRANCH   1   2
BRANCH   1  24
ATOM     24  C   UNL     1       2.834 -10.019   2.700  1.00  0.00     0.023 C 
BRANCH  24  25
ATOM     25  C   UNL     1       4.031  -9.779   3.613  1.00  0.00     0.116 C 
BRANCH  25  26
ATOM     26  N   UNL     1       3.760 -10.102   5.003  1.00  0.00    -0.352 N 
ATOM     27  C   UNL     1       4.497 -10.842   5.896  1.00  0.00     0.251 C 
ATOM     28  H   UNL     1       2.920  -9.734   5.361  1.00  0.00     0.163 HD
ATOM     29  O   UNL     1       4.023 -11.106   6.996  1.00  0.00    -0.269 OA
BRANCH  27  30
ATOM     30  C   UNL     1       5.844 -11.347   5.537  1.00  0.00     0.039 A 
ATOM     31  C   UNL     1       6.206 -12.632   5.954  1.00  0.00     0.014 A 
ATOM     32  C   UNL     1       6.761 -10.564   4.832  1.00  0.00     0.014 A 
ATOM     33  C   UNL     1       7.465 -13.143   5.629  1.00  0.00     0.010 A 
ATOM     34  C   UNL     1       7.982 -11.106   4.434  1.00  0.00     0.010 A 
ATOM     35  C   UNL     1       8.357 -12.393   4.845  1.00  0.00    -0.014 A 
BRANCH  35  36
ATOM     36  C   UNL     1       9.687 -12.943   4.474  1.00  0.00     0.031 A 
ATOM     37  C   UNL     1      10.950 -12.284   4.958  1.00  0.00     0.074 A 
ATOM     38  C   UNL     1       9.762 -14.021   3.670  1.00  0.00     0.049 A 
ATOM     39  N   UNL     1      12.196 -12.639   4.761  1.00  0.00    -0.248 NA
ATOM     40  C   UNL     1      10.798 -11.047   5.741  1.00  0.00     0.031 C 
ATOM     41  C   UNL     1       8.618 -14.719   3.080  1.00  0.00     0.029 A 
ATOM     42  N   UNL     1      10.851 -14.720   3.212  1.00  0.00    -0.354 N 
ATOM     43  C   UNL     1      12.970 -11.664   5.377  1.00  0.00     0.074 A 
ATOM     44  C   UNL     1      12.058 -10.673   5.903  1.00  0.00     0.031 C 
ATOM     45  C   UNL     1       9.063 -15.765   2.366  1.00  0.00     0.029 A 
ATOM     46  C   UNL     1      10.521 -15.794   2.421  1.00  0.00     0.049 A 
ATOM     47  H   UNL     1      11.779 -14.475   3.429  1.00  0.00     0.167 HD
ATOM     48  C   UNL     1      14.317 -11.604   5.512  1.00  0.00     0.031 A 
ATOM     49  C   UNL     1      11.303 -16.704   1.810  1.00  0.00     0.031 A 
ATOM     50  C   UNL     1      15.226 -12.592   4.992  1.00  0.00     0.049 A 
ATOM     51  C   UNL     1      12.793 -16.635   1.992  1.00  0.00     0.074 A 
ATOM     52  C   UNL     1      16.600 -12.662   5.138  1.00  0.00     0.029 A 
ATOM     53  N   UNL     1      14.851 -13.677   4.214  1.00  0.00    -0.354 N 
ATOM     54  N   UNL     1      13.504 -15.761   2.662  1.00  0.00    -0.248 NA
ATOM     55  C   UNL     1      13.585 -17.695   1.353  1.00  0.00     0.031 C 
ATOM     56  C   UNL     1      17.064 -13.755   4.396  1.00  0.00     0.029 A 
ATOM     57  C   UNL     1      15.971 -14.406   3.847  1.00  0.00     0.049 A 
ATOM     58  H   UNL     1      13.926 -13.896   3.959  1.00  0.00     0.167 HD
ATOM     59  C   UNL     1      14.824 -16.178   2.547  1.00  0.00     0.074 A 
ATOM     60  C   UNL     1      14.810 -17.396   1.761  1.00  0.00     0.031 C 
ATOM     61  C   UNL     1      15.947 -15.607   3.050  1.00  0.00     0.031 A 
BRANCH  48  62
ATOM     62  C   UNL     1      14.886 -10.412   6.236  1.00  0.00    -0.014 A 
ATOM     63  C   UNL     1      14.667 -10.212   7.609  1.00  0.00     0.009 A 
ATOM     64  C   UNL     1      15.660  -9.476   5.533  1.00  0.00     0.009 A 
ATOM     65  C   UNL     1      15.167  -9.075   8.249  1.00  0.00     0.001 A 
ATOM     66  C   UNL     1      16.188  -8.358   6.183  1.00  0.00     0.001 A 
ATOM     67  C   UNL     1      15.929  -8.152   7.537  1.00  0.00     0.000 A 
ENDBRANCH  48  62
BRANCH  49  68
ATOM     68  C   UNL     1      10.680 -17.778   0.991  1.00  0.00    -0.014 A 
ATOM     69  C   UNL     1      10.668 -19.107   1.440  1.00  0.00     0.009 A 
ATOM     70  C   UNL     1      10.076 -17.471  -0.238  1.00  0.00     0.009 A 
ATOM     71  C   UNL     1      10.083 -20.111   0.664  1.00  0.00     0.001 A 
ATOM     72  C   UNL     1       9.465 -18.471  -0.997  1.00  0.00     0.001 A 
ATOM     73  C   UNL     1       9.476 -19.791  -0.550  1.00  0.00     0.000 A 
ENDBRANCH  49  68
BRANCH  61  74
ATOM     74  C   UNL     1      17.250 -16.313   2.792  1.00  0.00    -0.014 A 
ATOM     75  C   UNL     1      17.812 -16.373   1.506  1.00  0.00     0.009 A 
ATOM     76  C   UNL     1      17.936 -16.914   3.859  1.00  0.00     0.009 A 
ATOM     77  C   UNL     1      19.007 -17.063   1.289  1.00  0.00     0.001 A 
ATOM     78  C   UNL     1      19.147 -17.572   3.645  1.00  0.00     0.001 A 
ATOM     79  C   UNL     1      19.675 -17.659   2.358  1.00  0.00     0.000 A 
ENDBRANCH  61  74
ENDBRANCH  35  36
ENDBRANCH  27  30
ENDBRANCH  25  26
ENDBRANCH  24  25
ENDBRANCH   1  24
TORSDOF 13
