REMARK SMILES O=C(NCCCCNC(=O)[C@H]1CCCC[C@H]1C(=O)N1CCN(S(=O)(=O)c2ccc(F)cc2)CC1)c1ccc(-c2c3nc(c(-c4ccccc4)c4ccc([nH]4)c(-c4ccccc4)c4nc(c(-c5ccccc5)c5ccc2[nH]5)C=C4)C=C3)cc1
REMARK SMILES IDX 6 1 5 2 4 3 3 4 1 5 2 6 35 8 36 9 82 10 37 11 81 12 38 13
REMARK SMILES IDX 39 14 40 15 75 16 41 17 80 18 74 19 76 20 42 21 79 22 73 23
REMARK SMILES IDX 72 24 43 26 65 27 50 28 64 29 51 30 54 31 63 32 77 33 52 34
REMARK SMILES IDX 53 35 62 37 78 38 55 39 44 40 45 41 49 42 46 43 48 44 47 45
REMARK SMILES IDX 66 46 67 47 71 48 68 49 70 50 69 51 56 52 57 53 61 54 58 55
REMARK SMILES IDX 60 56 59 57 7 58 8 59 9 60 10 62 11 63 12 64 16 65 13 66
REMARK SMILES IDX 15 67 14 68 17 69 18 70 19 71 20 72 34 73 21 74 33 75 22 76
REMARK SMILES IDX 23 77 24 78 25 79 26 80 27 81 32 82 28 83 31 84 29 85 30 86
REMARK H PARENT 3 7 76 25 54 36 8 61
REMARK Flexibility Score: inf
ROOT
ATOM      1  C   UNL     1       3.858 -10.596  -0.373  1.00  0.00     0.023 C 
ENDROOT
BRANCH   1   2
ATOM      2  C   UNL     1       2.924 -11.059  -1.482  1.00  0.00     0.023 C 
BRANCH   2   3
ATOM      3  C   UNL     1       3.617 -11.781  -2.627  1.00  0.00     0.116 C 
BRANCH   3   4
ATOM      4  N   UNL     1       4.324 -12.993  -2.242  1.00  0.00    -0.352 N 
ATOM      5  O   UNL     1       5.012 -15.139  -2.550  1.00  0.00    -0.269 OA
ATOM      6  C   UNL     1       4.411 -14.160  -2.968  1.00  0.00     0.251 C 
ATOM      7  H   UNL     1       4.789 -12.976  -1.375  1.00  0.00     0.163 HD
BRANCH   6   8
ATOM      8  C   UNL     1       3.697 -14.204  -4.256  1.00  0.00     0.039 A 
ATOM      9  C   UNL     1       3.986 -13.251  -5.237  1.00  0.00     0.014 A 
ATOM     10  C   UNL     1       2.628 -15.089  -4.398  1.00  0.00     0.014 A 
ATOM     11  C   UNL     1       3.112 -13.094  -6.303  1.00  0.00     0.010 A 
ATOM     12  C   UNL     1       1.810 -14.989  -5.521  1.00  0.00     0.010 A 
ATOM     13  C   UNL     1       2.028 -13.975  -6.468  1.00  0.00    -0.014 A 
BRANCH  13  14
ATOM     14  C   UNL     1       1.186 -13.887  -7.686  1.00  0.00     0.031 A 
ATOM     15  C   UNL     1      -0.286 -13.597  -7.612  1.00  0.00     0.074 A 
ATOM     16  C   UNL     1       1.776 -14.110  -8.877  1.00  0.00     0.049 A 
ATOM     17  N   UNL     1      -1.165 -13.554  -8.582  1.00  0.00    -0.248 NA
ATOM     18  C   UNL     1      -0.852 -13.331  -6.280  1.00  0.00     0.031 C 
ATOM     19  C   UNL     1       3.198 -14.407  -9.071  1.00  0.00     0.029 A 
ATOM     20  N   UNL     1       1.258 -14.119 -10.145  1.00  0.00    -0.354 N 
ATOM     21  C   UNL     1      -2.388 -13.283  -7.981  1.00  0.00     0.074 A 
ATOM     22  C   UNL     1      -2.142 -13.192  -6.556  1.00  0.00     0.031 C 
ATOM     23  C   UNL     1       3.447 -14.528 -10.381  1.00  0.00     0.029 A 
ATOM     24  C   UNL     1       2.193 -14.403 -11.110  1.00  0.00     0.049 A 
ATOM     25  H   UNL     1       0.311 -13.940 -10.344  1.00  0.00     0.167 HD
ATOM     26  C   UNL     1      -3.601 -13.127  -8.565  1.00  0.00     0.031 A 
ATOM     27  C   UNL     1       2.056 -14.580 -12.435  1.00  0.00     0.031 A 
ATOM     28  C   UNL     1      -3.835 -13.233  -9.984  1.00  0.00     0.049 A 
ATOM     29  C   UNL     1       0.693 -14.456 -13.045  1.00  0.00     0.074 A 
ATOM     30  C   UNL     1      -5.021 -13.057 -10.678  1.00  0.00     0.029 A 
ATOM     31  N   UNL     1      -2.868 -13.554 -10.925  1.00  0.00    -0.354 N 
ATOM     32  N   UNL     1      -0.446 -14.162 -12.467  1.00  0.00    -0.248 NA
ATOM     33  C   UNL     1       0.600 -14.686 -14.491  1.00  0.00     0.031 C 
ATOM     34  C   UNL     1      -4.784 -13.336 -12.028  1.00  0.00     0.029 A 
ATOM     35  C   UNL     1      -3.436 -13.614 -12.188  1.00  0.00     0.049 A 
ATOM     36  H   UNL     1      -1.917 -13.716 -10.726  1.00  0.00     0.167 HD
ATOM     37  C   UNL     1      -1.390 -14.149 -13.483  1.00  0.00     0.074 A 
ATOM     38  C   UNL     1      -0.684 -14.442 -14.715  1.00  0.00     0.031 C 
ATOM     39  C   UNL     1      -2.723 -13.917 -13.403  1.00  0.00     0.031 A 
BRANCH  26  40
ATOM     40  C   UNL     1      -4.782 -12.861  -7.669  1.00  0.00    -0.014 A 
ATOM     41  C   UNL     1      -4.929 -11.641  -6.989  1.00  0.00     0.009 A 
ATOM     42  C   UNL     1      -5.793 -13.828  -7.544  1.00  0.00     0.009 A 
ATOM     43  C   UNL     1      -6.043 -11.411  -6.177  1.00  0.00     0.001 A 
ATOM     44  C   UNL     1      -6.920 -13.584  -6.756  1.00  0.00     0.001 A 
ATOM     45  C   UNL     1      -7.040 -12.380  -6.065  1.00  0.00     0.000 A 
ENDBRANCH  26  40
BRANCH  27  46
ATOM     46  C   UNL     1       3.244 -14.917 -13.259  1.00  0.00    -0.014 A 
ATOM     47  C   UNL     1       3.753 -13.997 -14.186  1.00  0.00     0.009 A 
ATOM     48  C   UNL     1       3.890 -16.155 -13.105  1.00  0.00     0.009 A 
ATOM     49  C   UNL     1       4.869 -14.319 -14.960  1.00  0.00     0.001 A 
ATOM     50  C   UNL     1       5.027 -16.460 -13.855  1.00  0.00     0.001 A 
ATOM     51  C   UNL     1       5.508 -15.546 -14.790  1.00  0.00     0.000 A 
ENDBRANCH  27  46
BRANCH  39  52
ATOM     52  C   UNL     1      -3.494 -13.935 -14.694  1.00  0.00    -0.014 A 
ATOM     53  C   UNL     1      -3.721 -15.129 -15.395  1.00  0.00     0.009 A 
ATOM     54  C   UNL     1      -4.018 -12.736 -15.205  1.00  0.00     0.009 A 
ATOM     55  C   UNL     1      -4.421 -15.116 -16.603  1.00  0.00     0.001 A 
ATOM     56  C   UNL     1      -4.747 -12.732 -16.394  1.00  0.00     0.001 A 
ATOM     57  C   UNL     1      -4.938 -13.919 -17.098  1.00  0.00     0.000 A 
ENDBRANCH  39  52
ENDBRANCH  13  14
ENDBRANCH   6   8
ENDBRANCH   3   4
ENDBRANCH   2   3
ENDBRANCH   1   2
BRANCH   1  58
ATOM     58  C   UNL     1       4.856  -9.551  -0.837  1.00  0.00     0.116 C 
BRANCH  58  59
ATOM     59  N   UNL     1       4.310  -8.216  -0.812  1.00  0.00    -0.356 N 
ATOM     60  C   UNL     1       4.899  -7.030  -0.536  1.00  0.00     0.223 C 
ATOM     61  H   UNL     1       3.353  -8.158  -1.033  1.00  0.00     0.163 HD
ATOM     62  O   UNL     1       4.277  -6.018  -0.882  1.00  0.00    -0.275 OA
BRANCH  60  63
ATOM     63  C   UNL     1       6.213  -6.869   0.223  1.00  0.00     0.091 C 
ATOM     64  C   UNL     1       5.885  -6.715   1.715  1.00  0.00     0.014 C 
ATOM     65  C   UNL     1       7.427  -7.774  -0.016  1.00  0.00     0.091 C 
ATOM     66  C   UNL     1       5.449  -8.031   2.318  1.00  0.00     0.001 C 
ATOM     67  C   UNL     1       7.597  -8.884   1.095  1.00  0.00     0.014 C 
ATOM     68  C   UNL     1       6.512  -9.103   2.166  1.00  0.00     0.001 C 
BRANCH  65  69
ATOM     69  C   UNL     1       7.807  -8.383  -1.406  1.00  0.00     0.226 C 
ATOM     70  O   UNL     1       8.652  -9.293  -1.398  1.00  0.00    -0.275 OA
ATOM     71  N   UNL     1       7.314  -7.986  -2.631  1.00  0.00    -0.340 N 
ATOM     72  C   UNL     1       7.596  -8.828  -3.808  1.00  0.00     0.136 C 
ATOM     73  C   UNL     1       6.687  -6.728  -3.024  1.00  0.00     0.136 C 
ATOM     74  C   UNL     1       6.331  -9.114  -4.635  1.00  0.00     0.124 C 
ATOM     75  C   UNL     1       5.366  -6.987  -3.768  1.00  0.00     0.124 C 
ATOM     76  N   UNL     1       5.510  -7.898  -4.945  1.00  0.00    -0.194 NA
BRANCH  76  77
ATOM     77  S   UNL     1       5.755  -7.216  -6.478  1.00  0.00     0.243 S 
ATOM     78  O   UNL     1       6.887  -6.316  -6.376  1.00  0.00    -0.207 OA
ATOM     79  O   UNL     1       5.739  -8.294  -7.438  1.00  0.00    -0.207 OA
BRANCH  77  80
ATOM     80  C   UNL     1       4.290  -6.231  -6.759  1.00  0.00     0.082 A 
ATOM     81  C   UNL     1       4.200  -4.950  -6.200  1.00  0.00     0.025 A 
ATOM     82  C   UNL     1       3.269  -6.707  -7.594  1.00  0.00     0.025 A 
ATOM     83  C   UNL     1       3.049  -4.185  -6.390  1.00  0.00     0.040 A 
ATOM     84  C   UNL     1       2.138  -5.915  -7.818  1.00  0.00     0.040 A 
ATOM     85  C   UNL     1       2.029  -4.673  -7.199  1.00  0.00     0.123 A 
ATOM     86  F   UNL     1       0.933  -3.929  -7.394  1.00  0.00    -0.207 F 
ENDBRANCH  77  80
ENDBRANCH  76  77
ENDBRANCH  65  69
ENDBRANCH  60  63
ENDBRANCH  58  59
ENDBRANCH   1  58
TORSDOF 14
