REMARK SMILES Cc1cc2c(c(C)c1Cl)C=C(C(=O)NCCCCNC(=O)c1ccc(-c3c4nc(c(-c5ccccc5)c5ccc([nH]5)c(-c5ccccc5)c5nc(c(-c6ccccc6)c6ccc3[nH]6)C=C5)C=C4)cc1)[C@@H](C(F)(F)F)O2
REMARK SMILES IDX 17 1 16 2 15 3 14 4 12 5 13 6 11 8 1 9 2 10 3 11 8 12 4 13
REMARK SMILES IDX 6 14 9 15 5 16 75 17 7 18 10 19 70 20 71 21 72 22 73 23
REMARK SMILES IDX 74 24 18 25 19 26 20 27 21 29 22 30 23 31 69 32 24 33 68 34
REMARK SMILES IDX 25 35 26 36 27 37 62 38 28 39 67 40 61 41 63 42 29 43 66 44
REMARK SMILES IDX 60 45 59 46 30 48 52 49 37 50 51 51 38 52 41 53 50 54 64 55
REMARK SMILES IDX 39 56 40 57 49 59 65 60 42 61 31 62 32 63 36 64 33 65 35 66
REMARK SMILES IDX 34 67 53 68 54 69 58 70 55 71 57 72 56 73 43 74 44 75 48 76
REMARK SMILES IDX 45 77 47 78 46 79
REMARK H PARENT 14 7 19 28 63 47 41 58
REMARK Flexibility Score: inf
ROOT
ATOM      1  C   UNL     1      -1.196  -0.188  10.638  1.00  0.00     0.023 C 
ENDROOT
BRANCH   1   2
ATOM      2  C   UNL     1      -1.122  -0.479   9.137  1.00  0.00     0.023 C 
BRANCH   2   3
ATOM      3  C   UNL     1      -2.167   0.259   8.305  1.00  0.00     0.116 C 
BRANCH   3   4
ATOM      4  N   UNL     1      -1.748   1.611   7.983  1.00  0.00    -0.352 N 
ATOM      5  C   UNL     1      -1.234   2.257   6.910  1.00  0.00     0.251 C 
ATOM      6  O   UNL     1      -1.004   3.458   7.087  1.00  0.00    -0.270 OA
ATOM      7  H   UNL     1      -1.871   2.219   8.748  1.00  0.00     0.163 HD
BRANCH   5   8
ATOM      8  C   UNL     1      -0.943   1.636   5.583  1.00  0.00     0.067 C 
ATOM      9  C   UNL     1       1.069   0.082  -0.418  1.00  0.00     0.046 C 
ATOM     10  C   UNL     1       0.696   0.754   0.875  1.00  0.00    -0.028 A 
ATOM     11  C   UNL     1       0.191  -0.031   1.916  1.00  0.00     0.052 A 
ATOM     12  C   UNL     1       0.861   2.138   1.085  1.00  0.00     0.047 A 
ATOM     13  C   UNL     1      -0.149   0.546   3.135  1.00  0.00     0.128 A 
ATOM     14  C   UNL     1       0.511   2.740   2.320  1.00  0.00    -0.021 A 
ATOM     15  Cl  UNL     1       1.531   3.093  -0.204  1.00  0.00    -0.084 Cl
ATOM     16  C   UNL     1       0.018   1.916   3.361  1.00  0.00     0.022 A 
ATOM     17  O   UNL     1      -0.599  -0.321   4.090  1.00  0.00    -0.475 OA
ATOM     18  C   UNL     1       0.678   4.222   2.557  1.00  0.00     0.047 C 
ATOM     19  C   UNL     1      -0.287   2.418   4.705  1.00  0.00     0.026 C 
ATOM     20  C   UNL     1      -1.363   0.254   5.181  1.00  0.00     0.314 C 
BRANCH  20  21
ATOM     21  C   UNL     1      -2.866   0.158   4.863  1.00  0.00     0.429 C 
ATOM     22  F   UNL     1      -3.256  -1.141   4.808  1.00  0.00    -0.167 F 
ATOM     23  F   UNL     1      -3.634   0.746   5.811  1.00  0.00    -0.167 F 
ATOM     24  F   UNL     1      -3.189   0.730   3.683  1.00  0.00    -0.167 F 
ENDBRANCH  20  21
ENDBRANCH   5   8
ENDBRANCH   3   4
ENDBRANCH   2   3
ENDBRANCH   1   2
BRANCH   1  25
ATOM     25  C   UNL     1      -2.556  -0.432  11.288  1.00  0.00     0.116 C 
BRANCH  25  26
ATOM     26  N   UNL     1      -3.122  -1.745  11.007  1.00  0.00    -0.352 N 
ATOM     27  C   UNL     1      -3.971  -2.481  11.800  1.00  0.00     0.251 C 
ATOM     28  H   UNL     1      -2.867  -2.153  10.149  1.00  0.00     0.163 HD
ATOM     29  O   UNL     1      -4.335  -3.604  11.469  1.00  0.00    -0.269 OA
BRANCH  27  30
ATOM     30  C   UNL     1      -4.390  -1.907  13.090  1.00  0.00     0.039 A 
ATOM     31  C   UNL     1      -4.057  -2.587  14.262  1.00  0.00     0.014 A 
ATOM     32  C   UNL     1      -5.003  -0.652  13.133  1.00  0.00     0.014 A 
ATOM     33  C   UNL     1      -4.263  -1.964  15.492  1.00  0.00     0.010 A 
ATOM     34  C   UNL     1      -5.154  -0.010  14.357  1.00  0.00     0.010 A 
ATOM     35  C   UNL     1      -4.771  -0.654  15.543  1.00  0.00    -0.014 A 
BRANCH  35  36
ATOM     36  C   UNL     1      -4.875   0.063  16.834  1.00  0.00     0.031 A 
ATOM     37  C   UNL     1      -6.220   0.398  17.405  1.00  0.00     0.074 A 
ATOM     38  C   UNL     1      -3.751   0.453  17.466  1.00  0.00     0.049 A 
ATOM     39  N   UNL     1      -6.506   1.018  18.521  1.00  0.00    -0.248 NA
ATOM     40  C   UNL     1      -7.395   0.004  16.613  1.00  0.00     0.031 C 
ATOM     41  C   UNL     1      -2.385   0.228  16.986  1.00  0.00     0.029 A 
ATOM     42  N   UNL     1      -3.580   1.115  18.655  1.00  0.00    -0.354 N 
ATOM     43  C   UNL     1      -7.891   1.095  18.560  1.00  0.00     0.074 A 
ATOM     44  C   UNL     1      -8.386   0.503  17.337  1.00  0.00     0.031 C 
ATOM     45  C   UNL     1      -1.517   0.704  17.894  1.00  0.00     0.029 A 
ATOM     46  C   UNL     1      -2.263   1.289  19.003  1.00  0.00     0.049 A 
ATOM     47  H   UNL     1      -4.330   1.434  19.207  1.00  0.00     0.167 HD
ATOM     48  C   UNL     1      -8.682   1.591  19.539  1.00  0.00     0.031 A 
ATOM     49  C   UNL     1      -1.718   1.846  20.101  1.00  0.00     0.031 A 
ATOM     50  C   UNL     1      -8.193   2.161  20.764  1.00  0.00     0.049 A 
ATOM     51  C   UNL     1      -2.616   2.392  21.173  1.00  0.00     0.074 A 
ATOM     52  C   UNL     1      -8.918   2.638  21.842  1.00  0.00     0.029 A 
ATOM     53  N   UNL     1      -6.853   2.329  21.072  1.00  0.00    -0.354 N 
ATOM     54  N   UNL     1      -3.926   2.400  21.223  1.00  0.00    -0.248 NA
ATOM     55  C   UNL     1      -1.962   2.999  22.341  1.00  0.00     0.031 C 
ATOM     56  C   UNL     1      -8.014   3.122  22.793  1.00  0.00     0.029 A 
ATOM     57  C   UNL     1      -6.728   2.917  22.318  1.00  0.00     0.049 A 
ATOM     58  H   UNL     1      -6.102   2.069  20.491  1.00  0.00     0.167 HD
ATOM     59  C   UNL     1      -4.253   2.994  22.434  1.00  0.00     0.074 A 
ATOM     60  C   UNL     1      -3.006   3.327  23.091  1.00  0.00     0.031 C 
ATOM     61  C   UNL     1      -5.479   3.240  22.954  1.00  0.00     0.031 A 
BRANCH  48  62
ATOM     62  C   UNL     1     -10.164   1.522  19.323  1.00  0.00    -0.014 A 
ATOM     63  C   UNL     1     -10.849   0.302  19.428  1.00  0.00     0.009 A 
ATOM     64  C   UNL     1     -10.887   2.690  19.038  1.00  0.00     0.009 A 
ATOM     65  C   UNL     1     -12.228   0.246  19.220  1.00  0.00     0.001 A 
ATOM     66  C   UNL     1     -12.270   2.634  18.852  1.00  0.00     0.001 A 
ATOM     67  C   UNL     1     -12.937   1.413  18.936  1.00  0.00     0.000 A 
ENDBRANCH  48  62
BRANCH  49  68
ATOM     68  C   UNL     1      -0.243   1.870  20.262  1.00  0.00    -0.014 A 
ATOM     69  C   UNL     1       0.382   0.969  21.136  1.00  0.00     0.009 A 
ATOM     70  C   UNL     1       0.545   2.775  19.535  1.00  0.00     0.009 A 
ATOM     71  C   UNL     1       1.770   0.982  21.291  1.00  0.00     0.001 A 
ATOM     72  C   UNL     1       1.934   2.774  19.680  1.00  0.00     0.001 A 
ATOM     73  C   UNL     1       2.545   1.882  20.561  1.00  0.00     0.000 A 
ENDBRANCH  49  68
BRANCH  61  74
ATOM     74  C   UNL     1      -5.539   3.888  24.304  1.00  0.00    -0.014 A 
ATOM     75  C   UNL     1      -5.339   5.268  24.448  1.00  0.00     0.009 A 
ATOM     76  C   UNL     1      -5.879   3.122  25.430  1.00  0.00     0.009 A 
ATOM     77  C   UNL     1      -5.469   5.870  25.701  1.00  0.00     0.001 A 
ATOM     78  C   UNL     1      -6.025   3.729  26.677  1.00  0.00     0.001 A 
ATOM     79  C   UNL     1      -5.818   5.102  26.812  1.00  0.00     0.000 A 
ENDBRANCH  61  74
ENDBRANCH  35  36
ENDBRANCH  27  30
ENDBRANCH  25  26
ENDBRANCH   1  25
TORSDOF 12
