REMARK SMILES COc1ccc(-c2nc(NCC(=O)NCCCCNC(=O)c3ccc(-c4c5nc(c(-c6ccccc6)c6ccc([nH]6)c(-c6ccccc6)c6nc(c(-c7ccccc7)c7ccc4[nH]7)C=C6)C=C5)cc3)sc2-c2ccc(OC)cc2)cc1
REMARK SMILES IDX 15 1 14 2 12 3 13 4 11 6 10 7 9 9 7 10 8 11 71 12 70 13 6 14
REMARK SMILES IDX 3 15 4 16 81 17 5 18 80 19 2 20 1 21 72 22 73 23 79 24 74 25
REMARK SMILES IDX 78 26 75 27 76 28 77 29 16 30 17 31 18 32 19 33 20 34 21 36
REMARK SMILES IDX 22 37 23 38 69 39 24 40 68 41 25 42 26 43 27 44 62 45 28 46
REMARK SMILES IDX 67 47 61 48 63 49 29 50 66 51 60 52 59 53 30 55 52 56 37 57
REMARK SMILES IDX 51 58 38 59 41 60 50 61 64 62 39 63 40 64 49 66 65 67 42 68
REMARK SMILES IDX 31 69 32 70 36 71 33 72 35 73 34 74 53 75 54 76 58 77 55 78
REMARK SMILES IDX 57 79 56 80 43 81 44 82 48 83 45 84 47 85 46 86
REMARK H PARENT 14 5 10 8 19 35 63 54 41 65
REMARK Flexibility Score: inf
ROOT
ATOM      1  C   UNL     1       6.019   6.633  -5.066  1.00  0.00     0.116 C 
ENDROOT
BRANCH   1   2
ATOM      2  N   UNL     1       6.785   6.654  -6.296  1.00  0.00    -0.355 N 
ATOM      3  C   UNL     1       6.349   6.438  -7.575  1.00  0.00     0.239 C 
ATOM      4  O   UNL     1       7.184   6.434  -8.482  1.00  0.00    -0.273 OA
ATOM      5  H   UNL     1       7.745   6.850  -6.199  1.00  0.00     0.163 HD
BRANCH   3   6
ATOM      6  C   UNL     1       4.852   6.252  -7.859  1.00  0.00     0.215 C 
BRANCH   6   7
ATOM      7  N   UNL     1       4.354   5.007  -7.298  1.00  0.00    -0.352 N 
ATOM      8  H   UNL     1       4.808   4.177  -7.569  1.00  0.00     0.163 HD
BRANCH   7   9
ATOM      9  C   UNL     1       3.321   4.894  -6.437  1.00  0.00     0.184 A 
ATOM     10  C   UNL     1       2.084   3.935  -4.865  1.00  0.00     0.091 A 
ATOM     11  N   UNL     1       3.116   3.780  -5.776  1.00  0.00    -0.220 NA
ATOM     12  C   UNL     1       1.537   5.209  -4.793  1.00  0.00     0.064 A 
ATOM     13  S   UNL     1       2.211   6.155  -6.056  1.00  0.00    -0.096 S 
BRANCH  10  14
ATOM     14  C   UNL     1       1.682   2.832  -4.007  1.00  0.00     0.002 A 
ATOM     15  C   UNL     1       0.887   0.820  -2.228  1.00  0.00     0.118 A 
ATOM     16  C   UNL     1      -0.045   1.403  -3.085  1.00  0.00     0.047 A 
ATOM     17  C   UNL     1       2.228   1.200  -2.296  1.00  0.00     0.047 A 
ATOM     18  C   UNL     1       0.347   2.412  -3.966  1.00  0.00     0.014 A 
ATOM     19  C   UNL     1       2.626   2.202  -3.188  1.00  0.00     0.014 A 
BRANCH  15  20
ATOM     20  O   UNL     1       0.410  -0.156  -1.397  1.00  0.00    -0.497 OA
ATOM     21  C   UNL     1       0.906  -0.069  -0.064  1.00  0.00     0.278 C 
ENDBRANCH  15  20
ENDBRANCH  10  14
BRANCH  12  22
ATOM     22  C   UNL     1       0.592   5.808  -3.841  1.00  0.00    -0.006 A 
ATOM     23  C   UNL     1      -0.488   6.592  -4.263  1.00  0.00     0.013 A 
ATOM     24  C   UNL     1       0.768   5.606  -2.463  1.00  0.00     0.013 A 
ATOM     25  C   UNL     1      -1.371   7.143  -3.328  1.00  0.00     0.047 A 
ATOM     26  C   UNL     1      -0.122   6.149  -1.530  1.00  0.00     0.047 A 
ATOM     27  C   UNL     1      -1.202   6.915  -1.961  1.00  0.00     0.118 A 
BRANCH  27  28
ATOM     28  O   UNL     1      -2.144   7.495  -1.158  1.00  0.00    -0.497 OA
ATOM     29  C   UNL     1      -2.110   7.144   0.221  1.00  0.00     0.278 C 
ENDBRANCH  27  28
ENDBRANCH  12  22
ENDBRANCH   7   9
ENDBRANCH   6   7
ENDBRANCH   3   6
ENDBRANCH   1   2
BRANCH   1  30
ATOM     30  C   UNL     1       6.221   5.326  -4.300  1.00  0.00     0.023 C 
BRANCH  30  31
ATOM     31  C   UNL     1       7.595   5.196  -3.638  1.00  0.00     0.023 C 
BRANCH  31  32
ATOM     32  C   UNL     1       7.934   6.288  -2.627  1.00  0.00     0.116 C 
BRANCH  32  33
ATOM     33  N   UNL     1       6.993   6.356  -1.519  1.00  0.00    -0.352 N 
ATOM     34  C   UNL     1       7.248   6.590  -0.189  1.00  0.00     0.251 C 
ATOM     35  H   UNL     1       6.047   6.216  -1.754  1.00  0.00     0.163 HD
ATOM     36  O   UNL     1       6.349   6.493   0.641  1.00  0.00    -0.269 OA
BRANCH  34  37
ATOM     37  C   UNL     1       8.622   6.922   0.243  1.00  0.00     0.039 A 
ATOM     38  C   UNL     1       9.168   6.242   1.335  1.00  0.00     0.014 A 
ATOM     39  C   UNL     1       9.377   7.879  -0.439  1.00  0.00     0.014 A 
ATOM     40  C   UNL     1      10.496   6.471   1.699  1.00  0.00     0.010 A 
ATOM     41  C   UNL     1      10.721   8.055  -0.120  1.00  0.00     0.010 A 
ATOM     42  C   UNL     1      11.294   7.352   0.950  1.00  0.00    -0.014 A 
BRANCH  42  43
ATOM     43  C   UNL     1      12.732   7.543   1.265  1.00  0.00     0.031 A 
ATOM     44  C   UNL     1      13.236   8.884   1.722  1.00  0.00     0.074 A 
ATOM     45  C   UNL     1      13.598   6.528   1.076  1.00  0.00     0.049 A 
ATOM     46  N   UNL     1      14.462   9.256   1.996  1.00  0.00    -0.248 NA
ATOM     47  C   UNL     1      12.236   9.953   1.869  1.00  0.00     0.031 C 
ATOM     48  C   UNL     1      13.245   5.188   0.603  1.00  0.00     0.029 A 
ATOM     49  N   UNL     1      14.957   6.469   1.257  1.00  0.00    -0.354 N 
ATOM     50  C   UNL     1      14.381  10.602   2.328  1.00  0.00     0.074 A 
ATOM     51  C   UNL     1      12.997  10.993   2.173  1.00  0.00     0.031 C 
ATOM     52  C   UNL     1      14.352   4.430   0.564  1.00  0.00     0.029 A 
ATOM     53  C   UNL     1      15.498   5.239   0.968  1.00  0.00     0.049 A 
ATOM     54  H   UNL     1      15.494   7.234   1.565  1.00  0.00     0.167 HD
ATOM     55  C   UNL     1      15.365  11.435   2.743  1.00  0.00     0.031 A 
ATOM     56  C   UNL     1      16.773   4.812   1.019  1.00  0.00     0.031 A 
ATOM     57  C   UNL     1      16.741  11.047   2.903  1.00  0.00     0.049 A 
ATOM     58  C   UNL     1      17.852   5.763   1.455  1.00  0.00     0.074 A 
ATOM     59  C   UNL     1      17.801  11.803   3.374  1.00  0.00     0.029 A 
ATOM     60  N   UNL     1      17.249   9.796   2.591  1.00  0.00    -0.354 N 
ATOM     61  N   UNL     1      17.748   7.013   1.835  1.00  0.00    -0.248 NA
ATOM     62  C   UNL     1      19.225   5.238   1.477  1.00  0.00     0.031 C 
ATOM     63  C   UNL     1      18.961  11.024   3.296  1.00  0.00     0.029 A 
ATOM     64  C   UNL     1      18.612   9.766   2.832  1.00  0.00     0.049 A 
ATOM     65  H   UNL     1      16.718   9.040   2.248  1.00  0.00     0.167 HD
ATOM     66  C   UNL     1      19.034   7.415   2.171  1.00  0.00     0.074 A 
ATOM     67  C   UNL     1      19.899   6.272   1.962  1.00  0.00     0.031 C 
ATOM     68  C   UNL     1      19.460   8.622   2.618  1.00  0.00     0.031 A 
BRANCH  55  69
ATOM     69  C   UNL     1      14.981  12.859   3.040  1.00  0.00    -0.014 A 
ATOM     70  C   UNL     1      14.181  13.182   4.148  1.00  0.00     0.009 A 
ATOM     71  C   UNL     1      15.440  13.894   2.211  1.00  0.00     0.009 A 
ATOM     72  C   UNL     1      13.811  14.507   4.392  1.00  0.00     0.001 A 
ATOM     73  C   UNL     1      15.094  15.221   2.475  1.00  0.00     0.001 A 
ATOM     74  C   UNL     1      14.270  15.524   3.558  1.00  0.00     0.000 A 
ENDBRANCH  55  69
BRANCH  56  75
ATOM     75  C   UNL     1      17.102   3.405   0.673  1.00  0.00    -0.014 A 
ATOM     76  C   UNL     1      17.498   2.504   1.674  1.00  0.00     0.009 A 
ATOM     77  C   UNL     1      17.032   2.955  -0.655  1.00  0.00     0.009 A 
ATOM     78  C   UNL     1      17.841   1.190   1.350  1.00  0.00     0.001 A 
ATOM     79  C   UNL     1      17.349   1.632  -0.972  1.00  0.00     0.001 A 
ATOM     80  C   UNL     1      17.762   0.754   0.028  1.00  0.00     0.000 A 
ENDBRANCH  56  75
BRANCH  68  81
ATOM     81  C   UNL     1      20.921   8.756   2.946  1.00  0.00    -0.014 A 
ATOM     82  C   UNL     1      21.896   8.800   1.938  1.00  0.00     0.009 A 
ATOM     83  C   UNL     1      21.321   8.875   4.287  1.00  0.00     0.009 A 
ATOM     84  C   UNL     1      23.247   8.927   2.269  1.00  0.00     0.001 A 
ATOM     85  C   UNL     1      22.669   9.032   4.613  1.00  0.00     0.001 A 
ATOM     86  C   UNL     1      23.631   9.049   3.604  1.00  0.00     0.000 A 
ENDBRANCH  68  81
ENDBRANCH  42  43
ENDBRANCH  34  37
ENDBRANCH  32  33
ENDBRANCH  31  32
ENDBRANCH  30  31
ENDBRANCH   1  30
TORSDOF 17
