REMARK SMILES CN(CC(=O)NCCCCNC(=O)c1ccc(-c2c3nc(c(-c4ccccc4)c4ccc([nH]4)c(-c4ccccc4)c4nc(c(-c5ccccc5)c5ccc2[nH]5)C=C4)C=C3)cc1)C(=O)c1ccccn1
REMARK SMILES IDX 8 1 7 2 6 3 4 4 5 5 3 7 2 8 1 9 62 10 63 11 64 12 65 13
REMARK SMILES IDX 69 14 66 15 68 16 67 17 9 18 10 19 11 20 12 21 13 23 14 24
REMARK SMILES IDX 15 25 61 26 16 27 60 28 17 29 18 30 19 31 54 32 20 33 59 34
REMARK SMILES IDX 53 35 55 36 21 37 58 38 52 39 51 40 22 42 44 43 29 44 43 45
REMARK SMILES IDX 30 46 33 47 42 48 56 49 31 50 32 51 41 53 57 54 34 55 23 56
REMARK SMILES IDX 24 57 28 58 25 59 27 60 26 61 45 62 46 63 50 64 47 65 49 66
REMARK SMILES IDX 48 67 35 68 36 69 40 70 37 71 39 72 38 73
REMARK H PARENT 6 6 11 22 55 41 33 52
REMARK Flexibility Score: inf
ROOT
ATOM      1  C   UNL     1      -1.825   0.848  -1.448  1.00  0.00     0.023 C 
ENDROOT
BRANCH   1   2
ATOM      2  C   UNL     1      -2.025   0.223  -0.069  1.00  0.00     0.116 C 
BRANCH   2   3
ATOM      3  N   UNL     1      -2.413  -1.170  -0.118  1.00  0.00    -0.355 N 
ATOM      4  C   UNL     1      -1.665  -2.292   0.092  1.00  0.00     0.239 C 
ATOM      5  O   UNL     1      -2.283  -3.347   0.263  1.00  0.00    -0.273 OA
ATOM      6  H   UNL     1      -3.359  -1.333  -0.335  1.00  0.00     0.163 HD
BRANCH   4   7
ATOM      7  C   UNL     1      -0.134  -2.245   0.255  1.00  0.00     0.219 C 
BRANCH   7   8
ATOM      8  N   UNL     1       0.594  -1.412  -0.709  1.00  0.00    -0.331 N 
ATOM      9  C   UNL     1       1.367  -0.287  -0.207  1.00  0.00     0.147 C 
BRANCH   8  10
ATOM     10  C   UNL     1       0.860  -1.800  -2.033  1.00  0.00     0.272 C 
ATOM     11  O   UNL     1       1.501  -1.093  -2.810  1.00  0.00    -0.267 OA
BRANCH  10  12
ATOM     12  C   UNL     1       0.363  -3.116  -2.521  1.00  0.00     0.128 A 
ATOM     13  C   UNL     1      -0.978  -3.284  -2.838  1.00  0.00     0.034 A 
ATOM     14  N   UNL     1       1.299  -4.093  -2.634  1.00  0.00    -0.251 NA
ATOM     15  C   UNL     1      -1.395  -4.543  -3.259  1.00  0.00     0.004 A 
ATOM     16  C   UNL     1       0.866  -5.289  -3.084  1.00  0.00     0.112 A 
ATOM     17  C   UNL     1      -0.458  -5.563  -3.392  1.00  0.00     0.020 A 
ENDBRANCH  10  12
ENDBRANCH   8  10
ENDBRANCH   7   8
ENDBRANCH   4   7
ENDBRANCH   2   3
ENDBRANCH   1   2
BRANCH   1  18
ATOM     18  C   UNL     1      -3.081   0.940  -2.318  1.00  0.00     0.023 C 
BRANCH  18  19
ATOM     19  C   UNL     1      -4.287   1.619  -1.679  1.00  0.00     0.116 C 
BRANCH  19  20
ATOM     20  N   UNL     1      -4.017   2.968  -1.208  1.00  0.00    -0.352 N 
ATOM     21  C   UNL     1      -4.820   4.082  -1.260  1.00  0.00     0.251 C 
ATOM     22  H   UNL     1      -3.134   3.101  -0.792  1.00  0.00     0.163 HD
ATOM     23  O   UNL     1      -4.391   5.168  -0.878  1.00  0.00    -0.269 OA
BRANCH  21  24
ATOM     24  C   UNL     1      -6.187   3.986  -1.815  1.00  0.00     0.039 A 
ATOM     25  C   UNL     1      -6.603   4.947  -2.741  1.00  0.00     0.014 A 
ATOM     26  C   UNL     1      -7.049   2.950  -1.445  1.00  0.00     0.014 A 
ATOM     27  C   UNL     1      -7.854   4.827  -3.352  1.00  0.00     0.010 A 
ATOM     28  C   UNL     1      -8.266   2.793  -2.104  1.00  0.00     0.010 A 
ATOM     29  C   UNL     1      -8.678   3.726  -3.068  1.00  0.00    -0.014 A 
BRANCH  29  30
ATOM     30  C   UNL     1      -9.966   3.524  -3.779  1.00  0.00     0.031 A 
ATOM     31  C   UNL     1     -11.265   3.559  -3.022  1.00  0.00     0.074 A 
ATOM     32  C   UNL     1      -9.963   3.236  -5.095  1.00  0.00     0.049 A 
ATOM     33  N   UNL     1     -12.480   3.335  -3.457  1.00  0.00    -0.248 NA
ATOM     34  C   UNL     1     -11.186   3.860  -1.584  1.00  0.00     0.031 C 
ATOM     35  C   UNL     1      -8.771   3.135  -5.939  1.00  0.00     0.029 A 
ATOM     36  N   UNL     1     -11.001   2.967  -5.953  1.00  0.00    -0.354 N 
ATOM     37  C   UNL     1     -13.305   3.450  -2.345  1.00  0.00     0.074 A 
ATOM     38  C   UNL     1     -12.449   3.716  -1.209  1.00  0.00     0.031 C 
ATOM     39  C   UNL     1      -9.146   2.850  -7.197  1.00  0.00     0.029 A 
ATOM     40  C   UNL     1     -10.598   2.710  -7.241  1.00  0.00     0.049 A 
ATOM     41  H   UNL     1     -11.944   2.960  -5.671  1.00  0.00     0.167 HD
ATOM     42  C   UNL     1     -14.654   3.359  -2.277  1.00  0.00     0.031 A 
ATOM     43  C   UNL     1     -11.315   2.389  -8.334  1.00  0.00     0.031 A 
ATOM     44  C   UNL     1     -15.509   3.104  -3.406  1.00  0.00     0.049 A 
ATOM     45  C   UNL     1     -12.810   2.280  -8.230  1.00  0.00     0.074 A 
ATOM     46  C   UNL     1     -16.892   3.051  -3.446  1.00  0.00     0.029 A 
ATOM     47  N   UNL     1     -15.061   2.856  -4.694  1.00  0.00    -0.354 N 
ATOM     48  N   UNL     1     -13.580   2.456  -7.184  1.00  0.00    -0.248 NA
ATOM     49  C   UNL     1     -13.536   1.937  -9.462  1.00  0.00     0.031 C 
ATOM     50  C   UNL     1     -17.279   2.723  -4.749  1.00  0.00     0.029 A 
ATOM     51  C   UNL     1     -16.140   2.626  -5.532  1.00  0.00     0.049 A 
ATOM     52  H   UNL     1     -14.117   2.846  -4.972  1.00  0.00     0.167 HD
ATOM     53  C   UNL     1     -14.881   2.274  -7.636  1.00  0.00     0.074 A 
ATOM     54  C   UNL     1     -14.796   1.987  -9.053  1.00  0.00     0.031 C 
ATOM     55  C   UNL     1     -16.041   2.340  -6.939  1.00  0.00     0.031 A 
BRANCH  42  56
ATOM     56  C   UNL     1     -15.289   3.529  -0.924  1.00  0.00    -0.014 A 
ATOM     57  C   UNL     1     -15.315   4.779  -0.285  1.00  0.00     0.009 A 
ATOM     58  C   UNL     1     -15.896   2.432  -0.294  1.00  0.00     0.009 A 
ATOM     59  C   UNL     1     -15.900   4.917   0.976  1.00  0.00     0.001 A 
ATOM     60  C   UNL     1     -16.505   2.579   0.954  1.00  0.00     0.001 A 
ATOM     61  C   UNL     1     -16.497   3.819   1.592  1.00  0.00     0.000 A 
ENDBRANCH  42  56
BRANCH  43  62
ATOM     62  C   UNL     1     -10.630   2.163  -9.633  1.00  0.00    -0.014 A 
ATOM     63  C   UNL     1     -10.756   3.096 -10.674  1.00  0.00     0.009 A 
ATOM     64  C   UNL     1      -9.850   1.015  -9.841  1.00  0.00     0.009 A 
ATOM     65  C   UNL     1     -10.135   2.871 -11.905  1.00  0.00     0.001 A 
ATOM     66  C   UNL     1      -9.208   0.807 -11.064  1.00  0.00     0.001 A 
ATOM     67  C   UNL     1      -9.359   1.730 -12.097  1.00  0.00     0.000 A 
ENDBRANCH  43  62
BRANCH  55  68
ATOM     68  C   UNL     1     -17.316   2.133  -7.706  1.00  0.00    -0.014 A 
ATOM     69  C   UNL     1     -17.693   0.861  -8.165  1.00  0.00     0.009 A 
ATOM     70  C   UNL     1     -18.172   3.221  -7.937  1.00  0.00     0.009 A 
ATOM     71  C   UNL     1     -18.888   0.691  -8.868  1.00  0.00     0.001 A 
ATOM     72  C   UNL     1     -19.378   3.043  -8.615  1.00  0.00     0.001 A 
ATOM     73  C   UNL     1     -19.731   1.780  -9.087  1.00  0.00     0.000 A 
ENDBRANCH  55  68
ENDBRANCH  29  30
ENDBRANCH  21  24
ENDBRANCH  19  20
ENDBRANCH  18  19
ENDBRANCH   1  18
TORSDOF 14
