REMARK SMILES C[C@@H](C(=O)NCCCCNC(=O)c1ccc(-c2c3nc(c(-c4ccccc4)c4ccc([nH]4)c(-c4ccccc4)c4nc(c(-c5ccccc5)c5ccc2[nH]5)C=C4)C=C3)cc1)c1ccc(C[C@@H]2CCC[C@@H]2O)cc1F
REMARK SMILES IDX 6 1 5 2 3 3 4 4 2 6 1 7 61 8 62 9 73 10 63 11 72 12 74 13
REMARK SMILES IDX 64 14 65 15 66 16 67 17 70 18 68 19 69 20 71 21 7 23 8 24
REMARK SMILES IDX 9 25 10 26 11 27 12 29 13 30 14 31 60 32 15 33 59 34 16 35
REMARK SMILES IDX 17 36 18 37 53 38 19 39 58 40 52 41 54 42 20 43 57 44 51 45
REMARK SMILES IDX 50 46 21 48 43 49 28 50 42 51 29 52 32 53 41 54 55 55 30 56
REMARK SMILES IDX 31 57 40 59 56 60 33 61 22 62 23 63 27 64 24 65 26 66 25 67
REMARK SMILES IDX 44 68 45 69 49 70 46 71 48 72 47 73 34 74 35 75 39 76 36 77
REMARK SMILES IDX 38 78 37 79
REMARK H PARENT 5 5 71 22 10 28 54 47 32 58
REMARK Flexibility Score: inf
ROOT
ATOM      1  C   UNL     1     -10.573   3.285   8.969  1.00  0.00     0.116 C 
ENDROOT
BRANCH   1   2
ATOM      2  N   UNL     1      -9.470   3.460   8.050  1.00  0.00    -0.356 N 
ATOM      3  C   UNL     1      -8.933   2.577   7.156  1.00  0.00     0.227 C 
ATOM      4  O   UNL     1      -7.867   2.905   6.629  1.00  0.00    -0.274 OA
ATOM      5  H   UNL     1      -9.043   4.347   8.071  1.00  0.00     0.163 HD
BRANCH   3   6
ATOM      6  C   UNL     1      -9.664   1.255   6.837  1.00  0.00     0.108 C 
ATOM      7  C   UNL     1      -9.613   0.296   8.033  1.00  0.00     0.023 C 
BRANCH   6   8
ATOM      8  C   UNL     1      -9.119   0.622   5.559  1.00  0.00    -0.000 A 
ATOM      9  C   UNL     1      -8.389  -0.574   5.557  1.00  0.00     0.008 A 
ATOM     10  C   UNL     1      -9.306   1.271   4.333  1.00  0.00     0.127 A 
ATOM     11  C   UNL     1      -7.847  -1.081   4.378  1.00  0.00     0.004 A 
ATOM     12  C   UNL     1      -8.728   0.792   3.157  1.00  0.00     0.043 A 
ATOM     13  F   UNL     1     -10.035   2.397   4.281  1.00  0.00    -0.207 F 
ATOM     14  C   UNL     1      -7.956  -0.376   3.177  1.00  0.00    -0.045 A 
BRANCH  14  15
ATOM     15  C   UNL     1      -7.221  -0.844   1.946  1.00  0.00     0.041 C 
BRANCH  15  16
ATOM     16  C   UNL     1      -5.690  -0.614   1.893  1.00  0.00     0.022 C 
ATOM     17  C   UNL     1      -4.870  -1.321   2.980  1.00  0.00     0.007 C 
ATOM     18  C   UNL     1      -5.204   0.834   2.005  1.00  0.00     0.117 C 
ATOM     19  C   UNL     1      -4.562  -0.273   4.055  1.00  0.00     0.003 C 
ATOM     20  C   UNL     1      -5.015   1.072   3.497  1.00  0.00     0.032 C 
BRANCH  18  21
ATOM     21  O   UNL     1      -6.083   1.762   1.405  1.00  0.00    -0.393 OA
ATOM     22  H   UNL     1      -6.953   1.704   1.831  1.00  0.00     0.210 HD
ENDBRANCH  18  21
ENDBRANCH  15  16
ENDBRANCH  14  15
ENDBRANCH   6   8
ENDBRANCH   3   6
ENDBRANCH   1   2
BRANCH   1  23
ATOM     23  C   UNL     1     -10.058   2.922  10.365  1.00  0.00     0.023 C 
BRANCH  23  24
ATOM     24  C   UNL     1      -9.325   4.055  11.086  1.00  0.00     0.023 C 
BRANCH  24  25
ATOM     25  C   UNL     1     -10.143   5.324  11.281  1.00  0.00     0.116 C 
BRANCH  25  26
ATOM     26  N   UNL     1     -11.376   5.093  12.018  1.00  0.00    -0.352 N 
ATOM     27  C   UNL     1     -11.945   5.853  13.007  1.00  0.00     0.251 C 
ATOM     28  H   UNL     1     -11.870   4.278  11.771  1.00  0.00     0.163 HD
ATOM     29  O   UNL     1     -12.923   5.434  13.622  1.00  0.00    -0.269 OA
BRANCH  27  30
ATOM     30  C   UNL     1     -11.357   7.163  13.356  1.00  0.00     0.039 A 
ATOM     31  C   UNL     1     -11.188   7.485  14.704  1.00  0.00     0.014 A 
ATOM     32  C   UNL     1     -10.961   8.062  12.362  1.00  0.00     0.014 A 
ATOM     33  C   UNL     1     -10.567   8.684  15.053  1.00  0.00     0.010 A 
ATOM     34  C   UNL     1     -10.268   9.217  12.710  1.00  0.00     0.010 A 
ATOM     35  C   UNL     1     -10.070   9.544  14.059  1.00  0.00    -0.014 A 
BRANCH  35  36
ATOM     36  C   UNL     1      -9.342  10.786  14.421  1.00  0.00     0.031 A 
ATOM     37  C   UNL     1      -9.902  12.131  14.047  1.00  0.00     0.074 A 
ATOM     38  C   UNL     1      -8.157  10.701  15.056  1.00  0.00     0.049 A 
ATOM     39  N   UNL     1      -9.405  13.322  14.269  1.00  0.00    -0.248 NA
ATOM     40  C   UNL     1     -11.176  12.141  13.308  1.00  0.00     0.031 C 
ATOM     41  C   UNL     1      -7.484   9.457  15.435  1.00  0.00     0.029 A 
ATOM     42  N   UNL     1      -7.308  11.685  15.497  1.00  0.00    -0.354 N 
ATOM     43  C   UNL     1     -10.301  14.217  13.698  1.00  0.00     0.074 A 
ATOM     44  C   UNL     1     -11.337  13.433  13.063  1.00  0.00     0.031 C 
ATOM     45  C   UNL     1      -6.345   9.752  16.082  1.00  0.00     0.029 A 
ATOM     46  C   UNL     1      -6.186  11.202  16.128  1.00  0.00     0.049 A 
ATOM     47  H   UNL     1      -7.485  12.645  15.374  1.00  0.00     0.167 HD
ATOM     48  C   UNL     1     -10.282  15.571  13.724  1.00  0.00     0.031 A 
ATOM     49  C   UNL     1      -5.145  11.853  16.678  1.00  0.00     0.031 A 
ATOM     50  C   UNL     1      -9.250  16.354  14.350  1.00  0.00     0.049 A 
ATOM     51  C   UNL     1      -5.132  13.357  16.665  1.00  0.00     0.074 A 
ATOM     52  C   UNL     1      -9.156  17.730  14.457  1.00  0.00     0.029 A 
ATOM     53  N   UNL     1      -8.130  15.826  14.975  1.00  0.00    -0.354 N 
ATOM     54  N   UNL     1      -6.024  14.189  16.182  1.00  0.00    -0.248 NA
ATOM     55  C   UNL     1      -3.975  14.012  17.291  1.00  0.00     0.031 C 
ATOM     56  C   UNL     1      -7.953  18.038  15.101  1.00  0.00     0.029 A 
ATOM     57  C   UNL     1      -7.330  16.851  15.452  1.00  0.00     0.049 A 
ATOM     58  H   UNL     1      -7.933  14.866  15.065  1.00  0.00     0.167 HD
ATOM     59  C   UNL     1      -5.550  15.462  16.472  1.00  0.00     0.074 A 
ATOM     60  C   UNL     1      -4.306  15.291  17.193  1.00  0.00     0.031 C 
ATOM     61  C   UNL     1      -6.095  16.665  16.168  1.00  0.00     0.031 A 
BRANCH  48  62
ATOM     62  C   UNL     1     -11.420  16.291  13.053  1.00  0.00    -0.014 A 
ATOM     63  C   UNL     1     -12.719  16.249  13.587  1.00  0.00     0.009 A 
ATOM     64  C   UNL     1     -11.188  17.049  11.895  1.00  0.00     0.009 A 
ATOM     65  C   UNL     1     -13.767  16.920  12.955  1.00  0.00     0.001 A 
ATOM     66  C   UNL     1     -12.233  17.746  11.284  1.00  0.00     0.001 A 
ATOM     67  C   UNL     1     -13.522  17.672  11.808  1.00  0.00     0.000 A 
ENDBRANCH  48  62
BRANCH  49  68
ATOM     68  C   UNL     1      -4.026  11.094  17.299  1.00  0.00    -0.014 A 
ATOM     69  C   UNL     1      -3.809  11.143  18.685  1.00  0.00     0.009 A 
ATOM     70  C   UNL     1      -3.151  10.338  16.503  1.00  0.00     0.009 A 
ATOM     71  C   UNL     1      -2.716  10.485  19.255  1.00  0.00     0.001 A 
ATOM     72  C   UNL     1      -2.080   9.652  17.080  1.00  0.00     0.001 A 
ATOM     73  C   UNL     1      -1.855   9.738  18.453  1.00  0.00     0.000 A 
ENDBRANCH  49  68
BRANCH  61  74
ATOM     74  C   UNL     1      -5.367  17.889  16.653  1.00  0.00    -0.014 A 
ATOM     75  C   UNL     1      -4.139  18.280  16.099  1.00  0.00     0.009 A 
ATOM     76  C   UNL     1      -5.936  18.676  17.667  1.00  0.00     0.009 A 
ATOM     77  C   UNL     1      -3.474  19.410  16.581  1.00  0.00     0.001 A 
ATOM     78  C   UNL     1      -5.287  19.824  18.123  1.00  0.00     0.001 A 
ATOM     79  C   UNL     1      -4.051  20.183  17.588  1.00  0.00     0.000 A 
ENDBRANCH  61  74
ENDBRANCH  35  36
ENDBRANCH  27  30
ENDBRANCH  25  26
ENDBRANCH  24  25
ENDBRANCH  23  24
ENDBRANCH   1  23
TORSDOF 15
