REMARK SMILES CCCN1C(=O)CO[C@H](C(=O)NCCCCNC(=O)c2ccc(-c3c4nc(c(-c5ccccc5)c5ccc([nH]5)c(-c5ccccc5)c5nc(c(-c6ccccc6)c6ccc3[nH]6)C=C5)C=C4)cc2)[C@@H]1c1cncn1C1CC1
REMARK SMILES IDX 14 1 13 2 12 3 10 4 11 5 9 7 4 8 5 9 68 10 6 11 7 12 8 13
REMARK SMILES IDX 3 14 2 15 1 16 69 17 70 18 73 19 71 20 72 21 74 22 75 23
REMARK SMILES IDX 76 24 15 25 16 26 17 27 18 28 19 30 20 31 21 32 67 33 22 34
REMARK SMILES IDX 66 35 23 36 24 37 25 38 60 39 26 40 65 41 59 42 61 43 27 44
REMARK SMILES IDX 64 45 58 46 57 47 28 49 50 50 35 51 49 52 36 53 39 54 48 55
REMARK SMILES IDX 62 56 37 57 38 58 47 60 63 61 40 62 29 63 30 64 34 65 31 66
REMARK SMILES IDX 33 67 32 68 51 69 52 70 56 71 53 72 55 73 54 74 41 75 42 76
REMARK SMILES IDX 46 77 43 78 45 79 44 80
REMARK H PARENT 12 6 17 29 61 48 39 59
REMARK Flexibility Score: inf
ROOT
ATOM      1  C   UNL     1       2.955  -6.525  -0.369  1.00  0.00     0.023 C 
ENDROOT
BRANCH   1   2
ATOM      2  C   UNL     1       2.551  -5.405  -1.309  1.00  0.00     0.116 C 
BRANCH   2   3
ATOM      3  N   UNL     1       2.012  -5.803  -2.585  1.00  0.00    -0.354 N 
ATOM      4  C   UNL     1       1.147  -5.079  -3.362  1.00  0.00     0.251 C 
ATOM      5  O   UNL     1       1.032  -5.397  -4.550  1.00  0.00    -0.272 OA
ATOM      6  H   UNL     1       2.292  -6.681  -2.931  1.00  0.00     0.163 HD
BRANCH   4   7
ATOM      7  C   UNL     1       0.326  -3.898  -2.787  1.00  0.00     0.236 C 
ATOM      8  N   UNL     1       0.209  -1.395  -2.243  1.00  0.00    -0.329 N 
ATOM      9  C   UNL     1      -1.033  -1.716  -1.679  1.00  0.00     0.249 C 
ATOM     10  C   UNL     1       0.966  -2.483  -2.913  1.00  0.00     0.172 C 
ATOM     11  O   UNL     1      -1.948  -0.912  -1.511  1.00  0.00    -0.272 OA
ATOM     12  C   UNL     1      -1.239  -3.179  -1.244  1.00  0.00     0.261 C 
ATOM     13  O   UNL     1      -0.188  -4.098  -1.477  1.00  0.00    -0.356 OA
BRANCH   8  14
ATOM     14  C   UNL     1       0.525  -0.006  -2.639  1.00  0.00     0.120 C 
BRANCH  14  15
ATOM     15  C   UNL     1      -0.179   1.185  -1.955  1.00  0.00     0.018 C 
ATOM     16  C   UNL     1      -0.046   1.295  -0.443  1.00  0.00     0.006 C 
ENDBRANCH  14  15
ENDBRANCH   8  14
BRANCH  10  17
ATOM     17  C   UNL     1       2.470  -2.412  -2.804  1.00  0.00     0.064 A 
ATOM     18  C   UNL     1       3.306  -2.655  -3.897  1.00  0.00     0.136 A 
ATOM     19  N   UNL     1       3.372  -2.186  -1.774  1.00  0.00    -0.330 N 
ATOM     20  N   UNL     1       4.625  -2.591  -3.581  1.00  0.00    -0.245 NA
ATOM     21  C   UNL     1       4.637  -2.288  -2.310  1.00  0.00     0.199 A 
BRANCH  19  22
ATOM     22  C   UNL     1       3.277  -1.956  -0.343  1.00  0.00     0.088 C 
ATOM     23  C   UNL     1       2.243  -1.102   0.330  1.00  0.00     0.027 C 
ATOM     24  C   UNL     1       2.254  -2.559   0.595  1.00  0.00     0.027 C 
ENDBRANCH  19  22
ENDBRANCH  10  17
ENDBRANCH   4   7
ENDBRANCH   2   3
ENDBRANCH   1   2
BRANCH   1  25
ATOM     25  C   UNL     1       4.123  -7.383  -0.841  1.00  0.00     0.023 C 
BRANCH  25  26
ATOM     26  C   UNL     1       5.341  -6.632  -1.374  1.00  0.00     0.116 C 
BRANCH  26  27
ATOM     27  N   UNL     1       5.954  -5.737  -0.402  1.00  0.00    -0.352 N 
ATOM     28  C   UNL     1       7.241  -5.714   0.091  1.00  0.00     0.251 C 
ATOM     29  H   UNL     1       5.357  -5.041  -0.043  1.00  0.00     0.163 HD
ATOM     30  O   UNL     1       7.553  -4.911   0.958  1.00  0.00    -0.269 OA
BRANCH  28  31
ATOM     31  C   UNL     1       8.227  -6.707  -0.392  1.00  0.00     0.039 A 
ATOM     32  C   UNL     1       8.925  -7.468   0.549  1.00  0.00     0.014 A 
ATOM     33  C   UNL     1       8.419  -6.930  -1.757  1.00  0.00     0.014 A 
ATOM     34  C   UNL     1       9.723  -8.533   0.122  1.00  0.00     0.010 A 
ATOM     35  C   UNL     1       9.153  -8.038  -2.178  1.00  0.00     0.010 A 
ATOM     36  C   UNL     1       9.790  -8.866  -1.241  1.00  0.00    -0.014 A 
BRANCH  36  37
ATOM     37  C   UNL     1      10.457 -10.116  -1.693  1.00  0.00     0.031 A 
ATOM     38  C   UNL     1      11.654 -10.067  -2.601  1.00  0.00     0.074 A 
ATOM     39  C   UNL     1       9.926 -11.308  -1.350  1.00  0.00     0.049 A 
ATOM     40  N   UNL     1      12.320 -11.058  -3.139  1.00  0.00    -0.248 NA
ATOM     41  C   UNL     1      12.155  -8.734  -2.971  1.00  0.00     0.031 C 
ATOM     42  C   UNL     1       8.734 -11.499  -0.519  1.00  0.00     0.029 A 
ATOM     43  N   UNL     1      10.313 -12.587  -1.669  1.00  0.00    -0.354 N 
ATOM     44  C   UNL     1      13.306 -10.471  -3.921  1.00  0.00     0.074 A 
ATOM     45  C   UNL     1      13.128  -9.038  -3.819  1.00  0.00     0.031 C 
ATOM     46  C   UNL     1       8.501 -12.814  -0.378  1.00  0.00     0.029 A 
ATOM     47  C   UNL     1       9.497 -13.559  -1.141  1.00  0.00     0.049 A 
ATOM     48  H   UNL     1      11.101 -12.789  -2.223  1.00  0.00     0.167 HD
ATOM     49  C   UNL     1      14.280 -11.069  -4.647  1.00  0.00     0.031 A 
ATOM     50  C   UNL     1       9.531 -14.899  -1.266  1.00  0.00     0.031 A 
ATOM     51  C   UNL     1      14.466 -12.493  -4.744  1.00  0.00     0.049 A 
ATOM     52  C   UNL     1      10.615 -15.535  -2.091  1.00  0.00     0.074 A 
ATOM     53  C   UNL     1      15.475 -13.186  -5.392  1.00  0.00     0.029 A 
ATOM     54  N   UNL     1      13.622 -13.441  -4.189  1.00  0.00    -0.354 N 
ATOM     55  N   UNL     1      11.595 -14.964  -2.747  1.00  0.00    -0.248 NA
ATOM     56  C   UNL     1      10.598 -17.002  -2.189  1.00  0.00     0.031 C 
ATOM     57  C   UNL     1      15.207 -14.554  -5.280  1.00  0.00     0.029 A 
ATOM     58  C   UNL     1      14.065 -14.713  -4.513  1.00  0.00     0.049 A 
ATOM     59  H   UNL     1      12.827 -13.241  -3.645  1.00  0.00     0.167 HD
ATOM     60  C   UNL     1      12.321 -16.001  -3.319  1.00  0.00     0.074 A 
ATOM     61  C   UNL     1      11.683 -17.236  -2.913  1.00  0.00     0.031 C 
ATOM     62  C   UNL     1      13.417 -15.934  -4.113  1.00  0.00     0.031 A 
BRANCH  49  63
ATOM     63  C   UNL     1      15.226 -10.183  -5.408  1.00  0.00    -0.014 A 
ATOM     64  C   UNL     1      16.197  -9.416  -4.746  1.00  0.00     0.009 A 
ATOM     65  C   UNL     1      15.185 -10.164  -6.811  1.00  0.00     0.009 A 
ATOM     66  C   UNL     1      17.090  -8.626  -5.473  1.00  0.00     0.001 A 
ATOM     67  C   UNL     1      16.096  -9.394  -7.537  1.00  0.00     0.001 A 
ATOM     68  C   UNL     1      17.042  -8.620  -6.867  1.00  0.00     0.000 A 
ENDBRANCH  49  63
BRANCH  50  69
ATOM     69  C   UNL     1       8.500 -15.739  -0.602  1.00  0.00    -0.014 A 
ATOM     70  C   UNL     1       8.838 -16.563   0.482  1.00  0.00     0.009 A 
ATOM     71  C   UNL     1       7.174 -15.735  -1.063  1.00  0.00     0.009 A 
ATOM     72  C   UNL     1       7.877 -17.388   1.072  1.00  0.00     0.001 A 
ATOM     73  C   UNL     1       6.208 -16.538  -0.452  1.00  0.00     0.001 A 
ATOM     74  C   UNL     1       6.563 -17.371   0.607  1.00  0.00     0.000 A 
ENDBRANCH  50  69
BRANCH  62  75
ATOM     75  C   UNL     1      14.004 -17.235  -4.584  1.00  0.00    -0.014 A 
ATOM     76  C   UNL     1      13.357 -18.013  -5.557  1.00  0.00     0.009 A 
ATOM     77  C   UNL     1      15.237 -17.670  -4.074  1.00  0.00     0.009 A 
ATOM     78  C   UNL     1      13.919 -19.216  -5.987  1.00  0.00     0.001 A 
ATOM     79  C   UNL     1      15.811 -18.859  -4.527  1.00  0.00     0.001 A 
ATOM     80  C   UNL     1      15.147 -19.635  -5.476  1.00  0.00     0.000 A 
ENDBRANCH  62  75
ENDBRANCH  36  37
ENDBRANCH  28  31
ENDBRANCH  26  27
ENDBRANCH  25  26
ENDBRANCH   1  25
TORSDOF 15
