REMARK SMILES CC(C)C[C@H](NC(=O)[C@H](C)NC(=O)[C@@H](NC(=O)CNC(=O)OCc1ccccc1)C(C)C)C(=O)NCCCCNC(=O)c1ccc(-c2c3nc(c(-c4ccccc4)c4ccc([nH]4)c(-c4ccccc4)c4nc(c(-c5ccccc5)c5ccc2[nH]5)C=C4)C=C3)cc1
REMARK SMILES IDX 6 1 7 2 8 3 5 5 4 6 2 7 1 8 3 9 33 10 34 11 35 12 36 14
REMARK SMILES IDX 37 15 38 16 39 17 40 18 41 19 42 21 43 22 44 23 90 24 45 25
REMARK SMILES IDX 89 26 46 27 47 28 48 29 83 30 49 31 88 32 82 33 84 34 50 35
REMARK SMILES IDX 87 36 81 37 80 38 51 40 73 41 58 42 72 43 59 44 62 45 71 46
REMARK SMILES IDX 85 47 60 48 61 49 70 51 86 52 63 53 52 54 53 55 57 56 54 57
REMARK SMILES IDX 56 58 55 59 74 60 75 61 79 62 76 63 78 64 77 65 64 66 65 67
REMARK SMILES IDX 69 68 66 69 68 70 67 71 9 72 10 73 11 74 12 75 13 77 14 78
REMARK SMILES IDX 15 79 16 80 17 82 18 83 19 84 20 85 21 87 22 88 23 89 24 90
REMARK SMILES IDX 25 91 29 92 26 93 28 94 27 95 30 96 31 97 32 98
REMARK H PARENT 6 4 35 13 40 20 84 39 62 50 11 76 15 81 19 86
REMARK Flexibility Score: inf
ROOT
ATOM      1  N   UNL     1      -0.565  -4.452  -1.035  1.00  0.00    -0.343 N 
ATOM      2  C   UNL     1       0.399  -5.249  -1.588  1.00  0.00     0.242 C 
ATOM      3  O   UNL     1       1.286  -5.642  -0.820  1.00  0.00    -0.273 OA
ATOM      4  H   UNL     1      -0.273  -3.950  -0.240  1.00  0.00     0.164 HD
ENDROOT
BRANCH   1   5
ATOM      5  C   UNL     1      -1.954  -4.219  -1.424  1.00  0.00     0.171 C 
BRANCH   5   6
ATOM      6  C   UNL     1      -2.944  -3.827  -0.297  1.00  0.00     0.038 C 
BRANCH   6   7
ATOM      7  C   UNL     1      -2.482  -3.430   1.130  1.00  0.00    -0.015 C 
ATOM      8  C   UNL     1      -1.425  -2.334   1.291  1.00  0.00     0.007 C 
ATOM      9  C   UNL     1      -3.726  -2.984   1.920  1.00  0.00     0.007 C 
ENDBRANCH   6   7
ENDBRANCH   5   6
BRANCH   5  10
ATOM     10  C   UNL     1      -2.128  -3.397  -2.722  1.00  0.00     0.242 C 
ATOM     11  O   UNL     1      -2.118  -3.982  -3.811  1.00  0.00    -0.273 OA
ATOM     12  N   UNL     1      -2.153  -2.043  -2.784  1.00  0.00    -0.354 N 
ATOM     13  H   UNL     1      -2.170  -1.685  -3.701  1.00  0.00     0.163 HD
BRANCH  12  14
ATOM     14  C   UNL     1      -2.160  -1.024  -1.756  1.00  0.00     0.116 C 
BRANCH  14  15
ATOM     15  C   UNL     1      -0.797  -0.388  -1.520  1.00  0.00     0.023 C 
BRANCH  15  16
ATOM     16  C   UNL     1      -0.309   0.476  -2.676  1.00  0.00     0.023 C 
BRANCH  16  17
ATOM     17  C   UNL     1      -1.202   1.644  -3.026  1.00  0.00     0.116 C 
BRANCH  17  18
ATOM     18  N   UNL     1      -1.257   2.624  -1.959  1.00  0.00    -0.352 N 
ATOM     19  C   UNL     1      -1.087   3.982  -2.059  1.00  0.00     0.251 C 
ATOM     20  H   UNL     1      -1.438   2.274  -1.057  1.00  0.00     0.163 HD
ATOM     21  O   UNL     1      -0.934   4.666  -1.054  1.00  0.00    -0.269 OA
BRANCH  19  22
ATOM     22  C   UNL     1      -1.057   4.599  -3.401  1.00  0.00     0.039 A 
ATOM     23  C   UNL     1      -0.081   5.554  -3.686  1.00  0.00     0.014 A 
ATOM     24  C   UNL     1      -1.967   4.200  -4.386  1.00  0.00     0.014 A 
ATOM     25  C   UNL     1       0.004   6.082  -4.974  1.00  0.00     0.010 A 
ATOM     26  C   UNL     1      -1.811   4.645  -5.690  1.00  0.00     0.010 A 
ATOM     27  C   UNL     1      -0.843   5.613  -5.991  1.00  0.00    -0.014 A 
BRANCH  27  28
ATOM     28  C   UNL     1      -0.769   6.157  -7.368  1.00  0.00     0.031 A 
ATOM     29  C   UNL     1      -1.956   6.881  -7.946  1.00  0.00     0.074 A 
ATOM     30  C   UNL     1       0.337   5.959  -8.110  1.00  0.00     0.049 A 
ATOM     31  N   UNL     1      -2.109   7.395  -9.140  1.00  0.00    -0.248 NA
ATOM     32  C   UNL     1      -3.140   7.019  -7.080  1.00  0.00     0.031 C 
ATOM     33  C   UNL     1       1.534   5.235  -7.675  1.00  0.00     0.029 A 
ATOM     34  N   UNL     1       0.633   6.352  -9.390  1.00  0.00    -0.354 N 
ATOM     35  C   UNL     1      -3.406   7.891  -9.172  1.00  0.00     0.074 A 
ATOM     36  C   UNL     1      -4.019   7.566  -7.905  1.00  0.00     0.031 C 
ATOM     37  C   UNL     1       2.450   5.273  -8.657  1.00  0.00     0.029 A 
ATOM     38  C   UNL     1       1.891   5.983  -9.802  1.00  0.00     0.049 A 
ATOM     39  H   UNL     1       0.004   6.852  -9.959  1.00  0.00     0.167 HD
ATOM     40  C   UNL     1      -4.025   8.581 -10.158  1.00  0.00     0.031 A 
ATOM     41  C   UNL     1       2.520   6.196 -10.972  1.00  0.00     0.031 A 
ATOM     42  C   UNL     1      -3.404   8.924 -11.407  1.00  0.00     0.049 A 
ATOM     43  C   UNL     1       1.808   6.960 -12.055  1.00  0.00     0.074 A 
ATOM     44  C   UNL     1      -3.919   9.676 -12.447  1.00  0.00     0.029 A 
ATOM     45  N   UNL     1      -2.128   8.534 -11.784  1.00  0.00    -0.354 N 
ATOM     46  N   UNL     1       0.608   7.489 -12.041  1.00  0.00    -0.248 NA
ATOM     47  C   UNL     1       2.543   7.165 -13.310  1.00  0.00     0.031 C 
ATOM     48  C   UNL     1      -2.974   9.696 -13.477  1.00  0.00     0.029 A 
ATOM     49  C   UNL     1      -1.848   9.008 -13.053  1.00  0.00     0.049 A 
ATOM     50  H   UNL     1      -1.513   8.001 -11.230  1.00  0.00     0.167 HD
ATOM     51  C   UNL     1       0.457   8.116 -13.271  1.00  0.00     0.074 A 
ATOM     52  C   UNL     1       1.693   7.914 -13.998  1.00  0.00     0.031 C 
ATOM     53  C   UNL     1      -0.609   8.798 -13.757  1.00  0.00     0.031 A 
BRANCH  40  54
ATOM     54  C   UNL     1      -5.449   9.003  -9.922  1.00  0.00    -0.014 A 
ATOM     55  C   UNL     1      -5.772   9.986  -8.972  1.00  0.00     0.009 A 
ATOM     56  C   UNL     1      -6.481   8.429 -10.680  1.00  0.00     0.009 A 
ATOM     57  C   UNL     1      -7.102  10.357  -8.761  1.00  0.00     0.001 A 
ATOM     58  C   UNL     1      -7.806   8.825 -10.490  1.00  0.00     0.001 A 
ATOM     59  C   UNL     1      -8.117   9.781  -9.524  1.00  0.00     0.000 A 
ENDBRANCH  40  54
BRANCH  41  60
ATOM     60  C   UNL     1       3.907   5.701 -11.178  1.00  0.00    -0.014 A 
ATOM     61  C   UNL     1       4.977   6.604 -11.274  1.00  0.00     0.009 A 
ATOM     62  C   UNL     1       4.168   4.327 -11.291  1.00  0.00     0.009 A 
ATOM     63  C   UNL     1       6.275   6.143 -11.511  1.00  0.00     0.001 A 
ATOM     64  C   UNL     1       5.471   3.867 -11.496  1.00  0.00     0.001 A 
ATOM     65  C   UNL     1       6.521   4.775 -11.617  1.00  0.00     0.000 A 
ENDBRANCH  41  60
BRANCH  53  66
ATOM     66  C   UNL     1      -0.469   9.408 -15.122  1.00  0.00    -0.014 A 
ATOM     67  C   UNL     1      -0.455   8.615 -16.279  1.00  0.00     0.009 A 
ATOM     68  C   UNL     1      -0.396  10.805 -15.251  1.00  0.00     0.009 A 
ATOM     69  C   UNL     1      -0.334   9.207 -17.538  1.00  0.00     0.001 A 
ATOM     70  C   UNL     1      -0.308  11.395 -16.512  1.00  0.00     0.001 A 
ATOM     71  C   UNL     1      -0.267  10.596 -17.653  1.00  0.00     0.000 A 
ENDBRANCH  53  66
ENDBRANCH  27  28
ENDBRANCH  19  22
ENDBRANCH  17  18
ENDBRANCH  16  17
ENDBRANCH  15  16
ENDBRANCH  14  15
ENDBRANCH  12  14
ENDBRANCH   5  10
ENDBRANCH   1   5
BRANCH   2  72
ATOM     72  C   UNL     1       0.408  -5.671  -3.082  1.00  0.00     0.168 C 
ATOM     73  C   UNL     1      -0.530  -6.843  -3.334  1.00  0.00     0.041 C 
BRANCH  72  74
ATOM     74  N   UNL     1       1.781  -6.093  -3.396  1.00  0.00    -0.343 N 
ATOM     75  C   UNL     1       2.621  -5.952  -4.445  1.00  0.00     0.243 C 
ATOM     76  H   UNL     1       2.189  -6.604  -2.660  1.00  0.00     0.164 HD
ATOM     77  O   UNL     1       3.624  -6.680  -4.421  1.00  0.00    -0.273 OA
BRANCH  75  78
ATOM     78  C   UNL     1       2.523  -4.858  -5.548  1.00  0.00     0.174 C 
BRANCH  78  79
ATOM     79  N   UNL     1       1.165  -4.490  -5.982  1.00  0.00    -0.343 N 
ATOM     80  C   UNL     1       0.358  -3.404  -5.874  1.00  0.00     0.240 C 
ATOM     81  H   UNL     1       0.731  -5.220  -6.480  1.00  0.00     0.164 HD
ATOM     82  O   UNL     1      -0.646  -3.402  -6.599  1.00  0.00    -0.273 OA
BRANCH  80  83
ATOM     83  C   UNL     1       0.680  -2.156  -5.043  1.00  0.00     0.219 C 
BRANCH  83  84
ATOM     84  N   UNL     1       0.965  -2.400  -3.642  1.00  0.00    -0.312 N 
ATOM     85  C   UNL     1       1.998  -1.946  -2.876  1.00  0.00     0.407 C 
ATOM     86  H   UNL     1       0.319  -2.978  -3.176  1.00  0.00     0.167 HD
ATOM     87  O   UNL     1       2.200  -2.433  -1.781  1.00  0.00    -0.225 OA
BRANCH  85  88
ATOM     88  O   UNL     1       2.738  -0.982  -3.481  1.00  0.00    -0.445 OA
BRANCH  88  89
ATOM     89  C   UNL     1       3.986  -0.669  -2.833  1.00  0.00     0.270 C 
BRANCH  89  90
ATOM     90  C   UNL     1       3.806   0.002  -1.495  1.00  0.00    -0.011 A 
ATOM     91  C   UNL     1       4.208  -0.655  -0.323  1.00  0.00     0.007 A 
ATOM     92  C   UNL     1       3.167   1.242  -1.395  1.00  0.00     0.007 A 
ATOM     93  C   UNL     1       3.927  -0.108   0.927  1.00  0.00     0.000 A 
ATOM     94  C   UNL     1       2.874   1.783  -0.143  1.00  0.00     0.000 A 
ATOM     95  C   UNL     1       3.246   1.104   1.017  1.00  0.00     0.000 A 
ENDBRANCH  89  90
ENDBRANCH  88  89
ENDBRANCH  85  88
ENDBRANCH  83  84
ENDBRANCH  80  83
ENDBRANCH  78  79
BRANCH  78  96
ATOM     96  C   UNL     1       3.497  -3.679  -5.309  1.00  0.00     0.015 C 
ATOM     97  C   UNL     1       4.860  -4.043  -4.717  1.00  0.00     0.010 C 
ATOM     98  C   UNL     1       3.696  -2.779  -6.534  1.00  0.00     0.010 C 
ENDBRANCH  78  96
ENDBRANCH  75  78
ENDBRANCH  72  74
ENDBRANCH   2  72
TORSDOF 24
