REMARK SMILES CN(C)C(=O)c1cccc(N2CCC3(CC2)[C@H](C(=O)NCCCCNC(=O)c2ccc(-c4c5nc(c(-c6ccccc6)c6ccc([nH]6)c(-c6ccccc6)c6nc(c(-c7ccccc7)c7ccc4[nH]7)C=C6)C=C5)cc2)CC(=O)N3C)n1
REMARK SMILES IDX 22 1 21 2 20 3 18 4 19 5 17 7 11 8 12 9 16 10 13 11 15 12
REMARK SMILES IDX 14 13 79 14 76 15 77 16 80 17 78 18 10 19 6 20 7 21 81 22
REMARK SMILES IDX 8 23 9 24 4 25 1 26 2 27 3 28 5 29 23 30 24 31 25 32 26 33
REMARK SMILES IDX 27 35 28 36 29 37 75 38 30 39 74 40 31 41 32 42 33 43 68 44
REMARK SMILES IDX 34 45 73 46 67 47 69 48 35 49 72 50 66 51 65 52 36 54 58 55
REMARK SMILES IDX 43 56 57 57 44 58 47 59 56 60 70 61 45 62 46 63 55 65 71 66
REMARK SMILES IDX 48 67 37 68 38 69 42 70 39 71 41 72 40 73 59 74 60 75 64 76
REMARK SMILES IDX 61 77 63 78 62 79 49 80 50 81 54 82 51 83 53 84 52 85
REMARK H PARENT 20 6 25 34 69 53 47 64
REMARK Flexibility Score: inf
ROOT
ATOM      1  C   UNL     1       5.847  -8.714   0.073  1.00  0.00     0.023 C 
ENDROOT
BRANCH   1   2
ATOM      2  C   UNL     1       5.542 -10.192  -0.210  1.00  0.00     0.116 C 
BRANCH   2   3
ATOM      3  N   UNL     1       4.362 -10.716   0.463  1.00  0.00    -0.356 N 
ATOM      4  C   UNL     1       3.134 -11.110   0.033  1.00  0.00     0.226 C 
ATOM      5  O   UNL     1       2.376 -11.564   0.899  1.00  0.00    -0.275 OA
ATOM      6  H   UNL     1       4.478 -10.803   1.436  1.00  0.00     0.163 HD
BRANCH   4   7
ATOM      7  C   UNL     1       2.629 -11.015  -1.413  1.00  0.00     0.113 C 
ATOM      8  N   UNL     1       1.152  -7.071  -2.196  1.00  0.00    -0.356 N 
ATOM      9  C   UNL     1       2.397  -7.118  -1.469  1.00  0.00     0.120 C 
ATOM     10  C   UNL     1       0.953  -7.979  -3.317  1.00  0.00     0.120 C 
ATOM     11  C   UNL     1       2.516  -8.536  -0.965  1.00  0.00     0.051 C 
ATOM     12  C   UNL     1       1.271  -9.435  -2.915  1.00  0.00     0.051 C 
ATOM     13  C   UNL     1       2.573  -9.604  -2.072  1.00  0.00     0.058 C 
ATOM     14  N   UNL     1       3.744  -9.668  -2.969  1.00  0.00    -0.339 N 
ATOM     15  C   UNL     1       3.421 -11.918  -2.348  1.00  0.00     0.116 C 
ATOM     16  C   UNL     1       4.202 -10.964  -3.195  1.00  0.00     0.223 C 
ATOM     17  C   UNL     1       4.367  -8.565  -3.676  1.00  0.00     0.147 C 
ATOM     18  O   UNL     1       5.118 -11.293  -3.933  1.00  0.00    -0.275 OA
BRANCH   8  19
ATOM     19  C   UNL     1       0.339  -5.992  -1.933  1.00  0.00     0.129 A 
ATOM     20  C   UNL     1       0.108  -3.753  -1.342  1.00  0.00     0.130 A 
ATOM     21  C   UNL     1      -1.261  -3.880  -1.152  1.00  0.00     0.034 A 
ATOM     22  N   UNL     1       0.908  -4.788  -1.710  1.00  0.00    -0.226 NA
ATOM     23  C   UNL     1      -1.832  -5.129  -1.344  1.00  0.00     0.006 A 
ATOM     24  C   UNL     1      -1.027  -6.187  -1.756  1.00  0.00     0.047 A 
BRANCH  20  25
ATOM     25  C   UNL     1       0.766  -2.410  -1.242  1.00  0.00     0.272 C 
ATOM     26  C   UNL     1       0.990  -0.216  -0.195  1.00  0.00     0.146 C 
ATOM     27  N   UNL     1       0.505  -1.585  -0.138  1.00  0.00    -0.343 N 
ATOM     28  C   UNL     1      -0.076  -2.031   1.118  1.00  0.00     0.146 C 
ATOM     29  O   UNL     1       1.492  -2.040  -2.167  1.00  0.00    -0.267 OA
ENDBRANCH  20  25
ENDBRANCH   8  19
ENDBRANCH   4   7
ENDBRANCH   2   3
ENDBRANCH   1   2
BRANCH   1  30
ATOM     30  C   UNL     1       6.099  -8.394   1.542  1.00  0.00     0.023 C 
BRANCH  30  31
ATOM     31  C   UNL     1       7.338  -9.083   2.088  1.00  0.00     0.116 C 
BRANCH  31  32
ATOM     32  N   UNL     1       8.522  -8.787   1.288  1.00  0.00    -0.352 N 
ATOM     33  C   UNL     1       9.743  -8.319   1.696  1.00  0.00     0.251 C 
ATOM     34  H   UNL     1       8.431  -8.945   0.321  1.00  0.00     0.163 HD
ATOM     35  O   UNL     1      10.568  -7.915   0.885  1.00  0.00    -0.269 OA
BRANCH  33  36
ATOM     36  C   UNL     1      10.036  -8.304   3.136  1.00  0.00     0.039 A 
ATOM     37  C   UNL     1      10.578  -7.157   3.714  1.00  0.00     0.014 A 
ATOM     38  C   UNL     1       9.713  -9.420   3.913  1.00  0.00     0.014 A 
ATOM     39  C   UNL     1      10.742  -7.109   5.096  1.00  0.00     0.010 A 
ATOM     40  C   UNL     1       9.781  -9.331   5.292  1.00  0.00     0.010 A 
ATOM     41  C   UNL     1      10.312  -8.182   5.894  1.00  0.00    -0.014 A 
BRANCH  41  42
ATOM     42  C   UNL     1      10.432  -8.146   7.367  1.00  0.00     0.031 A 
ATOM     43  C   UNL     1      11.299  -9.158   8.062  1.00  0.00     0.074 A 
ATOM     44  C   UNL     1       9.703  -7.263   8.074  1.00  0.00     0.049 A 
ATOM     45  N   UNL     1      11.474  -9.352   9.343  1.00  0.00    -0.248 NA
ATOM     46  C   UNL     1      12.037 -10.102   7.205  1.00  0.00     0.031 C 
ATOM     47  C   UNL     1       8.785  -6.270   7.509  1.00  0.00     0.029 A 
ATOM     48  N   UNL     1       9.616  -7.063   9.427  1.00  0.00    -0.354 N 
ATOM     49  C   UNL     1      12.315 -10.453   9.442  1.00  0.00     0.074 A 
ATOM     50  C   UNL     1      12.567 -10.921   8.098  1.00  0.00     0.031 C 
ATOM     51  C   UNL     1       8.255  -5.545   8.507  1.00  0.00     0.029 A 
ATOM     52  C   UNL     1       8.763  -6.046   9.779  1.00  0.00     0.049 A 
ATOM     53  H   UNL     1      10.117  -7.598  10.084  1.00  0.00     0.167 HD
ATOM     54  C   UNL     1      12.852 -11.009  10.552  1.00  0.00     0.031 A 
ATOM     55  C   UNL     1       8.430  -5.575  10.994  1.00  0.00     0.031 A 
ATOM     56  C   UNL     1      12.620 -10.520  11.883  1.00  0.00     0.049 A 
ATOM     57  C   UNL     1       9.051  -6.199  12.211  1.00  0.00     0.074 A 
ATOM     58  C   UNL     1      13.168 -10.964  13.073  1.00  0.00     0.029 A 
ATOM     59  N   UNL     1      11.770  -9.470  12.197  1.00  0.00    -0.354 N 
ATOM     60  N   UNL     1       9.903  -7.193  12.286  1.00  0.00    -0.248 NA
ATOM     61  C   UNL     1       8.675  -5.626  13.511  1.00  0.00     0.031 C 
ATOM     62  C   UNL     1      12.614 -10.211  14.113  1.00  0.00     0.029 A 
ATOM     63  C   UNL     1      11.763  -9.264  13.564  1.00  0.00     0.049 A 
ATOM     64  H   UNL     1      11.250  -8.950  11.543  1.00  0.00     0.167 HD
ATOM     65  C   UNL     1      10.185  -7.349  13.636  1.00  0.00     0.074 A 
ATOM     66  C   UNL     1       9.427  -6.335  14.342  1.00  0.00     0.031 C 
ATOM     67  C   UNL     1      10.999  -8.248  14.241  1.00  0.00     0.031 A 
BRANCH  54  68
ATOM     68  C   UNL     1      13.741 -12.205  10.364  1.00  0.00    -0.014 A 
ATOM     69  C   UNL     1      15.004 -12.087   9.759  1.00  0.00     0.009 A 
ATOM     70  C   UNL     1      13.319 -13.466  10.812  1.00  0.00     0.009 A 
ATOM     71  C   UNL     1      15.806 -13.213   9.569  1.00  0.00     0.001 A 
ATOM     72  C   UNL     1      14.138 -14.586  10.649  1.00  0.00     0.001 A 
ATOM     73  C   UNL     1      15.375 -14.460  10.018  1.00  0.00     0.000 A 
ENDBRANCH  54  68
BRANCH  55  74
ATOM     74  C   UNL     1       7.484  -4.436  11.117  1.00  0.00    -0.014 A 
ATOM     75  C   UNL     1       7.944  -3.171  11.517  1.00  0.00     0.009 A 
ATOM     76  C   UNL     1       6.119  -4.604  10.837  1.00  0.00     0.009 A 
ATOM     77  C   UNL     1       7.052  -2.106  11.660  1.00  0.00     0.001 A 
ATOM     78  C   UNL     1       5.234  -3.530  10.955  1.00  0.00     0.001 A 
ATOM     79  C   UNL     1       5.700  -2.285  11.376  1.00  0.00     0.000 A 
ENDBRANCH  55  74
BRANCH  67  80
ATOM     80  C   UNL     1      11.136  -8.152  15.733  1.00  0.00    -0.014 A 
ATOM     81  C   UNL     1      10.097  -8.555  16.586  1.00  0.00     0.009 A 
ATOM     82  C   UNL     1      12.340  -7.696  16.290  1.00  0.00     0.009 A 
ATOM     83  C   UNL     1      10.252  -8.471  17.971  1.00  0.00     0.001 A 
ATOM     84  C   UNL     1      12.502  -7.641  17.675  1.00  0.00     0.001 A 
ATOM     85  C   UNL     1      11.455  -8.019  18.513  1.00  0.00     0.000 A 
ENDBRANCH  67  80
ENDBRANCH  41  42
ENDBRANCH  33  36
ENDBRANCH  31  32
ENDBRANCH  30  31
ENDBRANCH   1  30
TORSDOF 13
