REMARK SMILES CC1(C)CCSC[C@@]1(Nc1ccccc1Br)C(=O)NCCCCNC(=O)c1ccc(-c2c3nc(c(-c4ccccc4)c4ccc([nH]4)c(-c4ccccc4)c4nc(c(-c5ccccc5)c5ccc2[nH]5)C=C4)C=C3)cc1
REMARK SMILES IDX 21 1 20 2 19 3 17 4 18 5 8 7 1 8 2 9 3 10 4 11 5 12 7 13
REMARK SMILES IDX 6 14 9 15 10 17 11 18 15 19 12 20 14 21 16 22 13 23 22 24
REMARK SMILES IDX 23 25 24 26 25 27 26 29 27 30 28 31 74 32 29 33 73 34 30 35
REMARK SMILES IDX 31 36 32 37 67 38 33 39 72 40 66 41 68 42 34 43 71 44 65 45
REMARK SMILES IDX 64 46 35 48 57 49 42 50 56 51 43 52 46 53 55 54 69 55 44 56
REMARK SMILES IDX 45 57 54 59 70 60 47 61 36 62 37 63 41 64 38 65 40 66 39 67
REMARK SMILES IDX 58 68 59 69 63 70 60 71 62 72 61 73 48 74 49 75 53 76 50 77
REMARK SMILES IDX 52 78 51 79
REMARK H PARENT 19 6 9 16 24 28 68 47 46 58
REMARK Flexibility Score: inf
ROOT
ATOM      1  C   UNL     1      -3.954   0.336   0.994  1.00  0.00     0.023 C 
ENDROOT
BRANCH   1   2
ATOM      2  C   UNL     1      -2.696   0.367   0.132  1.00  0.00     0.116 C 
BRANCH   2   3
ATOM      3  N   UNL     1      -1.523   0.925   0.787  1.00  0.00    -0.354 N 
ATOM      4  C   UNL     1      -0.381   0.347   1.278  1.00  0.00     0.247 C 
ATOM      5  O   UNL     1       0.475   1.131   1.710  1.00  0.00    -0.272 OA
ATOM      6  H   UNL     1      -1.555   1.903   0.898  1.00  0.00     0.163 HD
BRANCH   4   7
ATOM      7  C   UNL     1      -0.094  -1.187   1.206  1.00  0.00     0.131 C 
ATOM      8  C   UNL     1       1.849  -0.555  -0.447  1.00  0.00     0.014 C 
ATOM      9  C   UNL     1       0.593  -1.460  -0.242  1.00  0.00    -0.002 C 
ATOM     10  C   UNL     1      -0.314  -1.152  -1.459  1.00  0.00     0.014 C 
ATOM     11  C   UNL     1       1.032  -2.943  -0.421  1.00  0.00     0.020 C 
ATOM     12  C   UNL     1       2.037  -3.465   0.591  1.00  0.00     0.070 C 
ATOM     13  C   UNL     1       0.921  -1.613   2.318  1.00  0.00     0.108 C 
ATOM     14  S   UNL     1       1.398  -3.388   2.274  1.00  0.00    -0.159 SA
BRANCH   7  15
ATOM     15  N   UNL     1      -1.332  -2.001   1.394  1.00  0.00    -0.369 N 
ATOM     16  H   UNL     1      -1.622  -2.482   0.585  1.00  0.00     0.161 HD
BRANCH  15  17
ATOM     17  C   UNL     1      -2.158  -2.208   2.504  1.00  0.00     0.049 A 
ATOM     18  C   UNL     1      -2.973  -3.367   2.407  1.00  0.00     0.027 A 
ATOM     19  C   UNL     1      -2.384  -1.416   3.656  1.00  0.00     0.041 A 
ATOM     20  C   UNL     1      -3.958  -3.704   3.345  1.00  0.00     0.002 A 
ATOM     21  C   UNL     1      -3.403  -1.745   4.582  1.00  0.00     0.018 A 
ATOM     22  Br  UNL     1      -1.519   0.204   4.156  1.00  0.00    -0.049 Br
ATOM     23  C   UNL     1      -4.190  -2.876   4.426  1.00  0.00     0.001 A 
ENDBRANCH  15  17
ENDBRANCH   7  15
ENDBRANCH   4   7
ENDBRANCH   2   3
ENDBRANCH   1   2
BRANCH   1  24
ATOM     24  C   UNL     1      -4.370   1.675   1.584  1.00  0.00     0.023 C 
BRANCH  24  25
ATOM     25  C   UNL     1      -4.686   2.727   0.538  1.00  0.00     0.116 C 
BRANCH  25  26
ATOM     26  N   UNL     1      -5.767   2.317  -0.349  1.00  0.00    -0.352 N 
ATOM     27  C   UNL     1      -6.908   3.000  -0.692  1.00  0.00     0.251 C 
ATOM     28  H   UNL     1      -5.665   1.427  -0.758  1.00  0.00     0.163 HD
ATOM     29  O   UNL     1      -7.812   2.442  -1.296  1.00  0.00    -0.269 OA
BRANCH  27  30
ATOM     30  C   UNL     1      -7.032   4.417  -0.301  1.00  0.00     0.039 A 
ATOM     31  C   UNL     1      -8.230   4.867   0.255  1.00  0.00     0.014 A 
ATOM     32  C   UNL     1      -5.948   5.285  -0.457  1.00  0.00     0.014 A 
ATOM     33  C   UNL     1      -8.320   6.183   0.708  1.00  0.00     0.010 A 
ATOM     34  C   UNL     1      -6.005   6.559   0.087  1.00  0.00     0.010 A 
ATOM     35  C   UNL     1      -7.198   7.026   0.657  1.00  0.00    -0.014 A 
BRANCH  35  36
ATOM     36  C   UNL     1      -7.252   8.415   1.167  1.00  0.00     0.031 A 
ATOM     37  C   UNL     1      -7.039   9.566   0.224  1.00  0.00     0.074 A 
ATOM     38  C   UNL     1      -7.428   8.636   2.483  1.00  0.00     0.049 A 
ATOM     39  N   UNL     1      -7.006  10.849   0.479  1.00  0.00    -0.248 NA
ATOM     40  C   UNL     1      -6.800   9.227  -1.189  1.00  0.00     0.031 C 
ATOM     41  C   UNL     1      -7.610   7.599   3.502  1.00  0.00     0.029 A 
ATOM     42  N   UNL     1      -7.488   9.810   3.188  1.00  0.00    -0.354 N 
ATOM     43  C   UNL     1      -6.728  11.464  -0.735  1.00  0.00     0.074 A 
ATOM     44  C   UNL     1      -6.529  10.414  -1.708  1.00  0.00     0.031 C 
ATOM     45  C   UNL     1      -7.812   8.186   4.692  1.00  0.00     0.029 A 
ATOM     46  C   UNL     1      -7.726   9.633   4.528  1.00  0.00     0.049 A 
ATOM     47  H   UNL     1      -7.372  10.695   2.772  1.00  0.00     0.167 HD
ATOM     48  C   UNL     1      -6.669  12.786  -1.023  1.00  0.00     0.031 A 
ATOM     49  C   UNL     1      -7.864  10.540   5.513  1.00  0.00     0.031 A 
ATOM     50  C   UNL     1      -6.863  13.826  -0.049  1.00  0.00     0.049 A 
ATOM     51  C   UNL     1      -7.752  12.001   5.181  1.00  0.00     0.074 A 
ATOM     52  C   UNL     1      -6.870  15.196  -0.238  1.00  0.00     0.029 A 
ATOM     53  N   UNL     1      -7.076  13.606   1.304  1.00  0.00    -0.354 N 
ATOM     54  N   UNL     1      -7.555  12.572   4.017  1.00  0.00    -0.248 NA
ATOM     55  C   UNL     1      -7.889  12.941   6.301  1.00  0.00     0.031 C 
ATOM     56  C   UNL     1      -7.027  15.807   1.011  1.00  0.00     0.029 A 
ATOM     57  C   UNL     1      -7.186  14.816   1.968  1.00  0.00     0.049 A 
ATOM     58  H   UNL     1      -7.140  12.721   1.729  1.00  0.00     0.167 HD
ATOM     59  C   UNL     1      -7.577  13.940   4.258  1.00  0.00     0.074 A 
ATOM     60  C   UNL     1      -7.819  14.109   5.677  1.00  0.00     0.031 C 
ATOM     61  C   UNL     1      -7.418  14.964   3.383  1.00  0.00     0.031 A 
BRANCH  48  62
ATOM     62  C   UNL     1      -6.364  13.161  -2.448  1.00  0.00    -0.014 A 
ATOM     63  C   UNL     1      -7.264  12.873  -3.489  1.00  0.00     0.009 A 
ATOM     64  C   UNL     1      -5.152  13.794  -2.761  1.00  0.00     0.009 A 
ATOM     65  C   UNL     1      -6.930  13.155  -4.815  1.00  0.00     0.001 A 
ATOM     66  C   UNL     1      -4.837  14.110  -4.084  1.00  0.00     0.001 A 
ATOM     67  C   UNL     1      -5.718  13.775  -5.111  1.00  0.00     0.000 A 
ENDBRANCH  48  62
BRANCH  49  68
ATOM     68  C   UNL     1      -8.171  10.091   6.896  1.00  0.00    -0.014 A 
ATOM     69  C   UNL     1      -9.442  10.323   7.446  1.00  0.00     0.009 A 
ATOM     70  C   UNL     1      -7.212   9.417   7.667  1.00  0.00     0.009 A 
ATOM     71  C   UNL     1      -9.739   9.908   8.745  1.00  0.00     0.001 A 
ATOM     72  C   UNL     1      -7.521   8.978   8.956  1.00  0.00     0.001 A 
ATOM     73  C   UNL     1      -8.780   9.230   9.497  1.00  0.00     0.000 A 
ENDBRANCH  49  68
BRANCH  61  74
ATOM     74  C   UNL     1      -7.536  16.359   3.932  1.00  0.00    -0.014 A 
ATOM     75  C   UNL     1      -6.546  16.905   4.764  1.00  0.00     0.009 A 
ATOM     76  C   UNL     1      -8.639  17.151   3.577  1.00  0.00     0.009 A 
ATOM     77  C   UNL     1      -6.680  18.204   5.259  1.00  0.00     0.001 A 
ATOM     78  C   UNL     1      -8.753  18.460   4.045  1.00  0.00     0.001 A 
ATOM     79  C   UNL     1      -7.779  18.982   4.894  1.00  0.00     0.000 A 
ENDBRANCH  61  74
ENDBRANCH  35  36
ENDBRANCH  27  30
ENDBRANCH  25  26
ENDBRANCH  24  25
ENDBRANCH   1  24
TORSDOF 13
