REMARK SMILES O=C1CC[C@@H](CC(=O)N2CCC(Oc3ccccc3)(C(=O)NCCCCNC(=O)c3ccc(-c4c5nc(c(-c6ccccc6)c6ccc([nH]6)c(-c6ccccc6)c6nc(c(-c7ccccc7)c7ccc4[nH]7)C=C6)C=C5)cc3)CC2)N1
REMARK SMILES IDX 24 1 23 2 22 3 20 4 21 5 12 7 7 8 8 9 9 10 10 11 79 12 11 13
REMARK SMILES IDX 78 14 6 15 5 16 1 17 2 18 3 19 80 20 4 21 13 23 14 24 15 25
REMARK SMILES IDX 19 26 16 27 18 28 17 29 25 30 26 31 27 32 28 33 29 35 30 36
REMARK SMILES IDX 31 37 77 38 32 39 76 40 33 41 34 42 35 43 70 44 36 45 75 46
REMARK SMILES IDX 69 47 71 48 37 49 74 50 68 51 67 52 38 54 60 55 45 56 59 57
REMARK SMILES IDX 46 58 49 59 58 60 72 61 47 62 48 63 57 65 73 66 50 67 39 68
REMARK SMILES IDX 40 69 44 70 41 71 43 72 42 73 61 74 62 75 66 76 63 77 65 78
REMARK SMILES IDX 64 79 51 80 52 81 56 82 53 83 55 84 54 85
REMARK H PARENT 22 6 80 22 27 34 71 53 49 64
REMARK Flexibility Score: inf
ROOT
ATOM      1  C   UNL     1       0.527   1.434  -7.926  1.00  0.00     0.023 C 
ENDROOT
BRANCH   1   2
ATOM      2  C   UNL     1       1.734   1.596  -7.009  1.00  0.00     0.116 C 
BRANCH   2   3
ATOM      3  N   UNL     1       1.352   2.280  -5.796  1.00  0.00    -0.353 N 
ATOM      4  C   UNL     1       1.253   1.810  -4.526  1.00  0.00     0.264 C 
ATOM      5  O   UNL     1       0.930   2.651  -3.680  1.00  0.00    -0.270 OA
ATOM      6  H   UNL     1       1.128   3.232  -5.907  1.00  0.00     0.163 HD
BRANCH   4   7
ATOM      7  C   UNL     1       1.555   0.323  -4.172  1.00  0.00     0.190 C 
ATOM      8  C   UNL     1      -1.573  -1.644  -2.249  1.00  0.00     0.224 C 
ATOM      9  O   UNL     1      -1.837  -2.680  -2.875  1.00  0.00    -0.275 OA
ATOM     10  N   UNL     1      -0.898  -0.619  -2.882  1.00  0.00    -0.342 N 
ATOM     11  C   UNL     1      -0.841  -0.566  -4.342  1.00  0.00     0.124 C 
ATOM     12  C   UNL     1      -0.038   0.337  -2.228  1.00  0.00     0.124 C 
ATOM     13  C   UNL     1       0.593  -0.681  -4.848  1.00  0.00     0.080 C 
ATOM     14  C   UNL     1       1.419   0.177  -2.652  1.00  0.00     0.080 C 
BRANCH   8  15
ATOM     15  C   UNL     1      -2.234  -1.476  -0.867  1.00  0.00     0.125 C 
BRANCH  15  16
ATOM     16  C   UNL     1      -1.643  -0.864   0.405  1.00  0.00     0.091 C 
ATOM     17  O   UNL     1       1.616  -0.156   1.510  1.00  0.00    -0.275 OA
ATOM     18  C   UNL     1       0.445  -0.110   1.166  1.00  0.00     0.220 C 
ATOM     19  C   UNL     1      -0.420   1.125   1.124  1.00  0.00     0.102 C 
ATOM     20  N   UNL     1      -0.280  -1.184   0.701  1.00  0.00    -0.353 N 
ATOM     21  C   UNL     1      -1.750   0.658   0.526  1.00  0.00     0.035 C 
ATOM     22  H   UNL     1       0.103  -2.084   0.583  1.00  0.00     0.163 HD
ENDBRANCH  15  16
ENDBRANCH   8  15
BRANCH   7  23
ATOM     23  O   UNL     1       2.938   0.226  -4.601  1.00  0.00    -0.477 OA
BRANCH  23  24
ATOM     24  C   UNL     1       3.598  -0.947  -4.396  1.00  0.00     0.120 A 
ATOM     25  C   UNL     1       4.576  -0.989  -3.406  1.00  0.00     0.046 A 
ATOM     26  C   UNL     1       3.426  -2.030  -5.256  1.00  0.00     0.046 A 
ATOM     27  C   UNL     1       5.329  -2.149  -3.224  1.00  0.00     0.004 A 
ATOM     28  C   UNL     1       4.162  -3.197  -5.061  1.00  0.00     0.004 A 
ATOM     29  C   UNL     1       5.111  -3.258  -4.041  1.00  0.00     0.000 A 
ENDBRANCH  23  24
ENDBRANCH   7  23
ENDBRANCH   4   7
ENDBRANCH   2   3
ENDBRANCH   1   2
BRANCH   1  30
ATOM     30  C   UNL     1      -0.069   2.757  -8.407  1.00  0.00     0.023 C 
BRANCH  30  31
ATOM     31  C   UNL     1       0.940   3.719  -9.018  1.00  0.00     0.116 C 
BRANCH  31  32
ATOM     32  N   UNL     1       1.704   3.113 -10.098  1.00  0.00    -0.352 N 
ATOM     33  C   UNL     1       1.995   3.627 -11.336  1.00  0.00     0.251 C 
ATOM     34  H   UNL     1       2.060   2.213  -9.916  1.00  0.00     0.163 HD
ATOM     35  O   UNL     1       2.518   2.927 -12.195  1.00  0.00    -0.269 OA
BRANCH  33  36
ATOM     36  C   UNL     1       1.640   5.028 -11.627  1.00  0.00     0.039 A 
ATOM     37  C   UNL     1       0.955   5.319 -12.807  1.00  0.00     0.014 A 
ATOM     38  C   UNL     1       1.948   6.040 -10.713  1.00  0.00     0.014 A 
ATOM     39  C   UNL     1       0.529   6.624 -13.047  1.00  0.00     0.010 A 
ATOM     40  C   UNL     1       1.449   7.321 -10.914  1.00  0.00     0.010 A 
ATOM     41  C   UNL     1       0.744   7.628 -12.087  1.00  0.00    -0.014 A 
BRANCH  41  42
ATOM     42  C   UNL     1       0.259   9.013 -12.302  1.00  0.00     0.031 A 
ATOM     43  C   UNL     1       1.248  10.143 -12.402  1.00  0.00     0.074 A 
ATOM     44  C   UNL     1      -1.064   9.260 -12.361  1.00  0.00     0.049 A 
ATOM     45  N   UNL     1       1.024  11.426 -12.524  1.00  0.00    -0.248 NA
ATOM     46  C   UNL     1       2.676   9.788 -12.332  1.00  0.00     0.031 C 
ATOM     47  C   UNL     1      -2.124   8.255 -12.247  1.00  0.00     0.029 A 
ATOM     48  N   UNL     1      -1.744  10.440 -12.528  1.00  0.00    -0.354 N 
ATOM     49  C   UNL     1       2.276  12.027 -12.537  1.00  0.00     0.074 A 
ATOM     50  C   UNL     1       3.254  10.979 -12.348  1.00  0.00     0.031 C 
ATOM     51  C   UNL     1      -3.318   8.858 -12.377  1.00  0.00     0.029 A 
ATOM     52  C   UNL     1      -3.111  10.294 -12.536  1.00  0.00     0.049 A 
ATOM     53  H   UNL     1      -1.295  11.310 -12.632  1.00  0.00     0.167 HD
ATOM     54  C   UNL     1       2.588  13.331 -12.720  1.00  0.00     0.031 A 
ATOM     55  C   UNL     1      -4.086  11.215 -12.649  1.00  0.00     0.031 A 
ATOM     56  C   UNL     1       1.618  14.373 -12.917  1.00  0.00     0.049 A 
ATOM     57  C   UNL     1      -3.708  12.663 -12.811  1.00  0.00     0.074 A 
ATOM     58  C   UNL     1       1.836  15.722 -13.140  1.00  0.00     0.029 A 
ATOM     59  N   UNL     1       0.246  14.182 -12.921  1.00  0.00    -0.354 N 
ATOM     60  N   UNL     1      -2.516  13.206 -12.878  1.00  0.00    -0.248 NA
ATOM     61  C   UNL     1      -4.814  13.625 -12.926  1.00  0.00     0.031 C 
ATOM     62  C   UNL     1       0.594  16.355 -13.230  1.00  0.00     0.029 A 
ATOM     63  C   UNL     1      -0.396  15.391 -13.127  1.00  0.00     0.049 A 
ATOM     64  H   UNL     1      -0.205  13.316 -12.795  1.00  0.00     0.167 HD
ATOM     65  C   UNL     1      -2.730  14.563 -13.083  1.00  0.00     0.074 A 
ATOM     66  C   UNL     1      -4.163  14.758 -13.148  1.00  0.00     0.031 C 
ATOM     67  C   UNL     1      -1.822  15.562 -13.207  1.00  0.00     0.031 A 
BRANCH  54  68
ATOM     68  C   UNL     1       4.044  13.705 -12.726  1.00  0.00    -0.014 A 
ATOM     69  C   UNL     1       4.881  13.331 -13.790  1.00  0.00     0.009 A 
ATOM     70  C   UNL     1       4.573  14.488 -11.689  1.00  0.00     0.009 A 
ATOM     71  C   UNL     1       6.224  13.714 -13.802  1.00  0.00     0.001 A 
ATOM     72  C   UNL     1       5.908  14.895 -11.719  1.00  0.00     0.001 A 
ATOM     73  C   UNL     1       6.734  14.502 -12.771  1.00  0.00     0.000 A 
ENDBRANCH  54  68
BRANCH  55  74
ATOM     74  C   UNL     1      -5.518  10.813 -12.613  1.00  0.00    -0.014 A 
ATOM     75  C   UNL     1      -6.333  10.966 -13.747  1.00  0.00     0.009 A 
ATOM     76  C   UNL     1      -6.093  10.327 -11.429  1.00  0.00     0.009 A 
ATOM     77  C   UNL     1      -7.700  10.688 -13.680  1.00  0.00     0.001 A 
ATOM     78  C   UNL     1      -7.454  10.015 -11.376  1.00  0.00     0.001 A 
ATOM     79  C   UNL     1      -8.259  10.212 -12.496  1.00  0.00     0.000 A 
ENDBRANCH  55  74
BRANCH  67  80
ATOM     80  C   UNL     1      -2.348  16.942 -13.487  1.00  0.00    -0.014 A 
ATOM     81  C   UNL     1      -3.033  17.680 -12.509  1.00  0.00     0.009 A 
ATOM     82  C   UNL     1      -2.114  17.527 -14.742  1.00  0.00     0.009 A 
ATOM     83  C   UNL     1      -3.507  18.961 -12.798  1.00  0.00     0.001 A 
ATOM     84  C   UNL     1      -2.559  18.820 -15.015  1.00  0.00     0.001 A 
ATOM     85  C   UNL     1      -3.265  19.532 -14.047  1.00  0.00     0.000 A 
ENDBRANCH  67  80
ENDBRANCH  41  42
ENDBRANCH  33  36
ENDBRANCH  31  32
ENDBRANCH  30  31
ENDBRANCH   1  30
TORSDOF 15
