REMARK SMILES C[C@]([NH2+]CCCS(C)(=O)=O)(C(=O)NCCCCNC(=O)c1ccc(-c2c3nc(c(-c4ccccc4)c4ccc([nH]4)c(-c4ccccc4)c4nc(c(-c5ccccc5)c5ccc2[nH]5)C=C4)C=C3)cc1)C(F)(F)F
REMARK SMILES IDX 14 1 13 2 11 3 12 4 2 6 1 7 69 8 70 9 71 10 72 11 3 12 4 15
REMARK SMILES IDX 5 16 6 17 7 18 8 19 9 20 10 21 15 22 16 23 17 24 18 25 19 26
REMARK SMILES IDX 20 28 21 29 22 30 68 31 23 32 67 33 24 34 25 35 26 36 61 37
REMARK SMILES IDX 27 38 66 39 60 40 62 41 28 42 65 43 59 44 58 45 29 47 51 48
REMARK SMILES IDX 36 49 50 50 37 51 40 52 49 53 63 54 38 55 39 56 48 58 64 59
REMARK SMILES IDX 41 60 30 61 31 62 35 63 32 64 34 65 33 66 52 67 53 68 57 69
REMARK SMILES IDX 54 70 56 71 55 72 42 73 43 74 47 75 44 76 46 77 45 78
REMARK H PARENT 13 5 3 13 3 14 18 27 62 46 40 57
REMARK Flexibility Score: inf
ROOT
ATOM      1  C   UNL     1      -0.922   2.323   0.171  1.00  0.00     0.116 C 
ENDROOT
BRANCH   1   2
ATOM      2  N   UNL     1      -1.440   1.206   0.941  1.00  0.00    -0.350 N 
ATOM      3  C   UNL     1      -0.845   0.144   1.567  1.00  0.00     0.290 C 
ATOM      4  O   UNL     1      -1.631  -0.657   2.082  1.00  0.00    -0.267 OA
ATOM      5  H   UNL     1      -2.421   1.214   1.032  1.00  0.00     0.163 HD
BRANCH   3   6
ATOM      6  C   UNL     1       0.696  -0.027   1.646  1.00  0.00     0.268 C 
ATOM      7  C   UNL     1       1.288   1.143   2.461  1.00  0.00     0.101 C 
BRANCH   6   8
ATOM      8  C   UNL     1       0.937  -1.318   2.490  1.00  0.00     0.453 C 
ATOM      9  F   UNL     1       0.493  -2.442   1.885  1.00  0.00    -0.164 F 
ATOM     10  F   UNL     1       2.273  -1.501   2.699  1.00  0.00    -0.164 F 
ATOM     11  F   UNL     1       0.386  -1.249   3.725  1.00  0.00    -0.164 F 
ENDBRANCH   6   8
BRANCH   6  12
ATOM     12  N   UNL     1       1.227  -0.029   0.224  1.00  0.00    -0.326 N 
ATOM     13  H   UNL     1       1.227   0.932  -0.116  1.00  0.00     0.347 HD
ATOM     14  H   UNL     1       0.614  -0.644  -0.311  1.00  0.00     0.347 HD
BRANCH  12  15
ATOM     15  C   UNL     1       2.576  -0.564   0.077  1.00  0.00     0.262 C 
BRANCH  15  16
ATOM     16  C   UNL     1       3.067  -0.445  -1.375  1.00  0.00     0.077 C 
BRANCH  16  17
ATOM     17  C   UNL     1       2.963   0.924  -2.044  1.00  0.00     0.142 C 
BRANCH  17  18
ATOM     18  S   UNL     1       3.791   2.265  -1.213  1.00  0.00     0.147 S 
ATOM     19  C   UNL     1       5.479   1.727  -1.051  1.00  0.00     0.158 C 
ATOM     20  O   UNL     1       3.782   3.398  -2.121  1.00  0.00    -0.229 OA
ATOM     21  O   UNL     1       3.217   2.401   0.110  1.00  0.00    -0.229 OA
ENDBRANCH  17  18
ENDBRANCH  16  17
ENDBRANCH  15  16
ENDBRANCH  12  15
ENDBRANCH   6  12
ENDBRANCH   3   6
ENDBRANCH   1   2
BRANCH   1  22
ATOM     22  C   UNL     1      -1.258   2.189  -1.313  1.00  0.00     0.023 C 
BRANCH  22  23
ATOM     23  C   UNL     1      -2.742   2.359  -1.641  1.00  0.00     0.023 C 
BRANCH  23  24
ATOM     24  C   UNL     1      -3.372   3.654  -1.139  1.00  0.00     0.116 C 
BRANCH  24  25
ATOM     25  N   UNL     1      -2.709   4.847  -1.644  1.00  0.00    -0.352 N 
ATOM     26  C   UNL     1      -3.267   5.992  -2.159  1.00  0.00     0.251 C 
ATOM     27  H   UNL     1      -1.725   4.831  -1.613  1.00  0.00     0.163 HD
ATOM     28  O   UNL     1      -2.558   6.856  -2.666  1.00  0.00    -0.269 OA
BRANCH  26  29
ATOM     29  C   UNL     1      -4.734   6.162  -2.133  1.00  0.00     0.039 A 
ATOM     30  C   UNL     1      -5.385   6.577  -3.297  1.00  0.00     0.014 A 
ATOM     31  C   UNL     1      -5.466   5.883  -0.976  1.00  0.00     0.014 A 
ATOM     32  C   UNL     1      -6.779   6.641  -3.321  1.00  0.00     0.010 A 
ATOM     33  C   UNL     1      -6.856   5.869  -1.026  1.00  0.00     0.010 A 
ATOM     34  C   UNL     1      -7.527   6.248  -2.198  1.00  0.00    -0.014 A 
BRANCH  34  35
ATOM     35  C   UNL     1      -9.011   6.215  -2.236  1.00  0.00     0.031 A 
ATOM     36  C   UNL     1      -9.812   7.103  -1.324  1.00  0.00     0.074 A 
ATOM     37  C   UNL     1      -9.638   5.340  -3.047  1.00  0.00     0.049 A 
ATOM     38  N   UNL     1     -11.111   7.180  -1.180  1.00  0.00    -0.248 NA
ATOM     39  C   UNL     1      -9.056   8.004  -0.440  1.00  0.00     0.031 C 
ATOM     40  C   UNL     1      -8.977   4.397  -3.953  1.00  0.00     0.029 A 
ATOM     41  N   UNL     1     -10.976   5.099  -3.237  1.00  0.00    -0.354 N 
ATOM     42  C   UNL     1     -11.324   8.121  -0.181  1.00  0.00     0.074 A 
ATOM     43  C   UNL     1     -10.023   8.549   0.282  1.00  0.00     0.031 C 
ATOM     44  C   UNL     1      -9.911   3.707  -4.627  1.00  0.00     0.029 A 
ATOM     45  C   UNL     1     -11.233   4.122  -4.169  1.00  0.00     0.049 A 
ATOM     46  H   UNL     1     -11.685   5.580  -2.752  1.00  0.00     0.167 HD
ATOM     47  C   UNL     1     -12.497   8.601   0.296  1.00  0.00     0.031 A 
ATOM     48  C   UNL     1     -12.401   3.611  -4.601  1.00  0.00     0.031 A 
ATOM     49  C   UNL     1     -13.792   8.180  -0.168  1.00  0.00     0.049 A 
ATOM     50  C   UNL     1     -13.689   4.141  -4.034  1.00  0.00     0.074 A 
ATOM     51  C   UNL     1     -15.037   8.650   0.210  1.00  0.00     0.029 A 
ATOM     52  N   UNL     1     -14.008   7.183  -1.107  1.00  0.00    -0.354 N 
ATOM     53  N   UNL     1     -13.874   5.087  -3.145  1.00  0.00    -0.248 NA
ATOM     54  C   UNL     1     -14.931   3.539  -4.540  1.00  0.00     0.031 C 
ATOM     55  C   UNL     1     -16.009   7.894  -0.453  1.00  0.00     0.029 A 
ATOM     56  C   UNL     1     -15.368   7.001  -1.296  1.00  0.00     0.049 A 
ATOM     57  H   UNL     1     -13.301   6.680  -1.571  1.00  0.00     0.167 HD
ATOM     58  C   UNL     1     -15.251   5.215  -3.010  1.00  0.00     0.074 A 
ATOM     59  C   UNL     1     -15.852   4.262  -3.920  1.00  0.00     0.031 C 
ATOM     60  C   UNL     1     -15.954   6.049  -2.205  1.00  0.00     0.031 A 
BRANCH  47  61
ATOM     61  C   UNL     1     -12.432   9.630   1.392  1.00  0.00    -0.014 A 
ATOM     62  C   UNL     1     -11.947  10.926   1.151  1.00  0.00     0.009 A 
ATOM     63  C   UNL     1     -12.896   9.309   2.678  1.00  0.00     0.009 A 
ATOM     64  C   UNL     1     -11.892  11.865   2.183  1.00  0.00     0.001 A 
ATOM     65  C   UNL     1     -12.871  10.260   3.699  1.00  0.00     0.001 A 
ATOM     66  C   UNL     1     -12.359  11.534   3.454  1.00  0.00     0.000 A 
ENDBRANCH  47  61
BRANCH  48  67
ATOM     67  C   UNL     1     -12.414   2.545  -5.639  1.00  0.00    -0.014 A 
ATOM     68  C   UNL     1     -12.904   2.811  -6.927  1.00  0.00     0.009 A 
ATOM     69  C   UNL     1     -11.951   1.253  -5.344  1.00  0.00     0.009 A 
ATOM     70  C   UNL     1     -12.959   1.799  -7.888  1.00  0.00     0.001 A 
ATOM     71  C   UNL     1     -11.977   0.251  -6.317  1.00  0.00     0.001 A 
ATOM     72  C   UNL     1     -12.491   0.522  -7.584  1.00  0.00     0.000 A 
ENDBRANCH  48  67
BRANCH  60  73
ATOM     73  C   UNL     1     -17.453   6.000  -2.302  1.00  0.00    -0.014 A 
ATOM     74  C   UNL     1     -18.184   4.903  -1.819  1.00  0.00     0.009 A 
ATOM     75  C   UNL     1     -18.148   7.090  -2.851  1.00  0.00     0.009 A 
ATOM     76  C   UNL     1     -19.577   4.885  -1.918  1.00  0.00     0.001 A 
ATOM     77  C   UNL     1     -19.541   7.084  -2.917  1.00  0.00     0.001 A 
ATOM     78  C   UNL     1     -20.254   5.977  -2.460  1.00  0.00     0.000 A 
ENDBRANCH  60  73
ENDBRANCH  34  35
ENDBRANCH  26  29
ENDBRANCH  24  25
ENDBRANCH  23  24
ENDBRANCH  22  23
ENDBRANCH   1  22
TORSDOF 17
