REMARK SMILES O=C(CCCC[C@@H]1CCSS1)NCCCCNC(=O)c1ccc(-c2c3nc(c(-c4ccccc4)c4ccc([nH]4)c(-c4ccccc4)c4nc(c(-c5ccccc5)c5ccc2[nH]5)C=C4)C=C3)cc1
REMARK SMILES IDX 13 1 12 2 1 3 2 4 3 6 4 7 5 8 6 9 7 10 8 11 11 12 9 13 10 14
REMARK SMILES IDX 14 15 15 16 16 17 17 18 18 19 19 21 20 22 21 23 67 24 22 25
REMARK SMILES IDX 66 26 23 27 24 28 25 29 60 30 26 31 65 32 59 33 61 34 27 35
REMARK SMILES IDX 64 36 58 37 57 38 28 40 50 41 35 42 49 43 36 44 39 45 48 46
REMARK SMILES IDX 62 47 37 48 38 49 47 51 63 52 40 53 29 54 30 55 34 56 31 57
REMARK SMILES IDX 33 58 32 59 51 60 52 61 56 62 53 63 55 64 54 65 41 66 42 67
REMARK SMILES IDX 46 68 43 69 45 70 44 71
REMARK H PARENT 12 5 17 20 61 39 39 50
REMARK Flexibility Score: inf
ROOT
ATOM      1  C   UNL     1       1.883   1.653   1.730  1.00  0.00     0.116 C 
ENDROOT
BRANCH   1   2
ATOM      2  N   UNL     1       2.549   0.654   0.920  1.00  0.00    -0.356 N 
ATOM      3  O   UNL     1       0.798   0.288  -0.521  1.00  0.00    -0.275 OA
ATOM      4  C   UNL     1       1.946   0.053  -0.160  1.00  0.00     0.219 C 
ATOM      5  H   UNL     1       3.470   0.395   1.152  1.00  0.00     0.163 HD
BRANCH   4   6
ATOM      6  C   UNL     1       2.834  -0.942  -0.882  1.00  0.00     0.100 C 
BRANCH   6   7
ATOM      7  C   UNL     1       3.752  -0.287  -1.914  1.00  0.00     0.010 C 
BRANCH   7   8
ATOM      8  C   UNL     1       4.899   0.562  -1.356  1.00  0.00     0.002 C 
BRANCH   8   9
ATOM      9  C   UNL     1       5.887  -0.148  -0.420  1.00  0.00     0.015 C 
BRANCH   9  10
ATOM     10  C   UNL     1       6.716  -1.248  -1.107  1.00  0.00     0.059 C 
ATOM     11  C   UNL     1       6.290  -2.663  -0.690  1.00  0.00     0.027 C 
ATOM     12  S   UNL     1       8.475  -1.099  -0.630  1.00  0.00    -0.091 SA
ATOM     13  C   UNL     1       7.315  -3.686  -1.167  1.00  0.00     0.083 C 
ATOM     14  S   UNL     1       8.929  -3.095  -0.614  1.00  0.00    -0.094 SA
ENDBRANCH   9  10
ENDBRANCH   8   9
ENDBRANCH   7   8
ENDBRANCH   6   7
ENDBRANCH   4   6
ENDBRANCH   1   2
BRANCH   1  15
ATOM     15  C   UNL     1       2.282   1.556   3.202  1.00  0.00     0.023 C 
BRANCH  15  16
ATOM     16  C   UNL     1       3.775   1.745   3.494  1.00  0.00     0.023 C 
BRANCH  16  17
ATOM     17  C   UNL     1       4.374   3.071   3.032  1.00  0.00     0.116 C 
BRANCH  17  18
ATOM     18  N   UNL     1       3.810   4.214   3.732  1.00  0.00    -0.352 N 
ATOM     19  C   UNL     1       4.436   5.209   4.439  1.00  0.00     0.251 C 
ATOM     20  H   UNL     1       2.829   4.284   3.693  1.00  0.00     0.163 HD
ATOM     21  O   UNL     1       3.761   6.006   5.096  1.00  0.00    -0.269 OA
BRANCH  19  22
ATOM     22  C   UNL     1       5.911   5.327   4.448  1.00  0.00     0.039 A 
ATOM     23  C   UNL     1       6.556   5.605   5.657  1.00  0.00     0.014 A 
ATOM     24  C   UNL     1       6.661   5.195   3.276  1.00  0.00     0.014 A 
ATOM     25  C   UNL     1       7.951   5.680   5.705  1.00  0.00     0.010 A 
ATOM     26  C   UNL     1       8.055   5.204   3.336  1.00  0.00     0.010 A 
ATOM     27  C   UNL     1       8.715   5.443   4.551  1.00  0.00    -0.014 A 
BRANCH  27  28
ATOM     28  C   UNL     1      10.201   5.426   4.600  1.00  0.00     0.031 A 
ATOM     29  C   UNL     1      11.003   6.451   3.845  1.00  0.00     0.074 A 
ATOM     30  C   UNL     1      10.834   4.447   5.275  1.00  0.00     0.049 A 
ATOM     31  N   UNL     1      12.303   6.553   3.721  1.00  0.00    -0.248 NA
ATOM     32  C   UNL     1      10.247   7.483   3.119  1.00  0.00     0.031 C 
ATOM     33  C   UNL     1      10.180   3.372   6.024  1.00  0.00     0.029 A 
ATOM     34  N   UNL     1      12.174   4.192   5.432  1.00  0.00    -0.354 N 
ATOM     35  C   UNL     1      12.519   7.643   2.887  1.00  0.00     0.074 A 
ATOM     36  C   UNL     1      11.217   8.146   2.505  1.00  0.00     0.031 C 
ATOM     37  C   UNL     1      11.118   2.589   6.580  1.00  0.00     0.029 A 
ATOM     38  C   UNL     1      12.438   3.079   6.194  1.00  0.00     0.049 A 
ATOM     39  H   UNL     1      12.879   4.753   5.036  1.00  0.00     0.167 HD
ATOM     40  C   UNL     1      13.693   8.188   2.487  1.00  0.00     0.031 A 
ATOM     41  C   UNL     1      13.608   2.511   6.539  1.00  0.00     0.031 A 
ATOM     42  C   UNL     1      14.991   7.701   2.875  1.00  0.00     0.049 A 
ATOM     43  C   UNL     1      14.896   3.124   6.066  1.00  0.00     0.074 A 
ATOM     44  C   UNL     1      16.235   8.227   2.570  1.00  0.00     0.029 A 
ATOM     45  N   UNL     1      15.212   6.573   3.649  1.00  0.00    -0.354 N 
ATOM     46  N   UNL     1      15.082   4.195   5.335  1.00  0.00    -0.248 NA
ATOM     47  C   UNL     1      16.138   2.451   6.476  1.00  0.00     0.031 C 
ATOM     48  C   UNL     1      17.211   7.388   3.118  1.00  0.00     0.029 A 
ATOM     49  C   UNL     1      16.573   6.372   3.810  1.00  0.00     0.049 A 
ATOM     50  H   UNL     1      14.507   6.000   4.028  1.00  0.00     0.167 HD
ATOM     51  C   UNL     1      16.459   4.341   5.222  1.00  0.00     0.074 A 
ATOM     52  C   UNL     1      17.060   3.258   5.971  1.00  0.00     0.031 C 
ATOM     53  C   UNL     1      17.161   5.291   4.558  1.00  0.00     0.031 A 
BRANCH  40  54
ATOM     54  C   UNL     1      13.629   9.375   1.566  1.00  0.00    -0.014 A 
ATOM     55  C   UNL     1      13.196  10.629   2.025  1.00  0.00     0.009 A 
ATOM     56  C   UNL     1      14.047   9.247   0.233  1.00  0.00     0.009 A 
ATOM     57  C   UNL     1      13.150  11.722   1.157  1.00  0.00     0.001 A 
ATOM     58  C   UNL     1      14.027  10.348  -0.625  1.00  0.00     0.001 A 
ATOM     59  C   UNL     1      13.570  11.582  -0.166  1.00  0.00     0.000 A 
ENDBRANCH  40  54
BRANCH  41  60
ATOM     60  C   UNL     1      13.623   1.294   7.393  1.00  0.00    -0.014 A 
ATOM     61  C   UNL     1      14.069   1.366   8.722  1.00  0.00     0.009 A 
ATOM     62  C   UNL     1      13.205   0.056   6.883  1.00  0.00     0.009 A 
ATOM     63  C   UNL     1      14.121   0.217   9.514  1.00  0.00     0.001 A 
ATOM     64  C   UNL     1      13.232  -1.086   7.686  1.00  0.00     0.001 A 
ATOM     65  C   UNL     1      13.699  -1.007   8.997  1.00  0.00     0.000 A 
ENDBRANCH  41  60
BRANCH  53  66
ATOM     66  C   UNL     1      18.660   5.224   4.643  1.00  0.00    -0.014 A 
ATOM     67  C   UNL     1      19.386   4.240   3.955  1.00  0.00     0.009 A 
ATOM     68  C   UNL     1      19.355   6.184   5.394  1.00  0.00     0.009 A 
ATOM     69  C   UNL     1      20.779   4.201   4.045  1.00  0.00     0.001 A 
ATOM     70  C   UNL     1      20.749   6.159   5.459  1.00  0.00     0.001 A 
ATOM     71  C   UNL     1      21.459   5.162   4.792  1.00  0.00     0.000 A 
ENDBRANCH  53  66
ENDBRANCH  27  28
ENDBRANCH  19  22
ENDBRANCH  17  18
ENDBRANCH  16  17
ENDBRANCH  15  16
ENDBRANCH   1  15
TORSDOF 15
