REMARK SMILES CC(C)c1noc(C[N@H+]2CCCC[C@H]2C(=O)NCCCCNC(=O)c2ccc(-c3c4nc(c(-c5ccccc5)c5ccc([nH]5)c(-c5ccccc5)c5nc(c(-c6ccccc6)c6ccc3[nH]6)C=C5)C=C4)cc2)n1
REMARK SMILES IDX 19 1 18 2 17 3 15 4 16 5 14 7 9 8 10 9 11 11 13 12 12 13
REMARK SMILES IDX 8 14 7 15 4 16 5 17 73 18 6 19 2 20 1 21 3 22 20 23 21 24
REMARK SMILES IDX 22 25 23 26 24 28 25 29 26 30 72 31 27 32 71 33 28 34 29 35
REMARK SMILES IDX 30 36 65 37 31 38 70 39 64 40 66 41 32 42 69 43 63 44 62 45
REMARK SMILES IDX 33 47 55 48 40 49 54 50 41 51 44 52 53 53 67 54 42 55 43 56
REMARK SMILES IDX 52 58 68 59 45 60 34 61 35 62 39 63 36 64 38 65 37 66 56 67
REMARK SMILES IDX 57 68 61 69 58 70 60 71 59 72 46 73 47 74 51 75 48 76 50 77
REMARK SMILES IDX 49 78
REMARK H PARENT 17 6 9 10 22 27 66 46 44 57
REMARK Flexibility Score: inf
ROOT
ATOM      1  C   UNL     1      -5.355   2.857   2.405  1.00  0.00     0.023 C 
ENDROOT
BRANCH   1   2
ATOM      2  C   UNL     1      -5.269   1.821   1.278  1.00  0.00     0.116 C 
BRANCH   2   3
ATOM      3  N   UNL     1      -4.118   0.969   1.478  1.00  0.00    -0.351 N 
ATOM      4  C   UNL     1      -4.071  -0.264   2.056  1.00  0.00     0.278 C 
ATOM      5  O   UNL     1      -3.039  -0.547   2.665  1.00  0.00    -0.268 OA
ATOM      6  H   UNL     1      -3.259   1.325   1.156  1.00  0.00     0.163 HD
BRANCH   4   7
ATOM      7  C   UNL     1      -5.272  -1.226   1.873  1.00  0.00     0.274 C 
ATOM      8  N   UNL     1      -4.885  -2.651   1.711  1.00  0.00    -0.317 N 
ATOM      9  C   UNL     1      -4.267  -3.241   2.901  1.00  0.00     0.263 C 
ATOM     10  H   UNL     1      -5.784  -3.124   1.612  1.00  0.00     0.349 HD
ATOM     11  C   UNL     1      -5.160  -3.078   4.137  1.00  0.00     0.062 C 
ATOM     12  C   UNL     1      -6.246  -1.091   3.049  1.00  0.00     0.076 C 
ATOM     13  C   UNL     1      -5.655  -1.650   4.338  1.00  0.00     0.012 C 
BRANCH   8  14
ATOM     14  C   UNL     1      -4.179  -2.977   0.454  1.00  0.00     0.364 C 
BRANCH  14  15
ATOM     15  C   UNL     1      -2.868  -2.313   0.194  1.00  0.00     0.281 A 
ATOM     16  C   UNL     1      -0.914  -1.565   0.113  1.00  0.00     0.174 A 
ATOM     17  N   UNL     1      -1.606  -0.700  -0.644  1.00  0.00    -0.062 NA
ATOM     18  N   UNL     1      -1.656  -2.616   0.602  1.00  0.00    -0.191 NA
ATOM     19  O   UNL     1      -2.906  -1.197  -0.593  1.00  0.00    -0.333 OA
BRANCH  16  20
ATOM     20  C   UNL     1       0.561  -1.446   0.353  1.00  0.00     0.055 C 
ATOM     21  C   UNL     1       1.108  -0.041   0.074  1.00  0.00     0.016 C 
ATOM     22  C   UNL     1       0.940  -1.854   1.780  1.00  0.00     0.016 C 
ENDBRANCH  16  20
ENDBRANCH  14  15
ENDBRANCH   8  14
ENDBRANCH   4   7
ENDBRANCH   2   3
ENDBRANCH   1   2
BRANCH   1  23
ATOM     23  C   UNL     1      -4.092   3.710   2.587  1.00  0.00     0.023 C 
BRANCH  23  24
ATOM     24  C   UNL     1      -3.621   4.444   1.336  1.00  0.00     0.116 C 
BRANCH  24  25
ATOM     25  N   UNL     1      -4.579   5.441   0.888  1.00  0.00    -0.352 N 
ATOM     26  C   UNL     1      -4.380   6.769   0.603  1.00  0.00     0.251 C 
ATOM     27  H   UNL     1      -5.502   5.119   0.774  1.00  0.00     0.163 HD
ATOM     28  O   UNL     1      -5.344   7.506   0.406  1.00  0.00    -0.269 OA
BRANCH  26  29
ATOM     29  C   UNL     1      -3.009   7.324   0.563  1.00  0.00     0.039 A 
ATOM     30  C   UNL     1      -2.757   8.543   1.198  1.00  0.00     0.014 A 
ATOM     31  C   UNL     1      -1.976   6.651  -0.095  1.00  0.00     0.014 A 
ATOM     32  C   UNL     1      -1.457   9.051   1.234  1.00  0.00     0.010 A 
ATOM     33  C   UNL     1      -0.668   7.123   0.003  1.00  0.00     0.010 A 
ATOM     34  C   UNL     1      -0.393   8.325   0.672  1.00  0.00    -0.014 A 
BRANCH  34  35
ATOM     35  C   UNL     1       1.011   8.800   0.788  1.00  0.00     0.031 A 
ATOM     36  C   UNL     1       1.796   9.162  -0.443  1.00  0.00     0.074 A 
ATOM     37  C   UNL     1       1.599   8.854   2.000  1.00  0.00     0.049 A 
ATOM     38  N   UNL     1       3.050   9.524  -0.546  1.00  0.00    -0.248 NA
ATOM     39  C   UNL     1       1.083   9.095  -1.730  1.00  0.00     0.031 C 
ATOM     40  C   UNL     1       0.959   8.512   3.272  1.00  0.00     0.029 A 
ATOM     41  N   UNL     1       2.875   9.214   2.359  1.00  0.00    -0.354 N 
ATOM     42  C   UNL     1       3.276   9.726  -1.902  1.00  0.00     0.074 A 
ATOM     43  C   UNL     1       2.048   9.390  -2.589  1.00  0.00     0.031 C 
ATOM     44  C   UNL     1       1.836   8.703   4.272  1.00  0.00     0.029 A 
ATOM     45  C   UNL     1       3.113   9.130   3.711  1.00  0.00     0.049 A 
ATOM     46  H   UNL     1       3.556   9.505   1.710  1.00  0.00     0.167 HD
ATOM     47  C   UNL     1       4.395  10.175  -2.520  1.00  0.00     0.031 A 
ATOM     48  C   UNL     1       4.237   9.356   4.418  1.00  0.00     0.031 A 
ATOM     49  C   UNL     1       5.621  10.502  -1.842  1.00  0.00     0.049 A 
ATOM     50  C   UNL     1       5.486   9.783   3.696  1.00  0.00     0.074 A 
ATOM     51  C   UNL     1       6.803  10.980  -2.381  1.00  0.00     0.029 A 
ATOM     52  N   UNL     1       5.823  10.385  -0.476  1.00  0.00    -0.354 N 
ATOM     53  N   UNL     1       5.665  10.018   2.419  1.00  0.00    -0.248 NA
ATOM     54  C   UNL     1       6.689   9.982   4.518  1.00  0.00     0.031 C 
ATOM     55  C   UNL     1       7.737  11.104  -1.349  1.00  0.00     0.029 A 
ATOM     56  C   UNL     1       7.117  10.763  -0.158  1.00  0.00     0.049 A 
ATOM     57  H   UNL     1       5.148  10.080   0.172  1.00  0.00     0.167 HD
ATOM     58  C   UNL     1       6.987  10.428   2.291  1.00  0.00     0.074 A 
ATOM     59  C   UNL     1       7.557  10.428   3.622  1.00  0.00     0.031 C 
ATOM     60  C   UNL     1       7.668  10.772   1.172  1.00  0.00     0.031 A 
BRANCH  47  61
ATOM     61  C   UNL     1       4.343  10.344  -4.013  1.00  0.00    -0.014 A 
ATOM     62  C   UNL     1       3.575  11.366  -4.597  1.00  0.00     0.009 A 
ATOM     63  C   UNL     1       5.112   9.515  -4.844  1.00  0.00     0.009 A 
ATOM     64  C   UNL     1       3.555  11.533  -5.983  1.00  0.00     0.001 A 
ATOM     65  C   UNL     1       5.113   9.704  -6.228  1.00  0.00     0.001 A 
ATOM     66  C   UNL     1       4.329  10.707  -6.796  1.00  0.00     0.000 A 
ENDBRANCH  47  61
BRANCH  48  67
ATOM     67  C   UNL     1       4.252   9.177   5.896  1.00  0.00    -0.014 A 
ATOM     68  C   UNL     1       4.449  10.277   6.746  1.00  0.00     0.009 A 
ATOM     69  C   UNL     1       4.124   7.899   6.463  1.00  0.00     0.009 A 
ATOM     70  C   UNL     1       4.565  10.094   8.127  1.00  0.00     0.001 A 
ATOM     71  C   UNL     1       4.203   7.725   7.846  1.00  0.00     0.001 A 
ATOM     72  C   UNL     1       4.440   8.819   8.675  1.00  0.00     0.000 A 
ENDBRANCH  48  67
BRANCH  60  73
ATOM     73  C   UNL     1       9.091  11.229   1.342  1.00  0.00    -0.014 A 
ATOM     74  C   UNL     1      10.112  10.332   1.690  1.00  0.00     0.009 A 
ATOM     75  C   UNL     1       9.418  12.574   1.107  1.00  0.00     0.009 A 
ATOM     76  C   UNL     1      11.427  10.780   1.834  1.00  0.00     0.001 A 
ATOM     77  C   UNL     1      10.738  13.013   1.219  1.00  0.00     0.001 A 
ATOM     78  C   UNL     1      11.739  12.118   1.592  1.00  0.00     0.000 A 
ENDBRANCH  60  73
ENDBRANCH  34  35
ENDBRANCH  26  29
ENDBRANCH  24  25
ENDBRANCH  23  24
ENDBRANCH   1  23
TORSDOF 14
