REMARK SMILES COc1ccc(C(=O)Nc2cc(C(=O)NCCCCNC(=O)c3ccc(-c4c5nc(c(-c6ccccc6)c6ccc([nH]6)c(-c6ccccc6)c6nc(c(-c7ccccc7)c7ccc4[nH]7)C=C6)C=C5)cc3)c(Cl)cc2Cl)cc1Cl
REMARK SMILES IDX 17 1 16 2 15 3 13 4 14 5 12 7 10 8 11 9 74 10 73 11 75 12
REMARK SMILES IDX 71 13 72 14 9 15 7 16 8 17 6 19 3 20 4 21 77 22 5 23 76 24
REMARK SMILES IDX 78 25 2 26 1 27 18 28 19 29 20 30 21 31 22 33 23 34 24 35
REMARK SMILES IDX 70 36 25 37 69 38 26 39 27 40 28 41 63 42 29 43 68 44 62 45
REMARK SMILES IDX 64 46 30 47 67 48 61 49 60 50 31 52 53 53 38 54 52 55 39 56
REMARK SMILES IDX 42 57 51 58 65 59 40 60 41 61 50 63 66 64 43 65 32 66 33 67
REMARK SMILES IDX 37 68 34 69 36 70 35 71 54 72 55 73 59 74 56 75 58 76 57 77
REMARK SMILES IDX 44 78 45 79 49 80 46 81 48 82 47 83
REMARK H PARENT 15 6 9 18 20 32 64 51 42 62
REMARK Flexibility Score: inf
ROOT
ATOM      1  C   UNL     1       7.104  -0.947  -0.692  1.00  0.00     0.023 C 
ENDROOT
BRANCH   1   2
ATOM      2  C   UNL     1       7.353  -2.091   0.287  1.00  0.00     0.116 C 
BRANCH   2   3
ATOM      3  N   UNL     1       6.760  -1.930   1.602  1.00  0.00    -0.352 N 
ATOM      4  C   UNL     1       6.225  -2.860   2.466  1.00  0.00     0.252 C 
ATOM      5  O   UNL     1       5.873  -2.484   3.584  1.00  0.00    -0.269 OA
ATOM      6  H   UNL     1       6.736  -1.002   1.931  1.00  0.00     0.163 HD
BRANCH   4   7
ATOM      7  C   UNL     1       5.929  -4.266   2.079  1.00  0.00     0.060 A 
ATOM      8  C   UNL     1       4.188  -6.000   2.039  1.00  0.00     0.061 A 
ATOM      9  C   UNL     1       4.639  -4.732   2.428  1.00  0.00     0.043 A 
ATOM     10  C   UNL     1       5.074  -6.839   1.348  1.00  0.00     0.066 A 
ATOM     11  C   UNL     1       6.372  -6.421   1.059  1.00  0.00     0.044 A 
ATOM     12  Cl  UNL     1       4.580  -8.403   0.796  1.00  0.00    -0.082 Cl
ATOM     13  C   UNL     1       6.816  -5.156   1.463  1.00  0.00     0.055 A 
ATOM     14  Cl  UNL     1       8.508  -4.859   1.288  1.00  0.00    -0.083 Cl
BRANCH   8  15
ATOM     15  N   UNL     1       2.894  -6.485   2.324  1.00  0.00    -0.321 N 
ATOM     16  C   UNL     1       1.677  -5.883   2.549  1.00  0.00     0.255 C 
ATOM     17  O   UNL     1       0.775  -6.554   3.052  1.00  0.00    -0.269 OA
ATOM     18  H   UNL     1       2.852  -7.468   2.371  1.00  0.00     0.170 HD
BRANCH  16  19
ATOM     19  C   UNL     1       1.365  -4.496   2.106  1.00  0.00     0.041 A 
ATOM     20  C   UNL     1       0.753  -1.834   1.377  1.00  0.00     0.137 A 
ATOM     21  C   UNL     1      -0.025  -2.525   2.318  1.00  0.00     0.049 A 
ATOM     22  C   UNL     1       1.824  -2.505   0.777  1.00  0.00     0.083 A 
ATOM     23  C   UNL     1       0.281  -3.837   2.691  1.00  0.00     0.018 A 
ATOM     24  C   UNL     1       2.067  -3.849   1.087  1.00  0.00     0.038 A 
ATOM     25  Cl  UNL     1       2.990  -1.782  -0.275  1.00  0.00    -0.080 Cl
BRANCH  20  26
ATOM     26  O   UNL     1       0.350  -0.538   1.215  1.00  0.00    -0.495 OA
ATOM     27  C   UNL     1       0.622   0.104  -0.021  1.00  0.00     0.278 C 
ENDBRANCH  20  26
ENDBRANCH  16  19
ENDBRANCH   8  15
ENDBRANCH   4   7
ENDBRANCH   2   3
ENDBRANCH   1   2
BRANCH   1  28
ATOM     28  C   UNL     1       7.682   0.421  -0.335  1.00  0.00     0.023 C 
BRANCH  28  29
ATOM     29  C   UNL     1       9.141   0.469   0.109  1.00  0.00     0.116 C 
BRANCH  29  30
ATOM     30  N   UNL     1      10.079  -0.107  -0.842  1.00  0.00    -0.352 N 
ATOM     31  C   UNL     1      11.255   0.403  -1.345  1.00  0.00     0.251 C 
ATOM     32  H   UNL     1       9.837  -1.001  -1.177  1.00  0.00     0.163 HD
ATOM     33  O   UNL     1      11.884  -0.231  -2.189  1.00  0.00    -0.269 OA
BRANCH  31  34
ATOM     34  C   UNL     1      11.747   1.730  -0.912  1.00  0.00     0.039 A 
ATOM     35  C   UNL     1      12.226   2.621  -1.878  1.00  0.00     0.014 A 
ATOM     36  C   UNL     1      11.731   2.107   0.432  1.00  0.00     0.014 A 
ATOM     37  C   UNL     1      12.613   3.911  -1.505  1.00  0.00     0.010 A 
ATOM     38  C   UNL     1      12.026   3.421   0.788  1.00  0.00     0.010 A 
ATOM     39  C   UNL     1      12.479   4.336  -0.174  1.00  0.00    -0.014 A 
BRANCH  39  40
ATOM     40  C   UNL     1      12.832   5.720   0.235  1.00  0.00     0.031 A 
ATOM     41  C   UNL     1      13.942   5.955   1.225  1.00  0.00     0.074 A 
ATOM     42  C   UNL     1      12.126   6.766  -0.240  1.00  0.00     0.049 A 
ATOM     43  N   UNL     1      14.379   7.083   1.727  1.00  0.00    -0.248 NA
ATOM     44  C   UNL     1      14.633   4.763   1.742  1.00  0.00     0.031 C 
ATOM     45  C   UNL     1      10.999   6.678  -1.170  1.00  0.00     0.029 A 
ATOM     46  N   UNL     1      12.257   8.112  -0.005  1.00  0.00    -0.354 N 
ATOM     47  C   UNL     1      15.379   6.733   2.626  1.00  0.00     0.074 A 
ATOM     48  C   UNL     1      15.438   5.289   2.652  1.00  0.00     0.031 C 
ATOM     49  C   UNL     1      10.568   7.917  -1.458  1.00  0.00     0.029 A 
ATOM     50  C   UNL     1      11.361   8.884  -0.706  1.00  0.00     0.049 A 
ATOM     51  H   UNL     1      12.928   8.489   0.608  1.00  0.00     0.167 HD
ATOM     52  C   UNL     1      16.196   7.537   3.348  1.00  0.00     0.031 A 
ATOM     53  C   UNL     1      11.201  10.220  -0.744  1.00  0.00     0.031 A 
ATOM     54  C   UNL     1      16.147   8.973   3.318  1.00  0.00     0.049 A 
ATOM     55  C   UNL     1      12.112  11.094   0.074  1.00  0.00     0.074 A 
ATOM     56  C   UNL     1      16.962   9.879   3.974  1.00  0.00     0.029 A 
ATOM     57  N   UNL     1      15.227   9.714   2.592  1.00  0.00    -0.354 N 
ATOM     58  N   UNL     1      13.098  10.749   0.867  1.00  0.00    -0.248 NA
ATOM     59  C   UNL     1      11.897  12.545  -0.024  1.00  0.00     0.031 C 
ATOM     60  C   UNL     1      16.503  11.168   3.684  1.00  0.00     0.029 A 
ATOM     61  C   UNL     1      15.442  11.067   2.799  1.00  0.00     0.049 A 
ATOM     62  H   UNL     1      14.525   9.335   2.016  1.00  0.00     0.167 HD
ATOM     63  C   UNL     1      13.644  11.939   1.333  1.00  0.00     0.074 A 
ATOM     64  C   UNL     1      12.887  13.013   0.724  1.00  0.00     0.031 C 
ATOM     65  C   UNL     1      14.682  12.125   2.184  1.00  0.00     0.031 A 
BRANCH  52  66
ATOM     66  C   UNL     1      17.211   6.866   4.234  1.00  0.00    -0.014 A 
ATOM     67  C   UNL     1      18.287   6.142   3.691  1.00  0.00     0.009 A 
ATOM     68  C   UNL     1      17.096   6.961   5.628  1.00  0.00     0.009 A 
ATOM     69  C   UNL     1      19.194   5.487   4.526  1.00  0.00     0.001 A 
ATOM     70  C   UNL     1      18.024   6.334   6.462  1.00  0.00     0.001 A 
ATOM     71  C   UNL     1      19.064   5.587   5.910  1.00  0.00     0.000 A 
ENDBRANCH  52  66
BRANCH  53  72
ATOM     72  C   UNL     1      10.160  10.823  -1.618  1.00  0.00    -0.014 A 
ATOM     73  C   UNL     1      10.527  11.541  -2.767  1.00  0.00     0.009 A 
ATOM     74  C   UNL     1       8.797  10.691  -1.309  1.00  0.00     0.009 A 
ATOM     75  C   UNL     1       9.554  12.137  -3.573  1.00  0.00     0.001 A 
ATOM     76  C   UNL     1       7.825  11.263  -2.133  1.00  0.00     0.001 A 
ATOM     77  C   UNL     1       8.204  11.994  -3.257  1.00  0.00     0.000 A 
ENDBRANCH  53  72
BRANCH  65  78
ATOM     78  C   UNL     1      15.093  13.543   2.469  1.00  0.00    -0.014 A 
ATOM     79  C   UNL     1      14.297  14.396   3.248  1.00  0.00     0.009 A 
ATOM     80  C   UNL     1      16.318  14.018   1.976  1.00  0.00     0.009 A 
ATOM     81  C   UNL     1      14.702  15.710   3.494  1.00  0.00     0.001 A 
ATOM     82  C   UNL     1      16.736  15.321   2.249  1.00  0.00     0.001 A 
ATOM     83  C   UNL     1      15.923  16.169   2.999  1.00  0.00     0.000 A 
ENDBRANCH  65  78
ENDBRANCH  39  40
ENDBRANCH  31  34
ENDBRANCH  29  30
ENDBRANCH  28  29
ENDBRANCH   1  28
TORSDOF 14
