REMARK SMILES C[C@@H]1CCC[C@H](C)[N@H+]1Cc1cc2c(cc1Cl)C=C(C(=O)NCCCCNC(=O)c1ccc(-c3c4nc(c(-c5ccccc5)c5ccc([nH]5)c(-c5ccccc5)c5nc(c(-c6ccccc6)c6ccc3[nH]6)C=C5)C=C4)cc1)[C@@H](C(F)(F)F)O2
REMARK SMILES IDX 23 1 22 2 21 3 19 4 20 5 18 7 10 8 11 9 15 10 12 11 14 12
REMARK SMILES IDX 16 13 13 14 82 15 17 16 77 17 9 18 8 19 7 20 6 21 5 22 4 23
REMARK SMILES IDX 2 24 3 26 1 27 78 28 79 29 80 30 81 31 24 32 25 33 26 34
REMARK SMILES IDX 27 35 28 37 29 38 30 39 76 40 31 41 75 42 32 43 33 44 34 45
REMARK SMILES IDX 69 46 35 47 74 48 68 49 70 50 36 51 73 52 67 53 66 54 37 56
REMARK SMILES IDX 59 57 44 58 58 59 45 60 48 61 57 62 71 63 46 64 47 65 56 67
REMARK SMILES IDX 72 68 49 69 38 70 39 71 43 72 40 73 42 74 41 75 60 76 61 77
REMARK SMILES IDX 65 78 62 79 64 80 63 81 50 82 51 83 55 84 52 85 54 86 53 87
REMARK H PARENT 21 6 8 25 26 36 70 55 48 66
REMARK Flexibility Score: inf
ROOT
ATOM      1  C   UNL     1      -8.673   3.210  -0.335  1.00  0.00     0.023 C 
ENDROOT
BRANCH   1   2
ATOM      2  C   UNL     1      -8.087   4.605  -0.530  1.00  0.00     0.116 C 
BRANCH   2   3
ATOM      3  N   UNL     1      -7.396   5.072   0.657  1.00  0.00    -0.352 N 
ATOM      4  C   UNL     1      -6.120   5.380   0.990  1.00  0.00     0.251 C 
ATOM      5  O   UNL     1      -5.966   5.822   2.133  1.00  0.00    -0.270 OA
ATOM      6  H   UNL     1      -8.012   5.196   1.414  1.00  0.00     0.163 HD
BRANCH   4   7
ATOM      7  C   UNL     1      -4.936   5.197   0.105  1.00  0.00     0.067 C 
ATOM      8  C   UNL     1      -0.170   4.322  -1.264  1.00  0.00     0.029 A 
ATOM      9  C   UNL     1      -1.420   3.844  -1.690  1.00  0.00     0.058 A 
ATOM     10  C   UNL     1      -0.147   5.463  -0.443  1.00  0.00     0.050 A 
ATOM     11  C   UNL     1      -2.592   4.354  -1.144  1.00  0.00     0.128 A 
ATOM     12  C   UNL     1      -1.329   5.954   0.127  1.00  0.00     0.033 A 
ATOM     13  Cl  UNL     1       1.314   6.298  -0.052  1.00  0.00    -0.084 Cl
ATOM     14  C   UNL     1      -2.549   5.354  -0.174  1.00  0.00     0.019 A 
ATOM     15  O   UNL     1      -3.758   3.754  -1.528  1.00  0.00    -0.475 OA
ATOM     16  C   UNL     1      -3.761   5.651   0.581  1.00  0.00     0.025 C 
ATOM     17  C   UNL     1      -4.961   4.513  -1.233  1.00  0.00     0.314 C 
BRANCH   8  18
ATOM     18  C   UNL     1       1.061   3.509  -1.612  1.00  0.00     0.301 C 
BRANCH  18  19
ATOM     19  N   UNL     1       1.388   2.392  -0.692  1.00  0.00    -0.327 N 
ATOM     20  C   UNL     1       1.194  -0.079  -0.668  1.00  0.00     0.075 C 
ATOM     21  C   UNL     1       0.444   1.262  -0.695  1.00  0.00     0.181 C 
ATOM     22  C   UNL     1      -0.611   1.298   0.427  1.00  0.00     0.065 C 
ATOM     23  C   UNL     1      -0.025   1.618   1.795  1.00  0.00     0.012 C 
ATOM     24  C   UNL     1       1.905   2.810   0.620  1.00  0.00     0.181 C 
ATOM     25  H   UNL     1       2.205   1.961  -1.124  1.00  0.00     0.348 HD
ATOM     26  C   UNL     1       0.846   2.865   1.734  1.00  0.00     0.065 C 
ATOM     27  C   UNL     1       3.099   1.944   1.046  1.00  0.00     0.075 C 
ENDBRANCH  18  19
ENDBRANCH   8  18
BRANCH  17  28
ATOM     28  C   UNL     1      -5.261   5.509  -2.374  1.00  0.00     0.429 C 
ATOM     29  F   UNL     1      -5.634   4.847  -3.497  1.00  0.00    -0.167 F 
ATOM     30  F   UNL     1      -6.281   6.347  -2.064  1.00  0.00    -0.167 F 
ATOM     31  F   UNL     1      -4.203   6.286  -2.691  1.00  0.00    -0.167 F 
ENDBRANCH  17  28
ENDBRANCH   4   7
ENDBRANCH   2   3
ENDBRANCH   1   2
BRANCH   1  32
ATOM     32  C   UNL     1     -10.062   3.200   0.301  1.00  0.00     0.023 C 
BRANCH  32  33
ATOM     33  C   UNL     1     -11.115   4.025  -0.432  1.00  0.00     0.116 C 
BRANCH  33  34
ATOM     34  N   UNL     1     -11.247   3.714  -1.850  1.00  0.00    -0.352 N 
ATOM     35  C   UNL     1     -12.374   3.830  -2.634  1.00  0.00     0.251 C 
ATOM     36  H   UNL     1     -10.436   3.383  -2.300  1.00  0.00     0.163 HD
ATOM     37  O   UNL     1     -12.373   3.475  -3.806  1.00  0.00    -0.269 OA
BRANCH  35  38
ATOM     38  C   UNL     1     -13.605   4.340  -2.002  1.00  0.00     0.039 A 
ATOM     39  C   UNL     1     -13.570   5.541  -1.292  1.00  0.00     0.014 A 
ATOM     40  C   UNL     1     -14.749   3.539  -2.002  1.00  0.00     0.014 A 
ATOM     41  C   UNL     1     -14.611   5.845  -0.427  1.00  0.00     0.010 A 
ATOM     42  C   UNL     1     -15.832   3.896  -1.197  1.00  0.00     0.010 A 
ATOM     43  C   UNL     1     -15.745   5.016  -0.357  1.00  0.00    -0.014 A 
BRANCH  43  44
ATOM     44  C   UNL     1     -16.811   5.336   0.624  1.00  0.00     0.031 A 
ATOM     45  C   UNL     1     -17.095   4.420   1.784  1.00  0.00     0.074 A 
ATOM     46  C   UNL     1     -17.469   6.504   0.511  1.00  0.00     0.049 A 
ATOM     47  N   UNL     1     -17.959   4.572   2.757  1.00  0.00    -0.248 NA
ATOM     48  C   UNL     1     -16.313   3.176   1.867  1.00  0.00     0.031 C 
ATOM     49  C   UNL     1     -17.257   7.487  -0.554  1.00  0.00     0.029 A 
ATOM     50  N   UNL     1     -18.415   7.082   1.317  1.00  0.00    -0.354 N 
ATOM     51  C   UNL     1     -17.834   3.443   3.556  1.00  0.00     0.074 A 
ATOM     52  C   UNL     1     -16.834   2.598   2.942  1.00  0.00     0.031 C 
ATOM     53  C   UNL     1     -17.997   8.574  -0.298  1.00  0.00     0.029 A 
ATOM     54  C   UNL     1     -18.786   8.338   0.906  1.00  0.00     0.049 A 
ATOM     55  H   UNL     1     -18.791   6.640   2.112  1.00  0.00     0.167 HD
ATOM     56  C   UNL     1     -18.488   3.142   4.704  1.00  0.00     0.031 A 
ATOM     57  C   UNL     1     -19.670   9.207   1.431  1.00  0.00     0.031 A 
ATOM     58  C   UNL     1     -19.484   3.984   5.313  1.00  0.00     0.049 A 
ATOM     59  C   UNL     1     -20.418   8.831   2.674  1.00  0.00     0.074 A 
ATOM     60  C   UNL     1     -20.210   3.758   6.470  1.00  0.00     0.029 A 
ATOM     61  N   UNL     1     -19.890   5.215   4.820  1.00  0.00    -0.354 N 
ATOM     62  N   UNL     1     -20.309   7.746   3.400  1.00  0.00    -0.248 NA
ATOM     63  C   UNL     1     -21.414   9.792   3.165  1.00  0.00     0.031 C 
ATOM     64  C   UNL     1     -21.090   4.829   6.650  1.00  0.00     0.029 A 
ATOM     65  C   UNL     1     -20.869   5.751   5.639  1.00  0.00     0.049 A 
ATOM     66  H   UNL     1     -19.534   5.644   4.008  1.00  0.00     0.167 HD
ATOM     67  C   UNL     1     -21.222   7.890   4.435  1.00  0.00     0.074 A 
ATOM     68  C   UNL     1     -21.858   9.180   4.256  1.00  0.00     0.031 C 
ATOM     69  C   UNL     1     -21.509   7.026   5.438  1.00  0.00     0.031 A 
BRANCH  56  70
ATOM     70  C   UNL     1     -18.162   1.836   5.374  1.00  0.00    -0.014 A 
ATOM     71  C   UNL     1     -19.112   0.801   5.389  1.00  0.00     0.009 A 
ATOM     72  C   UNL     1     -16.946   1.650   6.050  1.00  0.00     0.009 A 
ATOM     73  C   UNL     1     -18.853  -0.390   6.070  1.00  0.00     0.001 A 
ATOM     74  C   UNL     1     -16.680   0.447   6.708  1.00  0.00     0.001 A 
ATOM     75  C   UNL     1     -17.636  -0.569   6.724  1.00  0.00     0.000 A 
ENDBRANCH  56  70
BRANCH  57  76
ATOM     76  C   UNL     1     -19.871  10.516   0.759  1.00  0.00    -0.014 A 
ATOM     77  C   UNL     1     -20.494  10.579  -0.499  1.00  0.00     0.009 A 
ATOM     78  C   UNL     1     -19.358  11.691   1.324  1.00  0.00     0.009 A 
ATOM     79  C   UNL     1     -20.564  11.787  -1.194  1.00  0.00     0.001 A 
ATOM     80  C   UNL     1     -19.455  12.904   0.638  1.00  0.00     0.001 A 
ATOM     81  C   UNL     1     -20.046  12.948  -0.625  1.00  0.00     0.000 A 
ENDBRANCH  57  76
BRANCH  69  82
ATOM     82  C   UNL     1     -22.563   7.435   6.426  1.00  0.00    -0.014 A 
ATOM     83  C   UNL     1     -22.199   7.769   7.740  1.00  0.00     0.009 A 
ATOM     84  C   UNL     1     -23.923   7.404   6.082  1.00  0.00     0.009 A 
ATOM     85  C   UNL     1     -23.177   8.055   8.694  1.00  0.00     0.001 A 
ATOM     86  C   UNL     1     -24.898   7.714   7.032  1.00  0.00     0.001 A 
ATOM     87  C   UNL     1     -24.524   8.031   8.338  1.00  0.00     0.000 A 
ENDBRANCH  69  82
ENDBRANCH  43  44
ENDBRANCH  35  38
ENDBRANCH  33  34
ENDBRANCH  32  33
ENDBRANCH   1  32
TORSDOF 14
