REMARK SMILES C[NH+]1CCC([N@@H+](C)Cc2ccc(C(=O)NCCCCNC(=O)c3ccc(-c4c5nc(c(-c6ccccc6)c6ccc([nH]6)c(-c6ccccc6)c6nc(c(-c7ccccc7)c7ccc4[nH]7)C=C6)C=C5)cc3)cn2)CC1
REMARK SMILES IDX 17 1 16 2 15 3 13 4 14 5 12 7 9 8 10 9 72 10 11 11 71 12
REMARK SMILES IDX 8 13 6 14 7 15 5 17 1 18 2 19 3 20 74 21 4 23 73 24 18 25
REMARK SMILES IDX 19 26 20 27 21 28 22 30 23 31 24 32 70 33 25 34 69 35 26 36
REMARK SMILES IDX 27 37 28 38 63 39 29 40 68 41 62 42 64 43 30 44 67 45 61 46
REMARK SMILES IDX 60 47 31 49 53 50 38 51 52 52 39 53 42 54 51 55 65 56 40 57
REMARK SMILES IDX 41 58 50 60 66 61 43 62 32 63 33 64 37 65 34 66 36 67 35 68
REMARK SMILES IDX 54 69 55 70 59 71 56 72 58 73 57 74 44 75 45 76 49 77 46 78
REMARK SMILES IDX 48 79 47 80
REMARK H PARENT 15 6 6 16 2 22 20 29 64 48 42 59
REMARK Flexibility Score: inf
ROOT
ATOM      1  C   UNL     1      -1.017   3.411   6.129  1.00  0.00     0.023 C 
ENDROOT
BRANCH   1   2
ATOM      2  C   UNL     1      -1.138   3.761   4.645  1.00  0.00     0.116 C 
BRANCH   2   3
ATOM      3  N   UNL     1      -0.166   4.772   4.287  1.00  0.00    -0.352 N 
ATOM      4  C   UNL     1       1.120   4.695   3.817  1.00  0.00     0.252 C 
ATOM      5  O   UNL     1       1.711   5.760   3.633  1.00  0.00    -0.269 OA
ATOM      6  H   UNL     1      -0.491   5.694   4.404  1.00  0.00     0.163 HD
BRANCH   4   7
ATOM      7  C   UNL     1       1.799   3.425   3.454  1.00  0.00     0.058 A 
ATOM      8  C   UNL     1       3.061   1.225   2.334  1.00  0.00     0.095 A 
ATOM      9  C   UNL     1       2.110   1.031   3.332  1.00  0.00     0.030 A 
ATOM     10  N   UNL     1       3.487   2.464   1.989  1.00  0.00    -0.255 NA
ATOM     11  C   UNL     1       1.489   2.145   3.905  1.00  0.00     0.017 A 
ATOM     12  C   UNL     1       2.844   3.523   2.541  1.00  0.00     0.125 A 
BRANCH   8  13
ATOM     13  C   UNL     1       3.570   0.046   1.522  1.00  0.00     0.319 C 
BRANCH  13  14
ATOM     14  N   UNL     1       3.260   0.032   0.074  1.00  0.00    -0.330 N 
ATOM     15  C   UNL     1       4.045   1.023  -0.662  1.00  0.00     0.333 C 
ATOM     16  H   UNL     1       3.561  -0.903  -0.200  1.00  0.00     0.348 HD
BRANCH  14  17
ATOM     17  C   UNL     1       1.838   0.003  -0.340  1.00  0.00     0.195 C 
ATOM     18  C   UNL     1      -2.479  -0.097  -0.238  1.00  0.00     0.332 C 
ATOM     19  N   UNL     1      -1.060  -0.010   0.101  1.00  0.00    -0.337 N 
ATOM     20  C   UNL     1      -0.435   1.129  -0.585  1.00  0.00     0.268 C 
ATOM     21  C   UNL     1      -0.362  -1.254  -0.244  1.00  0.00     0.268 C 
ATOM     22  H   UNL     1      -0.984   0.133   1.108  1.00  0.00     0.347 HD
ATOM     23  C   UNL     1       1.019   1.294  -0.140  1.00  0.00     0.126 C 
ATOM     24  C   UNL     1       1.087  -1.206   0.246  1.00  0.00     0.126 C 
ENDBRANCH  14  17
ENDBRANCH  13  14
ENDBRANCH   8  13
ENDBRANCH   4   7
ENDBRANCH   2   3
ENDBRANCH   1   2
BRANCH   1  25
ATOM     25  C   UNL     1      -1.597   4.472   7.071  1.00  0.00     0.023 C 
BRANCH  25  26
ATOM     26  C   UNL     1      -3.089   4.742   6.902  1.00  0.00     0.116 C 
BRANCH  26  27
ATOM     27  N   UNL     1      -3.904   3.543   7.006  1.00  0.00    -0.352 N 
ATOM     28  C   UNL     1      -5.172   3.399   7.515  1.00  0.00     0.251 C 
ATOM     29  H   UNL     1      -3.490   2.719   6.663  1.00  0.00     0.163 HD
ATOM     30  O   UNL     1      -5.671   2.287   7.621  1.00  0.00    -0.269 OA
BRANCH  28  31
ATOM     31  C   UNL     1      -5.914   4.592   7.973  1.00  0.00     0.039 A 
ATOM     32  C   UNL     1      -6.538   4.547   9.222  1.00  0.00     0.014 A 
ATOM     33  C   UNL     1      -5.978   5.749   7.193  1.00  0.00     0.014 A 
ATOM     34  C   UNL     1      -7.169   5.688   9.718  1.00  0.00     0.010 A 
ATOM     35  C   UNL     1      -6.548   6.906   7.717  1.00  0.00     0.010 A 
ATOM     36  C   UNL     1      -7.144   6.887   8.987  1.00  0.00    -0.014 A 
BRANCH  36  37
ATOM     37  C   UNL     1      -7.706   8.133   9.563  1.00  0.00     0.031 A 
ATOM     38  C   UNL     1      -8.902   8.796   8.941  1.00  0.00     0.074 A 
ATOM     39  C   UNL     1      -7.102   8.693  10.630  1.00  0.00     0.049 A 
ATOM     40  N   UNL     1      -9.533   9.879   9.320  1.00  0.00    -0.248 NA
ATOM     41  C   UNL     1      -9.447   8.178   7.722  1.00  0.00     0.031 C 
ATOM     42  C   UNL     1      -5.900   8.178  11.290  1.00  0.00     0.029 A 
ATOM     43  N   UNL     1      -7.420   9.816  11.349  1.00  0.00    -0.354 N 
ATOM     44  C   UNL     1     -10.542  10.075   8.386  1.00  0.00     0.074 A 
ATOM     45  C   UNL     1     -10.406   9.031   7.393  1.00  0.00     0.031 C 
ATOM     46  C   UNL     1      -5.606   8.961  12.340  1.00  0.00     0.029 A 
ATOM     47  C   UNL     1      -6.575  10.049  12.407  1.00  0.00     0.049 A 
ATOM     48  H   UNL     1      -8.181  10.401  11.128  1.00  0.00     0.167 HD
ATOM     49  C   UNL     1     -11.507  11.025   8.367  1.00  0.00     0.031 A 
ATOM     50  C   UNL     1      -6.584  11.025  13.332  1.00  0.00     0.031 A 
ATOM     51  C   UNL     1     -11.642  12.063   9.355  1.00  0.00     0.049 A 
ATOM     52  C   UNL     1      -7.665  12.067  13.289  1.00  0.00     0.074 A 
ATOM     53  C   UNL     1     -12.620  13.037   9.456  1.00  0.00     0.029 A 
ATOM     54  N   UNL     1     -10.767  12.265  10.412  1.00  0.00    -0.354 N 
ATOM     55  N   UNL     1      -8.662  12.189  12.446  1.00  0.00    -0.248 NA
ATOM     56  C   UNL     1      -7.630  13.096  14.337  1.00  0.00     0.031 C 
ATOM     57  C   UNL     1     -12.308  13.860  10.544  1.00  0.00     0.029 A 
ATOM     58  C   UNL     1     -11.168  13.364  11.154  1.00  0.00     0.049 A 
ATOM     59  H   UNL     1      -9.978  11.709  10.606  1.00  0.00     0.167 HD
ATOM     60  C   UNL     1      -9.384  13.296  12.873  1.00  0.00     0.074 A 
ATOM     61  C   UNL     1      -8.725  13.791  14.065  1.00  0.00     0.031 C 
ATOM     62  C   UNL     1     -10.492  13.854  12.328  1.00  0.00     0.031 A 
BRANCH  49  63
ATOM     63  C   UNL     1     -12.492  10.985   7.232  1.00  0.00    -0.014 A 
ATOM     64  C   UNL     1     -13.452   9.964   7.138  1.00  0.00     0.009 A 
ATOM     65  C   UNL     1     -12.483  11.998   6.261  1.00  0.00     0.009 A 
ATOM     66  C   UNL     1     -14.357   9.938   6.075  1.00  0.00     0.001 A 
ATOM     67  C   UNL     1     -13.408  11.986   5.215  1.00  0.00     0.001 A 
ATOM     68  C   UNL     1     -14.337  10.951   5.117  1.00  0.00     0.000 A 
ENDBRANCH  49  63
BRANCH  50  69
ATOM     69  C   UNL     1      -5.548  11.051  14.397  1.00  0.00    -0.014 A 
ATOM     70  C   UNL     1      -5.887  10.754  15.727  1.00  0.00     0.009 A 
ATOM     71  C   UNL     1      -4.217  11.377  14.092  1.00  0.00     0.009 A 
ATOM     72  C   UNL     1      -4.920  10.812  16.733  1.00  0.00     0.001 A 
ATOM     73  C   UNL     1      -3.247  11.405  15.096  1.00  0.00     0.001 A 
ATOM     74  C   UNL     1      -3.601  11.132  16.417  1.00  0.00     0.000 A 
ENDBRANCH  50  69
BRANCH  62  75
ATOM     75  C   UNL     1     -11.065  15.052  13.031  1.00  0.00    -0.014 A 
ATOM     76  C   UNL     1     -10.408  16.292  13.011  1.00  0.00     0.009 A 
ATOM     77  C   UNL     1     -12.285  14.940  13.716  1.00  0.00     0.009 A 
ATOM     78  C   UNL     1     -10.938  17.384  13.700  1.00  0.00     0.001 A 
ATOM     79  C   UNL     1     -12.829  16.042  14.377  1.00  0.00     0.001 A 
ATOM     80  C   UNL     1     -12.149  17.259  14.380  1.00  0.00     0.000 A 
ENDBRANCH  62  75
ENDBRANCH  36  37
ENDBRANCH  28  31
ENDBRANCH  26  27
ENDBRANCH  25  26
ENDBRANCH   1  25
TORSDOF 14
