REMARK SMILES C=C(C)CN(CC)C(=O)C[N@H+]1CC[C@@H](C(=O)NCCCCNC(=O)c2ccc(-c3c4nc(c(-c5ccccc5)c5ccc([nH]5)c(-c5ccccc5)c5nc(c(-c6ccccc6)c6ccc3[nH]6)C=C5)C=C4)cc2)[C@@H]1C
REMARK SMILES IDX 18 1 17 2 15 3 16 4 14 6 11 7 12 8 73 9 13 11 74 12 10 13
REMARK SMILES IDX 8 14 9 15 5 16 4 17 2 18 1 19 3 20 6 21 7 22 19 23 20 24
REMARK SMILES IDX 21 25 22 26 23 27 24 29 25 30 26 31 72 32 27 33 71 34 28 35
REMARK SMILES IDX 29 36 30 37 65 38 31 39 70 40 64 41 66 42 32 43 69 44 63 45
REMARK SMILES IDX 62 46 33 48 55 49 40 50 54 51 41 52 44 53 53 54 67 55 42 56
REMARK SMILES IDX 43 57 52 59 68 60 45 61 34 62 35 63 39 64 36 65 38 66 37 67
REMARK SMILES IDX 56 68 57 69 61 70 58 71 60 72 59 73 46 74 47 75 51 76 48 77
REMARK SMILES IDX 50 78 49 79
REMARK H PARENT 17 5 11 10 22 28 66 47 44 58
REMARK Flexibility Score: inf
ROOT
ATOM      1  C   UNL     1       3.735   0.282   7.316  1.00  0.00     0.116 C 
ENDROOT
BRANCH   1   2
ATOM      2  N   UNL     1       4.726  -0.706   7.668  1.00  0.00    -0.356 N 
ATOM      3  C   UNL     1       5.406  -1.606   6.910  1.00  0.00     0.229 C 
ATOM      4  O   UNL     1       6.247  -2.290   7.503  1.00  0.00    -0.275 OA
ATOM      5  H   UNL     1       4.950  -0.732   8.626  1.00  0.00     0.163 HD
BRANCH   3   6
ATOM      6  C   UNL     1       5.211  -1.794   5.407  1.00  0.00     0.142 C 
ATOM      7  N   UNL     1       3.450  -1.357   3.752  1.00  0.00    -0.324 N 
ATOM      8  C   UNL     1       4.741  -0.827   3.301  1.00  0.00     0.263 C 
ATOM      9  C   UNL     1       3.802  -2.198   4.940  1.00  0.00     0.194 C 
ATOM     10  H   UNL     1       2.994  -1.872   2.998  1.00  0.00     0.348 HD
ATOM     11  C   UNL     1       5.598  -0.616   4.537  1.00  0.00     0.081 C 
ATOM     12  C   UNL     1       3.775  -3.668   4.508  1.00  0.00     0.076 C 
BRANCH   7  13
ATOM     13  C   UNL     1       2.453  -0.324   4.110  1.00  0.00     0.364 C 
BRANCH  13  14
ATOM     14  C   UNL     1       1.484   0.147   3.025  1.00  0.00     0.278 C 
ATOM     15  O   UNL     1       0.386  -0.426   2.965  1.00  0.00    -0.268 OA
BRANCH  14  16
ATOM     16  N   UNL     1       1.738   1.296   2.264  1.00  0.00    -0.334 N 
BRANCH  16  17
ATOM     17  C   UNL     1       0.609   1.823   1.491  1.00  0.00     0.149 C 
BRANCH  17  18
ATOM     18  C   UNL     1       0.127   0.867   0.420  1.00  0.00    -0.061 C 
ATOM     19  C   UNL     1       0.923   0.062  -0.305  1.00  0.00     0.009 C 
ATOM     20  C   UNL     1      -1.370   0.805   0.285  1.00  0.00     0.041 C 
ENDBRANCH  17  18
ENDBRANCH  16  17
BRANCH  16  21
ATOM     21  C   UNL     1       3.010   2.005   2.097  1.00  0.00     0.116 C 
ATOM     22  C   UNL     1       3.528   2.769   3.308  1.00  0.00     0.027 C 
ENDBRANCH  16  21
ENDBRANCH  14  16
ENDBRANCH  13  14
ENDBRANCH   7  13
ENDBRANCH   3   6
ENDBRANCH   1   2
BRANCH   1  23
ATOM     23  C   UNL     1       2.309  -0.174   7.620  1.00  0.00     0.023 C 
BRANCH  23  24
ATOM     24  C   UNL     1       1.841   0.136   9.038  1.00  0.00     0.023 C 
BRANCH  24  25
ATOM     25  C   UNL     1       1.735   1.621   9.355  1.00  0.00     0.116 C 
BRANCH  25  26
ATOM     26  N   UNL     1       0.768   2.333   8.533  1.00  0.00    -0.352 N 
ATOM     27  C   UNL     1      -0.039   3.390   8.896  1.00  0.00     0.251 C 
ATOM     28  H   UNL     1       0.680   2.022   7.603  1.00  0.00     0.163 HD
ATOM     29  O   UNL     1      -0.865   3.843   8.122  1.00  0.00    -0.269 OA
BRANCH  27  30
ATOM     30  C   UNL     1       0.083   3.937  10.265  1.00  0.00     0.039 A 
ATOM     31  C   UNL     1      -1.072   4.083  11.035  1.00  0.00     0.014 A 
ATOM     32  C   UNL     1       1.336   4.239  10.803  1.00  0.00     0.014 A 
ATOM     33  C   UNL     1      -0.961   4.470  12.371  1.00  0.00     0.010 A 
ATOM     34  C   UNL     1       1.451   4.536  12.156  1.00  0.00     0.010 A 
ATOM     35  C   UNL     1       0.303   4.663  12.953  1.00  0.00    -0.014 A 
BRANCH  35  36
ATOM     36  C   UNL     1       0.441   5.010  14.389  1.00  0.00     0.031 A 
ATOM     37  C   UNL     1       1.050   6.325  14.793  1.00  0.00     0.074 A 
ATOM     38  C   UNL     1       0.069   4.121  15.331  1.00  0.00     0.049 A 
ATOM     39  N   UNL     1       1.270   6.798  15.993  1.00  0.00    -0.248 NA
ATOM     40  C   UNL     1       1.501   7.213  13.708  1.00  0.00     0.031 C 
ATOM     41  C   UNL     1      -0.477   2.786  15.073  1.00  0.00     0.029 A 
ATOM     42  N   UNL     1       0.097   4.207  16.701  1.00  0.00    -0.354 N 
ATOM     43  C   UNL     1       1.900   8.022  15.806  1.00  0.00     0.074 A 
ATOM     44  C   UNL     1       2.078   8.195  14.382  1.00  0.00     0.031 C 
ATOM     45  C   UNL     1      -0.763   2.194  16.244  1.00  0.00     0.029 A 
ATOM     46  C   UNL     1      -0.391   3.090  17.334  1.00  0.00     0.049 A 
ATOM     47  H   UNL     1       0.435   4.996  17.184  1.00  0.00     0.167 HD
ATOM     48  C   UNL     1       2.276   8.934  16.734  1.00  0.00     0.031 A 
ATOM     49  C   UNL     1      -0.526   2.818  18.646  1.00  0.00     0.031 A 
ATOM     50  C   UNL     1       2.076   8.774  18.149  1.00  0.00     0.049 A 
ATOM     51  C   UNL     1      -0.120   3.857  19.655  1.00  0.00     0.074 A 
ATOM     52  C   UNL     1       2.349   9.675  19.164  1.00  0.00     0.029 A 
ATOM     53  N   UNL     1       1.556   7.639  18.748  1.00  0.00    -0.354 N 
ATOM     54  N   UNL     1       0.386   5.050  19.456  1.00  0.00    -0.248 NA
ATOM     55  C   UNL     1      -0.322   3.515  21.070  1.00  0.00     0.031 C 
ATOM     56  C   UNL     1       2.042   9.063  20.383  1.00  0.00     0.029 A 
ATOM     57  C   UNL     1       1.525   7.804  20.123  1.00  0.00     0.049 A 
ATOM     58  H   UNL     1       1.253   6.834  18.269  1.00  0.00     0.167 HD
ATOM     59  C   UNL     1       0.539   5.610  20.718  1.00  0.00     0.074 A 
ATOM     60  C   UNL     1       0.051   4.636  21.672  1.00  0.00     0.031 C 
ATOM     61  C   UNL     1       1.040   6.823  21.058  1.00  0.00     0.031 A 
BRANCH  48  62
ATOM     62  C   UNL     1       2.946  10.187  16.244  1.00  0.00    -0.014 A 
ATOM     63  C   UNL     1       2.233  11.165  15.532  1.00  0.00     0.009 A 
ATOM     64  C   UNL     1       4.302  10.410  16.531  1.00  0.00     0.009 A 
ATOM     65  C   UNL     1       2.873  12.323  15.085  1.00  0.00     0.001 A 
ATOM     66  C   UNL     1       4.931  11.583  16.110  1.00  0.00     0.001 A 
ATOM     67  C   UNL     1       4.220  12.533  15.380  1.00  0.00     0.000 A 
ENDBRANCH  48  62
BRANCH  49  68
ATOM     68  C   UNL     1      -1.088   1.514  19.086  1.00  0.00    -0.014 A 
ATOM     69  C   UNL     1      -2.358   1.448  19.680  1.00  0.00     0.009 A 
ATOM     70  C   UNL     1      -0.350   0.331  18.933  1.00  0.00     0.009 A 
ATOM     71  C   UNL     1      -2.862   0.230  20.142  1.00  0.00     0.001 A 
ATOM     72  C   UNL     1      -0.869  -0.890  19.368  1.00  0.00     0.001 A 
ATOM     73  C   UNL     1      -2.119  -0.938  19.983  1.00  0.00     0.000 A 
ENDBRANCH  49  68
BRANCH  61  74
ATOM     74  C   UNL     1       1.057   7.173  22.519  1.00  0.00    -0.014 A 
ATOM     75  C   UNL     1       1.947   6.550  23.408  1.00  0.00     0.009 A 
ATOM     76  C   UNL     1       0.189   8.163  23.006  1.00  0.00     0.009 A 
ATOM     77  C   UNL     1       1.940   6.885  24.763  1.00  0.00     0.001 A 
ATOM     78  C   UNL     1       0.206   8.518  24.355  1.00  0.00     0.001 A 
ATOM     79  C   UNL     1       1.074   7.871  25.234  1.00  0.00     0.000 A 
ENDBRANCH  61  74
ENDBRANCH  35  36
ENDBRANCH  27  30
ENDBRANCH  25  26
ENDBRANCH  24  25
ENDBRANCH  23  24
ENDBRANCH   1  23
TORSDOF 17
