REMARK SMILES O=C(NCCCCNC(=O)c1ccc(-c2c3nc(c(-c4ccccc4)c4ccc([nH]4)c(-c4ccccc4)c4nc(c(-c5ccccc5)c5ccc2[nH]5)C=C4)C=C3)cc1)C1=Cc2cc(Cl)cc(-c3ccccc3)c2O[C@@H]1C(F)(F)F
REMARK SMILES IDX 6 1 5 2 4 3 3 4 1 5 2 6 59 8 60 9 75 10 61 11 74 12 62 13
REMARK SMILES IDX 73 14 63 15 66 16 64 17 65 18 76 19 77 20 78 21 79 22 67 23
REMARK SMILES IDX 68 24 72 25 69 26 71 27 70 28 7 29 8 30 9 31 10 33 11 34
REMARK SMILES IDX 12 35 58 36 13 37 57 38 14 39 15 40 16 41 51 42 17 43 56 44
REMARK SMILES IDX 50 45 52 46 18 47 55 48 49 49 48 50 19 52 41 53 26 54 40 55
REMARK SMILES IDX 27 56 30 57 39 58 53 59 28 60 29 61 38 63 54 64 31 65 20 66
REMARK SMILES IDX 21 67 25 68 22 69 24 70 23 71 42 72 43 73 47 74 44 75 46 76
REMARK SMILES IDX 45 77 32 78 33 79 37 80 34 81 36 82 35 83
REMARK H PARENT 3 7 8 32 52 51 30 62
REMARK Flexibility Score: inf
ROOT
ATOM      1  C   UNL     1       4.250  -4.401   1.354  1.00  0.00     0.023 C 
ENDROOT
BRANCH   1   2
ATOM      2  C   UNL     1       4.210  -2.881   1.578  1.00  0.00     0.023 C 
BRANCH   2   3
ATOM      3  C   UNL     1       3.381  -2.109   0.544  1.00  0.00     0.116 C 
BRANCH   3   4
ATOM      4  N   UNL     1       2.405  -1.191   1.142  1.00  0.00    -0.352 N 
ATOM      5  O   UNL     1       1.104   0.644   1.302  1.00  0.00    -0.270 OA
ATOM      6  C   UNL     1       2.172   0.151   0.959  1.00  0.00     0.251 C 
ATOM      7  H   UNL     1       1.804  -1.616   1.796  1.00  0.00     0.163 HD
BRANCH   6   8
ATOM      8  C   UNL     1       3.169   0.948   0.219  1.00  0.00     0.067 C 
ATOM      9  C   UNL     1       4.412   1.176   0.666  1.00  0.00     0.025 C 
ATOM     10  C   UNL     1       2.851   1.300  -1.200  1.00  0.00     0.314 C 
ATOM     11  C   UNL     1       5.405   0.668  -0.308  1.00  0.00     0.019 A 
ATOM     12  O   UNL     1       3.730   0.590  -2.099  1.00  0.00    -0.475 OA
ATOM     13  C   UNL     1       6.647   0.228   0.168  1.00  0.00     0.032 A 
ATOM     14  C   UNL     1       4.984   0.283  -1.607  1.00  0.00     0.135 A 
ATOM     15  C   UNL     1       7.440  -0.605  -0.622  1.00  0.00     0.042 A 
ATOM     16  C   UNL     1       5.761  -0.601  -2.382  1.00  0.00     0.026 A 
ATOM     17  Cl  UNL     1       8.907  -1.238   0.016  1.00  0.00    -0.084 Cl
ATOM     18  C   UNL     1       7.002  -1.023  -1.878  1.00  0.00     0.033 A 
BRANCH  10  19
ATOM     19  C   UNL     1       2.906   2.831  -1.419  1.00  0.00     0.429 C 
ATOM     20  F   UNL     1       2.530   3.165  -2.676  1.00  0.00    -0.167 F 
ATOM     21  F   UNL     1       2.073   3.488  -0.575  1.00  0.00    -0.167 F 
ATOM     22  F   UNL     1       4.145   3.347  -1.228  1.00  0.00    -0.167 F 
ENDBRANCH  10  19
BRANCH  16  23
ATOM     23  C   UNL     1       5.232  -1.250  -3.590  1.00  0.00    -0.015 A 
ATOM     24  C   UNL     1       4.437  -2.405  -3.469  1.00  0.00     0.009 A 
ATOM     25  C   UNL     1       5.542  -0.785  -4.871  1.00  0.00     0.009 A 
ATOM     26  C   UNL     1       3.996  -3.100  -4.595  1.00  0.00     0.001 A 
ATOM     27  C   UNL     1       5.098  -1.479  -6.001  1.00  0.00     0.001 A 
ATOM     28  C   UNL     1       4.337  -2.640  -5.862  1.00  0.00     0.000 A 
ENDBRANCH  16  23
ENDBRANCH   6   8
ENDBRANCH   3   4
ENDBRANCH   2   3
ENDBRANCH   1   2
BRANCH   1  29
ATOM     29  C   UNL     1       4.783  -4.888   0.007  1.00  0.00     0.116 C 
BRANCH  29  30
ATOM     30  N   UNL     1       6.207  -4.697  -0.195  1.00  0.00    -0.352 N 
ATOM     31  C   UNL     1       7.052  -5.476  -0.965  1.00  0.00     0.251 C 
ATOM     32  H   UNL     1       6.617  -3.929   0.265  1.00  0.00     0.163 HD
ATOM     33  O   UNL     1       8.259  -5.247  -1.008  1.00  0.00    -0.269 OA
BRANCH  31  34
ATOM     34  C   UNL     1       6.494  -6.635  -1.698  1.00  0.00     0.039 A 
ATOM     35  C   UNL     1       7.004  -7.911  -1.443  1.00  0.00     0.014 A 
ATOM     36  C   UNL     1       5.412  -6.472  -2.567  1.00  0.00     0.014 A 
ATOM     37  C   UNL     1       6.357  -9.033  -1.973  1.00  0.00     0.010 A 
ATOM     38  C   UNL     1       4.736  -7.592  -3.050  1.00  0.00     0.010 A 
ATOM     39  C   UNL     1       5.184  -8.884  -2.732  1.00  0.00    -0.014 A 
BRANCH  39  40
ATOM     40  C   UNL     1       4.370 -10.066  -3.126  1.00  0.00     0.031 A 
ATOM     41  C   UNL     1       4.192 -10.438  -4.572  1.00  0.00     0.074 A 
ATOM     42  C   UNL     1       3.716 -10.763  -2.174  1.00  0.00     0.049 A 
ATOM     43  N   UNL     1       3.487 -11.413  -5.090  1.00  0.00    -0.248 NA
ATOM     44  C   UNL     1       4.875  -9.595  -5.564  1.00  0.00     0.031 C 
ATOM     45  C   UNL     1       3.753 -10.477  -0.738  1.00  0.00     0.029 A 
ATOM     46  N   UNL     1       2.883 -11.851  -2.272  1.00  0.00    -0.354 N 
ATOM     47  C   UNL     1       3.634 -11.297  -6.466  1.00  0.00     0.074 A 
ATOM     48  C   UNL     1       4.459 -10.131  -6.704  1.00  0.00     0.031 C 
ATOM     49  C   UNL     1       2.998 -11.378  -0.089  1.00  0.00     0.029 A 
ATOM     50  C   UNL     1       2.397 -12.285  -1.062  1.00  0.00     0.049 A 
ATOM     51  H   UNL     1       2.655 -12.279  -3.129  1.00  0.00     0.167 HD
ATOM     52  C   UNL     1       3.143 -12.097  -7.443  1.00  0.00     0.031 A 
ATOM     53  C   UNL     1       1.562 -13.299  -0.763  1.00  0.00     0.031 A 
ATOM     54  C   UNL     1       2.328 -13.261  -7.213  1.00  0.00     0.049 A 
ATOM     55  C   UNL     1       1.031 -14.171  -1.867  1.00  0.00     0.074 A 
ATOM     56  C   UNL     1       1.838 -14.166  -8.140  1.00  0.00     0.029 A 
ATOM     57  N   UNL     1       1.879 -13.679  -5.971  1.00  0.00    -0.354 N 
ATOM     58  N   UNL     1       1.253 -14.097  -3.156  1.00  0.00    -0.248 NA
ATOM     59  C   UNL     1       0.146 -15.276  -1.470  1.00  0.00     0.031 C 
ATOM     60  C   UNL     1       1.056 -15.107  -7.463  1.00  0.00     0.029 A 
ATOM     61  C   UNL     1       1.102 -14.817  -6.110  1.00  0.00     0.049 A 
ATOM     62  H   UNL     1       2.083 -13.235  -5.117  1.00  0.00     0.167 HD
ATOM     63  C   UNL     1       0.566 -15.164  -3.719  1.00  0.00     0.074 A 
ATOM     64  C   UNL     1      -0.073 -15.875  -2.632  1.00  0.00     0.031 C 
ATOM     65  C   UNL     1       0.478 -15.523  -5.022  1.00  0.00     0.031 A 
BRANCH  52  66
ATOM     66  C   UNL     1       3.476 -11.740  -8.864  1.00  0.00    -0.014 A 
ATOM     67  C   UNL     1       4.772 -11.922  -9.371  1.00  0.00     0.009 A 
ATOM     68  C   UNL     1       2.470 -11.271  -9.723  1.00  0.00     0.009 A 
ATOM     69  C   UNL     1       5.062 -11.611 -10.701  1.00  0.00     0.001 A 
ATOM     70  C   UNL     1       2.756 -10.985 -11.059  1.00  0.00     0.001 A 
ATOM     71  C   UNL     1       4.053 -11.148 -11.545  1.00  0.00     0.000 A 
ENDBRANCH  52  66
BRANCH  53  72
ATOM     72  C   UNL     1       1.189 -13.567   0.650  1.00  0.00    -0.014 A 
ATOM     73  C   UNL     1       1.690 -14.697   1.315  1.00  0.00     0.009 A 
ATOM     74  C   UNL     1       0.319 -12.706   1.336  1.00  0.00     0.009 A 
ATOM     75  C   UNL     1       1.303 -14.975   2.628  1.00  0.00     0.001 A 
ATOM     76  C   UNL     1      -0.044 -12.972   2.658  1.00  0.00     0.001 A 
ATOM     77  C   UNL     1       0.439 -14.111   3.299  1.00  0.00     0.000 A 
ENDBRANCH  53  72
BRANCH  65  78
ATOM     78  C   UNL     1      -0.300 -16.767  -5.344  1.00  0.00    -0.014 A 
ATOM     79  C   UNL     1      -1.702 -16.788  -5.288  1.00  0.00     0.009 A 
ATOM     80  C   UNL     1       0.383 -17.924  -5.754  1.00  0.00     0.009 A 
ATOM     81  C   UNL     1      -2.403 -17.952  -5.610  1.00  0.00     0.001 A 
ATOM     82  C   UNL     1      -0.322 -19.077  -6.100  1.00  0.00     0.001 A 
ATOM     83  C   UNL     1      -1.713 -19.093  -6.020  1.00  0.00     0.000 A 
ENDBRANCH  65  78
ENDBRANCH  39  40
ENDBRANCH  31  34
ENDBRANCH  29  30
ENDBRANCH   1  29
TORSDOF 13
