REMARK SMILES C[C@@H]1CN(S(=O)(=O)c2ccc(Cl)c(C(=O)NCCCCNC(=O)c3ccc(-c4c5nc(c(-c6ccccc6)c6ccc([nH]6)c(-c6ccccc6)c6nc(c(-c7ccccc7)c7ccc4[nH]7)C=C6)C=C5)cc3)c2Cl)C[C@H]1C
REMARK SMILES IDX 18 1 17 2 16 3 14 4 15 5 13 7 8 8 9 9 72 10 10 11 73 12
REMARK SMILES IDX 11 13 12 14 5 15 6 16 7 17 4 18 1 19 2 20 3 21 75 22 74 23
REMARK SMILES IDX 76 24 19 25 20 26 21 27 22 28 23 30 24 31 25 32 71 33 26 34
REMARK SMILES IDX 70 35 27 36 28 37 29 38 64 39 30 40 69 41 63 42 65 43 31 44
REMARK SMILES IDX 68 45 62 46 61 47 32 49 54 50 39 51 53 52 40 53 43 54 52 55
REMARK SMILES IDX 66 56 41 57 42 58 51 60 67 61 44 62 33 63 34 64 38 65 35 66
REMARK SMILES IDX 37 67 36 68 55 69 56 70 60 71 57 72 59 73 58 74 45 75 46 76
REMARK SMILES IDX 50 77 47 78 49 79 48 80
REMARK H PARENT 16 6 21 29 65 48 43 59
REMARK Flexibility Score: inf
ROOT
ATOM      1  C   UNL     1      -7.072   5.932  -4.948  1.00  0.00     0.023 C 
ENDROOT
BRANCH   1   2
ATOM      2  C   UNL     1      -7.251   4.659  -4.107  1.00  0.00     0.116 C 
BRANCH   2   3
ATOM      3  N   UNL     1      -6.990   3.501  -4.936  1.00  0.00    -0.352 N 
ATOM      4  C   UNL     1      -5.840   2.826  -5.254  1.00  0.00     0.254 C 
ATOM      5  O   UNL     1      -5.867   2.186  -6.309  1.00  0.00    -0.269 OA
ATOM      6  H   UNL     1      -7.798   3.123  -5.353  1.00  0.00     0.163 HD
BRANCH   4   7
ATOM      7  C   UNL     1      -4.588   2.748  -4.440  1.00  0.00     0.078 A 
ATOM      8  C   UNL     1      -2.670   1.295  -3.928  1.00  0.00     0.102 A 
ATOM      9  C   UNL     1      -1.918   2.428  -3.602  1.00  0.00     0.025 A 
ATOM     10  C   UNL     1      -4.023   1.440  -4.280  1.00  0.00     0.075 A 
ATOM     11  C   UNL     1      -2.496   3.680  -3.605  1.00  0.00     0.023 A 
ATOM     12  Cl  UNL     1      -5.056   0.043  -4.390  1.00  0.00    -0.082 Cl
ATOM     13  C   UNL     1      -3.793   3.855  -4.091  1.00  0.00     0.055 A 
ATOM     14  Cl  UNL     1      -4.148   5.515  -4.322  1.00  0.00    -0.083 Cl
BRANCH   8  15
ATOM     15  S   UNL     1      -1.713  -0.193  -4.166  1.00  0.00     0.244 S 
ATOM     16  O   UNL     1      -0.391   0.234  -4.585  1.00  0.00    -0.207 OA
ATOM     17  O   UNL     1      -2.443  -1.137  -4.981  1.00  0.00    -0.207 OA
BRANCH  15  18
ATOM     18  N   UNL     1      -1.526  -0.876  -2.610  1.00  0.00    -0.197 NA
ATOM     19  C   UNL     1       1.062  -0.320   0.051  1.00  0.00     0.009 C 
ATOM     20  C   UNL     1       0.481  -0.712  -1.299  1.00  0.00     0.005 C 
ATOM     21  C   UNL     1      -0.867  -0.053  -1.559  1.00  0.00     0.106 C 
ATOM     22  C   UNL     1       0.132  -2.191  -1.435  1.00  0.00     0.005 C 
ATOM     23  C   UNL     1      -0.794  -2.192  -2.656  1.00  0.00     0.106 C 
ATOM     24  C   UNL     1       1.353  -3.080  -1.615  1.00  0.00     0.009 C 
ENDBRANCH  15  18
ENDBRANCH   8  15
ENDBRANCH   4   7
ENDBRANCH   2   3
ENDBRANCH   1   2
BRANCH   1  25
ATOM     25  C   UNL     1      -8.290   6.431  -5.713  1.00  0.00     0.023 C 
BRANCH  25  26
ATOM     26  C   UNL     1      -9.409   6.967  -4.841  1.00  0.00     0.116 C 
BRANCH  26  27
ATOM     27  N   UNL     1      -8.992   8.011  -3.913  1.00  0.00    -0.352 N 
ATOM     28  C   UNL     1      -9.728   9.070  -3.439  1.00  0.00     0.251 C 
ATOM     29  H   UNL     1      -8.066   7.949  -3.584  1.00  0.00     0.163 HD
ATOM     30  O   UNL     1      -9.224   9.909  -2.701  1.00  0.00    -0.269 OA
BRANCH  28  31
ATOM     31  C   UNL     1     -11.127   9.208  -3.882  1.00  0.00     0.039 A 
ATOM     32  C   UNL     1     -11.540  10.421  -4.437  1.00  0.00     0.014 A 
ATOM     33  C   UNL     1     -11.992   8.113  -3.833  1.00  0.00     0.014 A 
ATOM     34  C   UNL     1     -12.802  10.509  -5.021  1.00  0.00     0.010 A 
ATOM     35  C   UNL     1     -13.211   8.176  -4.492  1.00  0.00     0.010 A 
ATOM     36  C   UNL     1     -13.627   9.374  -5.091  1.00  0.00    -0.014 A 
BRANCH  36  37
ATOM     37  C   UNL     1     -14.936   9.416  -5.780  1.00  0.00     0.031 A 
ATOM     38  C   UNL     1     -16.198   9.191  -4.998  1.00  0.00     0.074 A 
ATOM     39  C   UNL     1     -14.982   9.575  -7.117  1.00  0.00     0.049 A 
ATOM     40  N   UNL     1     -17.432   9.121  -5.425  1.00  0.00    -0.248 NA
ATOM     41  C   UNL     1     -16.050   8.985  -3.547  1.00  0.00     0.031 C 
ATOM     42  C   UNL     1     -13.821   9.747  -7.994  1.00  0.00     0.029 A 
ATOM     43  N   UNL     1     -16.053   9.610  -7.973  1.00  0.00    -0.354 N 
ATOM     44  C   UNL     1     -18.201   8.841  -4.303  1.00  0.00     0.074 A 
ATOM     45  C   UNL     1     -17.292   8.701  -3.188  1.00  0.00     0.031 C 
ATOM     46  C   UNL     1     -14.246   9.899  -9.259  1.00  0.00     0.029 A 
ATOM     47  C   UNL     1     -15.701   9.800  -9.286  1.00  0.00     0.049 A 
ATOM     48  H   UNL     1     -16.985   9.508  -7.674  1.00  0.00     0.167 HD
ATOM     49  C   UNL     1     -19.546   8.731  -4.205  1.00  0.00     0.031 A 
ATOM     50  C   UNL     1     -16.468   9.886 -10.389  1.00  0.00     0.031 A 
ATOM     51  C   UNL     1     -20.449   8.892  -5.311  1.00  0.00     0.049 A 
ATOM     52  C   UNL     1     -17.960   9.774 -10.253  1.00  0.00     0.074 A 
ATOM     53  C   UNL     1     -21.832   8.868  -5.306  1.00  0.00     0.029 A 
ATOM     54  N   UNL     1     -20.055   9.108  -6.623  1.00  0.00    -0.354 N 
ATOM     55  N   UNL     1     -18.679   9.584  -9.174  1.00  0.00    -0.248 NA
ATOM     56  C   UNL     1     -18.747   9.903 -11.488  1.00  0.00     0.031 C 
ATOM     57  C   UNL     1     -22.275   9.029  -6.623  1.00  0.00     0.029 A 
ATOM     58  C   UNL     1     -21.168   9.200  -7.440  1.00  0.00     0.049 A 
ATOM     59  H   UNL     1     -19.122   9.184  -6.928  1.00  0.00     0.167 HD
ATOM     60  C   UNL     1     -20.002   9.593  -9.593  1.00  0.00     0.074 A 
ATOM     61  C   UNL     1     -19.986   9.824 -11.024  1.00  0.00     0.031 C 
ATOM     62  C   UNL     1     -21.130   9.428  -8.861  1.00  0.00     0.031 A 
BRANCH  49  63
ATOM     63  C   UNL     1     -20.112   8.420  -2.849  1.00  0.00    -0.014 A 
ATOM     64  C   UNL     1     -20.083   9.370  -1.815  1.00  0.00     0.009 A 
ATOM     65  C   UNL     1     -20.691   7.166  -2.604  1.00  0.00     0.009 A 
ATOM     66  C   UNL     1     -20.586   9.055  -0.551  1.00  0.00     0.001 A 
ATOM     67  C   UNL     1     -21.218   6.864  -1.348  1.00  0.00     0.001 A 
ATOM     68  C   UNL     1     -21.156   7.803  -0.320  1.00  0.00     0.000 A 
ENDBRANCH  49  63
BRANCH  50  69
ATOM     69  C   UNL     1     -15.839  10.118 -11.714  1.00  0.00    -0.014 A 
ATOM     70  C   UNL     1     -15.955  11.367 -12.344  1.00  0.00     0.009 A 
ATOM     71  C   UNL     1     -15.118   9.099 -12.354  1.00  0.00     0.009 A 
ATOM     72  C   UNL     1     -15.382  11.583 -13.599  1.00  0.00     0.001 A 
ATOM     73  C   UNL     1     -14.524   9.326 -13.598  1.00  0.00     0.001 A 
ATOM     74  C   UNL     1     -14.663  10.564 -14.223  1.00  0.00     0.000 A 
ENDBRANCH  50  69
BRANCH  62  75
ATOM     75  C   UNL     1     -22.439   9.520  -9.589  1.00  0.00    -0.014 A 
ATOM     76  C   UNL     1     -22.879   8.484 -10.427  1.00  0.00     0.009 A 
ATOM     77  C   UNL     1     -23.261  10.642  -9.398  1.00  0.00     0.009 A 
ATOM     78  C   UNL     1     -24.107   8.584 -11.083  1.00  0.00     0.001 A 
ATOM     79  C   UNL     1     -24.500  10.726 -10.035  1.00  0.00     0.001 A 
ATOM     80  C   UNL     1     -24.918   9.701 -10.883  1.00  0.00     0.000 A 
ENDBRANCH  62  75
ENDBRANCH  36  37
ENDBRANCH  28  31
ENDBRANCH  26  27
ENDBRANCH  25  26
ENDBRANCH   1  25
TORSDOF 13
