REMARK SMILES O=C(NCCCCNC(=O)[C@H]1[C@@H](C(=O)Nc2ccccc2-c2ccccc2)[C@@H]2C=C[C@H]1O2)c1ccc(-c2c3nc(c(-c4ccccc4)c4ccc([nH]4)c(-c4ccccc4)c4nc(c(-c5ccccc5)c5ccc2[nH]5)C=C4)C=C3)cc1
REMARK SMILES IDX 6 1 5 2 4 3 3 4 1 5 2 6 33 8 34 9 80 10 35 11 79 12 36 13
REMARK SMILES IDX 37 14 38 15 73 16 39 17 78 18 72 19 74 20 40 21 77 22 71 23
REMARK SMILES IDX 70 24 41 26 63 27 48 28 62 29 49 30 52 31 61 32 75 33 50 34
REMARK SMILES IDX 51 35 60 37 76 38 53 39 42 40 43 41 47 42 44 43 46 44 45 45
REMARK SMILES IDX 64 46 65 47 69 48 66 49 68 50 67 51 54 52 55 53 59 54 56 55
REMARK SMILES IDX 58 56 57 57 7 58 8 59 9 60 10 62 11 63 12 64 31 65 28 66
REMARK SMILES IDX 30 67 32 68 29 69 13 70 14 71 15 72 16 74 17 75 21 76 18 77
REMARK SMILES IDX 20 78 19 79 22 80 23 81 27 82 24 83 26 84 25 85
REMARK H PARENT 3 7 74 25 52 36 8 61 15 73
REMARK Flexibility Score: inf
ROOT
ATOM      1  C   UNL     1       4.607   3.601  -3.467  1.00  0.00     0.023 C 
ENDROOT
BRANCH   1   2
ATOM      2  C   UNL     1       4.215   3.647  -4.943  1.00  0.00     0.023 C 
BRANCH   2   3
ATOM      3  C   UNL     1       5.091   2.814  -5.863  1.00  0.00     0.116 C 
BRANCH   3   4
ATOM      4  N   UNL     1       5.185   1.420  -5.458  1.00  0.00    -0.352 N 
ATOM      5  O   UNL     1       5.266  -0.813  -5.794  1.00  0.00    -0.269 OA
ATOM      6  C   UNL     1       5.279   0.309  -6.264  1.00  0.00     0.251 C 
ATOM      7  H   UNL     1       5.181   1.251  -4.488  1.00  0.00     0.163 HD
BRANCH   6   8
ATOM      8  C   UNL     1       5.358   0.515  -7.723  1.00  0.00     0.039 A 
ATOM      9  C   UNL     1       6.290   1.408  -8.257  1.00  0.00     0.014 A 
ATOM     10  C   UNL     1       4.455  -0.157  -8.548  1.00  0.00     0.014 A 
ATOM     11  C   UNL     1       6.240   1.720  -9.608  1.00  0.00     0.010 A 
ATOM     12  C   UNL     1       4.460   0.098  -9.920  1.00  0.00     0.010 A 
ATOM     13  C   UNL     1       5.340   1.052 -10.454  1.00  0.00    -0.014 A 
BRANCH  13  14
ATOM     14  C   UNL     1       5.405   1.301 -11.912  1.00  0.00     0.031 A 
ATOM     15  C   UNL     1       4.276   1.963 -12.645  1.00  0.00     0.074 A 
ATOM     16  C   UNL     1       6.523   0.930 -12.565  1.00  0.00     0.049 A 
ATOM     17  N   UNL     1       4.189   2.259 -13.917  1.00  0.00    -0.248 NA
ATOM     18  C   UNL     1       3.090   2.334 -11.857  1.00  0.00     0.031 C 
ATOM     19  C   UNL     1       7.680   0.273 -11.948  1.00  0.00     0.029 A 
ATOM     20  N   UNL     1       6.882   1.070 -13.878  1.00  0.00    -0.354 N 
ATOM     21  C   UNL     1       2.936   2.835 -14.088  1.00  0.00     0.074 A 
ATOM     22  C   UNL     1       2.289   2.828 -12.793  1.00  0.00     0.031 C 
ATOM     23  C   UNL     1       8.638   0.114 -12.871  1.00  0.00     0.029 A 
ATOM     24  C   UNL     1       8.141   0.596 -14.152  1.00  0.00     0.049 A 
ATOM     25  H   UNL     1       6.295   1.472 -14.559  1.00  0.00     0.167 HD
ATOM     26  C   UNL     1       2.382   3.324 -15.223  1.00  0.00     0.031 A 
ATOM     27  C   UNL     1       8.817   0.538 -15.313  1.00  0.00     0.031 A 
ATOM     28  C   UNL     1       3.034   3.324 -16.507  1.00  0.00     0.049 A 
ATOM     29  C   UNL     1       8.165   1.061 -16.556  1.00  0.00     0.074 A 
ATOM     30  C   UNL     1       2.566   3.820 -17.712  1.00  0.00     0.029 A 
ATOM     31  N   UNL     1       4.294   2.800 -16.753  1.00  0.00    -0.354 N 
ATOM     32  N   UNL     1       6.990   1.625 -16.695  1.00  0.00    -0.248 NA
ATOM     33  C   UNL     1       8.931   0.937 -17.802  1.00  0.00     0.031 C 
ATOM     34  C   UNL     1       3.524   3.553 -18.697  1.00  0.00     0.029 A 
ATOM     35  C   UNL     1       4.610   2.938 -18.095  1.00  0.00     0.049 A 
ATOM     36  H   UNL     1       4.878   2.390 -16.075  1.00  0.00     0.167 HD
ATOM     37  C   UNL     1       6.878   1.933 -18.042  1.00  0.00     0.074 A 
ATOM     38  C   UNL     1       8.116   1.517 -18.671  1.00  0.00     0.031 C 
ATOM     39  C   UNL     1       5.842   2.505 -18.702  1.00  0.00     0.031 A 
BRANCH  26  40
ATOM     40  C   UNL     1       0.987   3.877 -15.136  1.00  0.00    -0.014 A 
ATOM     41  C   UNL     1       0.730   5.114 -14.525  1.00  0.00     0.009 A 
ATOM     42  C   UNL     1      -0.077   3.177 -15.726  1.00  0.00     0.009 A 
ATOM     43  C   UNL     1      -0.570   5.626 -14.485  1.00  0.00     0.001 A 
ATOM     44  C   UNL     1      -1.371   3.703 -15.705  1.00  0.00     0.001 A 
ATOM     45  C   UNL     1      -1.617   4.923 -15.079  1.00  0.00     0.000 A 
ENDBRANCH  26  40
BRANCH  27  46
ATOM     46  C   UNL     1      10.177  -0.055 -15.345  1.00  0.00    -0.014 A 
ATOM     47  C   UNL     1      11.303   0.752 -15.560  1.00  0.00     0.009 A 
ATOM     48  C   UNL     1      10.355  -1.433 -15.139  1.00  0.00     0.009 A 
ATOM     49  C   UNL     1      12.580   0.187 -15.588  1.00  0.00     0.001 A 
ATOM     50  C   UNL     1      11.635  -1.989 -15.137  1.00  0.00     0.001 A 
ATOM     51  C   UNL     1      12.745  -1.180 -15.371  1.00  0.00     0.000 A 
ENDBRANCH  27  46
BRANCH  39  52
ATOM     52  C   UNL     1       6.021   2.724 -20.176  1.00  0.00    -0.014 A 
ATOM     53  C   UNL     1       5.980   1.649 -21.078  1.00  0.00     0.009 A 
ATOM     54  C   UNL     1       6.223   4.022 -20.667  1.00  0.00     0.009 A 
ATOM     55  C   UNL     1       6.175   1.868 -22.442  1.00  0.00     0.001 A 
ATOM     56  C   UNL     1       6.390   4.241 -22.035  1.00  0.00     0.001 A 
ATOM     57  C   UNL     1       6.376   3.163 -22.919  1.00  0.00     0.000 A 
ENDBRANCH  39  52
ENDBRANCH  13  14
ENDBRANCH   6   8
ENDBRANCH   3   4
ENDBRANCH   2   3
ENDBRANCH   1   2
BRANCH   1  58
ATOM     58  C   UNL     1       6.095   3.822  -3.191  1.00  0.00     0.116 C 
BRANCH  58  59
ATOM     59  N   UNL     1       6.552   5.128  -3.614  1.00  0.00    -0.356 N 
ATOM     60  C   UNL     1       6.872   6.249  -2.919  1.00  0.00     0.227 C 
ATOM     61  H   UNL     1       6.650   5.221  -4.589  1.00  0.00     0.163 HD
ATOM     62  O   UNL     1       7.668   7.003  -3.492  1.00  0.00    -0.275 OA
BRANCH  60  63
ATOM     63  C   UNL     1       6.509   6.488  -1.462  1.00  0.00     0.127 C 
ATOM     64  C   UNL     1       6.114   7.962  -1.014  1.00  0.00     0.127 C 
ATOM     65  C   UNL     1       5.393   5.677  -0.782  1.00  0.00     0.155 C 
ATOM     66  C   UNL     1       5.025   7.643   0.024  1.00  0.00     0.155 C 
ATOM     67  C   UNL     1       5.732   5.582   0.677  1.00  0.00     0.004 C 
ATOM     68  O   UNL     1       4.306   6.621  -0.709  1.00  0.00    -0.365 OA
ATOM     69  C   UNL     1       5.544   6.812   1.167  1.00  0.00     0.004 C 
BRANCH  64  70
ATOM     70  C   UNL     1       5.569   8.912  -2.090  1.00  0.00     0.231 C 
ATOM     71  O   UNL     1       5.745   8.717  -3.297  1.00  0.00    -0.274 OA
ATOM     72  N   UNL     1       4.818  10.024  -1.836  1.00  0.00    -0.325 N 
ATOM     73  H   UNL     1       4.572  10.508  -2.657  1.00  0.00     0.169 HD
BRANCH  72  74
ATOM     74  C   UNL     1       4.315  10.637  -0.676  1.00  0.00     0.049 A 
ATOM     75  C   UNL     1       2.945  10.954  -0.755  1.00  0.00     0.027 A 
ATOM     76  C   UNL     1       5.038  10.918   0.506  1.00  0.00     0.005 A 
ATOM     77  C   UNL     1       2.253  11.446   0.348  1.00  0.00     0.002 A 
ATOM     78  C   UNL     1       4.311  11.439   1.601  1.00  0.00     0.011 A 
ATOM     79  C   UNL     1       2.935  11.679   1.532  1.00  0.00     0.001 A 
BRANCH  76  80
ATOM     80  C   UNL     1       6.496  10.728   0.646  1.00  0.00    -0.016 A 
ATOM     81  C   UNL     1       7.029  10.024   1.742  1.00  0.00     0.009 A 
ATOM     82  C   UNL     1       7.391  11.193  -0.332  1.00  0.00     0.009 A 
ATOM     83  C   UNL     1       8.391   9.723   1.815  1.00  0.00     0.001 A 
ATOM     84  C   UNL     1       8.754  10.892  -0.261  1.00  0.00     0.001 A 
ATOM     85  C   UNL     1       9.250  10.144   0.804  1.00  0.00     0.000 A 
ENDBRANCH  76  80
ENDBRANCH  72  74
ENDBRANCH  64  70
ENDBRANCH  60  63
ENDBRANCH  58  59
ENDBRANCH   1  58
TORSDOF 14
