REMARK SMILES CC[C@]1(C(=O)NCCCCNC(=O)c2ccc(-c3c4nc(c(-c5ccccc5)c5ccc([nH]5)c(-c5ccccc5)c5nc(c(-c6ccccc6)c6ccc3[nH]6)C=C5)C=C4)cc2)CCCN(S(=O)(=O)CCOC(C)C)C1
REMARK SMILES IDX 7 1 6 2 4 3 5 4 3 6 62 7 75 8 63 9 65 10 64 11 2 12 1 13
REMARK SMILES IDX 66 14 67 15 68 16 69 17 70 18 71 19 72 20 73 21 74 22 8 23
REMARK SMILES IDX 9 24 10 25 11 26 12 27 13 29 14 30 15 31 61 32 16 33 60 34
REMARK SMILES IDX 17 35 18 36 19 37 54 38 20 39 59 40 53 41 55 42 21 43 58 44
REMARK SMILES IDX 52 45 51 46 22 48 44 49 29 50 43 51 30 52 33 53 42 54 56 55
REMARK SMILES IDX 31 56 32 57 41 59 57 60 34 61 23 62 24 63 28 64 25 65 27 66
REMARK SMILES IDX 26 67 45 68 46 69 50 70 47 71 49 72 48 73 35 74 36 75 40 76
REMARK SMILES IDX 37 77 39 78 38 79
REMARK H PARENT 6 5 11 28 55 47 33 58
REMARK Flexibility Score: inf
ROOT
ATOM      1  C   UNL     1       2.473   4.828   2.158  1.00  0.00     0.116 C 
ENDROOT
BRANCH   1   2
ATOM      2  N   UNL     1       2.030   3.811   3.084  1.00  0.00    -0.356 N 
ATOM      3  C   UNL     1       1.674   2.506   2.929  1.00  0.00     0.227 C 
ATOM      4  O   UNL     1       1.614   1.877   3.991  1.00  0.00    -0.274 OA
ATOM      5  H   UNL     1       1.975   4.124   4.015  1.00  0.00     0.163 HD
BRANCH   3   6
ATOM      6  C   UNL     1       1.349   1.838   1.550  1.00  0.00     0.063 C 
ATOM      7  C   UNL     1       0.382   2.793   0.764  1.00  0.00     0.019 C 
ATOM      8  C   UNL     1       2.659   1.565   0.770  1.00  0.00     0.119 C 
ATOM      9  C   UNL     1       0.900   3.514  -0.502  1.00  0.00     0.018 C 
ATOM     10  N   UNL     1       2.365   1.582  -0.703  1.00  0.00    -0.201 NA
ATOM     11  C   UNL     1       2.183   2.981  -1.128  1.00  0.00     0.102 C 
BRANCH   6  12
ATOM     12  C   UNL     1       0.544   0.491   1.877  1.00  0.00     0.015 C 
ATOM     13  C   UNL     1       1.117  -0.860   1.450  1.00  0.00     0.005 C 
ENDBRANCH   6  12
BRANCH  10  14
ATOM     14  S   UNL     1       3.323   0.600  -1.701  1.00  0.00     0.216 S 
ATOM     15  O   UNL     1       4.547   1.333  -1.927  1.00  0.00    -0.212 OA
ATOM     16  O   UNL     1       3.366  -0.723  -1.107  1.00  0.00    -0.212 OA
BRANCH  14  17
ATOM     17  C   UNL     1       2.419   0.505  -3.268  1.00  0.00     0.182 C 
BRANCH  17  18
ATOM     18  C   UNL     1       1.516  -0.717  -3.426  1.00  0.00     0.178 C 
BRANCH  18  19
ATOM     19  O   UNL     1       0.163  -0.383  -3.782  1.00  0.00    -0.378 OA
BRANCH  19  20
ATOM     20  C   UNL     1      -0.818  -0.347  -2.741  1.00  0.00     0.112 C 
ATOM     21  C   UNL     1      -1.132  -1.706  -2.125  1.00  0.00     0.038 C 
ATOM     22  C   UNL     1      -0.445   0.647  -1.678  1.00  0.00     0.038 C 
ENDBRANCH  19  20
ENDBRANCH  18  19
ENDBRANCH  17  18
ENDBRANCH  14  17
ENDBRANCH  10  14
ENDBRANCH   3   6
ENDBRANCH   1   2
BRANCH   1  23
ATOM     23  C   UNL     1       1.426   5.899   1.843  1.00  0.00     0.023 C 
BRANCH  23  24
ATOM     24  C   UNL     1       1.036   6.826   2.984  1.00  0.00     0.023 C 
BRANCH  24  25
ATOM     25  C   UNL     1       2.201   7.504   3.677  1.00  0.00     0.116 C 
BRANCH  25  26
ATOM     26  N   UNL     1       3.127   8.143   2.755  1.00  0.00    -0.352 N 
ATOM     27  C   UNL     1       3.823   9.315   2.907  1.00  0.00     0.251 C 
ATOM     28  H   UNL     1       3.275   7.669   1.905  1.00  0.00     0.163 HD
ATOM     29  O   UNL     1       4.487   9.765   1.980  1.00  0.00    -0.269 OA
BRANCH  27  30
ATOM     30  C   UNL     1       3.729  10.047   4.184  1.00  0.00     0.039 A 
ATOM     31  C   UNL     1       3.533  11.428   4.152  1.00  0.00     0.014 A 
ATOM     32  C   UNL     1       3.794   9.368   5.404  1.00  0.00     0.014 A 
ATOM     33  C   UNL     1       3.353  12.120   5.347  1.00  0.00     0.010 A 
ATOM     34  C   UNL     1       3.508  10.040   6.583  1.00  0.00     0.010 A 
ATOM     35  C   UNL     1       3.307  11.427   6.568  1.00  0.00    -0.014 A 
BRANCH  35  36
ATOM     36  C   UNL     1       3.078  12.148   7.841  1.00  0.00     0.031 A 
ATOM     37  C   UNL     1       4.141  12.154   8.904  1.00  0.00     0.074 A 
ATOM     38  C   UNL     1       1.901  12.770   8.048  1.00  0.00     0.049 A 
ATOM     39  N   UNL     1       4.136  12.749  10.070  1.00  0.00    -0.248 NA
ATOM     40  C   UNL     1       5.359  11.370   8.638  1.00  0.00     0.031 C 
ATOM     41  C   UNL     1       0.774  12.786   7.112  1.00  0.00     0.029 A 
ATOM     42  N   UNL     1       1.463  13.519   9.109  1.00  0.00    -0.354 N 
ATOM     43  C   UNL     1       5.338  12.402  10.673  1.00  0.00     0.074 A 
ATOM     44  C   UNL     1       6.016  11.491   9.780  1.00  0.00     0.031 C 
ATOM     45  C   UNL     1      -0.206  13.552   7.618  1.00  0.00     0.029 A 
ATOM     46  C   UNL     1       0.207  14.045   8.928  1.00  0.00     0.049 A 
ATOM     47  H   UNL     1       1.997  13.665   9.923  1.00  0.00     0.167 HD
ATOM     48  C   UNL     1       5.847  12.826  11.853  1.00  0.00     0.031 A 
ATOM     49  C   UNL     1      -0.525  14.844   9.726  1.00  0.00     0.031 A 
ATOM     50  C   UNL     1       5.170  13.736  12.737  1.00  0.00     0.049 A 
ATOM     51  C   UNL     1       0.060  15.296  11.035  1.00  0.00     0.074 A 
ATOM     52  C   UNL     1       5.616  14.269  13.933  1.00  0.00     0.029 A 
ATOM     53  N   UNL     1       3.899  14.244  12.520  1.00  0.00    -0.354 N 
ATOM     54  N   UNL     1       1.231  15.023  11.556  1.00  0.00    -0.248 NA
ATOM     55  C   UNL     1      -0.774  16.184  11.856  1.00  0.00     0.031 C 
ATOM     56  C   UNL     1       4.591  15.054  14.468  1.00  0.00     0.029 A 
ATOM     57  C   UNL     1       3.534  15.068  13.571  1.00  0.00     0.049 A 
ATOM     58  H   UNL     1       3.338  14.049  11.734  1.00  0.00     0.167 HD
ATOM     59  C   UNL     1       1.290  15.733  12.749  1.00  0.00     0.074 A 
ATOM     60  C   UNL     1       0.042  16.461  12.862  1.00  0.00     0.031 C 
ATOM     61  C   UNL     1       2.287  15.782  13.666  1.00  0.00     0.031 A 
BRANCH  48  62
ATOM     62  C   UNL     1       7.200  12.302  12.252  1.00  0.00    -0.014 A 
ATOM     63  C   UNL     1       8.360  12.663  11.546  1.00  0.00     0.009 A 
ATOM     64  C   UNL     1       7.321  11.452  13.361  1.00  0.00     0.009 A 
ATOM     65  C   UNL     1       9.605  12.150  11.917  1.00  0.00     0.001 A 
ATOM     66  C   UNL     1       8.572  10.968  13.751  1.00  0.00     0.001 A 
ATOM     67  C   UNL     1       9.710  11.308  13.023  1.00  0.00     0.000 A 
ENDBRANCH  48  62
BRANCH  49  68
ATOM     68  C   UNL     1      -1.874  15.296   9.294  1.00  0.00    -0.014 A 
ATOM     69  C   UNL     1      -2.106  16.642   8.967  1.00  0.00     0.009 A 
ATOM     70  C   UNL     1      -2.940  14.387   9.212  1.00  0.00     0.009 A 
ATOM     71  C   UNL     1      -3.383  17.072   8.599  1.00  0.00     0.001 A 
ATOM     72  C   UNL     1      -4.208  14.813   8.812  1.00  0.00     0.001 A 
ATOM     73  C   UNL     1      -4.431  16.157   8.518  1.00  0.00     0.000 A 
ENDBRANCH  49  68
BRANCH  61  74
ATOM     74  C   UNL     1       2.088  16.692  14.847  1.00  0.00    -0.014 A 
ATOM     75  C   UNL     1       1.149  16.403  15.848  1.00  0.00     0.009 A 
ATOM     76  C   UNL     1       2.880  17.845  14.969  1.00  0.00     0.009 A 
ATOM     77  C   UNL     1       0.975  17.275  16.925  1.00  0.00     0.001 A 
ATOM     78  C   UNL     1       2.730  18.695  16.065  1.00  0.00     0.001 A 
ATOM     79  C   UNL     1       1.769  18.416  17.035  1.00  0.00     0.000 A 
ENDBRANCH  61  74
ENDBRANCH  35  36
ENDBRANCH  27  30
ENDBRANCH  25  26
ENDBRANCH  24  25
ENDBRANCH  23  24
ENDBRANCH   1  23
TORSDOF 17
