REMARK SMILES CCC[C@@H](CNC(=O)N1C[C@@H](C)[C@H](C(=O)OC)C1)C(=O)NCCCCNC(=O)c1ccc(-c2c3nc(c(-c4ccccc4)c4ccc([nH]4)c(-c4ccccc4)c4nc(c(-c5ccccc5)c5ccc2[nH]5)C=C4)C=C3)cc1
REMARK SMILES IDX 22 1 21 2 19 3 20 4 4 6 3 7 2 8 1 9 5 10 6 11 7 12 8 14 9 15
REMARK SMILES IDX 10 16 18 17 11 18 13 19 12 20 14 21 15 22 16 23 17 24 23 25
REMARK SMILES IDX 24 26 25 27 26 28 27 29 28 31 29 32 30 33 76 34 31 35 75 36
REMARK SMILES IDX 32 37 33 38 34 39 69 40 35 41 74 42 68 43 70 44 36 45 73 46
REMARK SMILES IDX 67 47 66 48 37 50 59 51 44 52 58 53 45 54 48 55 57 56 71 57
REMARK SMILES IDX 46 58 47 59 56 61 72 62 49 63 38 64 39 65 43 66 40 67 42 68
REMARK SMILES IDX 41 69 60 70 61 71 65 72 62 73 64 74 63 75 50 76 51 77 55 78
REMARK SMILES IDX 52 79 54 80 53 81
REMARK H PARENT 21 5 6 13 26 30 70 49 48 60
REMARK Flexibility Score: inf
ROOT
ATOM      1  C   UNL     1      -0.176   4.298  -2.776  1.00  0.00     0.116 C 
ENDROOT
BRANCH   1   2
ATOM      2  N   UNL     1       0.513   3.211  -3.440  1.00  0.00    -0.356 N 
ATOM      3  C   UNL     1       0.571   1.884  -3.160  1.00  0.00     0.224 C 
ATOM      4  O   UNL     1       1.120   1.157  -3.995  1.00  0.00    -0.275 OA
ATOM      5  H   UNL     1       1.029   3.482  -4.234  1.00  0.00     0.163 HD
BRANCH   3   6
ATOM      6  C   UNL     1      -0.001   1.265  -1.889  1.00  0.00     0.097 C 
BRANCH   6   7
ATOM      7  C   UNL     1       0.495   1.918  -0.587  1.00  0.00     0.015 C 
BRANCH   7   8
ATOM      8  C   UNL     1       0.288   1.094   0.691  1.00  0.00    -0.003 C 
ATOM      9  C   UNL     1       0.916  -0.290   0.659  1.00  0.00     0.004 C 
ENDBRANCH   7   8
ENDBRANCH   6   7
BRANCH   6  10
ATOM     10  C   UNL     1      -1.500   0.933  -1.988  1.00  0.00     0.131 C 
BRANCH  10  11
ATOM     11  N   UNL     1      -2.412   2.030  -2.272  1.00  0.00    -0.337 N 
ATOM     12  C   UNL     1      -2.801   2.526  -3.479  1.00  0.00     0.317 C 
ATOM     13  H   UNL     1      -2.800   2.474  -1.484  1.00  0.00     0.165 HD
ATOM     14  O   UNL     1      -3.262   3.664  -3.533  1.00  0.00    -0.249 OA
BRANCH  12  15
ATOM     15  N   UNL     1      -2.537   1.784  -4.587  1.00  0.00    -0.324 N 
ATOM     16  C   UNL     1      -3.100   0.480  -4.850  1.00  0.00     0.125 C 
ATOM     17  C   UNL     1      -2.187   2.395  -5.852  1.00  0.00     0.137 C 
ATOM     18  C   UNL     1      -2.213  -0.047  -5.969  1.00  0.00     0.021 C 
ATOM     19  C   UNL     1      -1.773   1.224  -6.750  1.00  0.00     0.123 C 
ATOM     20  C   UNL     1      -2.924  -1.072  -6.838  1.00  0.00     0.010 C 
BRANCH  19  21
ATOM     21  C   UNL     1      -0.290   1.139  -7.072  1.00  0.00     0.310 C 
ATOM     22  O   UNL     1       0.205   0.161  -7.623  1.00  0.00    -0.252 OA
BRANCH  21  23
ATOM     23  O   UNL     1       0.393   2.269  -6.751  1.00  0.00    -0.469 OA
ATOM     24  C   UNL     1       1.812   2.199  -6.930  1.00  0.00     0.282 C 
ENDBRANCH  21  23
ENDBRANCH  19  21
ENDBRANCH  12  15
ENDBRANCH  10  11
ENDBRANCH   6  10
ENDBRANCH   3   6
ENDBRANCH   1   2
BRANCH   1  25
ATOM     25  C   UNL     1       0.755   5.457  -2.445  1.00  0.00     0.023 C 
BRANCH  25  26
ATOM     26  C   UNL     1       1.173   6.288  -3.660  1.00  0.00     0.023 C 
BRANCH  26  27
ATOM     27  C   UNL     1       0.029   6.806  -4.530  1.00  0.00     0.116 C 
BRANCH  27  28
ATOM     28  N   UNL     1      -0.979   7.548  -3.784  1.00  0.00    -0.352 N 
ATOM     29  C   UNL     1      -1.556   8.761  -4.080  1.00  0.00     0.251 C 
ATOM     30  H   UNL     1      -1.290   7.121  -2.953  1.00  0.00     0.163 HD
ATOM     31  O   UNL     1      -2.314   9.308  -3.292  1.00  0.00    -0.269 OA
BRANCH  29  32
ATOM     32  C   UNL     1      -1.214   9.417  -5.357  1.00  0.00     0.039 A 
ATOM     33  C   UNL     1      -0.741  10.730  -5.337  1.00  0.00     0.014 A 
ATOM     34  C   UNL     1      -1.301   8.707  -6.557  1.00  0.00     0.014 A 
ATOM     35  C   UNL     1      -0.261  11.304  -6.515  1.00  0.00     0.010 A 
ATOM     36  C   UNL     1      -0.763   9.256  -7.715  1.00  0.00     0.010 A 
ATOM     37  C   UNL     1      -0.222  10.552  -7.700  1.00  0.00    -0.014 A 
BRANCH  37  38
ATOM     38  C   UNL     1       0.404  11.079  -8.937  1.00  0.00     0.031 A 
ATOM     39  C   UNL     1      -0.428  11.286 -10.169  1.00  0.00     0.074 A 
ATOM     40  C   UNL     1       1.738  11.267  -8.982  1.00  0.00     0.049 A 
ATOM     41  N   UNL     1      -0.045  11.592 -11.383  1.00  0.00    -0.248 NA
ATOM     42  C   UNL     1      -1.880  11.096 -10.024  1.00  0.00     0.031 C 
ATOM     43  C   UNL     1       2.664  11.070  -7.864  1.00  0.00     0.029 A 
ATOM     44  N   UNL     1       2.549  11.649 -10.021  1.00  0.00    -0.354 N 
ATOM     45  C   UNL     1      -1.202  11.600 -12.150  1.00  0.00     0.074 A 
ATOM     46  C   UNL     1      -2.295  11.236 -11.274  1.00  0.00     0.031 C 
ATOM     47  C   UNL     1       3.913  11.346  -8.274  1.00  0.00     0.029 A 
ATOM     48  C   UNL     1       3.882  11.695  -9.691  1.00  0.00     0.049 A 
ATOM     49  H   UNL     1       2.208  11.870 -10.918  1.00  0.00     0.167 HD
ATOM     50  C   UNL     1      -1.344  11.896 -13.463  1.00  0.00     0.031 A 
ATOM     51  C   UNL     1       4.961  11.970 -10.448  1.00  0.00     0.031 A 
ATOM     52  C   UNL     1      -0.262  12.278 -14.329  1.00  0.00     0.049 A 
ATOM     53  C   UNL     1       4.777  12.288 -11.904  1.00  0.00     0.074 A 
ATOM     54  C   UNL     1      -0.315  12.654 -15.660  1.00  0.00     0.029 A 
ATOM     55  N   UNL     1       1.069  12.336 -13.948  1.00  0.00    -0.354 N 
ATOM     56  N   UNL     1       3.671  12.340 -12.604  1.00  0.00    -0.248 NA
ATOM     57  C   UNL     1       5.993  12.589 -12.674  1.00  0.00     0.031 C 
ATOM     58  C   UNL     1       0.990  12.903 -16.095  1.00  0.00     0.029 A 
ATOM     59  C   UNL     1       1.849  12.724 -15.023  1.00  0.00     0.049 A 
ATOM     60  H   UNL     1       1.409  12.130 -13.047  1.00  0.00     0.167 HD
ATOM     61  C   UNL     1       4.052  12.706 -13.888  1.00  0.00     0.074 A 
ATOM     62  C   UNL     1       5.491  12.871 -13.869  1.00  0.00     0.031 C 
ATOM     63  C   UNL     1       3.278  12.890 -14.984  1.00  0.00     0.031 A 
BRANCH  50  64
ATOM     64  C   UNL     1      -2.726  11.806 -14.043  1.00  0.00    -0.014 A 
ATOM     65  C   UNL     1      -3.710  12.755 -13.724  1.00  0.00     0.009 A 
ATOM     66  C   UNL     1      -3.041  10.775 -14.941  1.00  0.00     0.009 A 
ATOM     67  C   UNL     1      -4.993  12.651 -14.265  1.00  0.00     0.001 A 
ATOM     68  C   UNL     1      -4.316  10.689 -15.501  1.00  0.00     0.001 A 
ATOM     69  C   UNL     1      -5.294  11.621 -15.155  1.00  0.00     0.000 A 
ENDBRANCH  50  64
BRANCH  51  70
ATOM     70  C   UNL     1       6.316  11.962  -9.841  1.00  0.00    -0.014 A 
ATOM     71  C   UNL     1       6.998  13.168  -9.617  1.00  0.00     0.009 A 
ATOM     72  C   UNL     1       6.937  10.754  -9.487  1.00  0.00     0.009 A 
ATOM     73  C   UNL     1       8.284  13.163  -9.073  1.00  0.00     0.001 A 
ATOM     74  C   UNL     1       8.213  10.754  -8.919  1.00  0.00     0.001 A 
ATOM     75  C   UNL     1       8.889  11.957  -8.721  1.00  0.00     0.000 A 
ENDBRANCH  51  70
BRANCH  63  76
ATOM     76  C   UNL     1       3.964  13.331 -16.244  1.00  0.00    -0.014 A 
ATOM     77  C   UNL     1       4.715  12.431 -17.016  1.00  0.00     0.009 A 
ATOM     78  C   UNL     1       3.809  14.652 -16.692  1.00  0.00     0.009 A 
ATOM     79  C   UNL     1       5.316  12.854 -18.203  1.00  0.00     0.001 A 
ATOM     80  C   UNL     1       4.392  15.065 -17.890  1.00  0.00     0.001 A 
ATOM     81  C   UNL     1       5.150  14.168 -18.641  1.00  0.00     0.000 A 
ENDBRANCH  63  76
ENDBRANCH  37  38
ENDBRANCH  29  32
ENDBRANCH  27  28
ENDBRANCH  26  27
ENDBRANCH  25  26
ENDBRANCH   1  25
TORSDOF 18
