REMARK SMILES O=C(NCCCCNC(=O)c1c(S(=O)(=O)N2CCCCC2)sc2c1CC[NH2+]C2)c1ccc(-c2c3nc(c(-c4ccccc4)c4ccc([nH]4)c(-c4ccccc4)c4nc(c(-c5ccccc5)c5ccc2[nH]5)C=C4)C=C3)cc1
REMARK SMILES IDX 5 1 4 2 3 3 1 4 2 5 29 7 30 8 76 9 31 10 75 11 32 12 33 13
REMARK SMILES IDX 34 14 69 15 35 16 74 17 68 18 70 19 36 20 73 21 67 22 66 23
REMARK SMILES IDX 37 25 59 26 44 27 58 28 45 29 48 30 57 31 71 32 46 33 47 34
REMARK SMILES IDX 56 36 72 37 49 38 38 39 39 40 43 41 40 42 42 43 41 44 60 45
REMARK SMILES IDX 61 46 65 47 62 48 64 49 63 50 50 51 51 52 55 53 52 54 54 55
REMARK SMILES IDX 53 56 6 57 7 58 8 59 9 60 10 62 11 63 12 64 24 65 22 66
REMARK SMILES IDX 23 67 25 68 28 69 26 70 27 71 13 74 14 75 15 76 16 77 17 78
REMARK SMILES IDX 21 79 18 80 20 81 19 82
REMARK H PARENT 3 6 70 24 48 35 8 61 27 72 27 73
REMARK Flexibility Score: inf
ROOT
ATOM      1  C   UNL     1       5.028   2.232   0.381  1.00  0.00     0.023 C 
ENDROOT
BRANCH   1   2
ATOM      2  C   UNL     1       4.633   0.824   0.828  1.00  0.00     0.116 C 
BRANCH   2   3
ATOM      3  N   UNL     1       3.210   0.578   0.949  1.00  0.00    -0.352 N 
ATOM      4  O   UNL     1       1.142  -0.126   0.602  1.00  0.00    -0.269 OA
ATOM      5  C   UNL     1       2.212   0.211   0.088  1.00  0.00     0.251 C 
ATOM      6  H   UNL     1       2.884   0.705   1.869  1.00  0.00     0.163 HD
BRANCH   5   7
ATOM      7  C   UNL     1       2.292   0.253  -1.398  1.00  0.00     0.039 A 
ATOM      8  C   UNL     1       3.461   0.329  -2.155  1.00  0.00     0.014 A 
ATOM      9  C   UNL     1       1.057   0.220  -2.078  1.00  0.00     0.014 A 
ATOM     10  C   UNL     1       3.395   0.444  -3.545  1.00  0.00     0.010 A 
ATOM     11  C   UNL     1       0.986   0.321  -3.465  1.00  0.00     0.010 A 
ATOM     12  C   UNL     1       2.159   0.463  -4.199  1.00  0.00    -0.014 A 
BRANCH  12  13
ATOM     13  C   UNL     1       2.143   0.475  -5.663  1.00  0.00     0.031 A 
ATOM     14  C   UNL     1       2.712  -0.739  -6.321  1.00  0.00     0.074 A 
ATOM     15  C   UNL     1       1.516   1.407  -6.411  1.00  0.00     0.049 A 
ATOM     16  N   UNL     1       3.674  -0.811  -7.184  1.00  0.00    -0.248 NA
ATOM     17  C   UNL     1       2.166  -2.046  -5.920  1.00  0.00     0.031 C 
ATOM     18  C   UNL     1       0.637   2.486  -5.957  1.00  0.00     0.029 A 
ATOM     19  N   UNL     1       1.452   1.507  -7.772  1.00  0.00    -0.354 N 
ATOM     20  C   UNL     1       3.769  -2.154  -7.547  1.00  0.00     0.074 A 
ATOM     21  C   UNL     1       2.885  -2.881  -6.670  1.00  0.00     0.031 C 
ATOM     22  C   UNL     1      -0.040   2.985  -7.018  1.00  0.00     0.029 A 
ATOM     23  C   UNL     1       0.455   2.356  -8.232  1.00  0.00     0.049 A 
ATOM     24  H   UNL     1       2.060   1.020  -8.374  1.00  0.00     0.167 HD
ATOM     25  C   UNL     1       4.437  -2.571  -8.658  1.00  0.00     0.031 A 
ATOM     26  C   UNL     1       0.026   2.493  -9.511  1.00  0.00     0.031 A 
ATOM     27  C   UNL     1       5.350  -1.581  -9.155  1.00  0.00     0.049 A 
ATOM     28  C   UNL     1       1.067   1.948 -10.407  1.00  0.00     0.074 A 
ATOM     29  C   UNL     1       6.466  -0.945  -8.652  1.00  0.00     0.029 A 
ATOM     30  N   UNL     1       4.968  -0.849 -10.252  1.00  0.00    -0.354 N 
ATOM     31  N   UNL     1       2.225   2.508 -10.596  1.00  0.00    -0.248 NA
ATOM     32  C   UNL     1       0.971   0.557 -10.816  1.00  0.00     0.031 C 
ATOM     33  C   UNL     1       6.389   0.386  -9.158  1.00  0.00     0.029 A 
ATOM     34  C   UNL     1       5.258   0.461  -9.974  1.00  0.00     0.049 A 
ATOM     35  H   UNL     1       4.563  -1.198 -11.079  1.00  0.00     0.167 HD
ATOM     36  C   UNL     1       3.110   1.450 -10.729  1.00  0.00     0.074 A 
ATOM     37  C   UNL     1       2.268   0.282 -10.976  1.00  0.00     0.031 C 
ATOM     38  C   UNL     1       4.416   1.573 -10.352  1.00  0.00     0.031 A 
BRANCH  25  39
ATOM     39  C   UNL     1       4.009  -3.754  -9.489  1.00  0.00    -0.014 A 
ATOM     40  C   UNL     1       4.829  -4.187 -10.547  1.00  0.00     0.009 A 
ATOM     41  C   UNL     1       2.704  -4.281  -9.441  1.00  0.00     0.009 A 
ATOM     42  C   UNL     1       4.348  -5.061 -11.530  1.00  0.00     0.001 A 
ATOM     43  C   UNL     1       2.235  -5.185 -10.398  1.00  0.00     0.001 A 
ATOM     44  C   UNL     1       3.049  -5.556 -11.458  1.00  0.00     0.000 A 
ENDBRANCH  25  39
BRANCH  26  45
ATOM     45  C   UNL     1      -1.323   2.833 -10.010  1.00  0.00    -0.014 A 
ATOM     46  C   UNL     1      -1.514   3.281 -11.327  1.00  0.00     0.009 A 
ATOM     47  C   UNL     1      -2.461   2.450  -9.276  1.00  0.00     0.009 A 
ATOM     48  C   UNL     1      -2.793   3.309 -11.899  1.00  0.00     0.001 A 
ATOM     49  C   UNL     1      -3.737   2.482  -9.846  1.00  0.00     0.001 A 
ATOM     50  C   UNL     1      -3.901   2.896 -11.163  1.00  0.00     0.000 A 
ENDBRANCH  26  45
BRANCH  38  51
ATOM     51  C   UNL     1       4.928   2.954 -10.019  1.00  0.00    -0.014 A 
ATOM     52  C   UNL     1       4.371   3.750  -9.002  1.00  0.00     0.009 A 
ATOM     53  C   UNL     1       6.093   3.409 -10.653  1.00  0.00     0.009 A 
ATOM     54  C   UNL     1       4.941   4.980  -8.658  1.00  0.00     0.001 A 
ATOM     55  C   UNL     1       6.677   4.626 -10.293  1.00  0.00     0.001 A 
ATOM     56  C   UNL     1       6.097   5.415  -9.301  1.00  0.00     0.000 A 
ENDBRANCH  38  51
ENDBRANCH  12  13
ENDBRANCH   5   7
ENDBRANCH   2   3
ENDBRANCH   1   2
BRANCH   1  57
ATOM     57  C   UNL     1       4.517   3.397   1.236  1.00  0.00     0.023 C 
BRANCH  57  58
ATOM     58  C   UNL     1       4.767   3.321   2.740  1.00  0.00     0.116 C 
BRANCH  58  59
ATOM     59  N   UNL     1       6.153   3.338   3.149  1.00  0.00    -0.352 N 
ATOM     60  C   UNL     1       6.771   3.962   4.205  1.00  0.00     0.253 C 
ATOM     61  H   UNL     1       6.756   2.814   2.573  1.00  0.00     0.163 HD
ATOM     62  O   UNL     1       7.979   3.762   4.337  1.00  0.00    -0.269 OA
BRANCH  60  63
ATOM     63  C   UNL     1       6.082   4.929   5.070  1.00  0.00     0.074 A 
ATOM     64  C   UNL     1       4.958   4.695   5.874  1.00  0.00     0.148 A 
ATOM     65  C   UNL     1       6.627   6.260   5.338  1.00  0.00    -0.009 A 
ATOM     66  S   UNL     1       4.556   6.088   6.795  1.00  0.00    -0.120 S 
ATOM     67  C   UNL     1       5.880   6.961   6.259  1.00  0.00     0.064 A 
ATOM     68  C   UNL     1       7.855   6.906   4.747  1.00  0.00     0.099 C 
ATOM     69  C   UNL     1       6.201   8.323   6.797  1.00  0.00     0.308 C 
ATOM     70  C   UNL     1       8.258   8.180   5.535  1.00  0.00     0.265 C 
ATOM     71  N   UNL     1       7.111   9.041   5.891  1.00  0.00    -0.342 N 
ATOM     72  H   UNL     1       6.607   9.299   5.043  1.00  0.00     0.346 HD
ATOM     73  H   UNL     1       7.455   9.879   6.360  1.00  0.00     0.346 HD
BRANCH  64  74
ATOM     74  S   UNL     1       3.923   3.251   6.201  1.00  0.00     0.253 S 
ATOM     75  O   UNL     1       3.172   3.047   4.982  1.00  0.00    -0.206 OA
ATOM     76  O   UNL     1       4.856   2.259   6.686  1.00  0.00    -0.206 OA
BRANCH  74  77
ATOM     77  N   UNL     1       2.741   3.532   7.413  1.00  0.00    -0.197 NA
ATOM     78  C   UNL     1       3.243   3.613   8.803  1.00  0.00     0.102 C 
ATOM     79  C   UNL     1       1.626   4.430   7.002  1.00  0.00     0.102 C 
ATOM     80  C   UNL     1       2.118   3.790   9.814  1.00  0.00     0.017 C 
ATOM     81  C   UNL     1       0.575   4.629   8.081  1.00  0.00     0.017 C 
ATOM     82  C   UNL     1       1.208   4.943   9.424  1.00  0.00     0.003 C 
ENDBRANCH  74  77
ENDBRANCH  64  74
ENDBRANCH  60  63
ENDBRANCH  58  59
ENDBRANCH  57  58
ENDBRANCH   1  57
TORSDOF 13
