REMARK SMILES Cc1cc(NC(=O)c2ccc(Br)cc2N)ccc1C(=O)NCCCCNC(=O)c1ccc(-c2c3nc(c(-c4ccccc4)c4ccc([nH]4)c(-c4ccccc4)c4nc(c(-c5ccccc5)c5ccc2[nH]5)C=C4)C=C3)cc1
REMARK SMILES IDX 23 1 22 2 21 3 19 4 20 5 18 7 1 8 2 9 3 10 4 11 17 12 16 13
REMARK SMILES IDX 5 14 6 15 7 17 8 18 9 19 14 20 10 21 13 22 11 23 12 24 15 25
REMARK SMILES IDX 24 28 25 29 26 30 27 31 28 33 29 34 30 35 76 36 31 37 75 38
REMARK SMILES IDX 32 39 33 40 34 41 69 42 35 43 74 44 68 45 70 46 36 47 73 48
REMARK SMILES IDX 67 49 66 50 37 52 59 53 44 54 58 55 45 56 48 57 57 58 71 59
REMARK SMILES IDX 46 60 47 61 56 63 72 64 49 65 38 66 39 67 43 68 40 69 42 70
REMARK SMILES IDX 41 71 60 72 61 73 65 74 62 75 64 76 63 77 50 78 51 79 55 80
REMARK SMILES IDX 52 81 54 82 53 83
REMARK H PARENT 21 6 5 16 15 26 15 27 26 32 70 51 48 62
REMARK Flexibility Score: inf
ROOT
ATOM      1  C   UNL     1       4.139   1.427  -1.292  1.00  0.00     0.023 C 
ENDROOT
BRANCH   1   2
ATOM      2  C   UNL     1       3.415   1.783   0.015  1.00  0.00     0.116 C 
BRANCH   2   3
ATOM      3  N   UNL     1       2.192   2.498  -0.276  1.00  0.00    -0.352 N 
ATOM      4  C   UNL     1       0.896   2.146  -0.538  1.00  0.00     0.251 C 
ATOM      5  O   UNL     1       0.164   3.101  -0.826  1.00  0.00    -0.269 OA
ATOM      6  H   UNL     1       2.323   3.473  -0.288  1.00  0.00     0.163 HD
BRANCH   4   7
ATOM      7  C   UNL     1       0.259   0.783  -0.431  1.00  0.00     0.042 A 
ATOM      8  C   UNL     1       2.119  -0.884  -1.195  1.00  0.00     0.045 C 
ATOM      9  C   UNL     1       0.770  -0.506  -0.675  1.00  0.00    -0.036 A 
ATOM     10  C   UNL     1      -0.072  -1.624  -0.483  1.00  0.00     0.030 A 
ATOM     11  C   UNL     1      -1.399  -1.512  -0.087  1.00  0.00     0.041 A 
ATOM     12  C   UNL     1      -1.126   0.869  -0.113  1.00  0.00     0.016 A 
ATOM     13  C   UNL     1      -1.954  -0.252   0.024  1.00  0.00     0.027 A 
BRANCH  11  14
ATOM     14  N   UNL     1      -2.174  -2.642   0.214  1.00  0.00    -0.322 N 
ATOM     15  C   UNL     1      -1.747  -3.872   0.685  1.00  0.00     0.257 C 
ATOM     16  H   UNL     1      -3.143  -2.548   0.071  1.00  0.00     0.170 HD
ATOM     17  O   UNL     1      -2.474  -4.858   0.574  1.00  0.00    -0.269 OA
BRANCH  15  18
ATOM     18  C   UNL     1      -0.438  -4.013   1.392  1.00  0.00     0.063 A 
ATOM     19  C   UNL     1       0.358  -5.113   1.025  1.00  0.00     0.017 A 
ATOM     20  C   UNL     1       0.009  -3.114   2.388  1.00  0.00     0.045 A 
ATOM     21  C   UNL     1       1.599  -5.322   1.629  1.00  0.00     0.016 A 
ATOM     22  C   UNL     1       1.253  -3.352   2.992  1.00  0.00     0.042 A 
ATOM     23  C   UNL     1       2.039  -4.440   2.611  1.00  0.00     0.020 A 
ATOM     24  Br  UNL     1       3.697  -4.739   3.466  1.00  0.00    -0.051 Br
BRANCH  20  25
ATOM     25  N   UNL     1      -0.780  -2.091   2.914  1.00  0.00    -0.398 N 
ATOM     26  H   UNL     1      -1.659  -1.894   2.517  1.00  0.00     0.156 HD
ATOM     27  H   UNL     1      -0.458  -1.567   3.682  1.00  0.00     0.156 HD
ENDBRANCH  20  25
ENDBRANCH  15  18
ENDBRANCH  11  14
ENDBRANCH   4   7
ENDBRANCH   2   3
ENDBRANCH   1   2
BRANCH   1  28
ATOM     28  C   UNL     1       4.955   2.546  -1.926  1.00  0.00     0.023 C 
BRANCH  28  29
ATOM     29  C   UNL     1       6.314   2.724  -1.280  1.00  0.00     0.116 C 
BRANCH  29  30
ATOM     30  N   UNL     1       7.346   1.804  -1.749  1.00  0.00    -0.352 N 
ATOM     31  C   UNL     1       8.637   1.624  -1.277  1.00  0.00     0.251 C 
ATOM     32  H   UNL     1       7.090   1.231  -2.507  1.00  0.00     0.163 HD
ATOM     33  O   UNL     1       9.393   0.831  -1.835  1.00  0.00    -0.269 OA
BRANCH  31  34
ATOM     34  C   UNL     1       9.047   2.260   0.003  1.00  0.00     0.039 A 
ATOM     35  C   UNL     1       9.676   1.444   0.950  1.00  0.00     0.014 A 
ATOM     36  C   UNL     1       8.525   3.489   0.384  1.00  0.00     0.014 A 
ATOM     37  C   UNL     1       9.474   1.702   2.301  1.00  0.00     0.010 A 
ATOM     38  C   UNL     1       8.188   3.661   1.708  1.00  0.00     0.010 A 
ATOM     39  C   UNL     1       8.586   2.715   2.655  1.00  0.00    -0.014 A 
BRANCH  39  40
ATOM     40  C   UNL     1       7.906   2.759   3.945  1.00  0.00     0.031 A 
ATOM     41  C   UNL     1       8.194   3.862   4.892  1.00  0.00     0.074 A 
ATOM     42  C   UNL     1       6.947   1.844   4.231  1.00  0.00     0.049 A 
ATOM     43  N   UNL     1       8.003   3.798   6.167  1.00  0.00    -0.248 NA
ATOM     44  C   UNL     1       8.784   5.130   4.470  1.00  0.00     0.031 C 
ATOM     45  C   UNL     1       6.007   1.885   5.352  1.00  0.00     0.029 A 
ATOM     46  N   UNL     1       6.727   0.574   3.682  1.00  0.00    -0.354 N 
ATOM     47  C   UNL     1       8.111   5.079   6.663  1.00  0.00     0.074 A 
ATOM     48  C   UNL     1       8.716   5.840   5.598  1.00  0.00     0.031 C 
ATOM     49  C   UNL     1       5.582   0.635   5.601  1.00  0.00     0.029 A 
ATOM     50  C   UNL     1       6.365  -0.252   4.758  1.00  0.00     0.049 A 
ATOM     51  H   UNL     1       6.810   0.315   2.736  1.00  0.00     0.167 HD
ATOM     52  C   UNL     1       7.522   5.387   7.854  1.00  0.00     0.031 A 
ATOM     53  C   UNL     1       7.124  -1.292   5.220  1.00  0.00     0.031 A 
ATOM     54  C   UNL     1       7.008   4.190   8.524  1.00  0.00     0.049 A 
ATOM     55  C   UNL     1       7.503  -1.158   6.688  1.00  0.00     0.074 A 
ATOM     56  C   UNL     1       5.735   3.667   8.687  1.00  0.00     0.029 A 
ATOM     57  N   UNL     1       7.895   3.183   8.891  1.00  0.00    -0.354 N 
ATOM     58  N   UNL     1       7.415  -0.042   7.358  1.00  0.00    -0.248 NA
ATOM     59  C   UNL     1       8.069  -2.239   7.496  1.00  0.00     0.031 C 
ATOM     60  C   UNL     1       5.866   2.304   9.065  1.00  0.00     0.029 A 
ATOM     61  C   UNL     1       7.215   2.012   9.165  1.00  0.00     0.049 A 
ATOM     62  H   UNL     1       8.872   3.289   8.947  1.00  0.00     0.167 HD
ATOM     63  C   UNL     1       7.894  -0.220   8.628  1.00  0.00     0.074 A 
ATOM     64  C   UNL     1       8.282  -1.618   8.672  1.00  0.00     0.031 C 
ATOM     65  C   UNL     1       7.948   0.805   9.527  1.00  0.00     0.031 A 
BRANCH  52  66
ATOM     66  C   UNL     1       7.139   6.798   8.260  1.00  0.00    -0.014 A 
ATOM     67  C   UNL     1       6.118   6.993   9.211  1.00  0.00     0.009 A 
ATOM     68  C   UNL     1       7.665   7.972   7.695  1.00  0.00     0.009 A 
ATOM     69  C   UNL     1       5.594   8.262   9.499  1.00  0.00     0.001 A 
ATOM     70  C   UNL     1       7.132   9.243   7.956  1.00  0.00     0.001 A 
ATOM     71  C   UNL     1       6.083   9.387   8.850  1.00  0.00     0.000 A 
ENDBRANCH  52  66
BRANCH  53  72
ATOM     72  C   UNL     1       7.980  -1.946   4.196  1.00  0.00    -0.014 A 
ATOM     73  C   UNL     1       7.355  -2.674   3.166  1.00  0.00     0.009 A 
ATOM     74  C   UNL     1       9.323  -1.579   4.033  1.00  0.00     0.009 A 
ATOM     75  C   UNL     1       8.012  -2.921   1.958  1.00  0.00     0.001 A 
ATOM     76  C   UNL     1       9.982  -1.835   2.823  1.00  0.00     0.001 A 
ATOM     77  C   UNL     1       9.316  -2.470   1.775  1.00  0.00     0.000 A 
ENDBRANCH  53  72
BRANCH  65  78
ATOM     78  C   UNL     1       8.648   0.774  10.863  1.00  0.00    -0.014 A 
ATOM     79  C   UNL     1       9.736  -0.055  11.163  1.00  0.00     0.009 A 
ATOM     80  C   UNL     1       8.294   1.736  11.837  1.00  0.00     0.009 A 
ATOM     81  C   UNL     1      10.409   0.043  12.390  1.00  0.00     0.001 A 
ATOM     82  C   UNL     1       8.989   1.867  13.041  1.00  0.00     0.001 A 
ATOM     83  C   UNL     1      10.043   1.010  13.323  1.00  0.00     0.000 A 
ENDBRANCH  65  78
ENDBRANCH  39  40
ENDBRANCH  31  34
ENDBRANCH  29  30
ENDBRANCH  28  29
ENDBRANCH   1  28
TORSDOF 14
