REMARK SMILES CC[C@H]1CCCCN1S(=O)(=O)CC(=O)NCCCCNC(=O)c1ccc(-c2c3nc(c(-c4ccccc4)c4ccc([nH]4)c(-c4ccccc4)c4nc(c(-c5ccccc5)c5ccc2[nH]5)C=C4)C=C3)cc1
REMARK SMILES IDX 17 1 16 2 15 3 13 4 14 5 12 7 9 8 10 9 11 10 8 11 3 12 4 13
REMARK SMILES IDX 5 14 7 15 6 16 2 17 1 18 18 19 19 20 20 21 21 22 22 24 23 25
REMARK SMILES IDX 24 26 70 27 25 28 69 29 26 30 27 31 28 32 63 33 29 34 68 35
REMARK SMILES IDX 62 36 64 37 30 38 67 39 61 40 60 41 31 43 53 44 38 45 52 46
REMARK SMILES IDX 39 47 42 48 51 49 65 50 40 51 41 52 50 54 66 55 43 56 32 57
REMARK SMILES IDX 33 58 37 59 34 60 36 61 35 62 54 63 55 64 59 65 56 66 58 67
REMARK SMILES IDX 57 68 44 69 45 70 49 71 46 72 48 73 47 74
REMARK H PARENT 15 6 20 23 64 42 42 53
REMARK Flexibility Score: inf
ROOT
ATOM      1  C   UNL     1       0.578   4.127   1.737  1.00  0.00     0.023 C 
ENDROOT
BRANCH   1   2
ATOM      2  C   UNL     1       0.633   5.509   1.084  1.00  0.00     0.116 C 
BRANCH   2   3
ATOM      3  N   UNL     1       1.826   5.643   0.268  1.00  0.00    -0.355 N 
ATOM      4  C   UNL     1       1.952   5.558  -1.088  1.00  0.00     0.236 C 
ATOM      5  O   UNL     1       3.092   5.518  -1.557  1.00  0.00    -0.274 OA
ATOM      6  H   UNL     1       2.660   5.819   0.761  1.00  0.00     0.163 HD
BRANCH   4   7
ATOM      7  C   UNL     1       0.756   5.654  -1.979  1.00  0.00     0.253 C 
BRANCH   7   8
ATOM      8  S   UNL     1      -0.038   4.098  -2.273  1.00  0.00     0.223 S 
ATOM      9  O   UNL     1      -0.781   4.216  -3.508  1.00  0.00    -0.212 OA
ATOM     10  O   UNL     1      -0.732   3.709  -1.057  1.00  0.00    -0.212 OA
BRANCH   8  11
ATOM     11  N   UNL     1       1.216   2.982  -2.538  1.00  0.00    -0.198 NA
ATOM     12  C   UNL     1       0.887   1.544  -2.215  1.00  0.00     0.072 C 
ATOM     13  C   UNL     1       2.179   0.710  -2.268  1.00  0.00     0.020 C 
ATOM     14  C   UNL     1       2.906   0.849  -3.599  1.00  0.00     0.003 C 
ATOM     15  C   UNL     1       1.949   3.164  -3.825  1.00  0.00     0.102 C 
ATOM     16  C   UNL     1       3.214   2.316  -3.861  1.00  0.00     0.017 C 
BRANCH  12  17
ATOM     17  C   UNL     1      -0.255   1.000  -3.097  1.00  0.00     0.017 C 
ATOM     18  C   UNL     1      -0.649  -0.435  -2.775  1.00  0.00     0.005 C 
ENDBRANCH  12  17
ENDBRANCH   8  11
ENDBRANCH   7   8
ENDBRANCH   4   7
ENDBRANCH   2   3
ENDBRANCH   1   2
BRANCH   1  19
ATOM     19  C   UNL     1       1.593   3.914   2.863  1.00  0.00     0.023 C 
BRANCH  19  20
ATOM     20  C   UNL     1       1.440   4.848   4.058  1.00  0.00     0.116 C 
BRANCH  20  21
ATOM     21  N   UNL     1       0.140   4.748   4.702  1.00  0.00    -0.352 N 
ATOM     22  C   UNL     1      -0.163   4.799   6.041  1.00  0.00     0.251 C 
ATOM     23  H   UNL     1      -0.626   4.627   4.096  1.00  0.00     0.163 HD
ATOM     24  O   UNL     1      -1.308   4.590   6.427  1.00  0.00    -0.269 OA
BRANCH  22  25
ATOM     25  C   UNL     1       0.908   5.070   7.022  1.00  0.00     0.039 A 
ATOM     26  C   UNL     1       1.014   4.245   8.144  1.00  0.00     0.014 A 
ATOM     27  C   UNL     1       1.812   6.118   6.828  1.00  0.00     0.014 A 
ATOM     28  C   UNL     1       2.070   4.427   9.039  1.00  0.00     0.010 A 
ATOM     29  C   UNL     1       2.900   6.258   7.684  1.00  0.00     0.010 A 
ATOM     30  C   UNL     1       3.040   5.414   8.796  1.00  0.00    -0.014 A 
BRANCH  30  31
ATOM     31  C   UNL     1       4.208   5.579   9.694  1.00  0.00     0.031 A 
ATOM     32  C   UNL     1       4.369   6.836  10.500  1.00  0.00     0.074 A 
ATOM     33  C   UNL     1       5.158   4.625   9.735  1.00  0.00     0.049 A 
ATOM     34  N   UNL     1       5.350   7.190  11.291  1.00  0.00    -0.248 NA
ATOM     35  C   UNL     1       3.298   7.838  10.383  1.00  0.00     0.031 C 
ATOM     36  C   UNL     1       5.138   3.372   8.976  1.00  0.00     0.029 A 
ATOM     37  N   UNL     1       6.330   4.564  10.446  1.00  0.00    -0.354 N 
ATOM     38  C   UNL     1       5.024   8.460  11.749  1.00  0.00     0.074 A 
ATOM     39  C   UNL     1       3.779   8.833  11.114  1.00  0.00     0.031 C 
ATOM     40  C   UNL     1       6.230   2.654   9.286  1.00  0.00     0.029 A 
ATOM     41  C   UNL     1       7.042   3.409  10.235  1.00  0.00     0.049 A 
ATOM     42  H   UNL     1       6.631   5.280  11.050  1.00  0.00     0.167 HD
ATOM     43  C   UNL     1       5.690   9.239  12.634  1.00  0.00     0.031 A 
ATOM     44  C   UNL     1       8.219   3.004  10.748  1.00  0.00     0.031 A 
ATOM     45  C   UNL     1       6.919   8.866  13.279  1.00  0.00     0.049 A 
ATOM     46  C   UNL     1       8.944   3.891  11.719  1.00  0.00     0.074 A 
ATOM     47  C   UNL     1       7.643   9.565  14.230  1.00  0.00     0.029 A 
ATOM     48  N   UNL     1       7.607   7.687  13.039  1.00  0.00    -0.354 N 
ATOM     49  N   UNL     1       8.595   5.066  12.184  1.00  0.00    -0.248 NA
ATOM     50  C   UNL     1      10.223   3.390  12.242  1.00  0.00     0.031 C 
ATOM     51  C   UNL     1       8.790   8.824  14.537  1.00  0.00     0.029 A 
ATOM     52  C   UNL     1       8.757   7.646  13.809  1.00  0.00     0.049 A 
ATOM     53  H   UNL     1       7.321   6.983  12.412  1.00  0.00     0.167 HD
ATOM     54  C   UNL     1       9.595   5.432  13.074  1.00  0.00     0.074 A 
ATOM     55  C   UNL     1      10.559   4.351  13.091  1.00  0.00     0.031 C 
ATOM     56  C   UNL     1       9.704   6.562  13.814  1.00  0.00     0.031 A 
BRANCH  43  57
ATOM     57  C   UNL     1       5.092  10.582  12.948  1.00  0.00    -0.014 A 
ATOM     58  C   UNL     1       3.918  10.693  13.710  1.00  0.00     0.009 A 
ATOM     59  C   UNL     1       5.716  11.750  12.485  1.00  0.00     0.009 A 
ATOM     60  C   UNL     1       3.358  11.946  13.966  1.00  0.00     0.001 A 
ATOM     61  C   UNL     1       5.168  13.003  12.766  1.00  0.00     0.001 A 
ATOM     62  C   UNL     1       3.984  13.099  13.496  1.00  0.00     0.000 A 
ENDBRANCH  43  57
BRANCH  44  63
ATOM     63  C   UNL     1       8.773   1.677  10.378  1.00  0.00    -0.014 A 
ATOM     64  C   UNL     1       8.753   0.623  11.304  1.00  0.00     0.009 A 
ATOM     65  C   UNL     1       9.323   1.457   9.107  1.00  0.00     0.009 A 
ATOM     66  C   UNL     1       9.295  -0.621  10.971  1.00  0.00     0.001 A 
ATOM     67  C   UNL     1       9.843   0.206   8.769  1.00  0.00     0.001 A 
ATOM     68  C   UNL     1       9.836  -0.829   9.704  1.00  0.00     0.000 A 
ENDBRANCH  44  63
BRANCH  56  69
ATOM     69  C   UNL     1      10.889   6.668  14.729  1.00  0.00    -0.014 A 
ATOM     70  C   UNL     1      12.173   6.933  14.228  1.00  0.00     0.009 A 
ATOM     71  C   UNL     1      10.711   6.532  16.114  1.00  0.00     0.009 A 
ATOM     72  C   UNL     1      13.261   7.031  15.098  1.00  0.00     0.001 A 
ATOM     73  C   UNL     1      11.796   6.655  16.982  1.00  0.00     0.001 A 
ATOM     74  C   UNL     1      13.071   6.896  16.473  1.00  0.00     0.000 A 
ENDBRANCH  56  69
ENDBRANCH  30  31
ENDBRANCH  22  25
ENDBRANCH  20  21
ENDBRANCH  19  20
ENDBRANCH   1  19
TORSDOF 14
