REMARK SMILES C[N@@H+]1CCN(C(=O)c2ccc3[nH]c4c(c3c2)CSCC4)C[C@H]1C(=O)NCCCCNC(=O)c1ccc(-c2c3nc(c(-c4ccccc4)c4ccc([nH]4)c(-c4ccccc4)c4nc(c(-c5ccccc5)c5ccc2[nH]5)C=C4)C=C3)cc1
REMARK SMILES IDX 27 1 26 2 25 3 23 4 24 5 22 7 1 8 2 9 3 10 4 12 21 13 5 14
REMARK SMILES IDX 6 15 7 16 8 17 9 18 16 19 10 20 15 21 11 22 14 23 12 24
REMARK SMILES IDX 13 25 17 26 20 28 18 29 19 30 28 31 29 32 30 33 31 34 32 36
REMARK SMILES IDX 33 37 34 38 80 39 35 40 79 41 36 42 37 43 38 44 73 45 39 46
REMARK SMILES IDX 78 47 72 48 74 49 40 50 77 51 71 52 70 53 41 55 63 56 48 57
REMARK SMILES IDX 62 58 49 59 52 60 61 61 75 62 50 63 51 64 60 66 76 67 53 68
REMARK SMILES IDX 42 69 43 70 47 71 44 72 46 73 45 74 64 75 65 76 69 77 66 78
REMARK SMILES IDX 68 79 67 80 54 81 55 82 59 83 56 84 58 85 57 86
REMARK H PARENT 25 6 2 11 12 27 30 35 74 54 52 65
REMARK Flexibility Score: inf
ROOT
ATOM      1  C   UNL     1       1.729  -1.337  -3.779  1.00  0.00     0.023 C 
ENDROOT
BRANCH   1   2
ATOM      2  C   UNL     1       0.615  -1.695  -2.805  1.00  0.00     0.116 C 
BRANCH   2   3
ATOM      3  N   UNL     1       1.071  -2.586  -1.753  1.00  0.00    -0.351 N 
ATOM      4  C   UNL     1       1.021  -2.427  -0.399  1.00  0.00     0.280 C 
ATOM      5  O   UNL     1       1.476  -3.336   0.302  1.00  0.00    -0.268 OA
ATOM      6  H   UNL     1       1.476  -3.428  -2.062  1.00  0.00     0.163 HD
BRANCH   4   7
ATOM      7  C   UNL     1       0.380  -1.188   0.242  1.00  0.00     0.293 C 
ATOM      8  C   UNL     1       2.431   0.140   0.167  1.00  0.00     0.333 C 
ATOM      9  N   UNL     1       1.018   0.083  -0.219  1.00  0.00    -0.324 N 
ATOM     10  C   UNL     1       0.291   1.232   0.368  1.00  0.00     0.284 C 
ATOM     11  H   UNL     1       0.968   0.120  -1.237  1.00  0.00     0.348 HD
ATOM     12  C   UNL     1      -1.217   1.208   0.064  1.00  0.00     0.181 C 
ATOM     13  C   UNL     1      -1.141  -1.252  -0.013  1.00  0.00     0.195 C 
ATOM     14  N   UNL     1      -1.842  -0.054   0.462  1.00  0.00    -0.326 N 
BRANCH  14  15
ATOM     15  C   UNL     1      -3.151  -0.027   0.934  1.00  0.00     0.254 C 
ATOM     16  O   UNL     1      -3.796   1.008   1.084  1.00  0.00    -0.269 OA
BRANCH  15  17
ATOM     17  C   UNL     1      -3.828  -1.306   1.238  1.00  0.00     0.040 A 
ATOM     18  C   UNL     1      -3.302  -2.185   2.189  1.00  0.00     0.016 A 
ATOM     19  C   UNL     1      -5.024  -1.595   0.566  1.00  0.00     0.024 A 
ATOM     20  C   UNL     1      -3.913  -3.416   2.435  1.00  0.00     0.027 A 
ATOM     21  C   UNL     1      -5.670  -2.821   0.821  1.00  0.00     0.004 A 
ATOM     22  C   UNL     1      -5.091  -3.706   1.734  1.00  0.00     0.046 A 
ATOM     23  C   UNL     1      -6.880  -3.419   0.352  1.00  0.00    -0.009 A 
ATOM     24  N   UNL     1      -5.895  -4.822   1.784  1.00  0.00    -0.358 N 
ATOM     25  C   UNL     1      -6.991  -4.643   0.988  1.00  0.00     0.021 A 
ATOM     26  C   UNL     1      -7.878  -2.823  -0.589  1.00  0.00     0.107 C 
ATOM     27  H   UNL     1      -5.708  -5.629   2.316  1.00  0.00     0.166 HD
ATOM     28  C   UNL     1      -8.100  -5.630   0.866  1.00  0.00     0.065 C 
ATOM     29  S   UNL     1      -9.179  -3.997  -1.122  1.00  0.00    -0.157 SA
ATOM     30  C   UNL     1      -9.395  -4.931   0.440  1.00  0.00     0.076 C 
ENDBRANCH  15  17
ENDBRANCH  14  15
ENDBRANCH   4   7
ENDBRANCH   2   3
ENDBRANCH   1   2
BRANCH   1  31
ATOM     31  C   UNL     1       2.338  -2.524  -4.527  1.00  0.00     0.023 C 
BRANCH  31  32
ATOM     32  C   UNL     1       1.335  -3.459  -5.208  1.00  0.00     0.116 C 
BRANCH  32  33
ATOM     33  N   UNL     1       0.404  -2.806  -6.106  1.00  0.00    -0.352 N 
ATOM     34  C   UNL     1       0.448  -2.394  -7.412  1.00  0.00     0.251 C 
ATOM     35  H   UNL     1      -0.462  -2.615  -5.678  1.00  0.00     0.163 HD
ATOM     36  O   UNL     1      -0.612  -2.009  -7.897  1.00  0.00    -0.269 OA
BRANCH  34  37
ATOM     37  C   UNL     1       1.683  -2.329  -8.244  1.00  0.00     0.039 A 
ATOM     38  C   UNL     1       2.935  -2.811  -7.872  1.00  0.00     0.014 A 
ATOM     39  C   UNL     1       1.561  -1.686  -9.492  1.00  0.00     0.014 A 
ATOM     40  C   UNL     1       4.052  -2.567  -8.662  1.00  0.00     0.010 A 
ATOM     41  C   UNL     1       2.671  -1.471 -10.307  1.00  0.00     0.010 A 
ATOM     42  C   UNL     1       3.927  -1.879  -9.870  1.00  0.00    -0.014 A 
BRANCH  42  43
ATOM     43  C   UNL     1       5.142  -1.708 -10.661  1.00  0.00     0.031 A 
ATOM     44  C   UNL     1       5.813  -2.962 -11.112  1.00  0.00     0.074 A 
ATOM     45  C   UNL     1       5.628  -0.519 -11.065  1.00  0.00     0.049 A 
ATOM     46  N   UNL     1       7.027  -3.347 -10.883  1.00  0.00    -0.248 NA
ATOM     47  C   UNL     1       5.008  -3.929 -11.871  1.00  0.00     0.031 C 
ATOM     48  C   UNL     1       4.979   0.790 -11.010  1.00  0.00     0.029 A 
ATOM     49  N   UNL     1       6.793  -0.268 -11.730  1.00  0.00    -0.354 N 
ATOM     50  C   UNL     1       7.192  -4.550 -11.568  1.00  0.00     0.074 A 
ATOM     51  C   UNL     1       5.895  -4.901 -12.091  1.00  0.00     0.031 C 
ATOM     52  C   UNL     1       5.644   1.641 -11.824  1.00  0.00     0.029 A 
ATOM     53  C   UNL     1       6.829   0.974 -12.341  1.00  0.00     0.049 A 
ATOM     54  H   UNL     1       7.538  -0.910 -11.772  1.00  0.00     0.167 HD
ATOM     55  C   UNL     1       8.414  -5.117 -11.773  1.00  0.00     0.031 A 
ATOM     56  C   UNL     1       7.720   1.388 -13.273  1.00  0.00     0.031 A 
ATOM     57  C   UNL     1       9.416  -4.584 -10.893  1.00  0.00     0.049 A 
ATOM     58  C   UNL     1       8.918   0.521 -13.192  1.00  0.00     0.074 A 
ATOM     59  C   UNL     1       9.574  -4.540  -9.522  1.00  0.00     0.029 A 
ATOM     60  N   UNL     1      10.325  -3.690 -11.404  1.00  0.00    -0.354 N 
ATOM     61  N   UNL     1       9.774   0.544 -12.212  1.00  0.00    -0.248 NA
ATOM     62  C   UNL     1       8.984  -0.652 -14.049  1.00  0.00     0.031 C 
ATOM     63  C   UNL     1      10.202  -3.289  -9.265  1.00  0.00     0.029 A 
ATOM     64  C   UNL     1      10.425  -2.669 -10.496  1.00  0.00     0.049 A 
ATOM     65  H   UNL     1      10.810  -3.768 -12.257  1.00  0.00     0.167 HD
ATOM     66  C   UNL     1      10.181  -0.773 -12.066  1.00  0.00     0.074 A 
ATOM     67  C   UNL     1       9.761  -1.435 -13.298  1.00  0.00     0.031 C 
ATOM     68  C   UNL     1      10.563  -1.272 -10.852  1.00  0.00     0.031 A 
BRANCH  55  69
ATOM     69  C   UNL     1       8.770  -5.970 -12.963  1.00  0.00    -0.014 A 
ATOM     70  C   UNL     1       7.997  -6.018 -14.137  1.00  0.00     0.009 A 
ATOM     71  C   UNL     1      10.050  -6.556 -13.028  1.00  0.00     0.009 A 
ATOM     72  C   UNL     1       8.472  -6.605 -15.315  1.00  0.00     0.001 A 
ATOM     73  C   UNL     1      10.547  -7.103 -14.218  1.00  0.00     0.001 A 
ATOM     74  C   UNL     1       9.757  -7.124 -15.362  1.00  0.00     0.000 A 
ENDBRANCH  55  69
BRANCH  56  75
ATOM     75  C   UNL     1       7.482   2.294 -14.416  1.00  0.00    -0.014 A 
ATOM     76  C   UNL     1       6.194   2.422 -14.970  1.00  0.00     0.009 A 
ATOM     77  C   UNL     1       8.558   2.834 -15.136  1.00  0.00     0.009 A 
ATOM     78  C   UNL     1       5.991   3.036 -16.208  1.00  0.00     0.001 A 
ATOM     79  C   UNL     1       8.357   3.440 -16.383  1.00  0.00     0.001 A 
ATOM     80  C   UNL     1       7.076   3.530 -16.923  1.00  0.00     0.000 A 
ENDBRANCH  56  75
BRANCH  68  81
ATOM     81  C   UNL     1      10.821  -0.318  -9.708  1.00  0.00    -0.014 A 
ATOM     82  C   UNL     1      11.963  -0.520  -8.915  1.00  0.00     0.009 A 
ATOM     83  C   UNL     1       9.885   0.640  -9.282  1.00  0.00     0.009 A 
ATOM     84  C   UNL     1      12.160   0.200  -7.734  1.00  0.00     0.001 A 
ATOM     85  C   UNL     1      10.097   1.385  -8.117  1.00  0.00     0.001 A 
ATOM     86  C   UNL     1      11.229   1.157  -7.338  1.00  0.00     0.000 A 
ENDBRANCH  68  81
ENDBRANCH  42  43
ENDBRANCH  34  37
ENDBRANCH  32  33
ENDBRANCH  31  32
ENDBRANCH   1  31
TORSDOF 13
