REMARK SMILES Cc1ccnc(C(=O)c2[nH]c3ccc(F)cc3c2CC(=O)NCCCCNC(=O)c2ccc(-c3c4nc(c(-c5ccccc5)c5ccc([nH]5)c(-c5ccccc5)c5nc(c(-c6ccccc6)c6ccc3[nH]6)C=C5)C=C4)cc2)c1
REMARK SMILES IDX 24 1 23 2 22 3 20 4 21 5 19 7 18 8 9 9 10 10 11 11 17 13
REMARK SMILES IDX 12 14 16 15 13 16 14 17 15 18 7 19 8 20 6 21 1 22 2 23 3 24
REMARK SMILES IDX 78 25 4 26 5 27 25 28 26 29 27 30 28 31 29 33 30 34 31 35
REMARK SMILES IDX 77 36 32 37 76 38 33 39 34 40 35 41 70 42 36 43 75 44 69 45
REMARK SMILES IDX 71 46 37 47 74 48 68 49 67 50 38 52 60 53 45 54 59 55 46 56
REMARK SMILES IDX 49 57 58 58 72 59 47 60 48 61 57 63 73 64 50 65 39 66 40 67
REMARK SMILES IDX 44 68 41 69 43 70 42 71 61 72 62 73 66 74 63 75 65 76 64 77
REMARK SMILES IDX 51 78 52 79 56 80 53 81 55 82 54 83
REMARK H PARENT 22 6 10 12 27 32 71 51 49 62
REMARK Flexibility Score: inf
ROOT
ATOM      1  C   UNL     1      -2.836  -3.899   0.693  1.00  0.00     0.023 C 
ENDROOT
BRANCH   1   2
ATOM      2  C   UNL     1      -3.072  -3.746  -0.812  1.00  0.00     0.116 C 
BRANCH   2   3
ATOM      3  N   UNL     1      -2.471  -2.568  -1.401  1.00  0.00    -0.356 N 
ATOM      4  C   UNL     1      -1.296  -2.410  -2.075  1.00  0.00     0.224 C 
ATOM      5  O   UNL     1      -1.133  -1.329  -2.651  1.00  0.00    -0.275 OA
ATOM      6  H   UNL     1      -2.998  -1.744  -1.298  1.00  0.00     0.163 HD
BRANCH   4   7
ATOM      7  C   UNL     1      -0.248  -3.502  -2.192  1.00  0.00     0.138 C 
BRANCH   7   8
ATOM      8  C   UNL     1       0.232  -4.127  -0.911  1.00  0.00    -0.002 A 
ATOM      9  C   UNL     1       1.095  -3.616   0.064  1.00  0.00     0.093 A 
ATOM     10  N   UNL     1       1.305  -4.632   0.978  1.00  0.00    -0.352 N 
ATOM     11  C   UNL     1       0.555  -5.740   0.690  1.00  0.00     0.046 A 
ATOM     12  H   UNL     1       1.920  -4.567   1.743  1.00  0.00     0.167 HD
ATOM     13  C   UNL     1      -0.067  -5.492  -0.530  1.00  0.00     0.007 A 
ATOM     14  C   UNL     1       0.406  -6.938   1.401  1.00  0.00     0.030 A 
ATOM     15  C   UNL     1      -0.834  -6.531  -1.102  1.00  0.00     0.049 A 
ATOM     16  C   UNL     1      -0.409  -7.924   0.841  1.00  0.00     0.041 A 
ATOM     17  C   UNL     1      -1.005  -7.720  -0.395  1.00  0.00     0.123 A 
ATOM     18  F   UNL     1      -1.780  -8.681  -0.916  1.00  0.00    -0.207 F 
BRANCH   9  19
ATOM     19  C   UNL     1       1.845  -2.376   0.244  1.00  0.00     0.227 C 
ATOM     20  O   UNL     1       3.002  -2.431   0.665  1.00  0.00    -0.285 OA
BRANCH  19  21
ATOM     21  C   UNL     1       1.219  -1.021   0.085  1.00  0.00     0.113 A 
ATOM     22  C   UNL     1      -2.123   0.765   0.328  1.00  0.00     0.044 C 
ATOM     23  C   UNL     1      -0.658   0.484   0.180  1.00  0.00    -0.047 A 
ATOM     24  C   UNL     1       0.222   1.530  -0.092  1.00  0.00     0.023 A 
ATOM     25  C   UNL     1      -0.135  -0.807   0.323  1.00  0.00     0.036 A 
ATOM     26  C   UNL     1       1.565   1.240  -0.256  1.00  0.00     0.112 A 
ATOM     27  N   UNL     1       2.080  -0.005  -0.182  1.00  0.00    -0.253 NA
ENDBRANCH  19  21
ENDBRANCH   9  19
ENDBRANCH   7   8
ENDBRANCH   4   7
ENDBRANCH   2   3
ENDBRANCH   1   2
BRANCH   1  28
ATOM     28  C   UNL     1      -3.409  -2.814   1.606  1.00  0.00     0.023 C 
BRANCH  28  29
ATOM     29  C   UNL     1      -4.868  -2.453   1.383  1.00  0.00     0.116 C 
BRANCH  29  30
ATOM     30  N   UNL     1      -5.755  -3.583   1.583  1.00  0.00    -0.352 N 
ATOM     31  C   UNL     1      -6.980  -3.622   2.200  1.00  0.00     0.251 C 
ATOM     32  H   UNL     1      -5.432  -4.442   1.227  1.00  0.00     0.163 HD
ATOM     33  O   UNL     1      -7.523  -4.703   2.406  1.00  0.00    -0.269 OA
BRANCH  31  34
ATOM     34  C   UNL     1      -7.636  -2.372   2.646  1.00  0.00     0.039 A 
ATOM     35  C   UNL     1      -8.245  -2.356   3.904  1.00  0.00     0.014 A 
ATOM     36  C   UNL     1      -7.680  -1.235   1.833  1.00  0.00     0.014 A 
ATOM     37  C   UNL     1      -8.854  -1.188   4.366  1.00  0.00     0.010 A 
ATOM     38  C   UNL     1      -8.239  -0.053   2.318  1.00  0.00     0.010 A 
ATOM     39  C   UNL     1      -8.834  -0.020   3.588  1.00  0.00    -0.014 A 
BRANCH  39  40
ATOM     40  C   UNL     1      -9.422   1.242   4.103  1.00  0.00     0.031 A 
ATOM     41  C   UNL     1     -10.652   1.829   3.471  1.00  0.00     0.074 A 
ATOM     42  C   UNL     1      -8.821   1.881   5.125  1.00  0.00     0.049 A 
ATOM     43  N   UNL     1     -11.302   2.920   3.791  1.00  0.00    -0.248 NA
ATOM     44  C   UNL     1     -11.216   1.110   2.318  1.00  0.00     0.031 C 
ATOM     45  C   UNL     1      -7.599   1.439   5.800  1.00  0.00     0.029 A 
ATOM     46  N   UNL     1      -9.160   3.042   5.774  1.00  0.00    -0.354 N 
ATOM     47  C   UNL     1     -12.343   3.023   2.877  1.00  0.00     0.074 A 
ATOM     48  C   UNL     1     -12.213   1.909   1.963  1.00  0.00     0.031 C 
ATOM     49  C   UNL     1      -7.307   2.302   6.786  1.00  0.00     0.029 A 
ATOM     50  C   UNL     1      -8.302   3.370   6.795  1.00  0.00     0.049 A 
ATOM     51  H   UNL     1      -9.943   3.586   5.532  1.00  0.00     0.167 HD
ATOM     52  C   UNL     1     -13.329   3.950   2.814  1.00  0.00     0.031 A 
ATOM     53  C   UNL     1      -8.314   4.413   7.645  1.00  0.00     0.031 A 
ATOM     54  C   UNL     1     -13.466   5.056   3.724  1.00  0.00     0.049 A 
ATOM     55  C   UNL     1      -9.417   5.428   7.552  1.00  0.00     0.074 A 
ATOM     56  C   UNL     1     -14.464   6.014   3.773  1.00  0.00     0.029 A 
ATOM     57  N   UNL     1     -12.576   5.354   4.744  1.00  0.00    -0.354 N 
ATOM     58  N   UNL     1     -10.432   5.471   6.725  1.00  0.00    -0.248 NA
ATOM     59  C   UNL     1      -9.379   6.532   8.521  1.00  0.00     0.031 C 
ATOM     60  C   UNL     1     -14.154   6.919   4.795  1.00  0.00     0.029 A 
ATOM     61  C   UNL     1     -12.988   6.496   5.412  1.00  0.00     0.049 A 
ATOM     62  H   UNL     1     -11.770   4.832   4.961  1.00  0.00     0.167 HD
ATOM     63  C   UNL     1     -11.165   6.594   7.086  1.00  0.00     0.074 A 
ATOM     64  C   UNL     1     -10.488   7.191   8.219  1.00  0.00     0.031 C 
ATOM     65  C   UNL     1     -12.297   7.087   6.528  1.00  0.00     0.031 A 
BRANCH  52  66
ATOM     66  C   UNL     1     -14.339   3.808   1.710  1.00  0.00    -0.014 A 
ATOM     67  C   UNL     1     -15.303   2.788   1.735  1.00  0.00     0.009 A 
ATOM     68  C   UNL     1     -14.351   4.728   0.650  1.00  0.00     0.009 A 
ATOM     69  C   UNL     1     -16.237   2.671   0.703  1.00  0.00     0.001 A 
ATOM     70  C   UNL     1     -15.302   4.625  -0.367  1.00  0.00     0.001 A 
ATOM     71  C   UNL     1     -16.238   3.592  -0.344  1.00  0.00     0.000 A 
ENDBRANCH  52  66
BRANCH  53  72
ATOM     72  C   UNL     1      -7.256   4.538   8.679  1.00  0.00    -0.014 A 
ATOM     73  C   UNL     1      -7.551   4.296  10.030  1.00  0.00     0.009 A 
ATOM     74  C   UNL     1      -5.949   4.902   8.322  1.00  0.00     0.009 A 
ATOM     75  C   UNL     1      -6.562   4.441  11.005  1.00  0.00     0.001 A 
ATOM     76  C   UNL     1      -4.957   5.021   9.297  1.00  0.00     0.001 A 
ATOM     77  C   UNL     1      -5.266   4.798  10.638  1.00  0.00     0.000 A 
ENDBRANCH  53  72
BRANCH  65  78
ATOM     78  C   UNL     1     -12.879   8.324   7.150  1.00  0.00    -0.014 A 
ATOM     79  C   UNL     1     -12.269   9.577   6.981  1.00  0.00     0.009 A 
ATOM     80  C   UNL     1     -14.061   8.237   7.902  1.00  0.00     0.009 A 
ATOM     81  C   UNL     1     -12.811  10.713   7.586  1.00  0.00     0.001 A 
ATOM     82  C   UNL     1     -14.615   9.379   8.483  1.00  0.00     0.001 A 
ATOM     83  C   UNL     1     -13.984  10.613   8.333  1.00  0.00     0.000 A 
ENDBRANCH  65  78
ENDBRANCH  39  40
ENDBRANCH  31  34
ENDBRANCH  29  30
ENDBRANCH  28  29
ENDBRANCH   1  28
TORSDOF 14
