REMARK SMILES COc1ccc(-c2nc3ccc(C)cc3[nH]2)c(C(=O)NCCCCNC(=O)c2ccc(-c3c4nc(c(-c5ccccc5)c5ccc([nH]5)c(-c5ccccc5)c5nc(c(-c6ccccc6)c6ccc3[nH]6)C=C5)C=C4)cc2)c1OC
REMARK SMILES IDX 23 1 22 2 21 3 20 4 18 5 19 6 17 8 3 9 4 10 76 11 5 12 6 13
REMARK SMILES IDX 2 14 1 15 77 16 78 17 7 18 8 19 16 20 9 21 15 22 10 24 14 25
REMARK SMILES IDX 11 26 12 27 13 28 24 29 25 30 26 31 27 33 28 34 29 35 75 36
REMARK SMILES IDX 30 37 74 38 31 39 32 40 33 41 68 42 34 43 73 44 67 45 69 46
REMARK SMILES IDX 35 47 72 48 66 49 65 50 36 52 58 53 43 54 57 55 44 56 47 57
REMARK SMILES IDX 56 58 70 59 45 60 46 61 55 63 71 64 48 65 37 66 38 67 42 68
REMARK SMILES IDX 39 69 41 70 40 71 59 72 60 73 64 74 61 75 63 76 62 77 49 78
REMARK SMILES IDX 50 79 54 80 51 81 53 82 52 83
REMARK H PARENT 20 7 16 23 25 32 69 51 47 62
REMARK Flexibility Score: inf
ROOT
ATOM      1  C   UNL     1       7.324  -0.202   1.478  1.00  0.00     0.023 C 
ENDROOT
BRANCH   1   2
ATOM      2  C   UNL     1       5.978   0.274   2.020  1.00  0.00     0.023 C 
BRANCH   2   3
ATOM      3  C   UNL     1       4.811  -0.695   1.921  1.00  0.00     0.116 C 
BRANCH   3   4
ATOM      4  N   UNL     1       4.949  -2.007   2.502  1.00  0.00    -0.352 N 
ATOM      5  C   UNL     1       3.916  -2.911   2.699  1.00  0.00     0.255 C 
ATOM      6  O   UNL     1       4.147  -4.117   2.727  1.00  0.00    -0.269 OA
ATOM      7  H   UNL     1       5.851  -2.284   2.783  1.00  0.00     0.163 HD
BRANCH   5   8
ATOM      8  C   UNL     1       2.542  -2.411   2.987  1.00  0.00     0.096 A 
ATOM      9  C   UNL     1       0.467  -1.295   2.358  1.00  0.00     0.161 A 
ATOM     10  C   UNL     1       0.054  -1.420   3.698  1.00  0.00     0.051 A 
ATOM     11  C   UNL     1       1.715  -1.825   1.978  1.00  0.00     0.174 A 
ATOM     12  C   UNL     1       0.813  -2.092   4.651  1.00  0.00     0.017 A 
ATOM     13  C   UNL     1       2.065  -2.603   4.311  1.00  0.00     0.034 A 
BRANCH   9  14
ATOM     14  O   UNL     1      -0.540  -0.704   1.652  1.00  0.00    -0.493 OA
ATOM     15  C   UNL     1      -0.414  -0.326   0.302  1.00  0.00     0.278 C 
ENDBRANCH   9  14
BRANCH  11  16
ATOM     16  O   UNL     1       2.048  -2.098   0.671  1.00  0.00    -0.492 OA
ATOM     17  C   UNL     1       2.433  -1.012  -0.163  1.00  0.00     0.278 C 
ENDBRANCH  11  16
BRANCH  13  18
ATOM     18  C   UNL     1       2.797  -3.371   5.327  1.00  0.00     0.139 A 
ATOM     19  N   UNL     1       4.013  -3.138   5.778  1.00  0.00    -0.228 NA
ATOM     20  N   UNL     1       2.280  -4.508   5.918  1.00  0.00    -0.338 N 
ATOM     21  C   UNL     1       4.329  -4.214   6.576  1.00  0.00     0.089 A 
ATOM     22  C   UNL     1       3.255  -5.086   6.692  1.00  0.00     0.066 A 
ATOM     23  H   UNL     1       1.363  -4.848   5.803  1.00  0.00     0.168 HD
ATOM     24  C   UNL     1       5.532  -4.529   7.221  1.00  0.00     0.031 A 
ATOM     25  C   UNL     1       3.302  -6.276   7.429  1.00  0.00     0.031 A 
ATOM     26  C   UNL     1       5.619  -5.728   7.943  1.00  0.00     0.006 A 
ATOM     27  C   UNL     1       4.522  -6.596   8.051  1.00  0.00    -0.049 A 
ATOM     28  C   UNL     1       4.684  -7.888   8.804  1.00  0.00     0.044 C 
ENDBRANCH  13  18
ENDBRANCH   5   8
ENDBRANCH   3   4
ENDBRANCH   2   3
ENDBRANCH   1   2
BRANCH   1  29
ATOM     29  C   UNL     1       7.323  -0.994   0.172  1.00  0.00     0.116 C 
BRANCH  29  30
ATOM     30  N   UNL     1       6.870  -0.249  -0.994  1.00  0.00    -0.352 N 
ATOM     31  C   UNL     1       7.523   0.064  -2.171  1.00  0.00     0.251 C 
ATOM     32  H   UNL     1       5.947   0.087  -0.934  1.00  0.00     0.163 HD
ATOM     33  O   UNL     1       6.962   0.736  -3.019  1.00  0.00    -0.269 OA
BRANCH  31  34
ATOM     34  C   UNL     1       8.928  -0.365  -2.382  1.00  0.00     0.039 A 
ATOM     35  C   UNL     1       9.855   0.580  -2.835  1.00  0.00     0.014 A 
ATOM     36  C   UNL     1       9.343  -1.669  -2.112  1.00  0.00     0.014 A 
ATOM     37  C   UNL     1      11.212   0.248  -2.899  1.00  0.00     0.010 A 
ATOM     38  C   UNL     1      10.703  -1.971  -2.090  1.00  0.00     0.010 A 
ATOM     39  C   UNL     1      11.656  -1.012  -2.467  1.00  0.00    -0.014 A 
BRANCH  39  40
ATOM     40  C   UNL     1      13.105  -1.336  -2.368  1.00  0.00     0.031 A 
ATOM     41  C   UNL     1      13.691  -2.466  -3.172  1.00  0.00     0.074 A 
ATOM     42  C   UNL     1      13.881  -0.671  -1.486  1.00  0.00     0.049 A 
ATOM     43  N   UNL     1      14.908  -2.949  -3.152  1.00  0.00    -0.248 NA
ATOM     44  C   UNL     1      12.785  -3.163  -4.099  1.00  0.00     0.031 C 
ATOM     45  C   UNL     1      13.436   0.414  -0.608  1.00  0.00     0.029 A 
ATOM     46  N   UNL     1      15.211  -0.818  -1.175  1.00  0.00    -0.354 N 
ATOM     47  C   UNL     1      14.903  -4.022  -4.035  1.00  0.00     0.074 A 
ATOM     48  C   UNL     1      13.556  -4.143  -4.547  1.00  0.00     0.031 C 
ATOM     49  C   UNL     1      14.478   0.852   0.118  1.00  0.00     0.029 A 
ATOM     50  C   UNL     1      15.654   0.053  -0.208  1.00  0.00     0.049 A 
ATOM     51  H   UNL     1      15.794  -1.486  -1.605  1.00  0.00     0.167 HD
ATOM     52  C   UNL     1      15.931  -4.824  -4.401  1.00  0.00     0.031 A 
ATOM     53  C   UNL     1      16.868   0.190   0.360  1.00  0.00     0.031 A 
ATOM     54  C   UNL     1      17.280  -4.687  -3.923  1.00  0.00     0.049 A 
ATOM     55  C   UNL     1      17.989  -0.716  -0.069  1.00  0.00     0.074 A 
ATOM     56  C   UNL     1      18.404  -5.400  -4.303  1.00  0.00     0.029 A 
ATOM     57  N   UNL     1      17.688  -3.779  -2.960  1.00  0.00    -0.354 N 
ATOM     58  N   UNL     1      17.986  -1.667  -0.970  1.00  0.00    -0.248 NA
ATOM     59  C   UNL     1      19.287  -0.521   0.595  1.00  0.00     0.031 C 
ATOM     60  C   UNL     1      19.484  -4.956  -3.535  1.00  0.00     0.029 A 
ATOM     61  C   UNL     1      19.042  -3.932  -2.715  1.00  0.00     0.049 A 
ATOM     62  H   UNL     1      17.102  -3.124  -2.517  1.00  0.00     0.167 HD
ATOM     63  C   UNL     1      19.285  -2.157  -1.007  1.00  0.00     0.074 A 
ATOM     64  C   UNL     1      20.052  -1.391  -0.048  1.00  0.00     0.031 C 
ATOM     65  C   UNL     1      19.796  -3.154  -1.768  1.00  0.00     0.031 A 
BRANCH  52  66
ATOM     66  C   UNL     1      15.638  -5.934  -5.372  1.00  0.00    -0.014 A 
ATOM     67  C   UNL     1      15.376  -5.668  -6.725  1.00  0.00     0.009 A 
ATOM     68  C   UNL     1      15.686  -7.268  -4.939  1.00  0.00     0.009 A 
ATOM     69  C   UNL     1      15.138  -6.715  -7.618  1.00  0.00     0.001 A 
ATOM     70  C   UNL     1      15.476  -8.314  -5.839  1.00  0.00     0.001 A 
ATOM     71  C   UNL     1      15.195  -8.036  -7.176  1.00  0.00     0.000 A 
ENDBRANCH  52  66
BRANCH  53  72
ATOM     72  C   UNL     1      17.106   1.233   1.393  1.00  0.00    -0.014 A 
ATOM     73  C   UNL     1      17.927   2.337   1.110  1.00  0.00     0.009 A 
ATOM     74  C   UNL     1      16.553   1.113   2.677  1.00  0.00     0.009 A 
ATOM     75  C   UNL     1      18.219   3.276   2.101  1.00  0.00     0.001 A 
ATOM     76  C   UNL     1      16.823   2.071   3.658  1.00  0.00     0.001 A 
ATOM     77  C   UNL     1      17.665   3.144   3.373  1.00  0.00     0.000 A 
ENDBRANCH  53  72
BRANCH  65  78
ATOM     78  C   UNL     1      21.265  -3.441  -1.633  1.00  0.00    -0.014 A 
ATOM     79  C   UNL     1      21.783  -4.079  -0.496  1.00  0.00     0.009 A 
ATOM     80  C   UNL     1      22.135  -3.103  -2.682  1.00  0.00     0.009 A 
ATOM     81  C   UNL     1      23.150  -4.343  -0.398  1.00  0.00     0.001 A 
ATOM     82  C   UNL     1      23.497  -3.395  -2.593  1.00  0.00     0.001 A 
ATOM     83  C   UNL     1      24.004  -4.006  -1.448  1.00  0.00     0.000 A 
ENDBRANCH  65  78
ENDBRANCH  39  40
ENDBRANCH  31  34
ENDBRANCH  29  30
ENDBRANCH   1  29
TORSDOF 14
