REMARK SMILES CCOC(=O)C1=NN(c2ccc([N+](=O)[O-])cc2C(F)(F)F)[C@@](C)(C(=O)NCCCCNC(=O)c2ccc(-c3c4nc(c(-c5ccccc5)c5ccc([nH]5)c(-c5ccccc5)c5nc(c(-c6ccccc6)c6ccc3[nH]6)C=C5)C=C4)cc2)C1
REMARK SMILES IDX 28 1 27 2 26 3 24 4 25 5 22 7 6 8 7 9 82 10 8 11 23 12 4 13
REMARK SMILES IDX 5 14 3 15 2 16 1 17 9 18 10 19 17 20 11 21 16 22 12 23 18 24
REMARK SMILES IDX 19 25 20 26 21 27 13 28 14 29 15 30 29 31 30 32 31 33 32 34
REMARK SMILES IDX 33 36 34 37 35 38 81 39 36 40 80 41 37 42 38 43 39 44 74 45
REMARK SMILES IDX 40 46 79 47 73 48 75 49 41 50 78 51 72 52 71 53 42 55 64 56
REMARK SMILES IDX 49 57 63 58 50 59 53 60 62 61 76 62 51 63 52 64 61 66 77 67
REMARK SMILES IDX 54 68 43 69 44 70 48 71 45 72 47 73 46 74 65 75 66 76 70 77
REMARK SMILES IDX 67 78 69 79 68 80 55 81 56 82 60 83 57 84 59 85 58 86
REMARK H PARENT 26 6 31 35 75 54 53 65
REMARK Flexibility Score: inf
ROOT
ATOM      1  C   UNL     1       4.420  -9.525   2.069  1.00  0.00     0.023 C 
ENDROOT
BRANCH   1   2
ATOM      2  C   UNL     1       4.864  -8.195   2.678  1.00  0.00     0.116 C 
BRANCH   2   3
ATOM      3  N   UNL     1       5.107  -7.201   1.653  1.00  0.00    -0.354 N 
ATOM      4  C   UNL     1       4.701  -5.911   1.504  1.00  0.00     0.248 C 
ATOM      5  O   UNL     1       5.006  -5.403   0.416  1.00  0.00    -0.272 OA
ATOM      6  H   UNL     1       5.679  -7.522   0.919  1.00  0.00     0.163 HD
BRANCH   4   7
ATOM      7  C   UNL     1       3.923  -5.097   2.585  1.00  0.00     0.144 C 
ATOM      8  C   UNL     1       2.655  -3.548   1.429  1.00  0.00     0.149 C 
ATOM      9  N   UNL     1       1.816  -4.500   1.686  1.00  0.00    -0.169 NA
ATOM     10  C   UNL     1       3.955  -3.604   2.156  1.00  0.00     0.106 C 
ATOM     11  N   UNL     1       2.454  -5.353   2.552  1.00  0.00    -0.249 N 
ATOM     12  C   UNL     1       4.548  -5.188   3.973  1.00  0.00     0.048 C 
BRANCH   8  13
ATOM     13  C   UNL     1       2.380  -2.397   0.490  1.00  0.00     0.354 C 
ATOM     14  O   UNL     1       3.272  -1.786  -0.047  1.00  0.00    -0.245 OA
BRANCH  13  15
ATOM     15  O   UNL     1       1.049  -2.171   0.407  1.00  0.00    -0.461 OA
BRANCH  15  16
ATOM     16  C   UNL     1       0.659  -1.124  -0.487  1.00  0.00     0.230 C 
ATOM     17  C   UNL     1       0.780   0.231   0.185  1.00  0.00     0.049 C 
ENDBRANCH  15  16
ENDBRANCH  13  15
ENDBRANCH   8  13
BRANCH  11  18
ATOM     18  C   UNL     1       1.820  -6.565   2.787  1.00  0.00     0.073 A 
ATOM     19  C   UNL     1       1.536  -7.414   1.697  1.00  0.00     0.036 A 
ATOM     20  C   UNL     1       1.382  -6.954   4.067  1.00  0.00     0.088 A 
ATOM     21  C   UNL     1       0.915  -8.655   1.865  1.00  0.00     0.088 A 
ATOM     22  C   UNL     1       0.782  -8.224   4.243  1.00  0.00     0.101 A 
ATOM     23  C   UNL     1       0.561  -9.068   3.148  1.00  0.00     0.270 A 
BRANCH  20  24
ATOM     24  C   UNL     1       1.516  -6.068   5.283  1.00  0.00     0.418 C 
ATOM     25  F   UNL     1       0.478  -6.225   6.155  1.00  0.00    -0.166 F 
ATOM     26  F   UNL     1       2.635  -6.373   6.002  1.00  0.00    -0.166 F 
ATOM     27  F   UNL     1       1.581  -4.732   5.039  1.00  0.00    -0.166 F 
ENDBRANCH  20  24
BRANCH  23  28
ATOM     28  N   UNL     1      -0.040 -10.393   3.351  1.00  0.00     0.062 N 
ATOM     29  O   UNL     1      -0.152 -11.131   2.362  1.00  0.00    -0.258 OA
ATOM     30  O   UNL     1      -0.378 -10.698   4.502  1.00  0.00    -0.258 OA
ENDBRANCH  23  28
ENDBRANCH  11  18
ENDBRANCH   4   7
ENDBRANCH   2   3
ENDBRANCH   1   2
BRANCH   1  31
ATOM     31  C   UNL     1       5.498 -10.295   1.305  1.00  0.00     0.023 C 
BRANCH  31  32
ATOM     32  C   UNL     1       6.714 -10.707   2.128  1.00  0.00     0.116 C 
BRANCH  32  33
ATOM     33  N   UNL     1       6.362 -11.538   3.268  1.00  0.00    -0.352 N 
ATOM     34  C   UNL     1       6.880 -12.748   3.658  1.00  0.00     0.251 C 
ATOM     35  H   UNL     1       5.649 -11.180   3.845  1.00  0.00     0.163 HD
ATOM     36  O   UNL     1       6.361 -13.373   4.577  1.00  0.00    -0.269 OA
BRANCH  34  37
ATOM     37  C   UNL     1       8.050 -13.312   2.955  1.00  0.00     0.039 A 
ATOM     38  C   UNL     1       8.001 -14.643   2.529  1.00  0.00     0.014 A 
ATOM     39  C   UNL     1       9.191 -12.537   2.729  1.00  0.00     0.014 A 
ATOM     40  C   UNL     1       9.070 -15.178   1.810  1.00  0.00     0.010 A 
ATOM     41  C   UNL     1      10.242 -13.061   1.980  1.00  0.00     0.010 A 
ATOM     42  C   UNL     1      10.184 -14.381   1.507  1.00  0.00    -0.014 A 
BRANCH  42  43
ATOM     43  C   UNL     1      11.298 -14.898   0.682  1.00  0.00     0.031 A 
ATOM     44  C   UNL     1      12.637 -15.161   1.304  1.00  0.00     0.074 A 
ATOM     45  C   UNL     1      11.129 -15.047  -0.645  1.00  0.00     0.049 A 
ATOM     46  N   UNL     1      13.771 -15.454   0.721  1.00  0.00    -0.248 NA
ATOM     47  C   UNL     1      12.715 -15.056   2.769  1.00  0.00     0.031 C 
ATOM     48  C   UNL     1       9.887 -14.794  -1.378  1.00  0.00     0.029 A 
ATOM     49  N   UNL     1      12.018 -15.434  -1.614  1.00  0.00    -0.354 N 
ATOM     50  C   UNL     1      14.709 -15.518   1.741  1.00  0.00     0.074 A 
ATOM     51  C   UNL     1      14.010 -15.250   2.980  1.00  0.00     0.031 C 
ATOM     52  C   UNL     1      10.092 -15.040  -2.683  1.00  0.00     0.029 A 
ATOM     53  C   UNL     1      11.482 -15.442  -2.877  1.00  0.00     0.049 A 
ATOM     54  H   UNL     1      12.952 -15.681  -1.422  1.00  0.00     0.167 HD
ATOM     55  C   UNL     1      16.037 -15.765   1.652  1.00  0.00     0.031 A 
ATOM     56  C   UNL     1      12.050 -15.729  -4.061  1.00  0.00     0.031 A 
ATOM     57  C   UNL     1      16.733 -16.073   0.434  1.00  0.00     0.049 A 
ATOM     58  C   UNL     1      13.502 -16.095  -4.120  1.00  0.00     0.074 A 
ATOM     59  C   UNL     1      18.075 -16.359   0.253  1.00  0.00     0.029 A 
ATOM     60  N   UNL     1      16.133 -16.156  -0.811  1.00  0.00    -0.354 N 
ATOM     61  N   UNL     1      14.379 -16.136  -3.148  1.00  0.00    -0.248 NA
ATOM     62  C   UNL     1      14.040 -16.451  -5.441  1.00  0.00     0.031 C 
ATOM     63  C   UNL     1      18.286 -16.619  -1.108  1.00  0.00     0.029 A 
ATOM     64  C   UNL     1      17.073 -16.500  -1.766  1.00  0.00     0.049 A 
ATOM     65  H   UNL     1      15.178 -15.994  -0.991  1.00  0.00     0.167 HD
ATOM     66  C   UNL     1      15.574 -16.521  -3.738  1.00  0.00     0.074 A 
ATOM     67  C   UNL     1      15.308 -16.712  -5.150  1.00  0.00     0.031 C 
ATOM     68  C   UNL     1      16.787 -16.693  -3.160  1.00  0.00     0.031 A 
BRANCH  55  69
ATOM     69  C   UNL     1      16.823 -15.684   2.924  1.00  0.00    -0.014 A 
ATOM     70  C   UNL     1      16.890 -16.777   3.800  1.00  0.00     0.009 A 
ATOM     71  C   UNL     1      17.504 -14.501   3.246  1.00  0.00     0.009 A 
ATOM     72  C   UNL     1      17.611 -16.677   4.991  1.00  0.00     0.001 A 
ATOM     73  C   UNL     1      18.230 -14.408   4.433  1.00  0.00     0.001 A 
ATOM     74  C   UNL     1      18.279 -15.493   5.307  1.00  0.00     0.000 A 
ENDBRANCH  55  69
BRANCH  56  75
ATOM     75  C   UNL     1      11.234 -15.683  -5.295  1.00  0.00    -0.014 A 
ATOM     76  C   UNL     1      10.630 -16.851  -5.782  1.00  0.00     0.009 A 
ATOM     77  C   UNL     1      11.046 -14.474  -5.979  1.00  0.00     0.009 A 
ATOM     78  C   UNL     1       9.857 -16.810  -6.944  1.00  0.00     0.001 A 
ATOM     79  C   UNL     1      10.267 -14.436  -7.136  1.00  0.00     0.001 A 
ATOM     80  C   UNL     1       9.675 -15.603  -7.619  1.00  0.00     0.000 A 
ENDBRANCH  56  75
BRANCH  68  81
ATOM     81  C   UNL     1      17.905 -17.119  -4.058  1.00  0.00    -0.014 A 
ATOM     82  C   UNL     1      18.660 -16.166  -4.756  1.00  0.00     0.009 A 
ATOM     83  C   UNL     1      18.219 -18.480  -4.192  1.00  0.00     0.009 A 
ATOM     84  C   UNL     1      19.705 -16.570  -5.588  1.00  0.00     0.001 A 
ATOM     85  C   UNL     1      19.267 -18.879  -5.021  1.00  0.00     0.001 A 
ATOM     86  C   UNL     1      20.007 -17.925  -5.721  1.00  0.00     0.000 A 
ENDBRANCH  68  81
ENDBRANCH  42  43
ENDBRANCH  34  37
ENDBRANCH  32  33
ENDBRANCH  31  32
ENDBRANCH   1  31
TORSDOF 17
