REMARK SMILES COc1ccc(-c2ccc(/C=C3\SC(=S)N([C@H](Cc4ccccc4)C(=O)NCCCCNC(=O)c4ccc(-c5c6nc(c(-c7ccccc7)c7ccc([nH]7)c(-c7ccccc7)c7nc(c(-c8ccccc8)c8ccc5[nH]8)C=C7)C=C6)cc4)C3=O)o2)cc1
REMARK SMILES IDX 28 1 27 2 25 3 26 4 17 6 16 7 11 8 12 9 13 10 83 11 14 12
REMARK SMILES IDX 84 13 15 14 10 15 7 16 8 17 85 18 9 19 6 20 3 21 4 22 87 23
REMARK SMILES IDX 5 24 86 25 2 26 1 27 18 28 19 29 20 30 24 31 21 32 23 33
REMARK SMILES IDX 22 34 29 35 30 36 31 37 32 38 33 39 34 41 35 42 36 43 82 44
REMARK SMILES IDX 37 45 81 46 38 47 39 48 40 49 75 50 41 51 80 52 74 53 76 54
REMARK SMILES IDX 42 55 79 56 73 57 72 58 43 60 65 61 50 62 64 63 51 64 54 65
REMARK SMILES IDX 63 66 77 67 52 68 53 69 62 71 78 72 55 73 44 74 45 75 49 76
REMARK SMILES IDX 46 77 48 78 47 79 66 80 67 81 71 82 68 83 70 84 69 85 56 86
REMARK SMILES IDX 57 87 61 88 58 89 60 90 59 91
REMARK H PARENT 27 5 32 40 76 59 54 70
REMARK Flexibility Score: inf
ROOT
ATOM      1  C   UNL     1       0.976  -2.194 -12.826  1.00  0.00     0.116 C 
ENDROOT
BRANCH   1   2
ATOM      2  N   UNL     1       1.261  -3.085 -13.924  1.00  0.00    -0.354 N 
ATOM      3  C   UNL     1       0.856  -4.361 -14.155  1.00  0.00     0.243 C 
ATOM      4  O   UNL     1       1.480  -4.978 -15.026  1.00  0.00    -0.273 OA
ATOM      5  H   UNL     1       1.844  -2.705 -14.621  1.00  0.00     0.163 HD
BRANCH   3   6
ATOM      6  C   UNL     1      -0.198  -5.085 -13.284  1.00  0.00     0.185 C 
BRANCH   6   7
ATOM      7  N   UNL     1      -1.502  -4.360 -13.226  1.00  0.00    -0.280 N 
ATOM      8  C   UNL     1      -4.398  -3.683 -15.310  1.00  0.00     0.068 C 
ATOM      9  C   UNL     1      -3.513  -3.681 -14.305  1.00  0.00     0.084 C 
ATOM     10  S   UNL     1      -3.715  -3.121 -12.704  1.00  0.00    -0.054 SA
ATOM     11  C   UNL     1      -2.175  -4.306 -14.451  1.00  0.00     0.267 C 
ATOM     12  C   UNL     1      -2.191  -3.817 -12.156  1.00  0.00     0.149 C 
ATOM     13  O   UNL     1      -1.756  -4.717 -15.519  1.00  0.00    -0.268 OA
ATOM     14  S   UNL     1      -1.836  -3.728 -10.529  1.00  0.00    -0.052 S 
BRANCH   8  15
ATOM     15  C   UNL     1      -5.724  -3.187 -15.192  1.00  0.00     0.128 A 
ATOM     16  C   UNL     1      -7.941  -3.202 -15.334  1.00  0.00     0.134 A 
ATOM     17  C   UNL     1      -7.606  -1.989 -14.781  1.00  0.00     0.051 A 
ATOM     18  O   UNL     1      -6.818  -3.923 -15.594  1.00  0.00    -0.457 OA
ATOM     19  C   UNL     1      -6.196  -1.973 -14.704  1.00  0.00     0.051 A 
BRANCH  16  20
ATOM     20  C   UNL     1      -9.203  -3.810 -15.708  1.00  0.00     0.017 A 
ATOM     21  C   UNL     1     -11.683  -4.922 -16.405  1.00  0.00     0.118 A 
ATOM     22  C   UNL     1     -10.822  -5.608 -15.548  1.00  0.00     0.047 A 
ATOM     23  C   UNL     1     -11.320  -3.667 -16.892  1.00  0.00     0.047 A 
ATOM     24  C   UNL     1      -9.578  -5.064 -15.214  1.00  0.00     0.016 A 
ATOM     25  C   UNL     1     -10.086  -3.114 -16.543  1.00  0.00     0.016 A 
BRANCH  21  26
ATOM     26  O   UNL     1     -12.885  -5.522 -16.664  1.00  0.00    -0.497 OA
ATOM     27  C   UNL     1     -13.302  -5.417 -18.023  1.00  0.00     0.278 C 
ENDBRANCH  21  26
ENDBRANCH  16  20
ENDBRANCH   8  15
ENDBRANCH   6   7
BRANCH   6  28
ATOM     28  C   UNL     1       0.509  -5.552 -11.997  1.00  0.00     0.071 C 
BRANCH  28  29
ATOM     29  C   UNL     1       0.036  -6.856 -11.392  1.00  0.00    -0.045 A 
ATOM     30  C   UNL     1       0.931  -7.562 -10.571  1.00  0.00     0.004 A 
ATOM     31  C   UNL     1      -1.236  -7.401 -11.612  1.00  0.00     0.004 A 
ATOM     32  C   UNL     1       0.587  -8.803 -10.035  1.00  0.00     0.000 A 
ATOM     33  C   UNL     1      -1.581  -8.642 -11.072  1.00  0.00     0.000 A 
ATOM     34  C   UNL     1      -0.667  -9.348 -10.295  1.00  0.00     0.000 A 
ENDBRANCH  28  29
ENDBRANCH   6  28
ENDBRANCH   3   6
ENDBRANCH   1   2
BRANCH   1  35
ATOM     35  C   UNL     1       2.121  -2.147 -11.818  1.00  0.00     0.023 C 
BRANCH  35  36
ATOM     36  C   UNL     1       3.424  -1.560 -12.360  1.00  0.00     0.023 C 
BRANCH  36  37
ATOM     37  C   UNL     1       3.286  -0.210 -13.053  1.00  0.00     0.116 C 
BRANCH  37  38
ATOM     38  N   UNL     1       2.673   0.804 -12.209  1.00  0.00    -0.352 N 
ATOM     39  C   UNL     1       3.027   2.123 -12.054  1.00  0.00     0.251 C 
ATOM     40  H   UNL     1       1.900   0.505 -11.678  1.00  0.00     0.163 HD
ATOM     41  O   UNL     1       2.475   2.819 -11.209  1.00  0.00    -0.269 OA
BRANCH  39  42
ATOM     42  C   UNL     1       4.107   2.684 -12.889  1.00  0.00     0.039 A 
ATOM     43  C   UNL     1       5.125   3.413 -12.272  1.00  0.00     0.014 A 
ATOM     44  C   UNL     1       4.134   2.456 -14.268  1.00  0.00     0.014 A 
ATOM     45  C   UNL     1       6.210   3.855 -13.030  1.00  0.00     0.010 A 
ATOM     46  C   UNL     1       5.254   2.825 -15.004  1.00  0.00     0.010 A 
ATOM     47  C   UNL     1       6.302   3.530 -14.393  1.00  0.00    -0.014 A 
BRANCH  47  48
ATOM     48  C   UNL     1       7.486   3.919 -15.198  1.00  0.00     0.031 A 
ATOM     49  C   UNL     1       7.334   4.867 -16.355  1.00  0.00     0.074 A 
ATOM     50  C   UNL     1       8.687   3.375 -14.924  1.00  0.00     0.049 A 
ATOM     51  N   UNL     1       8.241   5.294 -17.197  1.00  0.00    -0.248 NA
ATOM     52  C   UNL     1       5.981   5.384 -16.614  1.00  0.00     0.031 C 
ATOM     53  C   UNL     1       8.962   2.419 -13.849  1.00  0.00     0.029 A 
ATOM     54  N   UNL     1       9.906   3.553 -15.530  1.00  0.00    -0.354 N 
ATOM     55  C   UNL     1       7.567   6.119 -18.089  1.00  0.00     0.074 A 
ATOM     56  C   UNL     1       6.167   6.080 -17.725  1.00  0.00     0.031 C 
ATOM     57  C   UNL     1      10.273   2.129 -13.845  1.00  0.00     0.029 A 
ATOM     58  C   UNL     1      10.921   2.838 -14.943  1.00  0.00     0.049 A 
ATOM     59  H   UNL     1      10.039   4.136 -16.312  1.00  0.00     0.167 HD
ATOM     60  C   UNL     1       8.067   6.862 -19.104  1.00  0.00     0.031 A 
ATOM     61  C   UNL     1      12.229   2.764 -15.254  1.00  0.00     0.031 A 
ATOM     62  C   UNL     1       9.458   6.895 -19.471  1.00  0.00     0.049 A 
ATOM     63  C   UNL     1      12.753   3.558 -16.417  1.00  0.00     0.074 A 
ATOM     64  C   UNL     1      10.073   7.644 -20.459  1.00  0.00     0.029 A 
ATOM     65  N   UNL     1      10.450   6.137 -18.867  1.00  0.00    -0.354 N 
ATOM     66  N   UNL     1      12.114   4.383 -17.212  1.00  0.00    -0.248 NA
ATOM     67  C   UNL     1      14.184   3.416 -16.720  1.00  0.00     0.031 C 
ATOM     68  C   UNL     1      11.427   7.296 -20.491  1.00  0.00     0.029 A 
ATOM     69  C   UNL     1      11.668   6.380 -19.480  1.00  0.00     0.049 A 
ATOM     70  H   UNL     1      10.309   5.518 -18.115  1.00  0.00     0.167 HD
ATOM     71  C   UNL     1      13.071   4.884 -18.086  1.00  0.00     0.074 A 
ATOM     72  C   UNL     1      14.334   4.280 -17.714  1.00  0.00     0.031 C 
ATOM     73  C   UNL     1      12.917   5.768 -19.102  1.00  0.00     0.031 A 
BRANCH  60  74
ATOM     74  C   UNL     1       7.089   7.689 -19.894  1.00  0.00    -0.014 A 
ATOM     75  C   UNL     1       6.428   8.786 -19.316  1.00  0.00     0.009 A 
ATOM     76  C   UNL     1       6.826   7.372 -21.235  1.00  0.00     0.009 A 
ATOM     77  C   UNL     1       5.487   9.514 -20.047  1.00  0.00     0.001 A 
ATOM     78  C   UNL     1       5.911   8.124 -21.975  1.00  0.00     0.001 A 
ATOM     79  C   UNL     1       5.232   9.184 -21.377  1.00  0.00     0.000 A 
ENDBRANCH  60  74
BRANCH  61  80
ATOM     80  C   UNL     1      13.144   1.929 -14.432  1.00  0.00    -0.014 A 
ATOM     81  C   UNL     1      14.108   2.535 -13.611  1.00  0.00     0.009 A 
ATOM     82  C   UNL     1      13.065   0.528 -14.464  1.00  0.00     0.009 A 
ATOM     83  C   UNL     1      14.991   1.755 -12.860  1.00  0.00     0.001 A 
ATOM     84  C   UNL     1      13.929  -0.248 -13.688  1.00  0.00     0.001 A 
ATOM     85  C   UNL     1      14.897   0.365 -12.895  1.00  0.00     0.000 A 
ENDBRANCH  61  80
BRANCH  73  86
ATOM     86  C   UNL     1      14.154   6.167 -19.858  1.00  0.00    -0.014 A 
ATOM     87  C   UNL     1      14.805   5.275 -20.724  1.00  0.00     0.009 A 
ATOM     88  C   UNL     1      14.655   7.473 -19.726  1.00  0.00     0.009 A 
ATOM     89  C   UNL     1      15.953   5.671 -21.414  1.00  0.00     0.001 A 
ATOM     90  C   UNL     1      15.783   7.876 -20.442  1.00  0.00     0.001 A 
ATOM     91  C   UNL     1      16.437   6.972 -21.277  1.00  0.00     0.000 A 
ENDBRANCH  73  86
ENDBRANCH  47  48
ENDBRANCH  39  42
ENDBRANCH  37  38
ENDBRANCH  36  37
ENDBRANCH  35  36
ENDBRANCH   1  35
TORSDOF 17
