REMARK SMILES Cc1cccnc1C(=O)NC[C@@H](CC(C)C)C(=O)NCCCCNC(=O)c1ccc(-c2c3nc(c(-c4ccccc4)c4ccc([nH]4)c(-c4ccccc4)c4nc(c(-c5ccccc5)c5ccc2[nH]5)C=C4)C=C3)cc1
REMARK SMILES IDX 21 1 20 2 19 3 17 4 18 5 12 7 11 8 10 9 8 10 9 11 7 13 1 14
REMARK SMILES IDX 2 15 3 16 4 17 6 18 5 19 13 20 14 21 15 22 16 23 22 24 23 25
REMARK SMILES IDX 24 26 25 27 26 29 27 30 28 31 74 32 29 33 73 34 30 35 31 36
REMARK SMILES IDX 32 37 67 38 33 39 72 40 66 41 68 42 34 43 71 44 65 45 64 46
REMARK SMILES IDX 35 48 57 49 42 50 56 51 43 52 46 53 55 54 69 55 44 56 45 57
REMARK SMILES IDX 54 59 70 60 47 61 36 62 37 63 41 64 38 65 40 66 39 67 58 68
REMARK SMILES IDX 59 69 63 70 60 71 62 72 61 73 48 74 49 75 53 76 50 77 52 78
REMARK SMILES IDX 51 79
REMARK H PARENT 19 6 10 12 24 28 68 47 46 58
REMARK Flexibility Score: inf
ROOT
ATOM      1  C   UNL     1       5.259   0.525  -2.769  1.00  0.00     0.023 C 
ENDROOT
BRANCH   1   2
ATOM      2  C   UNL     1       5.487  -0.427  -1.604  1.00  0.00     0.116 C 
BRANCH   2   3
ATOM      3  N   UNL     1       5.320   0.219  -0.318  1.00  0.00    -0.356 N 
ATOM      4  C   UNL     1       4.907  -0.264   0.882  1.00  0.00     0.224 C 
ATOM      5  O   UNL     1       5.069   0.476   1.858  1.00  0.00    -0.275 OA
ATOM      6  H   UNL     1       5.546   1.177  -0.314  1.00  0.00     0.163 HD
BRANCH   4   7
ATOM      7  C   UNL     1       4.280  -1.640   1.064  1.00  0.00     0.098 C 
BRANCH   7   8
ATOM      8  C   UNL     1       3.257  -2.029  -0.021  1.00  0.00     0.129 C 
BRANCH   8   9
ATOM      9  N   UNL     1       2.020  -2.551   0.523  1.00  0.00    -0.350 N 
ATOM     10  C   UNL     1       0.688  -2.223   0.442  1.00  0.00     0.270 C 
ATOM     11  O   UNL     1      -0.038  -3.196   0.701  1.00  0.00    -0.268 OA
ATOM     12  H   UNL     1       2.172  -3.339   1.093  1.00  0.00     0.163 HD
BRANCH  10  13
ATOM     13  C   UNL     1       0.008  -0.886   0.126  1.00  0.00     0.131 A 
ATOM     14  C   UNL     1       1.941   0.835   0.151  1.00  0.00     0.047 C 
ATOM     15  C   UNL     1       0.516   0.418   0.061  1.00  0.00    -0.020 A 
ATOM     16  C   UNL     1      -0.402   1.484  -0.098  1.00  0.00     0.007 A 
ATOM     17  C   UNL     1      -1.766   1.260  -0.151  1.00  0.00     0.020 A 
ATOM     18  N   UNL     1      -1.346  -1.087   0.023  1.00  0.00    -0.251 NA
ATOM     19  C   UNL     1      -2.189  -0.043  -0.091  1.00  0.00     0.112 A 
ENDBRANCH  10  13
ENDBRANCH   8   9
ENDBRANCH   7   8
BRANCH   7  20
ATOM     20  C   UNL     1       5.315  -2.741   1.414  1.00  0.00     0.018 C 
BRANCH  20  21
ATOM     21  C   UNL     1       6.483  -2.964   0.430  1.00  0.00    -0.017 C 
ATOM     22  C   UNL     1       7.683  -2.056   0.732  1.00  0.00     0.007 C 
ATOM     23  C   UNL     1       6.967  -4.417   0.473  1.00  0.00     0.007 C 
ENDBRANCH  20  21
ENDBRANCH   7  20
ENDBRANCH   4   7
ENDBRANCH   2   3
ENDBRANCH   1   2
BRANCH   1  24
ATOM     24  C   UNL     1       6.312   1.624  -2.898  1.00  0.00     0.023 C 
BRANCH  24  25
ATOM     25  C   UNL     1       7.759   1.150  -2.804  1.00  0.00     0.116 C 
BRANCH  25  26
ATOM     26  N   UNL     1       8.076   0.088  -3.750  1.00  0.00    -0.352 N 
ATOM     27  C   UNL     1       9.055   0.039  -4.712  1.00  0.00     0.251 C 
ATOM     28  H   UNL     1       7.505  -0.711  -3.690  1.00  0.00     0.163 HD
ATOM     29  O   UNL     1       9.101  -0.898  -5.503  1.00  0.00    -0.269 OA
BRANCH  27  30
ATOM     30  C   UNL     1      10.024   1.145  -4.812  1.00  0.00     0.039 A 
ATOM     31  C   UNL     1      10.232   1.746  -6.055  1.00  0.00     0.014 A 
ATOM     32  C   UNL     1      10.677   1.621  -3.673  1.00  0.00     0.014 A 
ATOM     33  C   UNL     1      11.030   2.886  -6.139  1.00  0.00     0.010 A 
ATOM     34  C   UNL     1      11.401   2.805  -3.745  1.00  0.00     0.010 A 
ATOM     35  C   UNL     1      11.579   3.453  -4.977  1.00  0.00    -0.014 A 
BRANCH  35  36
ATOM     36  C   UNL     1      12.330   4.731  -5.024  1.00  0.00     0.031 A 
ATOM     37  C   UNL     1      13.780   4.768  -4.633  1.00  0.00     0.074 A 
ATOM     38  C   UNL     1      11.688   5.870  -5.349  1.00  0.00     0.049 A 
ATOM     39  N   UNL     1      14.584   5.797  -4.547  1.00  0.00    -0.248 NA
ATOM     40  C   UNL     1      14.401   3.486  -4.264  1.00  0.00     0.031 C 
ATOM     41  C   UNL     1      10.271   5.976  -5.707  1.00  0.00     0.029 A 
ATOM     42  N   UNL     1      12.146   7.161  -5.426  1.00  0.00    -0.354 N 
ATOM     43  C   UNL     1      15.796   5.290  -4.098  1.00  0.00     0.074 A 
ATOM     44  C   UNL     1      15.608   3.872  -3.879  1.00  0.00     0.031 C 
ATOM     45  C   UNL     1       9.985   7.256  -5.995  1.00  0.00     0.029 A 
ATOM     46  C   UNL     1      11.184   8.066  -5.804  1.00  0.00     0.049 A 
ATOM     47  H   UNL     1      13.076   7.415  -5.229  1.00  0.00     0.167 HD
ATOM     48  C   UNL     1      16.968   5.939  -3.904  1.00  0.00     0.031 A 
ATOM     49  C   UNL     1      11.257   9.399  -5.974  1.00  0.00     0.031 A 
ATOM     50  C   UNL     1      17.161   7.346  -4.133  1.00  0.00     0.049 A 
ATOM     51  C   UNL     1      12.566  10.099  -5.739  1.00  0.00     0.074 A 
ATOM     52  C   UNL     1      18.325   8.085  -4.019  1.00  0.00     0.029 A 
ATOM     53  N   UNL     1      16.163   8.225  -4.519  1.00  0.00    -0.354 N 
ATOM     54  N   UNL     1      13.720   9.593  -5.378  1.00  0.00    -0.248 NA
ATOM     55  C   UNL     1      12.582  11.554  -5.945  1.00  0.00     0.031 C 
ATOM     56  C   UNL     1      18.020   9.423  -4.293  1.00  0.00     0.029 A 
ATOM     57  C   UNL     1      16.678   9.505  -4.628  1.00  0.00     0.049 A 
ATOM     58  H   UNL     1      15.226   7.977  -4.691  1.00  0.00     0.167 HD
ATOM     59  C   UNL     1      14.605  10.662  -5.340  1.00  0.00     0.074 A 
ATOM     60  C   UNL     1      13.858  11.841  -5.729  1.00  0.00     0.031 C 
ATOM     61  C   UNL     1      15.921  10.667  -5.014  1.00  0.00     0.031 A 
BRANCH  48  62
ATOM     62  C   UNL     1      18.133   5.125  -3.416  1.00  0.00    -0.014 A 
ATOM     63  C   UNL     1      18.758   4.180  -4.246  1.00  0.00     0.009 A 
ATOM     64  C   UNL     1      18.627   5.319  -2.117  1.00  0.00     0.009 A 
ATOM     65  C   UNL     1      19.828   3.419  -3.772  1.00  0.00     0.001 A 
ATOM     66  C   UNL     1      19.716   4.577  -1.655  1.00  0.00     0.001 A 
ATOM     67  C   UNL     1      20.308   3.621  -2.479  1.00  0.00     0.000 A 
ENDBRANCH  48  62
BRANCH  49  68
ATOM     68  C   UNL     1      10.059  10.162  -6.410  1.00  0.00    -0.014 A 
ATOM     69  C   UNL     1       9.992  10.697  -7.705  1.00  0.00     0.009 A 
ATOM     70  C   UNL     1       8.981  10.366  -5.535  1.00  0.00     0.009 A 
ATOM     71  C   UNL     1       8.882  11.443  -8.107  1.00  0.00     0.001 A 
ATOM     72  C   UNL     1       7.860  11.089  -5.949  1.00  0.00     0.001 A 
ATOM     73  C   UNL     1       7.816  11.635  -7.231  1.00  0.00     0.000 A 
ENDBRANCH  49  68
BRANCH  61  74
ATOM     74  C   UNL     1      16.643  11.982  -5.096  1.00  0.00    -0.014 A 
ATOM     75  C   UNL     1      16.428  12.992  -4.146  1.00  0.00     0.009 A 
ATOM     76  C   UNL     1      17.580  12.196  -6.119  1.00  0.00     0.009 A 
ATOM     77  C   UNL     1      17.116  14.204  -4.237  1.00  0.00     0.001 A 
ATOM     78  C   UNL     1      18.286  13.397  -6.191  1.00  0.00     0.001 A 
ATOM     79  C   UNL     1      18.047  14.403  -5.256  1.00  0.00     0.000 A 
ENDBRANCH  61  74
ENDBRANCH  35  36
ENDBRANCH  27  30
ENDBRANCH  25  26
ENDBRANCH  24  25
ENDBRANCH   1  24
TORSDOF 16
