REMARK SMILES O=C(NCCCCNC(=O)[C@@H]([NH2+]C[C@@H]1CCCO1)c1cncn1C1CC1)c1ccc(-c2c3nc(c(-c4ccccc4)c4ccc([nH]4)c(-c4ccccc4)c4nc(c(-c5ccccc5)c5ccc2[nH]5)C=C4)C=C3)cc1
REMARK SMILES IDX 6 1 5 2 4 3 3 4 1 5 2 6 27 8 28 9 74 10 29 11 73 12 30 13
REMARK SMILES IDX 31 14 32 15 67 16 33 17 72 18 66 19 68 20 34 21 71 22 65 23
REMARK SMILES IDX 64 24 35 26 57 27 42 28 56 29 43 30 46 31 55 32 69 33 44 34
REMARK SMILES IDX 45 35 54 37 70 38 47 39 36 40 37 41 41 42 38 43 40 44 39 45
REMARK SMILES IDX 58 46 59 47 63 48 60 49 62 50 61 51 48 52 49 53 53 54 50 55
REMARK SMILES IDX 52 56 51 57 7 58 8 59 9 60 10 62 11 63 12 64 13 67 14 68
REMARK SMILES IDX 15 69 18 70 16 71 17 72 19 73 20 74 23 75 21 76 22 77 24 78
REMARK SMILES IDX 25 79 26 80
REMARK H PARENT 3 7 68 25 46 36 8 61 12 65 12 66
REMARK Flexibility Score: inf
ROOT
ATOM      1  C   UNL     1       4.533   3.275   0.718  1.00  0.00     0.023 C 
ENDROOT
BRANCH   1   2
ATOM      2  C   UNL     1       5.013   2.075  -0.106  1.00  0.00     0.023 C 
BRANCH   2   3
ATOM      3  C   UNL     1       4.724   0.709   0.516  1.00  0.00     0.116 C 
BRANCH   3   4
ATOM      4  N   UNL     1       3.318   0.462   0.768  1.00  0.00    -0.352 N 
ATOM      5  O   UNL     1       1.206  -0.172   0.625  1.00  0.00    -0.269 OA
ATOM      6  C   UNL     1       2.269   0.000   0.022  1.00  0.00     0.251 C 
ATOM      7  H   UNL     1       3.057   0.678   1.692  1.00  0.00     0.163 HD
BRANCH   6   8
ATOM      8  C   UNL     1       2.302  -0.262  -1.444  1.00  0.00     0.039 A 
ATOM      9  C   UNL     1       3.445  -0.300  -2.242  1.00  0.00     0.014 A 
ATOM     10  C   UNL     1       1.052  -0.484  -2.058  1.00  0.00     0.014 A 
ATOM     11  C   UNL     1       3.342  -0.494  -3.618  1.00  0.00     0.010 A 
ATOM     12  C   UNL     1       0.945  -0.692  -3.430  1.00  0.00     0.010 A 
ATOM     13  C   UNL     1       2.092  -0.670  -4.215  1.00  0.00    -0.014 A 
BRANCH  13  14
ATOM     14  C   UNL     1       2.056  -0.941  -5.650  1.00  0.00     0.031 A 
ATOM     15  C   UNL     1       2.713  -2.207  -6.094  1.00  0.00     0.074 A 
ATOM     16  C   UNL     1       1.370  -0.197  -6.539  1.00  0.00     0.049 A 
ATOM     17  N   UNL     1       3.669  -2.360  -6.954  1.00  0.00    -0.248 NA
ATOM     18  C   UNL     1       2.273  -3.458  -5.457  1.00  0.00     0.031 C 
ATOM     19  C   UNL     1       0.419   0.885  -6.278  1.00  0.00     0.029 A 
ATOM     20  N   UNL     1       1.313  -0.343  -7.894  1.00  0.00    -0.354 N 
ATOM     21  C   UNL     1       3.873  -3.734  -7.070  1.00  0.00     0.074 A 
ATOM     22  C   UNL     1       3.043  -4.358  -6.070  1.00  0.00     0.031 C 
ATOM     23  C   UNL     1      -0.281   1.141  -7.407  1.00  0.00     0.029 A 
ATOM     24  C   UNL     1       0.271   0.348  -8.493  1.00  0.00     0.049 A 
ATOM     25  H   UNL     1       1.954  -0.891  -8.401  1.00  0.00     0.167 HD
ATOM     26  C   UNL     1       4.603  -4.293  -8.075  1.00  0.00     0.031 A 
ATOM     27  C   UNL     1      -0.143   0.232  -9.777  1.00  0.00     0.031 A 
ATOM     28  C   UNL     1       5.453  -3.344  -8.734  1.00  0.00     0.049 A 
ATOM     29  C   UNL     1       0.951  -0.379 -10.562  1.00  0.00     0.074 A 
ATOM     30  C   UNL     1       6.524  -2.562  -8.349  1.00  0.00     0.029 A 
ATOM     31  N   UNL     1       5.038  -2.835  -9.939  1.00  0.00    -0.354 N 
ATOM     32  N   UNL     1       2.073   0.224 -10.827  1.00  0.00    -0.248 NA
ATOM     33  C   UNL     1       0.961  -1.821 -10.736  1.00  0.00     0.031 C 
ATOM     34  C   UNL     1       6.369  -1.345  -9.075  1.00  0.00     0.029 A 
ATOM     35  C   UNL     1       5.238  -1.479  -9.883  1.00  0.00     0.049 A 
ATOM     36  H   UNL     1       4.668  -3.344 -10.697  1.00  0.00     0.167 HD
ATOM     37  C   UNL     1       3.032  -0.777 -10.783  1.00  0.00     0.074 A 
ATOM     38  C   UNL     1       2.277  -2.025 -10.843  1.00  0.00     0.031 C 
ATOM     39  C   UNL     1       4.321  -0.503 -10.427  1.00  0.00     0.031 A 
BRANCH  26  40
ATOM     40  C   UNL     1       4.325  -5.655  -8.655  1.00  0.00    -0.014 A 
ATOM     41  C   UNL     1       5.228  -6.213  -9.579  1.00  0.00     0.009 A 
ATOM     42  C   UNL     1       3.076  -6.292  -8.524  1.00  0.00     0.009 A 
ATOM     43  C   UNL     1       4.879  -7.323 -10.359  1.00  0.00     0.001 A 
ATOM     44  C   UNL     1       2.740  -7.424  -9.273  1.00  0.00     0.001 A 
ATOM     45  C   UNL     1       3.634  -7.926 -10.208  1.00  0.00     0.000 A 
ENDBRANCH  26  40
BRANCH  27  46
ATOM     46  C   UNL     1      -1.510   0.368 -10.315  1.00  0.00    -0.014 A 
ATOM     47  C   UNL     1      -1.728   0.602 -11.681  1.00  0.00     0.009 A 
ATOM     48  C   UNL     1      -2.613  -0.006  -9.526  1.00  0.00     0.009 A 
ATOM     49  C   UNL     1      -3.001   0.434 -12.242  1.00  0.00     0.001 A 
ATOM     50  C   UNL     1      -3.883  -0.171 -10.085  1.00  0.00     0.001 A 
ATOM     51  C   UNL     1      -4.074   0.035 -11.447  1.00  0.00     0.000 A 
ENDBRANCH  27  46
BRANCH  39  52
ATOM     52  C   UNL     1       4.723   0.948 -10.298  1.00  0.00    -0.014 A 
ATOM     53  C   UNL     1       4.098   1.831  -9.397  1.00  0.00     0.009 A 
ATOM     54  C   UNL     1       5.852   1.403 -10.993  1.00  0.00     0.009 A 
ATOM     55  C   UNL     1       4.565   3.138  -9.229  1.00  0.00     0.001 A 
ATOM     56  C   UNL     1       6.333   2.701 -10.807  1.00  0.00     0.001 A 
ATOM     57  C   UNL     1       5.686   3.571  -9.932  1.00  0.00     0.000 A 
ENDBRANCH  39  52
ENDBRANCH  13  14
ENDBRANCH   6   8
ENDBRANCH   3   4
ENDBRANCH   2   3
ENDBRANCH   1   2
BRANCH   1  58
ATOM     58  C   UNL     1       4.939   3.262   2.190  1.00  0.00     0.116 C 
BRANCH  58  59
ATOM     59  N   UNL     1       6.373   3.439   2.397  1.00  0.00    -0.351 N 
ATOM     60  C   UNL     1       7.016   4.345   3.230  1.00  0.00     0.284 C 
ATOM     61  H   UNL     1       6.958   2.841   1.880  1.00  0.00     0.163 HD
ATOM     62  O   UNL     1       8.220   4.208   3.411  1.00  0.00    -0.268 OA
BRANCH  60  63
ATOM     63  C   UNL     1       6.172   5.548   3.906  1.00  0.00     0.322 C 
BRANCH  63  64
ATOM     64  N   UNL     1       5.501   6.145   2.729  1.00  0.00    -0.329 N 
ATOM     65  H   UNL     1       4.594   5.687   2.642  1.00  0.00     0.347 HD
ATOM     66  H   UNL     1       6.172   5.999   1.975  1.00  0.00     0.347 HD
BRANCH  64  67
ATOM     67  C   UNL     1       5.253   7.579   2.685  1.00  0.00     0.293 C 
BRANCH  67  68
ATOM     68  C   UNL     1       6.327   8.494   3.256  1.00  0.00     0.173 C 
ATOM     69  C   UNL     1       5.934   9.955   3.237  1.00  0.00     0.040 C 
ATOM     70  O   UNL     1       7.542   8.425   2.500  1.00  0.00    -0.372 OA
ATOM     71  C   UNL     1       7.280  10.601   3.447  1.00  0.00     0.031 C 
ATOM     72  C   UNL     1       8.231   9.670   2.708  1.00  0.00     0.161 C 
ENDBRANCH  67  68
ENDBRANCH  64  67
ENDBRANCH  63  64
BRANCH  63  73
ATOM     73  C   UNL     1       5.323   4.930   5.018  1.00  0.00     0.106 A 
ATOM     74  C   UNL     1       5.446   3.587   5.419  1.00  0.00     0.141 A 
ATOM     75  N   UNL     1       4.431   5.416   5.980  1.00  0.00    -0.326 N 
ATOM     76  N   UNL     1       4.571   3.215   6.382  1.00  0.00    -0.245 NA
ATOM     77  C   UNL     1       3.958   4.324   6.679  1.00  0.00     0.200 A 
BRANCH  75  78
ATOM     78  C   UNL     1       3.977   6.701   6.505  1.00  0.00     0.089 C 
ATOM     79  C   UNL     1       4.679   8.026   6.433  1.00  0.00     0.027 C 
ATOM     80  C   UNL     1       3.381   7.835   5.719  1.00  0.00     0.027 C 
ENDBRANCH  75  78
ENDBRANCH  63  73
ENDBRANCH  60  63
ENDBRANCH  58  59
ENDBRANCH   1  58
TORSDOF 16
