REMARK SMILES Cc1c(CC(=O)NCCCCNC(=O)c2ccc(-c3c4nc(c(-c5ccccc5)c5ccc([nH]5)c(-c5ccccc5)c5nc(c(-c6ccccc6)c6ccc3[nH]6)C=C5)C=C4)cc2)cc(-c2ccc(S(C)(=O)=O)cc2)n1-c1ccccc1
REMARK SMILES IDX 9 1 8 2 7 3 5 4 6 5 4 7 3 8 1 9 2 10 75 11 63 12 64 13 76 14
REMARK SMILES IDX 77 15 81 16 78 17 80 18 79 19 65 20 66 21 74 22 67 23 73 24
REMARK SMILES IDX 68 25 69 26 70 27 71 28 72 29 10 30 11 31 12 32 13 33 14 35
REMARK SMILES IDX 15 36 16 37 62 38 17 39 61 40 18 41 19 42 20 43 55 44 21 45
REMARK SMILES IDX 60 46 54 47 56 48 22 49 59 50 53 51 52 52 23 54 45 55 30 56
REMARK SMILES IDX 44 57 31 58 34 59 43 60 57 61 32 62 33 63 42 65 58 66 35 67
REMARK SMILES IDX 24 68 25 69 29 70 26 71 28 72 27 73 46 74 47 75 51 76 48 77
REMARK SMILES IDX 50 78 49 79 36 80 37 81 41 82 38 83 40 84 39 85
REMARK H PARENT 7 6 12 34 56 53 34 64
REMARK Flexibility Score: inf
ROOT
ATOM      1  C   UNL     1       0.994  -3.344  -3.619  1.00  0.00     0.023 C 
ENDROOT
BRANCH   1   2
ATOM      2  C   UNL     1       2.203  -3.674  -2.745  1.00  0.00     0.116 C 
BRANCH   2   3
ATOM      3  N   UNL     1       2.989  -2.497  -2.417  1.00  0.00    -0.356 N 
ATOM      4  C   UNL     1       3.294  -1.954  -1.205  1.00  0.00     0.224 C 
ATOM      5  O   UNL     1       4.039  -0.970  -1.189  1.00  0.00    -0.275 OA
ATOM      6  H   UNL     1       3.360  -2.016  -3.192  1.00  0.00     0.163 HD
BRANCH   4   7
ATOM      7  C   UNL     1       2.763  -2.570   0.076  1.00  0.00     0.137 C 
BRANCH   7   8
ATOM      8  C   UNL     1       1.275  -2.457   0.203  1.00  0.00    -0.017 A 
ATOM      9  C   UNL     1       0.957   0.119   0.143  1.00  0.00     0.065 C 
ATOM     10  C   UNL     1       0.500  -1.305   0.177  1.00  0.00     0.024 A 
ATOM     11  N   UNL     1      -0.838  -1.675   0.275  1.00  0.00    -0.314 N 
ATOM     12  C   UNL     1       0.385  -3.543   0.400  1.00  0.00     0.033 A 
ATOM     13  C   UNL     1      -0.911  -3.063   0.399  1.00  0.00     0.053 A 
BRANCH  11  14
ATOM     14  C   UNL     1      -1.950  -0.790   0.263  1.00  0.00     0.046 A 
ATOM     15  C   UNL     1      -2.924  -0.891   1.263  1.00  0.00     0.026 A 
ATOM     16  C   UNL     1      -2.095   0.132  -0.779  1.00  0.00     0.026 A 
ATOM     17  C   UNL     1      -4.045  -0.065   1.219  1.00  0.00     0.002 A 
ATOM     18  C   UNL     1      -3.229   0.943  -0.824  1.00  0.00     0.002 A 
ATOM     19  C   UNL     1      -4.201   0.846   0.174  1.00  0.00     0.000 A 
ENDBRANCH  11  14
BRANCH  13  20
ATOM     20  C   UNL     1      -2.149  -3.852   0.416  1.00  0.00    -0.001 A 
ATOM     21  C   UNL     1      -3.103  -3.720  -0.605  1.00  0.00     0.011 A 
ATOM     22  C   UNL     1      -2.382  -4.765   1.453  1.00  0.00     0.011 A 
ATOM     23  C   UNL     1      -4.291  -4.453  -0.570  1.00  0.00     0.021 A 
ATOM     24  C   UNL     1      -3.568  -5.502   1.496  1.00  0.00     0.021 A 
ATOM     25  C   UNL     1      -4.523  -5.330   0.492  1.00  0.00     0.067 A 
BRANCH  25  26
ATOM     26  S   UNL     1      -6.033  -6.266   0.520  1.00  0.00     0.175 S 
ATOM     27  C   UNL     1      -7.300  -5.044   0.739  1.00  0.00     0.163 C 
ATOM     28  O   UNL     1      -6.188  -6.865  -0.776  1.00  0.00    -0.224 OA
ATOM     29  O   UNL     1      -6.014  -7.086   1.733  1.00  0.00    -0.224 OA
ENDBRANCH  25  26
ENDBRANCH  13  20
ENDBRANCH   7   8
ENDBRANCH   4   7
ENDBRANCH   2   3
ENDBRANCH   1   2
BRANCH   1  30
ATOM     30  C   UNL     1       1.281  -2.577  -4.925  1.00  0.00     0.023 C 
BRANCH  30  31
ATOM     31  C   UNL     1       2.601  -2.844  -5.670  1.00  0.00     0.116 C 
BRANCH  31  32
ATOM     32  N   UNL     1       2.586  -3.913  -6.638  1.00  0.00    -0.352 N 
ATOM     33  C   UNL     1       3.581  -4.188  -7.568  1.00  0.00     0.251 C 
ATOM     34  H   UNL     1       1.797  -4.502  -6.640  1.00  0.00     0.163 HD
ATOM     35  O   UNL     1       3.391  -5.087  -8.384  1.00  0.00    -0.269 OA
BRANCH  33  36
ATOM     36  C   UNL     1       4.820  -3.323  -7.666  1.00  0.00     0.039 A 
ATOM     37  C   UNL     1       4.780  -2.251  -8.530  1.00  0.00     0.014 A 
ATOM     38  C   UNL     1       6.069  -3.582  -7.066  1.00  0.00     0.014 A 
ATOM     39  C   UNL     1       5.933  -1.434  -8.716  1.00  0.00     0.010 A 
ATOM     40  C   UNL     1       7.280  -2.787  -7.348  1.00  0.00     0.010 A 
ATOM     41  C   UNL     1       7.271  -1.669  -8.203  1.00  0.00    -0.014 A 
BRANCH  41  42
ATOM     42  C   UNL     1       8.510  -0.891  -8.993  1.00  0.00     0.031 A 
ATOM     43  C   UNL     1       8.013  -0.911 -10.395  1.00  0.00     0.074 A 
ATOM     44  C   UNL     1       9.840  -0.434  -8.950  1.00  0.00     0.049 A 
ATOM     45  N   UNL     1       7.804  -2.087 -10.907  1.00  0.00    -0.248 NA
ATOM     46  C   UNL     1       7.325   0.186 -11.073  1.00  0.00     0.031 C 
ATOM     47  C   UNL     1      10.841  -0.587  -7.878  1.00  0.00     0.029 A 
ATOM     48  N   UNL     1      10.653   0.292  -9.903  1.00  0.00    -0.354 N 
ATOM     49  C   UNL     1       7.140  -1.906 -12.088  1.00  0.00     0.074 A 
ATOM     50  C   UNL     1       6.712  -0.509 -12.043  1.00  0.00     0.031 C 
ATOM     51  C   UNL     1      11.986   0.123  -8.130  1.00  0.00     0.029 A 
ATOM     52  C   UNL     1      11.930   0.797  -9.429  1.00  0.00     0.049 A 
ATOM     53  H   UNL     1      10.354   0.437 -10.829  1.00  0.00     0.167 HD
ATOM     54  C   UNL     1       7.640  -2.629 -13.129  1.00  0.00     0.031 A 
ATOM     55  C   UNL     1      12.901   1.602 -10.043  1.00  0.00     0.031 A 
ATOM     56  C   UNL     1       8.559  -1.825 -13.894  1.00  0.00     0.049 A 
ATOM     57  C   UNL     1      12.799   1.294 -11.472  1.00  0.00     0.074 A 
ATOM     58  C   UNL     1       8.500  -0.515 -14.330  1.00  0.00     0.029 A 
ATOM     59  N   UNL     1       9.894  -2.161 -13.821  1.00  0.00    -0.354 N 
ATOM     60  N   UNL     1      13.330   0.214 -11.959  1.00  0.00    -0.248 NA
ATOM     61  C   UNL     1      12.247   2.224 -12.448  1.00  0.00     0.031 C 
ATOM     62  C   UNL     1       9.744   0.029 -13.950  1.00  0.00     0.029 A 
ATOM     63  C   UNL     1      10.648  -1.008 -13.759  1.00  0.00     0.049 A 
ATOM     64  H   UNL     1      10.252  -3.078 -13.814  1.00  0.00     0.167 HD
ATOM     65  C   UNL     1      12.675   0.078 -13.142  1.00  0.00     0.074 A 
ATOM     66  C   UNL     1      12.275   1.424 -13.516  1.00  0.00     0.031 C 
ATOM     67  C   UNL     1      12.019  -1.093 -13.328  1.00  0.00     0.031 A 
BRANCH  54  68
ATOM     68  C   UNL     1       7.871  -4.089 -12.785  1.00  0.00    -0.014 A 
ATOM     69  C   UNL     1       7.082  -5.068 -13.395  1.00  0.00     0.009 A 
ATOM     70  C   UNL     1       8.739  -4.497 -11.746  1.00  0.00     0.009 A 
ATOM     71  C   UNL     1       7.106  -6.390 -12.927  1.00  0.00     0.001 A 
ATOM     72  C   UNL     1       8.721  -5.797 -11.243  1.00  0.00     0.001 A 
ATOM     73  C   UNL     1       7.897  -6.745 -11.832  1.00  0.00     0.000 A 
ENDBRANCH  54  68
BRANCH  55  74
ATOM     74  C   UNL     1      14.197   2.475  -9.873  1.00  0.00    -0.014 A 
ATOM     75  C   UNL     1      15.201   2.485 -10.910  1.00  0.00     0.009 A 
ATOM     76  C   UNL     1      14.265   3.586  -9.021  1.00  0.00     0.009 A 
ATOM     77  C   UNL     1      16.090   3.555 -11.158  1.00  0.00     0.001 A 
ATOM     78  C   UNL     1      15.191   4.652  -9.245  1.00  0.00     0.001 A 
ATOM     79  C   UNL     1      16.071   4.659 -10.329  1.00  0.00     0.000 A 
ENDBRANCH  55  74
BRANCH  67  80
ATOM     80  C   UNL     1      12.703  -2.367 -12.864  1.00  0.00    -0.014 A 
ATOM     81  C   UNL     1      13.309  -2.565 -11.604  1.00  0.00     0.009 A 
ATOM     82  C   UNL     1      12.786  -3.423 -13.782  1.00  0.00     0.009 A 
ATOM     83  C   UNL     1      14.009  -3.740 -11.300  1.00  0.00     0.001 A 
ATOM     84  C   UNL     1      13.443  -4.616 -13.464  1.00  0.00     0.001 A 
ATOM     85  C   UNL     1      14.069  -4.769 -12.231  1.00  0.00     0.000 A 
ENDBRANCH  67  80
ENDBRANCH  41  42
ENDBRANCH  33  36
ENDBRANCH  31  32
ENDBRANCH  30  31
ENDBRANCH   1  30
TORSDOF 15
