REMARK SMILES [NH3+][C@H](CCC(=O)NCCCCNC(=O)c1ccc(-c2c3nc(c(-c4ccccc4)c4ccc([nH]4)c(-c4ccccc4)c4nc(c(-c5ccccc5)c5ccc2[nH]5)C=C4)C=C3)cc1)c1nccc2[nH]ccc12
REMARK SMILES IDX 9 1 8 2 7 3 5 4 6 5 4 7 3 8 2 9 1 10 63 14 64 15 71 16 65 17
REMARK SMILES IDX 67 18 70 19 66 20 68 21 69 22 10 24 11 25 12 26 13 27 14 29
REMARK SMILES IDX 15 30 16 31 62 32 17 33 61 34 18 35 19 36 20 37 55 38 21 39
REMARK SMILES IDX 60 40 54 41 56 42 22 43 59 44 53 45 52 46 23 48 45 49 30 50
REMARK SMILES IDX 44 51 31 52 34 53 43 54 57 55 32 56 33 57 42 59 58 60 35 61
REMARK SMILES IDX 24 62 25 63 29 64 26 65 28 66 27 67 46 68 47 69 51 70 48 71
REMARK SMILES IDX 50 72 49 73 36 74 37 75 41 76 38 77 40 78 39 79
REMARK H PARENT 7 6 1 11 1 12 1 13 68 23 12 28 56 47 34 58
REMARK Flexibility Score: inf
ROOT
ATOM      1  C   UNL     1       1.063  -0.577   3.487  1.00  0.00     0.023 C 
ENDROOT
BRANCH   1   2
ATOM      2  C   UNL     1       0.965   0.921   3.197  1.00  0.00     0.116 C 
BRANCH   2   3
ATOM      3  N   UNL     1       1.960   1.308   2.225  1.00  0.00    -0.356 N 
ATOM      4  C   UNL     1       1.807   1.528   0.889  1.00  0.00     0.220 C 
ATOM      5  O   UNL     1       2.825   1.577   0.195  1.00  0.00    -0.275 OA
ATOM      6  H   UNL     1       2.873   1.429   2.574  1.00  0.00     0.163 HD
BRANCH   4   7
ATOM      7  C   UNL     1       0.435   1.787   0.284  1.00  0.00     0.106 C 
BRANCH   7   8
ATOM      8  C   UNL     1      -0.100   0.700  -0.657  1.00  0.00     0.082 C 
BRANCH   8   9
ATOM      9  C   UNL     1      -1.189  -0.288  -0.166  1.00  0.00     0.232 C 
BRANCH   9  10
ATOM     10  N   UNL     1      -0.569  -1.361   0.650  1.00  0.00    -0.350 N 
ATOM     11  H   UNL     1      -1.291  -2.006   0.969  1.00  0.00     0.345 HD
ATOM     12  H   UNL     1      -0.102  -0.947   1.457  1.00  0.00     0.345 HD
ATOM     13  H   UNL     1       0.113  -1.866   0.084  1.00  0.00     0.345 HD
ENDBRANCH   9  10
BRANCH   9  14
ATOM     14  C   UNL     1      -2.391   0.268   0.626  1.00  0.00     0.107 A 
ATOM     15  N   UNL     1      -2.049   0.763   1.863  1.00  0.00    -0.254 NA
ATOM     16  C   UNL     1      -3.692  -0.296   0.529  1.00  0.00     0.027 A 
ATOM     17  C   UNL     1      -2.721   0.370   2.963  1.00  0.00     0.114 A 
ATOM     18  C   UNL     1      -4.258  -0.810   1.700  1.00  0.00     0.049 A 
ATOM     19  C   UNL     1      -4.671  -0.483  -0.491  1.00  0.00     0.030 A 
ATOM     20  C   UNL     1      -3.729  -0.567   2.960  1.00  0.00     0.047 A 
ATOM     21  N   UNL     1      -5.354  -1.549   1.328  1.00  0.00    -0.361 N 
ATOM     22  C   UNL     1      -5.719  -1.195   0.057  1.00  0.00     0.083 A 
ATOM     23  H   UNL     1      -5.804  -2.225   1.885  1.00  0.00     0.166 HD
ENDBRANCH   9  14
ENDBRANCH   8   9
ENDBRANCH   7   8
ENDBRANCH   4   7
ENDBRANCH   2   3
ENDBRANCH   1   2
BRANCH   1  24
ATOM     24  C   UNL     1       1.962  -0.920   4.670  1.00  0.00     0.023 C 
BRANCH  24  25
ATOM     25  C   UNL     1       1.420  -0.466   6.019  1.00  0.00     0.116 C 
BRANCH  25  26
ATOM     26  N   UNL     1       0.108  -1.014   6.343  1.00  0.00    -0.352 N 
ATOM     27  C   UNL     1      -0.377  -1.394   7.571  1.00  0.00     0.251 C 
ATOM     28  H   UNL     1      -0.509  -1.126   5.584  1.00  0.00     0.163 HD
ATOM     29  O   UNL     1      -1.487  -1.910   7.676  1.00  0.00    -0.269 OA
BRANCH  27  30
ATOM     30  C   UNL     1       0.480  -1.215   8.757  1.00  0.00     0.039 A 
ATOM     31  C   UNL     1       0.709  -2.304   9.600  1.00  0.00     0.014 A 
ATOM     32  C   UNL     1       1.124   0.005   8.980  1.00  0.00     0.014 A 
ATOM     33  C   UNL     1       1.649  -2.191  10.625  1.00  0.00     0.010 A 
ATOM     34  C   UNL     1       2.124   0.085   9.939  1.00  0.00     0.010 A 
ATOM     35  C   UNL     1       2.394  -1.010  10.774  1.00  0.00    -0.014 A 
BRANCH  35  36
ATOM     36  C   UNL     1       3.455  -0.889  11.803  1.00  0.00     0.031 A 
ATOM     37  C   UNL     1       3.326   0.140  12.891  1.00  0.00     0.074 A 
ATOM     38  C   UNL     1       4.564  -1.650  11.716  1.00  0.00     0.049 A 
ATOM     39  N   UNL     1       4.172   0.450  13.839  1.00  0.00    -0.248 NA
ATOM     40  C   UNL     1       2.096   0.951  12.895  1.00  0.00     0.031 C 
ATOM     41  C   UNL     1       4.832  -2.647  10.677  1.00  0.00     0.029 A 
ATOM     42  N   UNL     1       5.678  -1.698  12.515  1.00  0.00    -0.354 N 
ATOM     43  C   UNL     1       3.587   1.500  14.535  1.00  0.00     0.074 A 
ATOM     44  C   UNL     1       2.346   1.816  13.865  1.00  0.00     0.031 C 
ATOM     45  C   UNL     1       6.018  -3.228  10.921  1.00  0.00     0.029 A 
ATOM     46  C   UNL     1       6.612  -2.619  12.106  1.00  0.00     0.049 A 
ATOM     47  H   UNL     1       5.797  -1.125  13.307  1.00  0.00     0.167 HD
ATOM     48  C   UNL     1       4.027   2.128  15.650  1.00  0.00     0.031 A 
ATOM     49  C   UNL     1       7.812  -2.935  12.627  1.00  0.00     0.031 A 
ATOM     50  C   UNL     1       5.254   1.803  16.325  1.00  0.00     0.049 A 
ATOM     51  C   UNL     1       8.282  -2.221  13.865  1.00  0.00     0.074 A 
ATOM     52  C   UNL     1       5.766   2.341  17.492  1.00  0.00     0.029 A 
ATOM     53  N   UNL     1       6.162   0.850  15.889  1.00  0.00    -0.354 N 
ATOM     54  N   UNL     1       7.683  -1.279  14.553  1.00  0.00    -0.248 NA
ATOM     55  C   UNL     1       9.587  -2.625  14.405  1.00  0.00     0.031 C 
ATOM     56  C   UNL     1       7.008   1.747  17.737  1.00  0.00     0.029 A 
ATOM     57  C   UNL     1       7.241   0.798  16.754  1.00  0.00     0.049 A 
ATOM     58  H   UNL     1       6.054   0.293  15.085  1.00  0.00     0.167 HD
ATOM     59  C   UNL     1       8.524  -0.998  15.622  1.00  0.00     0.074 A 
ATOM     60  C   UNL     1       9.666  -1.881  15.500  1.00  0.00     0.031 C 
ATOM     61  C   UNL     1       8.367  -0.089  16.615  1.00  0.00     0.031 A 
BRANCH  48  62
ATOM     62  C   UNL     1       3.168   3.231  16.205  1.00  0.00    -0.014 A 
ATOM     63  C   UNL     1       1.920   2.956  16.788  1.00  0.00     0.009 A 
ATOM     64  C   UNL     1       3.619   4.559  16.163  1.00  0.00     0.009 A 
ATOM     65  C   UNL     1       1.122   3.993  17.277  1.00  0.00     0.001 A 
ATOM     66  C   UNL     1       2.834   5.590  16.683  1.00  0.00     0.001 A 
ATOM     67  C   UNL     1       1.582   5.308  17.228  1.00  0.00     0.000 A 
ENDBRANCH  48  62
BRANCH  49  68
ATOM     68  C   UNL     1       8.648  -3.989  11.993  1.00  0.00    -0.014 A 
ATOM     69  C   UNL     1       8.847  -5.222  12.634  1.00  0.00     0.009 A 
ATOM     70  C   UNL     1       9.258  -3.766  10.749  1.00  0.00     0.009 A 
ATOM     71  C   UNL     1       9.662  -6.198  12.055  1.00  0.00     0.001 A 
ATOM     72  C   UNL     1      10.049  -4.755  10.159  1.00  0.00     0.001 A 
ATOM     73  C   UNL     1      10.258  -5.966  10.817  1.00  0.00     0.000 A 
ENDBRANCH  49  68
BRANCH  61  74
ATOM     74  C   UNL     1       9.437  -0.031  17.669  1.00  0.00    -0.014 A 
ATOM     75  C   UNL     1      10.704   0.506  17.393  1.00  0.00     0.009 A 
ATOM     76  C   UNL     1       9.154  -0.479  18.968  1.00  0.00     0.009 A 
ATOM     77  C   UNL     1      11.678   0.561  18.392  1.00  0.00     0.001 A 
ATOM     78  C   UNL     1      10.119  -0.394  19.972  1.00  0.00     0.001 A 
ATOM     79  C   UNL     1      11.383   0.117  19.681  1.00  0.00     0.000 A 
ENDBRANCH  61  74
ENDBRANCH  35  36
ENDBRANCH  27  30
ENDBRANCH  25  26
ENDBRANCH  24  25
ENDBRANCH   1  24
TORSDOF 15
