REMARK SMILES O=C(C[C@@H](c1cccc([N+](=O)[O-])c1)N1Cc2ccccc2C1=O)NCCCCNC(=O)c1ccc(-c2c3nc(c(-c4ccccc4)c4ccc([nH]4)c(-c4ccccc4)c4nc(c(-c5ccccc5)c5ccc2[nH]5)C=C4)C=C3)cc1
REMARK SMILES IDX 26 1 25 2 24 3 1 4 2 5 3 7 4 8 5 9 6 10 13 11 7 12 9 13 8 14
REMARK SMILES IDX 10 15 11 16 12 17 14 18 15 19 22 20 16 21 21 22 23 23 17 24
REMARK SMILES IDX 20 25 18 26 19 27 27 28 28 29 29 30 30 31 31 33 32 34 33 35
REMARK SMILES IDX 79 36 34 37 78 38 35 39 36 40 37 41 72 42 38 43 77 44 71 45
REMARK SMILES IDX 73 46 39 47 76 48 70 49 69 50 40 52 62 53 47 54 61 55 48 56
REMARK SMILES IDX 51 57 60 58 74 59 49 60 50 61 59 63 75 64 52 65 41 66 42 67
REMARK SMILES IDX 46 68 43 69 45 70 44 71 63 72 64 73 68 74 65 75 67 76 66 77
REMARK SMILES IDX 53 78 54 79 58 80 55 81 57 82 56 83
REMARK H PARENT 24 6 29 32 73 51 51 62
REMARK Flexibility Score: inf
ROOT
ATOM      1  C   UNL     1       2.008   0.615   3.781  1.00  0.00     0.023 C 
ENDROOT
BRANCH   1   2
ATOM      2  C   UNL     1       1.646   0.972   2.337  1.00  0.00     0.116 C 
BRANCH   2   3
ATOM      3  N   UNL     1       2.233   0.074   1.364  1.00  0.00    -0.356 N 
ATOM      4  O   UNL     1       0.956   0.801  -0.406  1.00  0.00    -0.275 OA
ATOM      5  C   UNL     1       1.879   0.122   0.028  1.00  0.00     0.222 C 
ATOM      6  H   UNL     1       2.900  -0.587   1.660  1.00  0.00     0.163 HD
BRANCH   5   7
ATOM      7  C   UNL     1       2.795  -0.675  -0.881  1.00  0.00     0.130 C 
BRANCH   7   8
ATOM      8  C   UNL     1       3.878   0.251  -1.458  1.00  0.00     0.125 C 
BRANCH   8   9
ATOM      9  C   UNL     1       4.670   0.985  -0.356  1.00  0.00    -0.018 A 
ATOM     10  C   UNL     1       5.468   0.287   0.570  1.00  0.00     0.006 A 
ATOM     11  C   UNL     1       4.721   2.390  -0.374  1.00  0.00     0.091 A 
ATOM     12  C   UNL     1       6.357   0.965   1.401  1.00  0.00     0.007 A 
ATOM     13  C   UNL     1       5.603   3.066   0.474  1.00  0.00     0.269 A 
ATOM     14  C   UNL     1       6.440   2.354   1.343  1.00  0.00     0.085 A 
BRANCH  13  15
ATOM     15  N   UNL     1       5.662   4.532   0.454  1.00  0.00     0.062 N 
ATOM     16  O   UNL     1       6.444   5.081   1.246  1.00  0.00    -0.258 OA
ATOM     17  O   UNL     1       4.907   5.135  -0.320  1.00  0.00    -0.258 OA
ENDBRANCH  13  15
ENDBRANCH   8   9
BRANCH   8  18
ATOM     18  N   UNL     1       4.847  -0.400  -2.371  1.00  0.00    -0.327 N 
ATOM     19  C   UNL     1       5.383  -1.739  -2.153  1.00  0.00     0.157 C 
ATOM     20  C   UNL     1       5.864   0.442  -2.875  1.00  0.00     0.255 C 
ATOM     21  C   UNL     1       6.839  -1.470  -1.981  1.00  0.00    -0.016 A 
ATOM     22  C   UNL     1       7.135  -0.201  -2.476  1.00  0.00     0.045 A 
ATOM     23  O   UNL     1       5.767   1.569  -3.295  1.00  0.00    -0.269 OA
ATOM     24  C   UNL     1       7.791  -2.203  -1.295  1.00  0.00     0.006 A 
ATOM     25  C   UNL     1       8.351   0.415  -2.249  1.00  0.00     0.014 A 
ATOM     26  C   UNL     1       9.030  -1.600  -1.057  1.00  0.00     0.000 A 
ATOM     27  C   UNL     1       9.305  -0.299  -1.521  1.00  0.00     0.001 A 
ENDBRANCH   8  18
ENDBRANCH   7   8
ENDBRANCH   5   7
ENDBRANCH   2   3
ENDBRANCH   1   2
BRANCH   1  28
ATOM     28  C   UNL     1       3.500   0.676   4.138  1.00  0.00     0.023 C 
BRANCH  28  29
ATOM     29  C   UNL     1       4.155   2.056   4.059  1.00  0.00     0.116 C 
BRANCH  29  30
ATOM     30  N   UNL     1       3.700   2.961   5.098  1.00  0.00    -0.352 N 
ATOM     31  C   UNL     1       4.409   3.698   6.018  1.00  0.00     0.251 C 
ATOM     32  H   UNL     1       2.723   3.065   5.153  1.00  0.00     0.163 HD
ATOM     33  O   UNL     1       3.799   4.293   6.903  1.00  0.00    -0.269 OA
BRANCH  31  34
ATOM     34  C   UNL     1       5.892   3.768   5.992  1.00  0.00     0.039 A 
ATOM     35  C   UNL     1       6.583   3.715   7.208  1.00  0.00     0.014 A 
ATOM     36  C   UNL     1       6.610   3.957   4.809  1.00  0.00     0.014 A 
ATOM     37  C   UNL     1       7.982   3.778   7.231  1.00  0.00     0.010 A 
ATOM     38  C   UNL     1       8.011   3.966   4.826  1.00  0.00     0.010 A 
ATOM     39  C   UNL     1       8.714   3.868   6.036  1.00  0.00    -0.014 A 
BRANCH  39  40
ATOM     40  C   UNL     1      10.204   3.841   6.048  1.00  0.00     0.031 A 
ATOM     41  C   UNL     1      11.009   5.038   5.618  1.00  0.00     0.074 A 
ATOM     42  C   UNL     1      10.848   2.713   6.411  1.00  0.00     0.049 A 
ATOM     43  N   UNL     1      12.312   5.170   5.539  1.00  0.00    -0.248 NA
ATOM     44  C   UNL     1      10.258   6.235   5.211  1.00  0.00     0.031 C 
ATOM     45  C   UNL     1      10.206   1.465   6.829  1.00  0.00     0.029 A 
ATOM     46  N   UNL     1      12.192   2.434   6.485  1.00  0.00    -0.354 N 
ATOM     47  C   UNL     1      12.535   6.455   5.058  1.00  0.00     0.074 A 
ATOM     48  C   UNL     1      11.234   7.051   4.835  1.00  0.00     0.031 C 
ATOM     49  C   UNL     1      11.154   0.565   7.139  1.00  0.00     0.029 A 
ATOM     50  C   UNL     1      12.469   1.158   6.911  1.00  0.00     0.049 A 
ATOM     51  H   UNL     1      12.891   3.088   6.255  1.00  0.00     0.167 HD
ATOM     52  C   UNL     1      13.711   7.089   4.832  1.00  0.00     0.031 A 
ATOM     53  C   UNL     1      13.644   0.527   7.097  1.00  0.00     0.031 A 
ATOM     54  C   UNL     1      15.012   6.520   5.065  1.00  0.00     0.049 A 
ATOM     55  C   UNL     1      14.933   1.248   6.830  1.00  0.00     0.074 A 
ATOM     56  C   UNL     1      16.253   7.119   4.918  1.00  0.00     0.029 A 
ATOM     57  N   UNL     1      15.244   5.224   5.491  1.00  0.00    -0.354 N 
ATOM     58  N   UNL     1      15.121   2.479   6.426  1.00  0.00    -0.248 NA
ATOM     59  C   UNL     1      16.174   0.489   7.050  1.00  0.00     0.031 C 
ATOM     60  C   UNL     1      17.238   6.171   5.220  1.00  0.00     0.029 A 
ATOM     61  C   UNL     1      16.607   4.995   5.590  1.00  0.00     0.049 A 
ATOM     62  H   UNL     1      14.543   4.562   5.694  1.00  0.00     0.167 HD
ATOM     63  C   UNL     1      16.498   2.651   6.367  1.00  0.00     0.074 A 
ATOM     64  C   UNL     1      17.099   1.401   6.783  1.00  0.00     0.031 C 
ATOM     65  C   UNL     1      17.199   3.751   6.001  1.00  0.00     0.031 A 
BRANCH  52  66
ATOM     66  C   UNL     1      13.647   8.489   4.291  1.00  0.00    -0.014 A 
ATOM     67  C   UNL     1      13.285   9.568   5.112  1.00  0.00     0.009 A 
ATOM     68  C   UNL     1      13.998   8.736   2.955  1.00  0.00     0.009 A 
ATOM     69  C   UNL     1      13.248  10.865   4.597  1.00  0.00     0.001 A 
ATOM     70  C   UNL     1      13.980  10.037   2.448  1.00  0.00     0.001 A 
ATOM     71  C   UNL     1      13.598  11.099   3.267  1.00  0.00     0.000 A 
ENDBRANCH  52  66
BRANCH  53  72
ATOM     72  C   UNL     1      13.661  -0.878   7.578  1.00  0.00    -0.014 A 
ATOM     73  C   UNL     1      14.029  -1.169   8.900  1.00  0.00     0.009 A 
ATOM     74  C   UNL     1      13.322  -1.931   6.716  1.00  0.00     0.009 A 
ATOM     75  C   UNL     1      14.076  -2.492   9.344  1.00  0.00     0.001 A 
ATOM     76  C   UNL     1      13.350  -3.251   7.169  1.00  0.00     0.001 A 
ATOM     77  C   UNL     1      13.734  -3.531   8.480  1.00  0.00     0.000 A 
ENDBRANCH  53  72
BRANCH  65  78
ATOM     78  C   UNL     1      18.696   3.661   6.060  1.00  0.00    -0.014 A 
ATOM     79  C   UNL     1      19.420   2.966   5.080  1.00  0.00     0.009 A 
ATOM     80  C   UNL     1      19.392   4.308   7.093  1.00  0.00     0.009 A 
ATOM     81  C   UNL     1      20.813   2.897   5.148  1.00  0.00     0.001 A 
ATOM     82  C   UNL     1      20.786   4.255   7.147  1.00  0.00     0.001 A 
ATOM     83  C   UNL     1      21.495   3.544   6.179  1.00  0.00     0.000 A 
ENDBRANCH  65  78
ENDBRANCH  39  40
ENDBRANCH  31  34
ENDBRANCH  29  30
ENDBRANCH  28  29
ENDBRANCH   1  28
TORSDOF 15
