REMARK SMILES COc1ccc(S(=O)(=O)N2CCC[C@H](C(=O)N3CCC[C@H](C(=O)NCCCCNC(=O)c4ccc(-c5c6nc(c(-c7ccccc7)c7ccc([nH]7)c(-c7ccccc7)c7nc(c(-c8ccccc8)c8ccc5[nH]8)C=C7)C=C6)cc4)C3)C2)cc1
REMARK SMILES IDX 25 1 24 2 22 3 23 4 21 6 17 7 18 8 80 9 19 10 20 11 15 12
REMARK SMILES IDX 16 13 14 14 10 15 11 16 81 17 12 18 13 19 7 20 8 21 9 22
REMARK SMILES IDX 6 23 3 24 4 25 83 26 5 27 82 28 2 29 1 30 26 31 27 32 28 33
REMARK SMILES IDX 29 34 30 35 31 37 32 38 33 39 79 40 34 41 78 42 35 43 36 44
REMARK SMILES IDX 37 45 72 46 38 47 77 48 71 49 73 50 39 51 76 52 70 53 69 54
REMARK SMILES IDX 40 56 62 57 47 58 61 59 48 60 51 61 60 62 74 63 49 64 50 65
REMARK SMILES IDX 59 67 75 68 52 69 41 70 42 71 46 72 43 73 45 74 44 75 63 76
REMARK SMILES IDX 64 77 68 78 65 79 67 80 66 81 53 82 54 83 58 84 55 85 57 86
REMARK SMILES IDX 56 87
REMARK H PARENT 24 5 29 36 73 55 51 66
REMARK Flexibility Score: inf
ROOT
ATOM      1  C   UNL     1       7.855  -0.937 -10.665  1.00  0.00     0.116 C 
ENDROOT
BRANCH   1   2
ATOM      2  N   UNL     1       8.386   0.388 -10.861  1.00  0.00    -0.356 N 
ATOM      3  C   UNL     1       7.824   1.592 -10.583  1.00  0.00     0.224 C 
ATOM      4  O   UNL     1       8.572   2.575 -10.636  1.00  0.00    -0.275 OA
ATOM      5  H   UNL     1       9.288   0.425 -11.254  1.00  0.00     0.163 HD
BRANCH   3   6
ATOM      6  C   UNL     1       6.348   1.787 -10.212  1.00  0.00     0.098 C 
ATOM      7  N   UNL     1       5.324   0.025  -8.740  1.00  0.00    -0.342 N 
ATOM      8  C   UNL     1       4.231  -0.207  -9.678  1.00  0.00     0.119 C 
ATOM      9  C   UNL     1       5.975   1.324  -8.801  1.00  0.00     0.133 C 
ATOM     10  C   UNL     1       4.601   0.097 -11.124  1.00  0.00     0.022 C 
ATOM     11  C   UNL     1       5.332   1.425 -11.301  1.00  0.00     0.017 C 
BRANCH   7  12
ATOM     12  C   UNL     1       5.789  -1.034  -7.985  1.00  0.00     0.227 C 
ATOM     13  O   UNL     1       5.976  -2.142  -8.502  1.00  0.00    -0.275 OA
BRANCH  12  14
ATOM     14  C   UNL     1       5.833  -0.928  -6.460  1.00  0.00     0.094 C 
ATOM     15  N   UNL     1       3.443  -0.409  -6.165  1.00  0.00    -0.197 NA
ATOM     16  C   UNL     1       3.686   1.001  -5.814  1.00  0.00     0.102 C 
ATOM     17  C   UNL     1       4.491  -1.418  -5.933  1.00  0.00     0.116 C 
ATOM     18  C   UNL     1       5.142   1.406  -5.601  1.00  0.00     0.018 C 
ATOM     19  C   UNL     1       6.227   0.345  -5.735  1.00  0.00     0.016 C 
BRANCH  15  20
ATOM     20  S   UNL     1       1.824  -0.932  -6.161  1.00  0.00     0.243 S 
ATOM     21  O   UNL     1       1.773  -2.269  -6.698  1.00  0.00    -0.207 OA
ATOM     22  O   UNL     1       1.034   0.145  -6.732  1.00  0.00    -0.207 OA
BRANCH  20  23
ATOM     23  C   UNL     1       1.342  -1.046  -4.450  1.00  0.00     0.082 A 
ATOM     24  C   UNL     1       0.434  -1.073  -1.807  1.00  0.00     0.118 A 
ATOM     25  C   UNL     1      -0.453  -1.324  -2.855  1.00  0.00     0.048 A 
ATOM     26  C   UNL     1       1.785  -0.864  -2.079  1.00  0.00     0.048 A 
ATOM     27  C   UNL     1      -0.006  -1.300  -4.179  1.00  0.00     0.025 A 
ATOM     28  C   UNL     1       2.238  -0.845  -3.398  1.00  0.00     0.025 A 
BRANCH  24  29
ATOM     29  O   UNL     1      -0.105  -1.073  -0.550  1.00  0.00    -0.497 OA
ATOM     30  C   UNL     1       0.521  -0.176   0.363  1.00  0.00     0.278 C 
ENDBRANCH  24  29
ENDBRANCH  20  23
ENDBRANCH  15  20
ENDBRANCH  12  14
ENDBRANCH   7  12
ENDBRANCH   3   6
ENDBRANCH   1   2
BRANCH   1  31
ATOM     31  C   UNL     1       7.806  -1.782 -11.930  1.00  0.00     0.023 C 
BRANCH  31  32
ATOM     32  C   UNL     1       8.959  -2.767 -12.067  1.00  0.00     0.023 C 
BRANCH  32  33
ATOM     33  C   UNL     1       9.119  -3.753 -10.913  1.00  0.00     0.116 C 
BRANCH  33  34
ATOM     34  N   UNL     1       7.956  -4.593 -10.657  1.00  0.00    -0.352 N 
ATOM     35  C   UNL     1       7.942  -5.938 -10.355  1.00  0.00     0.251 C 
ATOM     36  H   UNL     1       7.079  -4.148 -10.706  1.00  0.00     0.163 HD
ATOM     37  O   UNL     1       6.898  -6.566 -10.230  1.00  0.00    -0.269 OA
BRANCH  35  38
ATOM     38  C   UNL     1       9.241  -6.630 -10.223  1.00  0.00     0.039 A 
ATOM     39  C   UNL     1       9.524  -7.709 -11.061  1.00  0.00     0.014 A 
ATOM     40  C   UNL     1      10.215  -6.111  -9.367  1.00  0.00     0.014 A 
ATOM     41  C   UNL     1      10.828  -8.206 -11.114  1.00  0.00     0.010 A 
ATOM     42  C   UNL     1      11.527  -6.551  -9.485  1.00  0.00     0.010 A 
ATOM     43  C   UNL     1      11.850  -7.593 -10.369  1.00  0.00    -0.014 A 
BRANCH  43  44
ATOM     44  C   UNL     1      13.268  -8.005 -10.516  1.00  0.00     0.031 A 
ATOM     45  C   UNL     1      14.015  -8.561  -9.337  1.00  0.00     0.074 A 
ATOM     46  C   UNL     1      13.911  -7.795 -11.683  1.00  0.00     0.049 A 
ATOM     47  N   UNL     1      15.277  -8.898  -9.243  1.00  0.00    -0.248 NA
ATOM     48  C   UNL     1      13.252  -8.729  -8.090  1.00  0.00     0.031 C 
ATOM     49  C   UNL     1      13.320  -7.207 -12.888  1.00  0.00     0.029 A 
ATOM     50  N   UNL     1      15.211  -8.049 -12.043  1.00  0.00    -0.354 N 
ATOM     51  C   UNL     1      15.462  -9.290  -7.924  1.00  0.00     0.074 A 
ATOM     52  C   UNL     1      14.200  -9.103  -7.243  1.00  0.00     0.031 C 
ATOM     53  C   UNL     1      14.245  -7.175 -13.861  1.00  0.00     0.029 A 
ATOM     54  C   UNL     1      15.501  -7.705 -13.341  1.00  0.00     0.049 A 
ATOM     55  H   UNL     1      15.873  -8.440 -11.429  1.00  0.00     0.167 HD
ATOM     56  C   UNL     1      16.576  -9.786  -7.335  1.00  0.00     0.031 A 
ATOM     57  C   UNL     1      16.650  -7.805 -14.036  1.00  0.00     0.031 A 
ATOM     58  C   UNL     1      17.824 -10.001  -8.014  1.00  0.00     0.049 A 
ATOM     59  C   UNL     1      17.867  -8.379 -13.367  1.00  0.00     0.074 A 
ATOM     60  C   UNL     1      18.989 -10.560  -7.521  1.00  0.00     0.029 A 
ATOM     61  N   UNL     1      18.066  -9.669  -9.338  1.00  0.00    -0.354 N 
ATOM     62  N   UNL     1      18.007  -8.811 -12.137  1.00  0.00    -0.248 NA
ATOM     63  C   UNL     1      19.083  -8.491 -14.187  1.00  0.00     0.031 C 
ATOM     64  C   UNL     1      19.949 -10.535  -8.538  1.00  0.00     0.029 A 
ATOM     65  C   UNL     1      19.367 -10.000  -9.675  1.00  0.00     0.049 A 
ATOM     66  H   UNL     1      17.410  -9.260  -9.948  1.00  0.00     0.167 HD
ATOM     67  C   UNL     1      19.314  -9.268 -12.043  1.00  0.00     0.074 A 
ATOM     68  C   UNL     1      19.923  -9.074 -13.343  1.00  0.00     0.031 C 
ATOM     69  C   UNL     1      19.954  -9.803 -10.974  1.00  0.00     0.031 A 
BRANCH  56  70
ATOM     70  C   UNL     1      16.482 -10.132  -5.876  1.00  0.00    -0.014 A 
ATOM     71  C   UNL     1      15.734 -11.238  -5.441  1.00  0.00     0.009 A 
ATOM     72  C   UNL     1      17.162  -9.353  -4.928  1.00  0.00     0.009 A 
ATOM     73  C   UNL     1      15.635 -11.532  -4.080  1.00  0.00     0.001 A 
ATOM     74  C   UNL     1      17.083  -9.667  -3.569  1.00  0.00     0.001 A 
ATOM     75  C   UNL     1      16.312 -10.748  -3.146  1.00  0.00     0.000 A 
ENDBRANCH  56  70
BRANCH  57  76
ATOM     76  C   UNL     1      16.702  -7.380 -15.458  1.00  0.00    -0.014 A 
ATOM     77  C   UNL     1      16.774  -8.338 -16.481  1.00  0.00     0.009 A 
ATOM     78  C   UNL     1      16.689  -6.020 -15.802  1.00  0.00     0.009 A 
ATOM     79  C   UNL     1      16.857  -7.942 -17.818  1.00  0.00     0.001 A 
ATOM     80  C   UNL     1      16.747  -5.628 -17.141  1.00  0.00     0.001 A 
ATOM     81  C   UNL     1      16.840  -6.588 -18.147  1.00  0.00     0.000 A 
ENDBRANCH  57  76
BRANCH  69  82
ATOM     82  C   UNL     1      21.374 -10.245 -11.176  1.00  0.00    -0.014 A 
ATOM     83  C   UNL     1      22.419  -9.314 -11.271  1.00  0.00     0.009 A 
ATOM     84  C   UNL     1      21.673 -11.616 -11.227  1.00  0.00     0.009 A 
ATOM     85  C   UNL     1      23.735  -9.748 -11.441  1.00  0.00     0.001 A 
ATOM     86  C   UNL     1      22.992 -12.046 -11.373  1.00  0.00     0.001 A 
ATOM     87  C   UNL     1      24.020 -11.112 -11.487  1.00  0.00     0.000 A 
ENDBRANCH  69  82
ENDBRANCH  43  44
ENDBRANCH  35  38
ENDBRANCH  33  34
ENDBRANCH  32  33
ENDBRANCH  31  32
ENDBRANCH   1  31
TORSDOF 16
