REMARK SMILES CCc1cc(Oc2cncc(C(=O)NCCCCNC(=O)c3ccc(-c4c5nc(c(-c6ccccc6)c6ccc([nH]6)c(-c6ccccc6)c6nc(c(-c7ccccc7)c7ccc4[nH]7)C=C6)C=C5)cc3)n2)ccc1Cl
REMARK SMILES IDX 16 1 15 2 14 3 12 4 13 5 11 7 7 8 8 9 70 10 9 11 10 12 6 13
REMARK SMILES IDX 5 14 3 15 4 16 73 17 72 18 74 19 71 20 2 21 1 22 17 23 18 24
REMARK SMILES IDX 19 25 20 26 21 28 22 29 23 30 69 31 24 32 68 33 25 34 26 35
REMARK SMILES IDX 27 36 62 37 28 38 67 39 61 40 63 41 29 42 66 43 60 44 59 45
REMARK SMILES IDX 30 47 52 48 37 49 51 50 38 51 41 52 50 53 64 54 39 55 40 56
REMARK SMILES IDX 49 58 65 59 42 60 31 61 32 62 36 63 33 64 35 65 34 66 53 67
REMARK SMILES IDX 54 68 58 69 55 70 57 71 56 72 43 73 44 74 48 75 45 76 47 77
REMARK SMILES IDX 46 78
REMARK H PARENT 14 6 19 27 63 46 41 57
REMARK Flexibility Score: inf
ROOT
ATOM      1  C   UNL     1       7.148   1.601   5.173  1.00  0.00     0.023 C 
ENDROOT
BRANCH   1   2
ATOM      2  C   UNL     1       6.787   1.206   6.603  1.00  0.00     0.116 C 
BRANCH   2   3
ATOM      3  N   UNL     1       6.826   2.354   7.494  1.00  0.00    -0.351 N 
ATOM      4  C   UNL     1       5.808   3.095   8.052  1.00  0.00     0.271 C 
ATOM      5  O   UNL     1       6.114   4.018   8.809  1.00  0.00    -0.267 OA
ATOM      6  H   UNL     1       7.731   2.651   7.740  1.00  0.00     0.163 HD
BRANCH   4   7
ATOM      7  C   UNL     1       4.367   2.804   7.807  1.00  0.00     0.150 A 
ATOM      8  C   UNL     1       2.701   1.700   6.690  1.00  0.00     0.238 A 
ATOM      9  C   UNL     1       1.756   2.218   7.567  1.00  0.00     0.179 A 
ATOM     10  N   UNL     1       4.017   1.978   6.791  1.00  0.00    -0.205 NA
ATOM     11  N   UNL     1       2.087   3.087   8.552  1.00  0.00    -0.257 NA
ATOM     12  C   UNL     1       3.414   3.367   8.651  1.00  0.00     0.145 A 
BRANCH   8  13
ATOM     13  O   UNL     1       2.351   0.801   5.715  1.00  0.00    -0.437 OA
BRANCH  13  14
ATOM     14  C   UNL     1       1.794   1.296   4.556  1.00  0.00     0.129 A 
ATOM     15  C   UNL     1       0.824   0.680   2.391  1.00  0.00    -0.026 A 
ATOM     16  C   UNL     1       1.463   0.330   3.597  1.00  0.00     0.052 A 
ATOM     17  C   UNL     1       0.505   2.031   2.181  1.00  0.00     0.044 A 
ATOM     18  C   UNL     1       0.878   3.002   3.115  1.00  0.00     0.024 A 
ATOM     19  Cl  UNL     1      -0.393   2.567   0.808  1.00  0.00    -0.084 Cl
ATOM     20  C   UNL     1       1.531   2.640   4.294  1.00  0.00     0.049 A 
BRANCH  15  21
ATOM     21  C   UNL     1       0.489  -0.414   1.401  1.00  0.00     0.034 C 
ATOM     22  C   UNL     1       1.294  -0.342   0.109  1.00  0.00     0.009 C 
ENDBRANCH  15  21
ENDBRANCH  13  14
ENDBRANCH   8  13
ENDBRANCH   4   7
ENDBRANCH   2   3
ENDBRANCH   1   2
BRANCH   1  23
ATOM     23  C   UNL     1       8.637   1.903   4.968  1.00  0.00     0.023 C 
BRANCH  23  24
ATOM     24  C   UNL     1       9.589   0.773   5.352  1.00  0.00     0.116 C 
BRANCH  24  25
ATOM     25  N   UNL     1       9.316  -0.476   4.656  1.00  0.00    -0.352 N 
ATOM     26  C   UNL     1      10.207  -1.403   4.175  1.00  0.00     0.251 C 
ATOM     27  H   UNL     1       8.364  -0.683   4.512  1.00  0.00     0.163 HD
ATOM     28  O   UNL     1       9.816  -2.358   3.510  1.00  0.00    -0.269 OA
BRANCH  26  29
ATOM     29  C   UNL     1      11.651  -1.223   4.429  1.00  0.00     0.039 A 
ATOM     30  C   UNL     1      12.541  -1.321   3.358  1.00  0.00     0.014 A 
ATOM     31  C   UNL     1      12.117  -0.925   5.712  1.00  0.00     0.014 A 
ATOM     32  C   UNL     1      13.896  -1.051   3.560  1.00  0.00     0.010 A 
ATOM     33  C   UNL     1      13.454  -0.587   5.897  1.00  0.00     0.010 A 
ATOM     34  C   UNL     1      14.356  -0.645   4.824  1.00  0.00    -0.014 A 
BRANCH  34  35
ATOM     35  C   UNL     1      15.774  -0.264   5.040  1.00  0.00     0.031 A 
ATOM     36  C   UNL     1      16.641  -1.070   5.966  1.00  0.00     0.074 A 
ATOM     37  C   UNL     1      16.261   0.849   4.459  1.00  0.00     0.049 A 
ATOM     38  N   UNL     1      17.885  -0.866   6.319  1.00  0.00    -0.248 NA
ATOM     39  C   UNL     1      16.021  -2.245   6.600  1.00  0.00     0.031 C 
ATOM     40  C   UNL     1      15.512   1.740   3.570  1.00  0.00     0.029 A 
ATOM     41  N   UNL     1      17.505   1.423   4.533  1.00  0.00    -0.354 N 
ATOM     42  C   UNL     1      18.187  -1.868   7.232  1.00  0.00     0.074 A 
ATOM     43  C   UNL     1      16.985  -2.652   7.413  1.00  0.00     0.031 C 
ATOM     44  C   UNL     1      16.323   2.726   3.152  1.00  0.00     0.029 A 
ATOM     45  C   UNL     1      17.632   2.562   3.775  1.00  0.00     0.049 A 
ATOM     46  H   UNL     1      18.237   1.054   5.079  1.00  0.00     0.167 HD
ATOM     47  C   UNL     1      19.363  -2.124   7.852  1.00  0.00     0.031 A 
ATOM     48  C   UNL     1      18.685   3.382   3.601  1.00  0.00     0.031 A 
ATOM     49  C   UNL     1      20.563  -1.354   7.660  1.00  0.00     0.049 A 
ATOM     50  C   UNL     1      19.975   3.085   4.313  1.00  0.00     0.074 A 
ATOM     51  C   UNL     1      21.825  -1.580   8.183  1.00  0.00     0.029 A 
ATOM     52  N   UNL     1      20.648  -0.205   6.890  1.00  0.00    -0.354 N 
ATOM     53  N   UNL     1      20.268   2.087   5.110  1.00  0.00    -0.248 NA
ATOM     54  C   UNL     1      21.081   4.027   4.092  1.00  0.00     0.031 C 
ATOM     55  C   UNL     1      22.660  -0.535   7.774  1.00  0.00     0.029 A 
ATOM     56  C   UNL     1      21.933   0.309   6.949  1.00  0.00     0.049 A 
ATOM     57  H   UNL     1      19.906   0.188   6.377  1.00  0.00     0.167 HD
ATOM     58  C   UNL     1      21.600   2.263   5.461  1.00  0.00     0.074 A 
ATOM     59  C   UNL     1      22.059   3.457   4.782  1.00  0.00     0.031 C 
ATOM     60  C   UNL     1      22.375   1.500   6.271  1.00  0.00     0.031 A 
BRANCH  47  61
ATOM     61  C   UNL     1      19.398  -3.279   8.815  1.00  0.00    -0.014 A 
ATOM     62  C   UNL     1      19.302  -4.607   8.369  1.00  0.00     0.009 A 
ATOM     63  C   UNL     1      19.548  -3.034  10.189  1.00  0.00     0.009 A 
ATOM     64  C   UNL     1      19.309  -5.662   9.284  1.00  0.00     0.001 A 
ATOM     65  C   UNL     1      19.586  -4.093  11.098  1.00  0.00     0.001 A 
ATOM     66  C   UNL     1      19.454  -5.405  10.646  1.00  0.00     0.000 A 
ENDBRANCH  47  61
BRANCH  48  67
ATOM     67  C   UNL     1      18.577   4.547   2.686  1.00  0.00    -0.014 A 
ATOM     68  C   UNL     1      19.251   4.542   1.455  1.00  0.00     0.009 A 
ATOM     69  C   UNL     1      17.805   5.667   3.032  1.00  0.00     0.009 A 
ATOM     70  C   UNL     1      19.174   5.643   0.600  1.00  0.00     0.001 A 
ATOM     71  C   UNL     1      17.708   6.756   2.163  1.00  0.00     0.001 A 
ATOM     72  C   UNL     1      18.399   6.747   0.952  1.00  0.00     0.000 A 
ENDBRANCH  48  67
BRANCH  60  73
ATOM     73  C   UNL     1      23.810   1.913   6.437  1.00  0.00    -0.014 A 
ATOM     74  C   UNL     1      24.163   3.042   7.192  1.00  0.00     0.009 A 
ATOM     75  C   UNL     1      24.826   1.136   5.859  1.00  0.00     0.009 A 
ATOM     76  C   UNL     1      25.504   3.402   7.338  1.00  0.00     0.001 A 
ATOM     77  C   UNL     1      26.167   1.482   6.030  1.00  0.00     0.001 A 
ATOM     78  C   UNL     1      26.504   2.619   6.762  1.00  0.00     0.000 A 
ENDBRANCH  60  73
ENDBRANCH  34  35
ENDBRANCH  26  29
ENDBRANCH  24  25
ENDBRANCH  23  24
ENDBRANCH   1  23
TORSDOF 14
