REMARK SMILES C[C@H]1[C@H](C(=O)NCCCCNC(=O)c2ccc(-c3c4nc(c(-c5ccccc5)c5ccc([nH]5)c(-c5ccccc5)c5nc(c(-c6ccccc6)c6ccc3[nH]6)C=C5)C=C4)cc2)CCN1C(=O)COc1ccccc1F
REMARK SMILES IDX 7 1 6 2 4 3 5 4 3 6 1 7 2 8 64 9 62 10 63 11 65 12 66 13
REMARK SMILES IDX 67 14 68 15 69 16 70 17 74 18 71 19 73 20 75 21 72 22 8 23
REMARK SMILES IDX 9 24 10 25 11 26 12 27 13 29 14 30 15 31 61 32 16 33 60 34
REMARK SMILES IDX 17 35 18 36 19 37 54 38 20 39 59 40 53 41 55 42 21 43 58 44
REMARK SMILES IDX 52 45 51 46 22 48 44 49 29 50 43 51 30 52 33 53 42 54 56 55
REMARK SMILES IDX 31 56 32 57 41 59 57 60 34 61 23 62 24 63 28 64 25 65 27 66
REMARK SMILES IDX 26 67 45 68 46 69 50 70 47 71 49 72 48 73 35 74 36 75 40 76
REMARK SMILES IDX 37 77 39 78 38 79
REMARK H PARENT 6 5 11 28 55 47 33 58
REMARK Flexibility Score: inf
ROOT
ATOM      1  C   UNL     1      -0.986   0.560   2.949  1.00  0.00     0.116 C 
ENDROOT
BRANCH   1   2
ATOM      2  N   UNL     1      -0.516   1.851   2.482  1.00  0.00    -0.356 N 
ATOM      3  C   UNL     1      -0.081   2.254   1.259  1.00  0.00     0.225 C 
ATOM      4  O   UNL     1       0.303   3.421   1.152  1.00  0.00    -0.275 OA
ATOM      5  H   UNL     1      -0.511   2.556   3.170  1.00  0.00     0.163 HD
BRANCH   3   6
ATOM      6  C   UNL     1      -0.063   1.334   0.051  1.00  0.00     0.102 C 
ATOM      7  C   UNL     1       1.986   0.191  -0.822  1.00  0.00     0.032 C 
ATOM      8  C   UNL     1       0.875   0.121   0.225  1.00  0.00     0.094 C 
ATOM      9  N   UNL     1      -0.009  -1.039   0.081  1.00  0.00    -0.336 N 
ATOM     10  C   UNL     1      -1.445   0.796  -0.329  1.00  0.00     0.037 C 
ATOM     11  C   UNL     1      -1.238  -0.680  -0.600  1.00  0.00     0.121 C 
BRANCH   9  12
ATOM     12  C   UNL     1       0.106  -2.292   0.651  1.00  0.00     0.260 C 
ATOM     13  O   UNL     1      -0.892  -2.991   0.861  1.00  0.00    -0.271 OA
BRANCH  12  14
ATOM     14  C   UNL     1       1.484  -2.823   1.065  1.00  0.00     0.329 C 
BRANCH  14  15
ATOM     15  O   UNL     1       2.643  -2.653   0.279  1.00  0.00    -0.481 OA
BRANCH  15  16
ATOM     16  C   UNL     1       2.754  -3.294  -0.924  1.00  0.00     0.155 A 
ATOM     17  C   UNL     1       4.076  -3.540  -1.314  1.00  0.00     0.049 A 
ATOM     18  C   UNL     1       1.735  -3.609  -1.824  1.00  0.00     0.165 A 
ATOM     19  C   UNL     1       4.367  -4.081  -2.571  1.00  0.00     0.004 A 
ATOM     20  C   UNL     1       2.020  -4.132  -3.085  1.00  0.00     0.043 A 
ATOM     21  F   UNL     1       0.448  -3.381  -1.554  1.00  0.00    -0.203 F 
ATOM     22  C   UNL     1       3.338  -4.367  -3.463  1.00  0.00     0.003 A 
ENDBRANCH  15  16
ENDBRANCH  14  15
ENDBRANCH  12  14
ENDBRANCH   9  12
ENDBRANCH   3   6
ENDBRANCH   1   2
BRANCH   1  23
ATOM     23  C   UNL     1       0.004  -0.086   3.914  1.00  0.00     0.023 C 
BRANCH  23  24
ATOM     24  C   UNL     1       0.113   0.619   5.265  1.00  0.00     0.023 C 
BRANCH  24  25
ATOM     25  C   UNL     1      -1.205   0.785   6.012  1.00  0.00     0.116 C 
BRANCH  25  26
ATOM     26  N   UNL     1      -1.889  -0.476   6.254  1.00  0.00    -0.352 N 
ATOM     27  C   UNL     1      -2.535  -0.893   7.392  1.00  0.00     0.251 C 
ATOM     28  H   UNL     1      -1.889  -1.114   5.504  1.00  0.00     0.163 HD
ATOM     29  O   UNL     1      -2.961  -2.040   7.486  1.00  0.00    -0.269 OA
BRANCH  27  30
ATOM     30  C   UNL     1      -2.678   0.045   8.522  1.00  0.00     0.039 A 
ATOM     31  C   UNL     1      -2.304  -0.377   9.800  1.00  0.00     0.014 A 
ATOM     32  C   UNL     1      -3.135   1.348   8.310  1.00  0.00     0.014 A 
ATOM     33  C   UNL     1      -2.320   0.535  10.856  1.00  0.00     0.010 A 
ATOM     34  C   UNL     1      -3.077   2.274   9.346  1.00  0.00     0.010 A 
ATOM     35  C   UNL     1      -2.668   1.877  10.628  1.00  0.00    -0.014 A 
BRANCH  35  36
ATOM     36  C   UNL     1      -2.604   2.882  11.717  1.00  0.00     0.031 A 
ATOM     37  C   UNL     1      -3.857   3.566  12.187  1.00  0.00     0.074 A 
ATOM     38  C   UNL     1      -1.409   3.226  12.236  1.00  0.00     0.049 A 
ATOM     39  N   UNL     1      -3.995   4.508  13.085  1.00  0.00    -0.248 NA
ATOM     40  C   UNL     1      -5.117   3.158  11.545  1.00  0.00     0.031 C 
ATOM     41  C   UNL     1      -0.116   2.669  11.836  1.00  0.00     0.029 A 
ATOM     42  N   UNL     1      -1.090   4.136  13.213  1.00  0.00    -0.354 N 
ATOM     43  C   UNL     1      -5.349   4.816  13.103  1.00  0.00     0.074 A 
ATOM     44  C   UNL     1      -5.982   3.999  12.091  1.00  0.00     0.031 C 
ATOM     45  C   UNL     1       0.853   3.227  12.580  1.00  0.00     0.029 A 
ATOM     46  C   UNL     1       0.255   4.207  13.480  1.00  0.00     0.049 A 
ATOM     47  H   UNL     1      -1.762   4.686  13.678  1.00  0.00     0.167 HD
ATOM     48  C   UNL     1      -6.011   5.684  13.903  1.00  0.00     0.031 A 
ATOM     49  C   UNL     1       0.933   4.979  14.350  1.00  0.00     0.031 A 
ATOM     50  C   UNL     1      -5.383   6.488  14.917  1.00  0.00     0.049 A 
ATOM     51  C   UNL     1       0.176   5.943  15.221  1.00  0.00     0.074 A 
ATOM     52  C   UNL     1      -5.976   7.354  15.820  1.00  0.00     0.029 A 
ATOM     53  N   UNL     1      -4.019   6.524  15.162  1.00  0.00    -0.354 N 
ATOM     54  N   UNL     1      -1.114   6.170  15.275  1.00  0.00    -0.248 NA
ATOM     55  C   UNL     1       0.971   6.750  16.158  1.00  0.00     0.031 C 
ATOM     56  C   UNL     1      -4.965   7.953  16.578  1.00  0.00     0.029 A 
ATOM     57  C   UNL     1      -3.748   7.417  16.185  1.00  0.00     0.049 A 
ATOM     58  H   UNL     1      -3.344   5.995  14.680  1.00  0.00     0.167 HD
ATOM     59  C   UNL     1      -1.289   7.124  16.269  1.00  0.00     0.074 A 
ATOM     60  C   UNL     1       0.025   7.420  16.802  1.00  0.00     0.031 C 
ATOM     61  C   UNL     1      -2.435   7.702  16.703  1.00  0.00     0.031 A 
BRANCH  48  62
ATOM     62  C   UNL     1      -7.495   5.812  13.705  1.00  0.00    -0.014 A 
ATOM     63  C   UNL     1      -8.369   4.771  14.060  1.00  0.00     0.009 A 
ATOM     64  C   UNL     1      -8.031   6.999  13.183  1.00  0.00     0.009 A 
ATOM     65  C   UNL     1      -9.745   4.903  13.861  1.00  0.00     0.001 A 
ATOM     66  C   UNL     1      -9.410   7.139  13.012  1.00  0.00     0.001 A 
ATOM     67  C   UNL     1     -10.264   6.088  13.342  1.00  0.00     0.000 A 
ENDBRANCH  48  62
BRANCH  49  68
ATOM     68  C   UNL     1       2.411   4.862  14.457  1.00  0.00    -0.014 A 
ATOM     69  C   UNL     1       2.998   4.287  15.595  1.00  0.00     0.009 A 
ATOM     70  C   UNL     1       3.242   5.329  13.428  1.00  0.00     0.009 A 
ATOM     71  C   UNL     1       4.387   4.208  15.712  1.00  0.00     0.001 A 
ATOM     72  C   UNL     1       4.631   5.222  13.535  1.00  0.00     0.001 A 
ATOM     73  C   UNL     1       5.202   4.671  14.681  1.00  0.00     0.000 A 
ENDBRANCH  49  68
BRANCH  61  74
ATOM     74  C   UNL     1      -2.323   8.688  17.830  1.00  0.00    -0.014 A 
ATOM     75  C   UNL     1      -1.774   9.964  17.631  1.00  0.00     0.009 A 
ATOM     76  C   UNL     1      -2.811   8.347  19.101  1.00  0.00     0.009 A 
ATOM     77  C   UNL     1      -1.687  10.867  18.693  1.00  0.00     0.001 A 
ATOM     78  C   UNL     1      -2.749   9.262  20.153  1.00  0.00     0.001 A 
ATOM     79  C   UNL     1      -2.179  10.517  19.950  1.00  0.00     0.000 A 
ENDBRANCH  61  74
ENDBRANCH  35  36
ENDBRANCH  27  30
ENDBRANCH  25  26
ENDBRANCH  24  25
ENDBRANCH  23  24
ENDBRANCH   1  23
TORSDOF 15
