REMARK SMILES O=C(NCCCCNC(=O)c1cc(NC(=S)NC(=O)c2ccccc2Cl)c(Cl)cc1Cl)c1ccc(-c2c3nc(c(-c4ccccc4)c4ccc([nH]4)c(-c4ccccc4)c4nc(c(-c5ccccc5)c5ccc2[nH]5)C=C4)C=C3)cc1
REMARK SMILES IDX 6 1 5 2 4 3 3 4 1 5 2 6 32 8 33 9 79 10 34 11 78 12 35 13
REMARK SMILES IDX 36 14 37 15 72 16 38 17 77 18 71 19 73 20 39 21 76 22 70 23
REMARK SMILES IDX 69 24 40 26 62 27 47 28 61 29 48 30 51 31 60 32 74 33 49 34
REMARK SMILES IDX 50 35 59 37 75 38 52 39 41 40 42 41 46 42 43 43 45 44 44 45
REMARK SMILES IDX 63 46 64 47 68 48 65 49 67 50 66 51 53 52 54 53 58 54 55 55
REMARK SMILES IDX 57 56 56 57 7 58 8 59 9 60 10 62 11 63 12 64 30 65 13 66
REMARK SMILES IDX 29 67 31 68 27 69 28 70 14 71 15 73 16 74 17 75 18 76 19 78
REMARK SMILES IDX 20 79 21 80 25 81 22 82 24 83 26 84 23 85
REMARK H PARENT 3 7 73 25 51 36 8 61 14 72 17 77
REMARK Flexibility Score: inf
ROOT
ATOM      1  C   UNL     1       5.238   2.984   1.884  1.00  0.00     0.023 C 
ENDROOT
BRANCH   1   2
ATOM      2  C   UNL     1       5.198   2.339   0.495  1.00  0.00     0.023 C 
BRANCH   2   3
ATOM      3  C   UNL     1       4.640   0.919   0.433  1.00  0.00     0.116 C 
BRANCH   3   4
ATOM      4  N   UNL     1       3.196   0.818   0.559  1.00  0.00    -0.352 N 
ATOM      5  O   UNL     1       1.144   0.028  -0.028  1.00  0.00    -0.269 OA
ATOM      6  C   UNL     1       2.359   0.004  -0.179  1.00  0.00     0.251 C 
ATOM      7  H   UNL     1       2.770   1.389   1.240  1.00  0.00     0.163 HD
BRANCH   6   8
ATOM      8  C   UNL     1       2.971  -0.876  -1.197  1.00  0.00     0.039 A 
ATOM      9  C   UNL     1       4.012  -1.734  -0.832  1.00  0.00     0.014 A 
ATOM     10  C   UNL     1       2.579  -0.758  -2.532  1.00  0.00     0.014 A 
ATOM     11  C   UNL     1       4.758  -2.362  -1.821  1.00  0.00     0.010 A 
ATOM     12  C   UNL     1       3.269  -1.473  -3.516  1.00  0.00     0.010 A 
ATOM     13  C   UNL     1       4.375  -2.266  -3.169  1.00  0.00    -0.014 A 
BRANCH  13  14
ATOM     14  C   UNL     1       5.052  -3.119  -4.177  1.00  0.00     0.031 A 
ATOM     15  C   UNL     1       5.822  -2.535  -5.327  1.00  0.00     0.074 A 
ATOM     16  C   UNL     1       4.934  -4.455  -4.042  1.00  0.00     0.049 A 
ATOM     17  N   UNL     1       6.413  -3.159  -6.316  1.00  0.00    -0.248 NA
ATOM     18  C   UNL     1       5.944  -1.070  -5.387  1.00  0.00     0.031 C 
ATOM     19  C   UNL     1       4.202  -5.130  -2.964  1.00  0.00     0.029 A 
ATOM     20  N   UNL     1       5.419  -5.484  -4.804  1.00  0.00    -0.354 N 
ATOM     21  C   UNL     1       6.950  -2.169  -7.129  1.00  0.00     0.074 A 
ATOM     22  C   UNL     1       6.613  -0.898  -6.522  1.00  0.00     0.031 C 
ATOM     23  C   UNL     1       4.311  -6.456  -3.118  1.00  0.00     0.029 A 
ATOM     24  C   UNL     1       5.040  -6.724  -4.349  1.00  0.00     0.049 A 
ATOM     25  H   UNL     1       5.984  -5.349  -5.599  1.00  0.00     0.167 HD
ATOM     26  C   UNL     1       7.652  -2.316  -8.279  1.00  0.00     0.031 A 
ATOM     27  C   UNL     1       5.209  -7.945  -4.886  1.00  0.00     0.031 A 
ATOM     28  C   UNL     1       7.982  -3.589  -8.868  1.00  0.00     0.049 A 
ATOM     29  C   UNL     1       5.939  -8.063  -6.189  1.00  0.00     0.074 A 
ATOM     30  C   UNL     1       8.745  -3.842  -9.996  1.00  0.00     0.029 A 
ATOM     31  N   UNL     1       7.555  -4.819  -8.391  1.00  0.00    -0.354 N 
ATOM     32  N   UNL     1       6.504  -7.121  -6.905  1.00  0.00    -0.248 NA
ATOM     33  C   UNL     1       6.049  -9.409  -6.764  1.00  0.00     0.031 C 
ATOM     34  C   UNL     1       8.712  -5.216 -10.247  1.00  0.00     0.029 A 
ATOM     35  C   UNL     1       7.991  -5.828  -9.235  1.00  0.00     0.049 A 
ATOM     36  H   UNL     1       7.022  -4.955  -7.574  1.00  0.00     0.167 HD
ATOM     37  C   UNL     1       7.047  -7.763  -8.008  1.00  0.00     0.074 A 
ATOM     38  C   UNL     1       6.773  -9.176  -7.849  1.00  0.00     0.031 C 
ATOM     39  C   UNL     1       7.705  -7.228  -9.063  1.00  0.00     0.031 A 
BRANCH  26  40
ATOM     40  C   UNL     1       8.085  -1.079  -9.019  1.00  0.00    -0.014 A 
ATOM     41  C   UNL     1       9.127  -0.266  -8.550  1.00  0.00     0.009 A 
ATOM     42  C   UNL     1       7.508  -0.787 -10.267  1.00  0.00     0.009 A 
ATOM     43  C   UNL     1       9.572   0.821  -9.310  1.00  0.00     0.001 A 
ATOM     44  C   UNL     1       7.972   0.282 -11.035  1.00  0.00     0.001 A 
ATOM     45  C   UNL     1       9.001   1.088 -10.554  1.00  0.00     0.000 A 
ENDBRANCH  26  40
BRANCH  27  46
ATOM     46  C   UNL     1       4.611  -9.137  -4.229  1.00  0.00    -0.014 A 
ATOM     47  C   UNL     1       5.421 -10.154  -3.707  1.00  0.00     0.009 A 
ATOM     48  C   UNL     1       3.214  -9.268  -4.138  1.00  0.00     0.009 A 
ATOM     49  C   UNL     1       4.846 -11.295  -3.143  1.00  0.00     0.001 A 
ATOM     50  C   UNL     1       2.643 -10.390  -3.537  1.00  0.00     0.001 A 
ATOM     51  C   UNL     1       3.459 -11.410  -3.054  1.00  0.00     0.000 A 
ENDBRANCH  27  46
BRANCH  39  52
ATOM     52  C   UNL     1       8.188  -8.180 -10.120  1.00  0.00    -0.014 A 
ATOM     53  C   UNL     1       7.289  -8.809 -10.994  1.00  0.00     0.009 A 
ATOM     54  C   UNL     1       9.564  -8.415 -10.270  1.00  0.00     0.009 A 
ATOM     55  C   UNL     1       7.756  -9.677 -11.982  1.00  0.00     0.001 A 
ATOM     56  C   UNL     1      10.030  -9.256 -11.280  1.00  0.00     0.001 A 
ATOM     57  C   UNL     1       9.126  -9.893 -12.129  1.00  0.00     0.000 A 
ENDBRANCH  39  52
ENDBRANCH  13  14
ENDBRANCH   6   8
ENDBRANCH   3   4
ENDBRANCH   2   3
ENDBRANCH   1   2
BRANCH   1  58
ATOM     58  C   UNL     1       5.993   2.127   2.900  1.00  0.00     0.116 C 
BRANCH  58  59
ATOM     59  N   UNL     1       7.166   2.735   3.535  1.00  0.00    -0.352 N 
ATOM     60  C   UNL     1       7.549   3.174   4.787  1.00  0.00     0.252 C 
ATOM     61  H   UNL     1       7.889   2.869   2.880  1.00  0.00     0.163 HD
ATOM     62  O   UNL     1       8.759   3.173   5.025  1.00  0.00    -0.269 OA
BRANCH  60  63
ATOM     63  C   UNL     1       6.643   3.847   5.826  1.00  0.00     0.060 A 
ATOM     64  C   UNL     1       5.341   3.325   7.280  1.00  0.00     0.043 A 
ATOM     65  C   UNL     1       6.977   5.636   5.715  1.00  0.00     0.055 A 
ATOM     66  C   UNL     1       4.454   4.447   8.190  1.00  0.00     0.060 A 
ATOM     67  C   UNL     1       6.099   6.734   6.825  1.00  0.00     0.044 A 
ATOM     68  Cl  UNL     1       8.127   6.323   4.638  1.00  0.00    -0.083 Cl
ATOM     69  C   UNL     1       4.873   6.141   7.999  1.00  0.00     0.066 A 
ATOM     70  Cl  UNL     1       3.879   7.324   8.770  1.00  0.00    -0.082 Cl
BRANCH  66  71
ATOM     71  N   UNL     1       3.172   3.896   8.454  1.00  0.00    -0.331 N 
ATOM     72  H   UNL     1       2.597   4.462   9.018  1.00  0.00     0.169 HD
BRANCH  71  73
ATOM     73  C   UNL     1       2.587   2.705   8.059  1.00  0.00     0.177 C 
ATOM     74  S   UNL     1       1.052   2.400   8.681  1.00  0.00    -0.040 S 
BRANCH  73  75
ATOM     75  N   UNL     1       3.075   1.693   7.167  1.00  0.00    -0.299 N 
ATOM     76  C   UNL     1       4.052   1.106   6.208  1.00  0.00     0.258 C 
ATOM     77  H   UNL     1       2.375   1.002   7.215  1.00  0.00     0.172 HD
ATOM     78  O   UNL     1       3.864   0.001   5.710  1.00  0.00    -0.269 OA
BRANCH  76  79
ATOM     79  C   UNL     1       5.240   1.902   5.757  1.00  0.00     0.058 A 
ATOM     80  C   UNL     1       4.518   3.449   5.334  1.00  0.00     0.015 A 
ATOM     81  C   UNL     1       6.691   1.715   6.805  1.00  0.00     0.053 A 
ATOM     82  C   UNL     1       5.086   4.871   6.204  1.00  0.00     0.001 A 
ATOM     83  C   UNL     1       7.371   3.069   7.736  1.00  0.00     0.021 A 
ATOM     84  Cl  UNL     1       7.141   0.125   7.319  1.00  0.00    -0.083 Cl
ATOM     85  C   UNL     1       6.586   4.687   7.554  1.00  0.00     0.002 A 
ENDBRANCH  76  79
ENDBRANCH  73  75
ENDBRANCH  71  73
ENDBRANCH  66  71
ENDBRANCH  60  63
ENDBRANCH  58  59
ENDBRANCH   1  58
TORSDOF 15
