REMARK SMILES CC(C)[C@H](NC(=O)[C@H]1CC(=O)N(c2ccc(F)cc2)C1)C(=O)N1CCC[C@@H]1C(=O)NCCCCNC(=O)c1ccc(-c2c3nc(c(-c4ccccc4)c4ccc([nH]4)c(-c4ccccc4)c4nc(c(-c5ccccc5)c5ccc2[nH]5)C=C4)C=C3)cc1
REMARK SMILES IDX 31 1 30 2 28 3 29 4 27 6 23 7 24 8 25 9 26 10 21 11 22 12
REMARK SMILES IDX 4 13 2 14 1 15 3 16 5 17 6 18 7 20 8 21 9 22 20 23 10 24
REMARK SMILES IDX 12 25 11 26 13 27 14 28 19 29 15 30 18 31 16 32 17 33 32 34
REMARK SMILES IDX 33 35 34 36 35 37 36 38 37 40 38 41 39 42 85 43 40 44 84 45
REMARK SMILES IDX 41 46 42 47 43 48 78 49 44 50 83 51 77 52 79 53 45 54 82 55
REMARK SMILES IDX 76 56 75 57 46 59 68 60 53 61 67 62 54 63 57 64 66 65 80 66
REMARK SMILES IDX 55 67 56 68 65 70 81 71 58 72 47 73 48 74 52 75 49 76 51 77
REMARK SMILES IDX 50 78 69 79 70 80 74 81 71 82 73 83 72 84 59 85 60 86 64 87
REMARK SMILES IDX 61 88 63 89 62 90
REMARK H PARENT 30 5 5 19 35 39 79 58 57 69
REMARK Flexibility Score: inf
ROOT
ATOM      1  C   UNL     1      -0.116  -3.357   0.304  1.00  0.00     0.116 C 
ENDROOT
BRANCH   1   2
ATOM      2  N   UNL     1       1.115  -4.048   0.669  1.00  0.00    -0.354 N 
ATOM      3  C   UNL     1       2.012  -4.021   1.705  1.00  0.00     0.242 C 
ATOM      4  O   UNL     1       2.788  -4.994   1.665  1.00  0.00    -0.273 OA
ATOM      5  H   UNL     1       1.370  -4.713  -0.010  1.00  0.00     0.163 HD
BRANCH   3   6
ATOM      6  C   UNL     1       2.386  -2.837   2.728  1.00  0.00     0.174 C 
ATOM      7  N   UNL     1       1.319  -1.719   3.568  1.00  0.00    -0.329 N 
ATOM      8  C   UNL     1       1.555  -0.472   2.437  1.00  0.00     0.120 C 
ATOM      9  C   UNL     1       2.372  -0.925   1.258  1.00  0.00     0.024 C 
ATOM     10  C   UNL     1       3.287  -1.945   1.832  1.00  0.00     0.037 C 
BRANCH   7  11
ATOM     11  C   UNL     1      -0.004  -2.019   5.051  1.00  0.00     0.246 C 
ATOM     12  O   UNL     1       0.138  -2.465   6.231  1.00  0.00    -0.272 OA
BRANCH  11  13
ATOM     13  C   UNL     1      -1.851  -1.551   4.947  1.00  0.00     0.174 C 
BRANCH  13  14
ATOM     14  C   UNL     1      -3.035  -1.604   3.796  1.00  0.00     0.015 C 
ATOM     15  C   UNL     1      -4.196  -0.628   4.067  1.00  0.00     0.010 C 
ATOM     16  C   UNL     1      -2.763  -1.408   2.277  1.00  0.00     0.010 C 
ENDBRANCH  13  14
BRANCH  13  17
ATOM     17  N   UNL     1      -1.864  -0.281   5.554  1.00  0.00    -0.344 N 
ATOM     18  C   UNL     1      -0.954   0.479   4.952  1.00  0.00     0.226 C 
ATOM     19  H   UNL     1      -2.448  -0.004   6.297  1.00  0.00     0.164 HD
ATOM     20  O   UNL     1      -0.894   1.693   5.066  1.00  0.00    -0.275 OA
BRANCH  18  21
ATOM     21  C   UNL     1       0.005  -0.377   4.120  1.00  0.00     0.107 C 
ATOM     22  C   UNL     1       1.582  -0.797   5.302  1.00  0.00     0.116 C 
ATOM     23  C   UNL     1      -0.428  -2.227   3.222  1.00  0.00     0.139 C 
ATOM     24  C   UNL     1       1.939  -2.753   5.215  1.00  0.00     0.227 C 
ATOM     25  N   UNL     1       0.707  -3.528   4.122  1.00  0.00    -0.312 N 
ATOM     26  O   UNL     1       2.807  -3.365   5.830  1.00  0.00    -0.274 OA
BRANCH  25  27
ATOM     27  C   UNL     1       0.366  -4.914   4.274  1.00  0.00     0.044 A 
ATOM     28  C   UNL     1       0.624  -5.578   5.481  1.00  0.00     0.029 A 
ATOM     29  C   UNL     1      -0.170  -5.661   3.224  1.00  0.00     0.029 A 
ATOM     30  C   UNL     1       0.387  -6.953   5.620  1.00  0.00     0.041 A 
ATOM     31  C   UNL     1      -0.315  -7.050   3.324  1.00  0.00     0.041 A 
ATOM     32  C   UNL     1      -0.044  -7.684   4.525  1.00  0.00     0.123 A 
ATOM     33  F   UNL     1      -0.203  -9.010   4.624  1.00  0.00    -0.207 F 
ENDBRANCH  25  27
ENDBRANCH  18  21
ENDBRANCH  13  17
ENDBRANCH  11  13
ENDBRANCH   7  11
ENDBRANCH   3   6
ENDBRANCH   1   2
BRANCH   1  34
ATOM     34  C   UNL     1      -0.672  -3.668  -1.082  1.00  0.00     0.023 C 
BRANCH  34  35
ATOM     35  C   UNL     1      -1.764  -4.743  -1.108  1.00  0.00     0.023 C 
BRANCH  35  36
ATOM     36  C   UNL     1      -3.052  -4.433  -0.337  1.00  0.00     0.116 C 
BRANCH  36  37
ATOM     37  N   UNL     1      -3.730  -3.219  -0.774  1.00  0.00    -0.352 N 
ATOM     38  C   UNL     1      -4.993  -3.058  -1.297  1.00  0.00     0.251 C 
ATOM     39  H   UNL     1      -3.206  -2.391  -0.682  1.00  0.00     0.163 HD
ATOM     40  O   UNL     1      -5.356  -1.960  -1.708  1.00  0.00    -0.269 OA
BRANCH  38  41
ATOM     41  C   UNL     1      -5.898  -4.220  -1.397  1.00  0.00     0.039 A 
ATOM     42  C   UNL     1      -6.494  -4.508  -2.626  1.00  0.00     0.014 A 
ATOM     43  C   UNL     1      -6.119  -5.048  -0.294  1.00  0.00     0.014 A 
ATOM     44  C   UNL     1      -7.239  -5.681  -2.772  1.00  0.00     0.010 A 
ATOM     45  C   UNL     1      -6.788  -6.257  -0.464  1.00  0.00     0.010 A 
ATOM     46  C   UNL     1      -7.349  -6.591  -1.707  1.00  0.00    -0.014 A 
BRANCH  46  47
ATOM     47  C   UNL     1      -8.028  -7.902  -1.888  1.00  0.00     0.031 A 
ATOM     48  C   UNL     1      -9.255  -8.240  -1.083  1.00  0.00     0.074 A 
ATOM     49  C   UNL     1      -7.512  -8.810  -2.743  1.00  0.00     0.049 A 
ATOM     50  N   UNL     1      -9.962  -9.342  -1.085  1.00  0.00    -0.248 NA
ATOM     51  C   UNL     1      -9.742  -7.218  -0.141  1.00  0.00     0.031 C 
ATOM     52  C   UNL     1      -6.309  -8.621  -3.559  1.00  0.00     0.029 A 
ATOM     53  N   UNL     1      -7.933 -10.076  -3.070  1.00  0.00    -0.354 N 
ATOM     54  C   UNL     1     -10.959  -9.153  -0.136  1.00  0.00     0.074 A 
ATOM     55  C   UNL     1     -10.745  -7.850   0.453  1.00  0.00     0.031 C 
ATOM     56  C   UNL     1      -6.111  -9.713  -4.315  1.00  0.00     0.029 A 
ATOM     57  C   UNL     1      -7.136 -10.702  -4.000  1.00  0.00     0.049 A 
ATOM     58  H   UNL     1      -8.731 -10.496  -2.676  1.00  0.00     0.167 HD
ATOM     59  C   UNL     1     -11.971  -9.985   0.205  1.00  0.00     0.031 A 
ATOM     60  C   UNL     1      -7.210 -11.940  -4.529  1.00  0.00     0.031 A 
ATOM     61  C   UNL     1     -12.191 -11.276  -0.389  1.00  0.00     0.049 A 
ATOM     62  C   UNL     1      -8.328 -12.853  -4.097  1.00  0.00     0.074 A 
ATOM     63  C   UNL     1     -13.232 -12.159  -0.156  1.00  0.00     0.029 A 
ATOM     64  N   UNL     1     -11.356 -11.876  -1.316  1.00  0.00    -0.354 N 
ATOM     65  N   UNL     1      -9.317 -12.617  -3.269  1.00  0.00    -0.248 NA
ATOM     66  C   UNL     1      -8.345 -14.202  -4.682  1.00  0.00     0.031 C 
ATOM     67  C   UNL     1     -12.980 -13.328  -0.876  1.00  0.00     0.029 A 
ATOM     68  C   UNL     1     -11.834 -13.137  -1.630  1.00  0.00     0.049 A 
ATOM     69  H   UNL     1     -10.545 -11.467  -1.696  1.00  0.00     0.167 HD
ATOM     70  C   UNL     1     -10.092 -13.771  -3.268  1.00  0.00     0.074 A 
ATOM     71  C   UNL     1      -9.473 -14.694  -4.194  1.00  0.00     0.031 C 
ATOM     72  C   UNL     1     -11.216 -14.043  -2.562  1.00  0.00     0.031 A 
BRANCH  59  73
ATOM     73  C   UNL     1     -12.917  -9.546   1.289  1.00  0.00    -0.014 A 
ATOM     74  C   UNL     1     -13.839  -8.509   1.084  1.00  0.00     0.009 A 
ATOM     75  C   UNL     1     -12.947 -10.252   2.503  1.00  0.00     0.009 A 
ATOM     76  C   UNL     1     -14.761  -8.178   2.080  1.00  0.00     0.001 A 
ATOM     77  C   UNL     1     -13.891  -9.941   3.483  1.00  0.00     0.001 A 
ATOM     78  C   UNL     1     -14.793  -8.901   3.273  1.00  0.00     0.000 A 
ENDBRANCH  59  73
BRANCH  60  79
ATOM     79  C   UNL     1      -6.192 -12.418  -5.507  1.00  0.00    -0.014 A 
ATOM     80  C   UNL     1      -6.560 -12.767  -6.817  1.00  0.00     0.009 A 
ATOM     81  C   UNL     1      -4.858 -12.603  -5.112  1.00  0.00     0.009 A 
ATOM     82  C   UNL     1      -5.631 -13.346  -7.686  1.00  0.00     0.001 A 
ATOM     83  C   UNL     1      -3.921 -13.140  -5.997  1.00  0.00     0.001 A 
ATOM     84  C   UNL     1      -4.312 -13.531  -7.276  1.00  0.00     0.000 A 
ENDBRANCH  60  79
BRANCH  72  85
ATOM     85  C   UNL     1     -11.888 -15.367  -2.806  1.00  0.00    -0.014 A 
ATOM     86  C   UNL     1     -11.300 -16.578  -2.409  1.00  0.00     0.009 A 
ATOM     87  C   UNL     1     -13.157 -15.395  -3.408  1.00  0.00     0.009 A 
ATOM     88  C   UNL     1     -11.950 -17.791  -2.651  1.00  0.00     0.001 A 
ATOM     89  C   UNL     1     -13.822 -16.604  -3.609  1.00  0.00     0.001 A 
ATOM     90  C   UNL     1     -13.213 -17.802  -3.243  1.00  0.00     0.000 A 
ENDBRANCH  72  85
ENDBRANCH  46  47
ENDBRANCH  38  41
ENDBRANCH  36  37
ENDBRANCH  35  36
ENDBRANCH  34  35
ENDBRANCH   1  34
TORSDOF 17
