REMARK SMILES CC1=C(C(=O)NCCCCNC(=O)c2ccc(-c3c4nc(c(-c5ccccc5)c5ccc([nH]5)c(-c5ccccc5)c5nc(c(-c6ccccc6)c6ccc3[nH]6)C=C5)C=C4)cc2)N2C(=O)[C@@H](NC(=O)c3ccn(C)n3)[C@H]2SC1
REMARK SMILES IDX 8 1 7 2 6 3 4 4 5 5 3 7 1 8 2 9 77 10 62 11 76 12 63 13
REMARK SMILES IDX 75 14 64 15 65 16 66 17 67 18 68 20 69 21 70 22 74 23 71 24
REMARK SMILES IDX 72 25 73 26 9 27 10 28 11 29 12 30 13 32 14 33 15 34 61 35
REMARK SMILES IDX 16 36 60 37 17 38 18 39 19 40 54 41 20 42 59 43 53 44 55 45
REMARK SMILES IDX 21 46 58 47 52 48 51 49 22 51 44 52 29 53 43 54 30 55 33 56
REMARK SMILES IDX 42 57 56 58 31 59 32 60 41 62 57 63 34 64 23 65 24 66 28 67
REMARK SMILES IDX 25 68 27 69 26 70 45 71 46 72 50 73 47 74 49 75 48 76 35 77
REMARK SMILES IDX 36 78 40 79 37 80 39 81 38 82
REMARK H PARENT 6 6 66 19 11 31 55 50 33 61
REMARK Flexibility Score: inf
ROOT
ATOM      1  C   UNL     1       3.101  -3.833   2.449  1.00  0.00     0.023 C 
ENDROOT
BRANCH   1   2
ATOM      2  C   UNL     1       2.706  -3.009   1.232  1.00  0.00     0.116 C 
BRANCH   2   3
ATOM      3  N   UNL     1       1.489  -3.397   0.552  1.00  0.00    -0.351 N 
ATOM      4  C   UNL     1       0.663  -2.635  -0.233  1.00  0.00     0.268 C 
ATOM      5  O   UNL     1      -0.201  -3.198  -0.906  1.00  0.00    -0.268 OA
ATOM      6  H   UNL     1       1.218  -4.336   0.669  1.00  0.00     0.163 HD
BRANCH   4   7
ATOM      7  C   UNL     1       0.765  -1.125  -0.244  1.00  0.00     0.110 C 
ATOM      8  C   UNL     1       3.185  -0.941  -0.967  1.00  0.00     0.043 C 
ATOM      9  C   UNL     1       1.890  -0.389  -0.433  1.00  0.00    -0.034 C 
ATOM     10  C   UNL     1       1.971   1.119  -0.182  1.00  0.00     0.104 C 
ATOM     11  N   UNL     1      -0.418  -0.452  -0.232  1.00  0.00    -0.290 N 
ATOM     12  S   UNL     1       0.399   1.939   0.259  1.00  0.00    -0.129 SA
ATOM     13  C   UNL     1      -1.720  -0.632   0.061  1.00  0.00     0.253 C 
ATOM     14  C   UNL     1      -0.542   0.856  -0.835  1.00  0.00     0.181 C 
ATOM     15  O   UNL     1      -2.336  -1.495   0.643  1.00  0.00    -0.272 OA
ATOM     16  C   UNL     1      -2.065   0.698  -0.674  1.00  0.00     0.206 C 
BRANCH  16  17
ATOM     17  N   UNL     1      -2.804   1.760   0.041  1.00  0.00    -0.336 N 
ATOM     18  C   UNL     1      -3.803   2.564  -0.481  1.00  0.00     0.272 C 
ATOM     19  H   UNL     1      -2.561   1.911   0.983  1.00  0.00     0.164 HD
ATOM     20  O   UNL     1      -4.188   3.534   0.170  1.00  0.00    -0.267 OA
BRANCH  18  21
ATOM     21  C   UNL     1      -4.343   2.218  -1.807  1.00  0.00     0.150 A 
ATOM     22  C   UNL     1      -4.873   0.965  -2.229  1.00  0.00     0.056 A 
ATOM     23  N   UNL     1      -4.350   3.098  -2.827  1.00  0.00    -0.168 NA
ATOM     24  C   UNL     1      -5.160   1.116  -3.564  1.00  0.00     0.109 A 
ATOM     25  N   UNL     1      -4.878   2.416  -3.858  1.00  0.00    -0.275 N 
ATOM     26  C   UNL     1      -5.071   3.059  -5.136  1.00  0.00     0.173 C 
ENDBRANCH  18  21
ENDBRANCH  16  17
ENDBRANCH   4   7
ENDBRANCH   2   3
ENDBRANCH   1   2
BRANCH   1  27
ATOM     27  C   UNL     1       3.375  -5.315   2.213  1.00  0.00     0.023 C 
BRANCH  27  28
ATOM     28  C   UNL     1       4.270  -5.665   1.028  1.00  0.00     0.116 C 
BRANCH  28  29
ATOM     29  N   UNL     1       5.625  -5.137   1.129  1.00  0.00    -0.352 N 
ATOM     30  C   UNL     1       6.829  -5.791   1.266  1.00  0.00     0.251 C 
ATOM     31  H   UNL     1       5.689  -4.155   1.094  1.00  0.00     0.163 HD
ATOM     32  O   UNL     1       7.861  -5.148   1.430  1.00  0.00    -0.269 OA
BRANCH  30  33
ATOM     33  C   UNL     1       6.878  -7.269   1.260  1.00  0.00     0.039 A 
ATOM     34  C   UNL     1       7.608  -7.927   2.254  1.00  0.00     0.014 A 
ATOM     35  C   UNL     1       6.184  -8.007   0.301  1.00  0.00     0.014 A 
ATOM     36  C   UNL     1       7.553  -9.321   2.345  1.00  0.00     0.010 A 
ATOM     37  C   UNL     1       6.047  -9.383   0.455  1.00  0.00     0.010 A 
ATOM     38  C   UNL     1       6.726 -10.057   1.482  1.00  0.00    -0.014 A 
BRANCH  38  39
ATOM     39  C   UNL     1       6.551 -11.526   1.639  1.00  0.00     0.031 A 
ATOM     40  C   UNL     1       6.936 -12.460   0.523  1.00  0.00     0.074 A 
ATOM     41  C   UNL     1       5.984 -12.018   2.760  1.00  0.00     0.049 A 
ATOM     42  N   UNL     1       6.805 -13.761   0.452  1.00  0.00    -0.248 NA
ATOM     43  C   UNL     1       7.520 -11.851  -0.683  1.00  0.00     0.031 C 
ATOM     44  C   UNL     1       5.525 -11.223   3.901  1.00  0.00     0.029 A 
ATOM     45  N   UNL     1       5.692 -13.311   3.122  1.00  0.00    -0.354 N 
ATOM     46  C   UNL     1       7.274 -14.120  -0.805  1.00  0.00     0.074 A 
ATOM     47  C   UNL     1       7.635 -12.897  -1.487  1.00  0.00     0.031 C 
ATOM     48  C   UNL     1       5.046 -12.045   4.848  1.00  0.00     0.029 A 
ATOM     49  C   UNL     1       5.113 -13.420   4.364  1.00  0.00     0.049 A 
ATOM     50  H   UNL     1       5.880 -14.087   2.545  1.00  0.00     0.167 HD
ATOM     51  C   UNL     1       7.417 -15.357  -1.338  1.00  0.00     0.031 A 
ATOM     52  C   UNL     1       4.676 -14.503   5.036  1.00  0.00     0.031 A 
ATOM     53  C   UNL     1       7.063 -16.575  -0.660  1.00  0.00     0.049 A 
ATOM     54  C   UNL     1       4.813 -15.863   4.406  1.00  0.00     0.074 A 
ATOM     55  C   UNL     1       7.218 -17.879  -1.097  1.00  0.00     0.029 A 
ATOM     56  N   UNL     1       6.475 -16.639   0.593  1.00  0.00    -0.354 N 
ATOM     57  N   UNL     1       5.331 -16.189   3.247  1.00  0.00    -0.248 NA
ATOM     58  C   UNL     1       4.312 -17.005   5.184  1.00  0.00     0.031 C 
ATOM     59  C   UNL     1       6.664 -18.729  -0.137  1.00  0.00     0.029 A 
ATOM     60  C   UNL     1       6.232 -17.960   0.931  1.00  0.00     0.049 A 
ATOM     61  H   UNL     1       6.263 -15.862   1.159  1.00  0.00     0.167 HD
ATOM     62  C   UNL     1       5.249 -17.574   3.172  1.00  0.00     0.074 A 
ATOM     63  C   UNL     1       4.649 -18.026   4.410  1.00  0.00     0.031 C 
ATOM     64  C   UNL     1       5.637 -18.398   2.168  1.00  0.00     0.031 A 
BRANCH  51  65
ATOM     65  C   UNL     1       7.976 -15.452  -2.732  1.00  0.00    -0.014 A 
ATOM     66  C   UNL     1       9.312 -15.118  -3.007  1.00  0.00     0.009 A 
ATOM     67  C   UNL     1       7.167 -15.921  -3.779  1.00  0.00     0.009 A 
ATOM     68  C   UNL     1       9.814 -15.215  -4.307  1.00  0.00     0.001 A 
ATOM     69  C   UNL     1       7.680 -16.050  -5.070  1.00  0.00     0.001 A 
ATOM     70  C   UNL     1       9.000 -15.687  -5.336  1.00  0.00     0.000 A 
ENDBRANCH  51  65
BRANCH  52  71
ATOM     71  C   UNL     1       4.070 -14.355   6.388  1.00  0.00    -0.014 A 
ATOM     72  C   UNL     1       4.718 -14.868   7.523  1.00  0.00     0.009 A 
ATOM     73  C   UNL     1       2.826 -13.724   6.549  1.00  0.00     0.009 A 
ATOM     74  C   UNL     1       4.118 -14.785   8.782  1.00  0.00     0.001 A 
ATOM     75  C   UNL     1       2.245 -13.610   7.814  1.00  0.00     0.001 A 
ATOM     76  C   UNL     1       2.885 -14.152   8.927  1.00  0.00     0.000 A 
ENDBRANCH  52  71
BRANCH  64  77
ATOM     77  C   UNL     1       5.468 -19.877   2.380  1.00  0.00    -0.014 A 
ATOM     78  C   UNL     1       4.199 -20.476   2.399  1.00  0.00     0.009 A 
ATOM     79  C   UNL     1       6.604 -20.691   2.512  1.00  0.00     0.009 A 
ATOM     80  C   UNL     1       4.071 -21.855   2.582  1.00  0.00     0.001 A 
ATOM     81  C   UNL     1       6.476 -22.073   2.659  1.00  0.00     0.001 A 
ATOM     82  C   UNL     1       5.209 -22.652   2.705  1.00  0.00     0.000 A 
ENDBRANCH  64  77
ENDBRANCH  38  39
ENDBRANCH  30  33
ENDBRANCH  28  29
ENDBRANCH  27  28
ENDBRANCH   1  27
TORSDOF 13
