REMARK SMILES O=C1C[N@@H+](Cc2ccc(C(=O)NCCCCNC(=O)c3ccc(-c4c5nc(c(-c6ccccc6)c6ccc([nH]6)c(-c6ccccc6)c6nc(c(-c7ccccc7)c7ccc4[nH]7)C=C6)C=C5)cc3)cc2)CCN1
REMARK SMILES IDX 14 1 13 2 12 3 10 4 11 5 9 7 6 8 7 9 69 10 8 11 68 12 5 13
REMARK SMILES IDX 4 14 1 15 2 16 3 17 72 18 71 19 70 21 15 23 16 24 17 25
REMARK SMILES IDX 18 26 19 28 20 29 21 30 67 31 22 32 66 33 23 34 24 35 25 36
REMARK SMILES IDX 60 37 26 38 65 39 59 40 61 41 27 42 64 43 58 44 57 45 28 47
REMARK SMILES IDX 50 48 35 49 49 50 36 51 39 52 48 53 62 54 37 55 38 56 47 58
REMARK SMILES IDX 63 59 40 60 29 61 30 62 34 63 31 64 33 65 32 66 51 67 52 68
REMARK SMILES IDX 56 69 53 70 55 71 54 72 41 73 42 74 46 75 43 76 45 77 44 78
REMARK H PARENT 12 6 72 20 4 22 17 27 61 46 39 57
REMARK Flexibility Score: inf
ROOT
ATOM      1  C   UNL     1      -1.666   5.749   2.769  1.00  0.00     0.023 C 
ENDROOT
BRANCH   1   2
ATOM      2  C   UNL     1      -0.350   5.008   2.524  1.00  0.00     0.116 C 
BRANCH   2   3
ATOM      3  N   UNL     1       0.298   4.669   3.778  1.00  0.00    -0.352 N 
ATOM      4  C   UNL     1       0.390   3.467   4.438  1.00  0.00     0.251 C 
ATOM      5  O   UNL     1       1.057   3.396   5.466  1.00  0.00    -0.269 OA
ATOM      6  H   UNL     1       0.743   5.422   4.229  1.00  0.00     0.163 HD
BRANCH   4   7
ATOM      7  C   UNL     1      -0.233   2.244   3.880  1.00  0.00     0.039 A 
ATOM      8  C   UNL     1      -1.185  -0.028   2.544  1.00  0.00     0.006 A 
ATOM      9  C   UNL     1       0.065  -0.051   3.176  1.00  0.00     0.010 A 
ATOM     10  C   UNL     1      -2.007   1.095   2.708  1.00  0.00     0.010 A 
ATOM     11  C   UNL     1       0.541   1.081   3.840  1.00  0.00     0.014 A 
ATOM     12  C   UNL     1      -1.537   2.220   3.383  1.00  0.00     0.014 A 
BRANCH   8  13
ATOM     13  C   UNL     1      -1.631  -1.170   1.666  1.00  0.00     0.299 C 
BRANCH  13  14
ATOM     14  N   UNL     1      -1.210  -1.126   0.264  1.00  0.00    -0.322 N 
ATOM     15  O   UNL     1       2.327  -0.215   0.195  1.00  0.00    -0.269 OA
ATOM     16  C   UNL     1       1.117  -0.153  -0.022  1.00  0.00     0.275 C 
ATOM     17  C   UNL     1       0.219  -1.392   0.025  1.00  0.00     0.363 C 
ATOM     18  N   UNL     1       0.567   1.028  -0.438  1.00  0.00    -0.346 N 
ATOM     19  C   UNL     1      -0.854   1.263  -0.523  1.00  0.00     0.177 C 
ATOM     20  H   UNL     1       1.175   1.759  -0.692  1.00  0.00     0.163 HD
ATOM     21  C   UNL     1      -1.707  -0.016  -0.549  1.00  0.00     0.284 C 
ATOM     22  H   UNL     1      -1.717  -1.938  -0.089  1.00  0.00     0.348 HD
ENDBRANCH  13  14
ENDBRANCH   8  13
ENDBRANCH   4   7
ENDBRANCH   2   3
ENDBRANCH   1   2
BRANCH   1  23
ATOM     23  C   UNL     1      -1.497   7.169   3.310  1.00  0.00     0.023 C 
BRANCH  23  24
ATOM     24  C   UNL     1      -0.773   8.126   2.374  1.00  0.00     0.116 C 
BRANCH  24  25
ATOM     25  N   UNL     1      -1.453   8.297   1.100  1.00  0.00    -0.352 N 
ATOM     26  C   UNL     1      -1.616   9.443   0.358  1.00  0.00     0.251 C 
ATOM     27  H   UNL     1      -1.852   7.482   0.717  1.00  0.00     0.163 HD
ATOM     28  O   UNL     1      -2.330   9.439  -0.634  1.00  0.00    -0.269 OA
BRANCH  26  29
ATOM     29  C   UNL     1      -0.943  10.689   0.787  1.00  0.00     0.039 A 
ATOM     30  C   UNL     1      -1.667  11.883   0.778  1.00  0.00     0.014 A 
ATOM     31  C   UNL     1       0.392  10.677   1.201  1.00  0.00     0.014 A 
ATOM     32  C   UNL     1      -1.063  13.060   1.225  1.00  0.00     0.010 A 
ATOM     33  C   UNL     1       0.963  11.830   1.726  1.00  0.00     0.010 A 
ATOM     34  C   UNL     1       0.250  13.038   1.724  1.00  0.00    -0.014 A 
BRANCH  34  35
ATOM     35  C   UNL     1       0.914  14.276   2.202  1.00  0.00     0.031 A 
ATOM     36  C   UNL     1       2.132  14.794   1.485  1.00  0.00     0.074 A 
ATOM     37  C   UNL     1       0.457  14.905   3.301  1.00  0.00     0.049 A 
ATOM     38  N   UNL     1       2.884  15.826   1.773  1.00  0.00    -0.248 NA
ATOM     39  C   UNL     1       2.583  14.035   0.307  1.00  0.00     0.031 C 
ATOM     40  C   UNL     1      -0.692  14.486   4.106  1.00  0.00     0.029 A 
ATOM     41  N   UNL     1       0.911  16.036   3.934  1.00  0.00    -0.354 N 
ATOM     42  C   UNL     1       3.901  15.826   0.826  1.00  0.00     0.074 A 
ATOM     43  C   UNL     1       3.707  14.660  -0.006  1.00  0.00     0.031 C 
ATOM     44  C   UNL     1      -0.871  15.364   5.106  1.00  0.00     0.029 A 
ATOM     45  C   UNL     1       0.171  16.384   5.038  1.00  0.00     0.049 A 
ATOM     46  H   UNL     1       1.692  16.549   3.625  1.00  0.00     0.167 HD
ATOM     47  C   UNL     1       4.895  16.728   0.646  1.00  0.00     0.031 A 
ATOM     48  C   UNL     1       0.319  17.408   5.899  1.00  0.00     0.031 A 
ATOM     49  C   UNL     1       5.080  17.895   1.465  1.00  0.00     0.049 A 
ATOM     50  C   UNL     1       1.439  18.390   5.687  1.00  0.00     0.074 A 
ATOM     51  C   UNL     1       6.025  18.898   1.335  1.00  0.00     0.029 A 
ATOM     52  N   UNL     1       4.304  18.215   2.568  1.00  0.00    -0.354 N 
ATOM     53  N   UNL     1       2.352  18.413   4.747  1.00  0.00    -0.248 NA
ATOM     54  C   UNL     1       1.537  19.497   6.648  1.00  0.00     0.031 C 
ATOM     55  C   UNL     1       5.854  19.797   2.392  1.00  0.00     0.029 A 
ATOM     56  C   UNL     1       4.761  19.390   3.140  1.00  0.00     0.049 A 
ATOM     57  H   UNL     1       3.541  17.686   2.895  1.00  0.00     0.167 HD
ATOM     58  C   UNL     1       3.108  19.555   4.981  1.00  0.00     0.074 A 
ATOM     59  C   UNL     1       2.538  20.203   6.143  1.00  0.00     0.031 C 
ATOM     60  C   UNL     1       4.177  20.026   4.292  1.00  0.00     0.031 A 
BRANCH  47  61
ATOM     61  C   UNL     1       5.861  16.478  -0.479  1.00  0.00    -0.014 A 
ATOM     62  C   UNL     1       5.458  16.575  -1.822  1.00  0.00     0.009 A 
ATOM     63  C   UNL     1       7.200  16.167  -0.195  1.00  0.00     0.009 A 
ATOM     64  C   UNL     1       6.365  16.323  -2.853  1.00  0.00     0.001 A 
ATOM     65  C   UNL     1       8.112  15.949  -1.229  1.00  0.00     0.001 A 
ATOM     66  C   UNL     1       7.692  16.016  -2.556  1.00  0.00     0.000 A 
ENDBRANCH  47  61
BRANCH  48  67
ATOM     67  C   UNL     1      -0.630  17.576   7.032  1.00  0.00    -0.014 A 
ATOM     68  C   UNL     1      -1.534  18.650   7.052  1.00  0.00     0.009 A 
ATOM     69  C   UNL     1      -0.627  16.674   8.108  1.00  0.00     0.009 A 
ATOM     70  C   UNL     1      -2.390  18.837   8.140  1.00  0.00     0.001 A 
ATOM     71  C   UNL     1      -1.506  16.845   9.179  1.00  0.00     0.001 A 
ATOM     72  C   UNL     1      -2.378  17.932   9.200  1.00  0.00     0.000 A 
ENDBRANCH  48  67
BRANCH  60  73
ATOM     73  C   UNL     1       4.765  21.334   4.743  1.00  0.00    -0.014 A 
ATOM     74  C   UNL     1       5.486  21.443   5.942  1.00  0.00     0.009 A 
ATOM     75  C   UNL     1       4.629  22.469   3.927  1.00  0.00     0.009 A 
ATOM     76  C   UNL     1       6.026  22.670   6.332  1.00  0.00     0.001 A 
ATOM     77  C   UNL     1       5.198  23.686   4.303  1.00  0.00     0.001 A 
ATOM     78  C   UNL     1       5.886  23.788   5.511  1.00  0.00     0.000 A 
ENDBRANCH  60  73
ENDBRANCH  34  35
ENDBRANCH  26  29
ENDBRANCH  24  25
ENDBRANCH  23  24
ENDBRANCH   1  23
TORSDOF 13
