REMARK SMILES O=C(C[N@@H+]1CCC[C@@H]1C(=O)NCCCCNC(=O)c1ccc(-c2c3nc(c(-c4ccccc4)c4ccc([nH]4)c(-c4ccccc4)c4nc(c(-c5ccccc5)c5ccc2[nH]5)C=C4)C=C3)cc1)NCc1ccc(Cl)cc1
REMARK SMILES IDX 12 1 11 2 9 3 10 4 8 6 4 7 5 8 6 10 7 11 3 12 2 13 1 14
REMARK SMILES IDX 67 15 68 17 69 18 70 19 75 20 71 21 74 22 72 23 73 24 13 25
REMARK SMILES IDX 14 26 15 27 16 28 17 29 18 31 19 32 20 33 66 34 21 35 65 36
REMARK SMILES IDX 22 37 23 38 24 39 59 40 25 41 64 42 58 43 60 44 26 45 63 46
REMARK SMILES IDX 57 47 56 48 27 50 49 51 34 52 48 53 35 54 38 55 47 56 61 57
REMARK SMILES IDX 36 58 37 59 46 61 62 62 39 63 28 64 29 65 33 66 30 67 32 68
REMARK SMILES IDX 31 69 50 70 51 71 55 72 52 73 54 74 53 75 40 76 41 77 45 78
REMARK SMILES IDX 42 79 44 80 43 81
REMARK H PARENT 11 5 4 9 67 16 16 30 60 49 38 60
REMARK Flexibility Score: inf
ROOT
ATOM      1  C   UNL     1       5.090  -0.874   1.576  1.00  0.00     0.116 C 
ENDROOT
BRANCH   1   2
ATOM      2  N   UNL     1       5.125   0.496   1.116  1.00  0.00    -0.351 N 
ATOM      3  C   UNL     1       5.109   0.990  -0.157  1.00  0.00     0.278 C 
ATOM      4  O   UNL     1       5.139   2.220  -0.265  1.00  0.00    -0.268 OA
ATOM      5  H   UNL     1       5.168   1.175   1.827  1.00  0.00     0.163 HD
BRANCH   3   6
ATOM      6  C   UNL     1       5.082   0.099  -1.401  1.00  0.00     0.274 C 
ATOM      7  N   UNL     1       4.030  -0.909  -1.549  1.00  0.00    -0.317 N 
ATOM      8  C   UNL     1       4.590  -2.144  -2.078  1.00  0.00     0.263 C 
ATOM      9  H   UNL     1       3.445  -0.292  -2.113  1.00  0.00     0.349 HD
ATOM     10  C   UNL     1       6.058  -2.119  -1.700  1.00  0.00     0.068 C 
ATOM     11  C   UNL     1       6.411  -0.646  -1.575  1.00  0.00     0.081 C 
BRANCH   7  12
ATOM     12  C   UNL     1       2.767  -1.034  -0.840  1.00  0.00     0.364 C 
BRANCH  12  13
ATOM     13  C   UNL     1       1.946   0.250  -0.673  1.00  0.00     0.275 C 
ATOM     14  O   UNL     1       1.039   0.569  -1.435  1.00  0.00    -0.268 OA
ATOM     15  N   UNL     1       2.251   0.959   0.464  1.00  0.00    -0.347 N 
ATOM     16  H   UNL     1       2.943   0.600   1.065  1.00  0.00     0.164 HD
BRANCH  15  17
ATOM     17  C   UNL     1       1.611   2.202   0.826  1.00  0.00     0.151 C 
BRANCH  17  18
ATOM     18  C   UNL     1       2.050   2.652   2.204  1.00  0.00    -0.029 A 
ATOM     19  C   UNL     1       2.121   1.745   3.276  1.00  0.00     0.007 A 
ATOM     20  C   UNL     1       2.365   3.998   2.445  1.00  0.00     0.007 A 
ATOM     21  C   UNL     1       2.542   2.161   4.541  1.00  0.00     0.021 A 
ATOM     22  C   UNL     1       2.769   4.420   3.716  1.00  0.00     0.021 A 
ATOM     23  C   UNL     1       2.865   3.498   4.755  1.00  0.00     0.041 A 
ATOM     24  Cl  UNL     1       3.379   4.009   6.315  1.00  0.00    -0.084 Cl
ENDBRANCH  17  18
ENDBRANCH  15  17
ENDBRANCH  12  13
ENDBRANCH   7  12
ENDBRANCH   3   6
ENDBRANCH   1   2
BRANCH   1  25
ATOM     25  C   UNL     1       6.062  -1.133   2.715  1.00  0.00     0.023 C 
BRANCH  25  26
ATOM     26  C   UNL     1       5.556  -0.646   4.073  1.00  0.00     0.023 C 
BRANCH  26  27
ATOM     27  C   UNL     1       4.246  -1.276   4.541  1.00  0.00     0.116 C 
BRANCH  27  28
ATOM     28  N   UNL     1       4.303  -2.725   4.630  1.00  0.00    -0.352 N 
ATOM     29  C   UNL     1       3.943  -3.545   5.672  1.00  0.00     0.251 C 
ATOM     30  H   UNL     1       4.647  -3.184   3.830  1.00  0.00     0.163 HD
ATOM     31  O   UNL     1       4.191  -4.742   5.625  1.00  0.00    -0.269 OA
BRANCH  29  32
ATOM     32  C   UNL     1       3.285  -2.969   6.865  1.00  0.00     0.039 A 
ATOM     33  C   UNL     1       3.747  -3.346   8.126  1.00  0.00     0.014 A 
ATOM     34  C   UNL     1       2.231  -2.059   6.742  1.00  0.00     0.014 A 
ATOM     35  C   UNL     1       3.186  -2.768   9.265  1.00  0.00     0.010 A 
ATOM     36  C   UNL     1       1.732  -1.420   7.875  1.00  0.00     0.010 A 
ATOM     37  C   UNL     1       2.198  -1.775   9.149  1.00  0.00    -0.014 A 
BRANCH  37  38
ATOM     38  C   UNL     1       1.660  -1.111  10.364  1.00  0.00     0.031 A 
ATOM     39  C   UNL     1       0.213  -1.263  10.747  1.00  0.00     0.074 A 
ATOM     40  C   UNL     1       2.481  -0.358  11.123  1.00  0.00     0.049 A 
ATOM     41  N   UNL     1      -0.409  -0.811  11.807  1.00  0.00    -0.248 NA
ATOM     42  C   UNL     1      -0.653  -1.999   9.812  1.00  0.00     0.031 C 
ATOM     43  C   UNL     1       3.891  -0.086  10.833  1.00  0.00     0.029 A 
ATOM     44  N   UNL     1       2.252   0.303  12.304  1.00  0.00    -0.354 N 
ATOM     45  C   UNL     1      -1.734  -1.204  11.664  1.00  0.00     0.074 A 
ATOM     46  C   UNL     1      -1.840  -1.876  10.387  1.00  0.00     0.031 C 
ATOM     47  C   UNL     1       4.413   0.641  11.833  1.00  0.00     0.029 A 
ATOM     48  C   UNL     1       3.370   0.919  12.814  1.00  0.00     0.049 A 
ATOM     49  H   UNL     1       1.372   0.334  12.743  1.00  0.00     0.167 HD
ATOM     50  C   UNL     1      -2.767  -1.042  12.525  1.00  0.00     0.031 A 
ATOM     51  C   UNL     1       3.539   1.621  13.950  1.00  0.00     0.031 A 
ATOM     52  C   UNL     1      -2.664  -0.370  13.794  1.00  0.00     0.049 A 
ATOM     53  C   UNL     1       2.375   1.794  14.885  1.00  0.00     0.074 A 
ATOM     54  C   UNL     1      -3.640  -0.200  14.761  1.00  0.00     0.029 A 
ATOM     55  N   UNL     1      -1.519   0.251  14.268  1.00  0.00    -0.354 N 
ATOM     56  N   UNL     1       1.150   1.340  14.774  1.00  0.00    -0.248 NA
ATOM     57  C   UNL     1       2.626   2.561  16.112  1.00  0.00     0.031 C 
ATOM     58  C   UNL     1      -3.103   0.578  15.792  1.00  0.00     0.029 A 
ATOM     59  C   UNL     1      -1.772   0.831  15.501  1.00  0.00     0.049 A 
ATOM     60  H   UNL     1      -0.654   0.277  13.799  1.00  0.00     0.167 HD
ATOM     61  C   UNL     1       0.491   1.744  15.929  1.00  0.00     0.074 A 
ATOM     62  C   UNL     1       1.462   2.454  16.736  1.00  0.00     0.031 C 
ATOM     63  C   UNL     1      -0.801   1.546  16.289  1.00  0.00     0.031 A 
BRANCH  50  64
ATOM     64  C   UNL     1      -4.105  -1.597  12.116  1.00  0.00    -0.014 A 
ATOM     65  C   UNL     1      -4.327  -2.981  12.030  1.00  0.00     0.009 A 
ATOM     66  C   UNL     1      -5.171  -0.724  11.846  1.00  0.00     0.009 A 
ATOM     67  C   UNL     1      -5.574  -3.478  11.646  1.00  0.00     0.001 A 
ATOM     68  C   UNL     1      -6.426  -1.224  11.494  1.00  0.00     0.001 A 
ATOM     69  C   UNL     1      -6.624  -2.599  11.385  1.00  0.00     0.000 A 
ENDBRANCH  50  64
BRANCH  51  70
ATOM     70  C   UNL     1       4.871   2.197  14.281  1.00  0.00    -0.014 A 
ATOM     71  C   UNL     1       5.619   1.699  15.359  1.00  0.00     0.009 A 
ATOM     72  C   UNL     1       5.395   3.257  13.526  1.00  0.00     0.009 A 
ATOM     73  C   UNL     1       6.847   2.273  15.695  1.00  0.00     0.001 A 
ATOM     74  C   UNL     1       6.639   3.807  13.842  1.00  0.00     0.001 A 
ATOM     75  C   UNL     1       7.358   3.323  14.933  1.00  0.00     0.000 A 
ENDBRANCH  51  70
BRANCH  63  76
ATOM     76  C   UNL     1      -1.225   2.078  17.631  1.00  0.00    -0.014 A 
ATOM     77  C   UNL     1      -1.318   3.458  17.877  1.00  0.00     0.009 A 
ATOM     78  C   UNL     1      -1.546   1.182  18.663  1.00  0.00     0.009 A 
ATOM     79  C   UNL     1      -1.672   3.927  19.144  1.00  0.00     0.001 A 
ATOM     80  C   UNL     1      -1.935   1.654  19.917  1.00  0.00     0.001 A 
ATOM     81  C   UNL     1      -1.983   3.025  20.161  1.00  0.00     0.000 A 
ENDBRANCH  63  76
ENDBRANCH  37  38
ENDBRANCH  29  32
ENDBRANCH  27  28
ENDBRANCH  26  27
ENDBRANCH  25  26
ENDBRANCH   1  25
TORSDOF 15
