REMARK SMILES Cc1ccc(CNc2ccc(C(=O)NCCCCNC(=O)c3ccc(-c4c5nc(c(-c6ccccc6)c6ccc([nH]6)c(-c6ccccc6)c6nc(c(-c7ccccc7)c7ccc4[nH]7)C=C6)C=C5)cc3)cc2Br)cc1
REMARK SMILES IDX 16 1 15 2 14 3 12 4 13 5 11 7 8 8 9 9 71 10 10 11 70 12
REMARK SMILES IDX 72 13 7 14 6 16 5 17 1 18 2 19 3 20 74 21 4 22 73 23 17 24
REMARK SMILES IDX 18 25 19 26 20 27 21 29 22 30 23 31 69 32 24 33 68 34 25 35
REMARK SMILES IDX 26 36 27 37 62 38 28 39 67 40 61 41 63 42 29 43 66 44 60 45
REMARK SMILES IDX 59 46 30 48 52 49 37 50 51 51 38 52 41 53 50 54 64 55 39 56
REMARK SMILES IDX 40 57 49 59 65 60 42 61 31 62 32 63 36 64 33 65 35 66 34 67
REMARK SMILES IDX 53 68 54 69 58 70 55 71 57 72 56 73 43 74 44 75 48 76 45 77
REMARK SMILES IDX 47 78 46 79
REMARK H PARENT 14 6 7 15 19 28 63 47 41 58
REMARK Flexibility Score: inf
ROOT
ATOM      1  C   UNL     1     -10.132  -3.515   0.233  1.00  0.00     0.023 C 
ENDROOT
BRANCH   1   2
ATOM      2  C   UNL     1      -8.904  -4.063   0.963  1.00  0.00     0.116 C 
BRANCH   2   3
ATOM      3  N   UNL     1      -8.181  -5.087   0.221  1.00  0.00    -0.352 N 
ATOM      4  C   UNL     1      -7.022  -5.095  -0.519  1.00  0.00     0.251 C 
ATOM      5  O   UNL     1      -6.720  -6.146  -1.087  1.00  0.00    -0.269 OA
ATOM      6  H   UNL     1      -8.619  -5.968   0.257  1.00  0.00     0.163 HD
BRANCH   4   7
ATOM      7  C   UNL     1      -6.138  -3.913  -0.698  1.00  0.00     0.041 A 
ATOM      8  C   UNL     1      -4.403  -1.695  -1.145  1.00  0.00     0.049 A 
ATOM      9  C   UNL     1      -5.181  -1.800   0.010  1.00  0.00     0.028 A 
ATOM     10  C   UNL     1      -4.498  -2.752  -2.072  1.00  0.00     0.041 A 
ATOM     11  C   UNL     1      -5.980  -2.918   0.260  1.00  0.00     0.016 A 
ATOM     12  C   UNL     1      -5.359  -3.839  -1.861  1.00  0.00     0.031 A 
ATOM     13  Br  UNL     1      -3.413  -2.772  -3.637  1.00  0.00    -0.049 Br
BRANCH   8  14
ATOM     14  N   UNL     1      -3.555  -0.622  -1.359  1.00  0.00    -0.380 N 
ATOM     15  H   UNL     1      -3.264  -0.451  -2.283  1.00  0.00     0.160 HD
BRANCH  14  16
ATOM     16  C   UNL     1      -3.062   0.269  -0.325  1.00  0.00     0.148 C 
BRANCH  16  17
ATOM     17  C   UNL     1      -1.557   0.199  -0.247  1.00  0.00    -0.029 A 
ATOM     18  C   UNL     1       2.741   0.003   0.060  1.00  0.00     0.044 C 
ATOM     19  C   UNL     1       1.247   0.081  -0.027  1.00  0.00    -0.051 A 
ATOM     20  C   UNL     1       0.490  -1.095  -0.046  1.00  0.00     0.004 A 
ATOM     21  C   UNL     1       0.593   1.315  -0.102  1.00  0.00     0.004 A 
ATOM     22  C   UNL     1      -0.900  -1.036  -0.146  1.00  0.00     0.006 A 
ATOM     23  C   UNL     1      -0.798   1.374  -0.208  1.00  0.00     0.006 A 
ENDBRANCH  16  17
ENDBRANCH  14  16
ENDBRANCH   8  14
ENDBRANCH   4   7
ENDBRANCH   2   3
ENDBRANCH   1   2
BRANCH   1  24
ATOM     24  C   UNL     1     -11.306  -4.483   0.097  1.00  0.00     0.023 C 
BRANCH  24  25
ATOM     25  C   UNL     1     -11.893  -4.971   1.416  1.00  0.00     0.116 C 
BRANCH  25  26
ATOM     26  N   UNL     1     -12.737  -4.019   2.123  1.00  0.00    -0.352 N 
ATOM     27  C   UNL     1     -13.271  -4.082   3.408  1.00  0.00     0.251 C 
ATOM     28  H   UNL     1     -12.964  -3.206   1.617  1.00  0.00     0.163 HD
ATOM     29  O   UNL     1     -14.034  -3.220   3.787  1.00  0.00    -0.269 OA
BRANCH  27  30
ATOM     30  C   UNL     1     -12.789  -5.121   4.366  1.00  0.00     0.039 A 
ATOM     31  C   UNL     1     -12.561  -4.724   5.691  1.00  0.00     0.014 A 
ATOM     32  C   UNL     1     -12.356  -6.371   3.941  1.00  0.00     0.014 A 
ATOM     33  C   UNL     1     -11.659  -5.441   6.475  1.00  0.00     0.010 A 
ATOM     34  C   UNL     1     -11.375  -7.018   4.665  1.00  0.00     0.010 A 
ATOM     35  C   UNL     1     -10.968  -6.502   5.896  1.00  0.00    -0.014 A 
BRANCH  35  36
ATOM     36  C   UNL     1      -9.723  -7.035   6.433  1.00  0.00     0.031 A 
ATOM     37  C   UNL     1      -9.698  -8.364   7.084  1.00  0.00     0.074 A 
ATOM     38  C   UNL     1      -8.574  -6.339   6.261  1.00  0.00     0.049 A 
ATOM     39  N   UNL     1      -8.820  -8.730   7.958  1.00  0.00    -0.248 NA
ATOM     40  C   UNL     1     -10.709  -9.384   6.824  1.00  0.00     0.031 C 
ATOM     41  C   UNL     1      -7.212  -6.817   6.498  1.00  0.00     0.029 A 
ATOM     42  N   UNL     1      -8.367  -4.998   5.950  1.00  0.00    -0.354 N 
ATOM     43  C   UNL     1      -8.955 -10.090   8.130  1.00  0.00     0.074 A 
ATOM     44  C   UNL     1     -10.203 -10.428   7.485  1.00  0.00     0.031 C 
ATOM     45  C   UNL     1      -6.402  -5.754   6.647  1.00  0.00     0.029 A 
ATOM     46  C   UNL     1      -7.254  -4.578   6.683  1.00  0.00     0.049 A 
ATOM     47  H   UNL     1      -8.902  -4.451   5.331  1.00  0.00     0.167 HD
ATOM     48  C   UNL     1      -7.923 -10.809   8.656  1.00  0.00     0.031 A 
ATOM     49  C   UNL     1      -7.294  -3.688   7.722  1.00  0.00     0.031 A 
ATOM     50  C   UNL     1      -6.813  -9.947   9.063  1.00  0.00     0.049 A 
ATOM     51  C   UNL     1      -6.761  -4.263   9.027  1.00  0.00     0.074 A 
ATOM     52  C   UNL     1      -5.608  -9.624   8.460  1.00  0.00     0.029 A 
ATOM     53  N   UNL     1      -6.994  -9.035  10.097  1.00  0.00    -0.354 N 
ATOM     54  N   UNL     1      -6.636  -5.541   9.257  1.00  0.00    -0.248 NA
ATOM     55  C   UNL     1      -6.388  -3.456  10.191  1.00  0.00     0.031 C 
ATOM     56  C   UNL     1      -5.108  -8.451   9.082  1.00  0.00     0.029 A 
ATOM     57  C   UNL     1      -5.991  -8.084  10.082  1.00  0.00     0.049 A 
ATOM     58  H   UNL     1      -7.732  -9.063  10.748  1.00  0.00     0.167 HD
ATOM     59  C   UNL     1      -6.190  -5.742  10.535  1.00  0.00     0.074 A 
ATOM     60  C   UNL     1      -6.041  -4.405  11.080  1.00  0.00     0.031 C 
ATOM     61  C   UNL     1      -5.995  -6.992  11.045  1.00  0.00     0.031 A 
BRANCH  48  62
ATOM     62  C   UNL     1      -7.794 -12.309   8.500  1.00  0.00    -0.014 A 
ATOM     63  C   UNL     1      -6.516 -12.899   8.481  1.00  0.00     0.009 A 
ATOM     64  C   UNL     1      -8.873 -13.187   8.302  1.00  0.00     0.009 A 
ATOM     65  C   UNL     1      -6.322 -14.252   8.171  1.00  0.00     0.001 A 
ATOM     66  C   UNL     1      -8.688 -14.533   7.951  1.00  0.00     0.001 A 
ATOM     67  C   UNL     1      -7.409 -15.063   7.873  1.00  0.00     0.000 A 
ENDBRANCH  48  62
BRANCH  49  68
ATOM     68  C   UNL     1      -8.400  -2.696   7.652  1.00  0.00    -0.014 A 
ATOM     69  C   UNL     1      -8.369  -1.726   6.632  1.00  0.00     0.009 A 
ATOM     70  C   UNL     1      -9.606  -2.917   8.331  1.00  0.00     0.009 A 
ATOM     71  C   UNL     1      -9.542  -1.089   6.217  1.00  0.00     0.001 A 
ATOM     72  C   UNL     1     -10.776  -2.267   7.920  1.00  0.00     0.001 A 
ATOM     73  C   UNL     1     -10.751  -1.385   6.840  1.00  0.00     0.000 A 
ENDBRANCH  49  68
BRANCH  61  74
ATOM     74  C   UNL     1      -5.719  -7.309  12.490  1.00  0.00    -0.014 A 
ATOM     75  C   UNL     1      -6.170  -6.524  13.560  1.00  0.00     0.009 A 
ATOM     76  C   UNL     1      -5.100  -8.536  12.813  1.00  0.00     0.009 A 
ATOM     77  C   UNL     1      -5.968  -6.924  14.888  1.00  0.00     0.001 A 
ATOM     78  C   UNL     1      -4.935  -8.958  14.134  1.00  0.00     0.001 A 
ATOM     79  C   UNL     1      -5.360  -8.143  15.174  1.00  0.00     0.000 A 
ENDBRANCH  61  74
ENDBRANCH  35  36
ENDBRANCH  27  30
ENDBRANCH  25  26
ENDBRANCH  24  25
ENDBRANCH   1  24
TORSDOF 14
