REMARK SMILES Cc1ccc(-c2cc(Cl)cc3c2O[C@H](C(F)(F)F)C(C(=O)NCCCCNC(=O)c2ccc(-c4c5nc(c(-c6ccccc6)c6ccc([nH]6)c(-c6ccccc6)c6nc(c(-c7ccccc7)c7ccc4[nH]7)C=C6)C=C5)cc2)=C3)cc1F
REMARK SMILES IDX 25 1 24 2 23 3 22 4 20 5 21 6 19 8 6 9 7 10 12 11 8 12 11 13
REMARK SMILES IDX 13 14 9 15 10 16 78 17 14 18 5 19 1 20 2 21 3 22 80 23 4 24
REMARK SMILES IDX 79 25 81 26 15 27 16 28 17 29 18 30 26 31 27 32 28 33 29 35
REMARK SMILES IDX 30 36 31 37 77 38 32 39 76 40 33 41 34 42 35 43 70 44 36 45
REMARK SMILES IDX 75 46 69 47 71 48 37 49 74 50 68 51 67 52 38 54 60 55 45 56
REMARK SMILES IDX 59 57 46 58 49 59 58 60 72 61 47 62 48 63 57 65 73 66 50 67
REMARK SMILES IDX 39 68 40 69 44 70 41 71 43 72 42 73 61 74 62 75 66 76 63 77
REMARK SMILES IDX 65 78 64 79 51 80 52 81 56 82 53 83 55 84 54 85
REMARK H PARENT 22 7 27 34 71 53 49 64
REMARK Flexibility Score: inf
ROOT
ATOM      1  C   UNL     1      -1.680  -4.075   8.180  1.00  0.00     0.023 C 
ENDROOT
BRANCH   1   2
ATOM      2  C   UNL     1      -1.630  -3.644   6.711  1.00  0.00     0.023 C 
BRANCH   2   3
ATOM      3  C   UNL     1      -1.506  -4.800   5.720  1.00  0.00     0.116 C 
BRANCH   3   4
ATOM      4  N   UNL     1      -2.800  -5.348   5.348  1.00  0.00    -0.352 N 
ATOM      5  C   UNL     1      -3.667  -5.222   4.313  1.00  0.00     0.251 C 
ATOM      6  O   UNL     1      -4.693  -5.904   4.399  1.00  0.00    -0.270 OA
ATOM      7  H   UNL     1      -3.136  -5.976   6.027  1.00  0.00     0.163 HD
BRANCH   5   8
ATOM      8  C   UNL     1      -3.468  -4.341   3.124  1.00  0.00     0.067 C 
ATOM      9  C   UNL     1      -3.093  -1.718  -0.152  1.00  0.00     0.026 A 
ATOM     10  C   UNL     1      -4.036  -1.790  -1.186  1.00  0.00     0.033 A 
ATOM     11  C   UNL     1      -3.276  -2.552   0.969  1.00  0.00     0.135 A 
ATOM     12  C   UNL     1      -5.118  -2.669  -1.095  1.00  0.00     0.042 A 
ATOM     13  C   UNL     1      -4.355  -3.440   1.061  1.00  0.00     0.019 A 
ATOM     14  O   UNL     1      -2.389  -2.416   2.006  1.00  0.00    -0.475 OA
ATOM     15  Cl  UNL     1      -6.266  -2.737  -2.376  1.00  0.00    -0.084 Cl
ATOM     16  C   UNL     1      -5.282  -3.494   0.020  1.00  0.00     0.032 A 
ATOM     17  C   UNL     1      -4.498  -4.264   2.259  1.00  0.00     0.025 C 
ATOM     18  C   UNL     1      -2.203  -3.586   2.841  1.00  0.00     0.314 C 
BRANCH   9  19
ATOM     19  C   UNL     1      -1.937  -0.812  -0.236  1.00  0.00    -0.012 A 
ATOM     20  C   UNL     1       1.506   1.800  -0.075  1.00  0.00     0.047 C 
ATOM     21  C   UNL     1       0.303   0.913  -0.172  1.00  0.00    -0.015 A 
ATOM     22  C   UNL     1      -0.994   1.436  -0.163  1.00  0.00     0.007 A 
ATOM     23  C   UNL     1       0.465  -0.470  -0.241  1.00  0.00     0.126 A 
ATOM     24  C   UNL     1      -2.102   0.581  -0.198  1.00  0.00     0.009 A 
ATOM     25  C   UNL     1      -0.632  -1.326  -0.280  1.00  0.00     0.048 A 
ATOM     26  F   UNL     1       1.697  -0.999  -0.246  1.00  0.00    -0.207 F 
ENDBRANCH   9  19
BRANCH  18  27
ATOM     27  C   UNL     1      -1.091  -4.473   2.251  1.00  0.00     0.429 C 
ATOM     28  F   UNL     1       0.108  -3.843   2.327  1.00  0.00    -0.167 F 
ATOM     29  F   UNL     1      -0.954  -5.643   2.920  1.00  0.00    -0.167 F 
ATOM     30  F   UNL     1      -1.302  -4.785   0.953  1.00  0.00    -0.167 F 
ENDBRANCH  18  27
ENDBRANCH   5   8
ENDBRANCH   3   4
ENDBRANCH   2   3
ENDBRANCH   1   2
BRANCH   1  31
ATOM     31  C   UNL     1      -0.495  -4.911   8.658  1.00  0.00     0.116 C 
BRANCH  31  32
ATOM     32  N   UNL     1       0.810  -4.306   8.428  1.00  0.00    -0.352 N 
ATOM     33  C   UNL     1       1.992  -4.585   9.082  1.00  0.00     0.251 C 
ATOM     34  H   UNL     1       0.854  -3.619   7.725  1.00  0.00     0.163 HD
ATOM     35  O   UNL     1       3.012  -3.947   8.844  1.00  0.00    -0.269 OA
BRANCH  33  36
ATOM     36  C   UNL     1       1.988  -5.627  10.129  1.00  0.00     0.039 A 
ATOM     37  C   UNL     1       1.454  -6.886   9.857  1.00  0.00     0.014 A 
ATOM     38  C   UNL     1       2.406  -5.296  11.420  1.00  0.00     0.014 A 
ATOM     39  C   UNL     1       1.148  -7.735  10.911  1.00  0.00     0.010 A 
ATOM     40  C   UNL     1       2.176  -6.191  12.469  1.00  0.00     0.010 A 
ATOM     41  C   UNL     1       1.477  -7.385  12.233  1.00  0.00    -0.014 A 
BRANCH  41  42
ATOM     42  C   UNL     1       1.021  -8.265  13.340  1.00  0.00     0.031 A 
ATOM     43  C   UNL     1      -0.029  -7.796  14.313  1.00  0.00     0.074 A 
ATOM     44  C   UNL     1       1.463  -9.536  13.390  1.00  0.00     0.049 A 
ATOM     45  N   UNL     1      -0.642  -8.475  15.251  1.00  0.00    -0.248 NA
ATOM     46  C   UNL     1      -0.451  -6.388  14.225  1.00  0.00     0.031 C 
ATOM     47  C   UNL     1       2.458 -10.115  12.486  1.00  0.00     0.029 A 
ATOM     48  N   UNL     1       1.089 -10.584  14.193  1.00  0.00    -0.354 N 
ATOM     49  C   UNL     1      -1.506  -7.579  15.868  1.00  0.00     0.074 A 
ATOM     50  C   UNL     1      -1.321  -6.299  15.222  1.00  0.00     0.031 C 
ATOM     51  C   UNL     1       2.546 -11.432  12.721  1.00  0.00     0.029 A 
ATOM     52  C   UNL     1       1.659 -11.779  13.827  1.00  0.00     0.049 A 
ATOM     53  H   UNL     1       0.473 -10.489  14.955  1.00  0.00     0.167 HD
ATOM     54  C   UNL     1      -2.384  -7.802  16.876  1.00  0.00     0.031 A 
ATOM     55  C   UNL     1       1.477 -13.022  14.311  1.00  0.00     0.031 A 
ATOM     56  C   UNL     1      -2.575  -9.074  17.520  1.00  0.00     0.049 A 
ATOM     57  C   UNL     1       0.511 -13.241  15.438  1.00  0.00     0.074 A 
ATOM     58  C   UNL     1      -3.419  -9.389  18.571  1.00  0.00     0.029 A 
ATOM     59  N   UNL     1      -1.923 -10.244  17.166  1.00  0.00    -0.354 N 
ATOM     60  N   UNL     1      -0.275 -12.375  16.028  1.00  0.00    -0.248 NA
ATOM     61  C   UNL     1       0.406 -14.610  15.963  1.00  0.00     0.031 C 
ATOM     62  C   UNL     1      -3.253 -10.743  18.875  1.00  0.00     0.029 A 
ATOM     63  C   UNL     1      -2.345 -11.282  17.979  1.00  0.00     0.049 A 
ATOM     64  H   UNL     1      -1.258 -10.325  16.444  1.00  0.00     0.167 HD
ATOM     65  C   UNL     1      -0.977 -13.093  16.986  1.00  0.00     0.074 A 
ATOM     66  C   UNL     1      -0.538 -14.470  16.885  1.00  0.00     0.031 C 
ATOM     67  C   UNL     1      -1.901 -12.647  17.870  1.00  0.00     0.031 A 
BRANCH  54  68
ATOM     68  C   UNL     1      -3.203  -6.638  17.360  1.00  0.00    -0.014 A 
ATOM     69  C   UNL     1      -2.944  -6.077  18.620  1.00  0.00     0.009 A 
ATOM     70  C   UNL     1      -4.272  -6.139  16.600  1.00  0.00     0.009 A 
ATOM     71  C   UNL     1      -3.743  -5.043  19.114  1.00  0.00     0.001 A 
ATOM     72  C   UNL     1      -5.054  -5.088  17.085  1.00  0.00     0.001 A 
ATOM     73  C   UNL     1      -4.793  -4.546  18.344  1.00  0.00     0.000 A 
ENDBRANCH  54  68
BRANCH  55  74
ATOM     74  C   UNL     1       2.202 -14.157  13.686  1.00  0.00    -0.014 A 
ATOM     75  C   UNL     1       3.591 -14.290  13.840  1.00  0.00     0.009 A 
ATOM     76  C   UNL     1       1.516 -15.076  12.879  1.00  0.00     0.009 A 
ATOM     77  C   UNL     1       4.282 -15.306  13.178  1.00  0.00     0.001 A 
ATOM     78  C   UNL     1       2.207 -16.108  12.239  1.00  0.00     0.001 A 
ATOM     79  C   UNL     1       3.590 -16.215  12.381  1.00  0.00     0.000 A 
ENDBRANCH  55  74
BRANCH  67  80
ATOM     80  C   UNL     1      -2.524 -13.654  18.794  1.00  0.00    -0.014 A 
ATOM     81  C   UNL     1      -3.865 -14.028  18.610  1.00  0.00     0.009 A 
ATOM     82  C   UNL     1      -1.815 -14.168  19.889  1.00  0.00     0.009 A 
ATOM     83  C   UNL     1      -4.486 -14.895  19.510  1.00  0.00     0.001 A 
ATOM     84  C   UNL     1      -2.433 -15.054  20.774  1.00  0.00     0.001 A 
ATOM     85  C   UNL     1      -3.769 -15.411  20.587  1.00  0.00     0.000 A 
ENDBRANCH  67  80
ENDBRANCH  41  42
ENDBRANCH  33  36
ENDBRANCH  31  32
ENDBRANCH   1  31
TORSDOF 13
