REMARK SMILES Cc1nc(-c2ccc(S(=O)(=O)N3CC[NH2+][C@H](C(=O)NCCCCNC(=O)c4ccc(-c5c6nc(c(-c7ccccc7)c7ccc([nH]7)c(-c7ccccc7)c7nc(c(-c8ccccc8)c8ccc5[nH]8)C=C7)C=C6)cc4)C3)s2)cs1
REMARK SMILES IDX 21 1 20 2 19 3 17 4 18 5 16 7 12 8 13 9 75 10 14 11 15 12
REMARK SMILES IDX 9 15 10 16 11 17 8 18 5 19 6 20 76 21 7 22 4 23 1 24 2 25
REMARK SMILES IDX 3 26 78 27 77 28 22 29 23 30 24 31 25 32 26 34 27 35 28 36
REMARK SMILES IDX 74 37 29 38 73 39 30 40 31 41 32 42 67 43 33 44 72 45 66 46
REMARK SMILES IDX 68 47 34 48 71 49 65 50 64 51 35 53 57 54 42 55 56 56 43 57
REMARK SMILES IDX 46 58 55 59 69 60 44 61 45 62 54 64 70 65 47 66 36 67 37 68
REMARK SMILES IDX 41 69 38 70 40 71 39 72 58 73 59 74 63 75 60 76 62 77 61 78
REMARK SMILES IDX 48 79 49 80 53 81 50 82 52 83 51 84
REMARK H PARENT 19 6 15 13 15 14 24 33 68 52 46 63
REMARK Flexibility Score: inf
ROOT
ATOM      1  C   UNL     1       8.207  -6.147  -3.291  1.00  0.00     0.023 C 
ENDROOT
BRANCH   1   2
ATOM      2  C   UNL     1       7.403  -4.843  -3.233  1.00  0.00     0.116 C 
BRANCH   2   3
ATOM      3  N   UNL     1       6.202  -4.989  -4.026  1.00  0.00    -0.351 N 
ATOM      4  C   UNL     1       5.082  -5.723  -3.782  1.00  0.00     0.279 C 
ATOM      5  O   UNL     1       4.461  -6.094  -4.786  1.00  0.00    -0.268 OA
ATOM      6  H   UNL     1       6.193  -4.480  -4.869  1.00  0.00     0.163 HD
BRANCH   4   7
ATOM      7  C   UNL     1       4.519  -5.963  -2.351  1.00  0.00     0.287 C 
ATOM      8  N   UNL     1       4.736  -6.543   0.030  1.00  0.00    -0.185 NA
ATOM      9  C   UNL     1       3.684  -7.571   0.011  1.00  0.00     0.164 C 
ATOM     10  C   UNL     1       5.457  -6.478  -1.264  1.00  0.00     0.178 C 
ATOM     11  C   UNL     1       2.792  -7.466  -1.242  1.00  0.00     0.278 C 
ATOM     12  N   UNL     1       3.315  -6.849  -2.471  1.00  0.00    -0.334 N 
ATOM     13  H   UNL     1       2.564  -6.288  -2.874  1.00  0.00     0.347 HD
ATOM     14  H   UNL     1       3.630  -7.635  -3.040  1.00  0.00     0.347 HD
BRANCH   8  15
ATOM     15  S   UNL     1       4.562  -5.141   0.968  1.00  0.00     0.253 S 
ATOM     16  O   UNL     1       5.793  -4.387   0.816  1.00  0.00    -0.206 OA
ATOM     17  O   UNL     1       4.082  -5.554   2.267  1.00  0.00    -0.206 OA
BRANCH  15  18
ATOM     18  C   UNL     1       3.284  -4.035   0.369  1.00  0.00     0.135 A 
ATOM     19  C   UNL     1       1.825  -2.029   0.269  1.00  0.00     0.055 A 
ATOM     20  C   UNL     1       1.429  -3.005  -0.613  1.00  0.00     0.023 A 
ATOM     21  S   UNL     1       3.245  -2.466   1.103  1.00  0.00    -0.121 S 
ATOM     22  C   UNL     1       2.272  -4.137  -0.564  1.00  0.00     0.034 A 
BRANCH  19  23
ATOM     23  C   UNL     1       1.009  -0.789   0.429  1.00  0.00     0.091 A 
ATOM     24  C   UNL     1      -2.338   0.588   0.029  1.00  0.00     0.079 C 
ATOM     25  C   UNL     1      -0.894   0.334   0.278  1.00  0.00     0.090 A 
ATOM     26  N   UNL     1      -0.295  -0.789  -0.040  1.00  0.00    -0.241 NA
ATOM     27  S   UNL     1       0.112   1.510   1.021  1.00  0.00    -0.127 S 
ATOM     28  C   UNL     1       1.415   0.385   1.023  1.00  0.00     0.096 A 
ENDBRANCH  19  23
ENDBRANCH  15  18
ENDBRANCH   8  15
ENDBRANCH   4   7
ENDBRANCH   2   3
ENDBRANCH   1   2
BRANCH   1  29
ATOM     29  C   UNL     1       8.890  -6.382  -4.646  1.00  0.00     0.023 C 
BRANCH  29  30
ATOM     30  C   UNL     1       9.997  -5.385  -4.963  1.00  0.00     0.116 C 
BRANCH  30  31
ATOM     31  N   UNL     1      11.063  -5.402  -3.977  1.00  0.00    -0.352 N 
ATOM     32  C   UNL     1      12.378  -5.045  -4.138  1.00  0.00     0.251 C 
ATOM     33  H   UNL     1      10.810  -5.709  -3.076  1.00  0.00     0.163 HD
ATOM     34  O   UNL     1      13.189  -5.232  -3.238  1.00  0.00    -0.269 OA
BRANCH  32  35
ATOM     35  C   UNL     1      12.816  -4.479  -5.428  1.00  0.00     0.039 A 
ATOM     36  C   UNL     1      13.938  -5.031  -6.048  1.00  0.00     0.014 A 
ATOM     37  C   UNL     1      12.111  -3.434  -6.031  1.00  0.00     0.014 A 
ATOM     38  C   UNL     1      14.326  -4.566  -7.303  1.00  0.00     0.010 A 
ATOM     39  C   UNL     1      12.459  -3.017  -7.311  1.00  0.00     0.010 A 
ATOM     40  C   UNL     1      13.573  -3.575  -7.956  1.00  0.00    -0.014 A 
BRANCH  40  41
ATOM     41  C   UNL     1      13.946  -3.119  -9.315  1.00  0.00     0.031 A 
ATOM     42  C   UNL     1      14.430  -1.715  -9.537  1.00  0.00     0.074 A 
ATOM     43  C   UNL     1      13.811  -3.964 -10.355  1.00  0.00     0.049 A 
ATOM     44  N   UNL     1      14.822  -1.146 -10.649  1.00  0.00    -0.248 NA
ATOM     45  C   UNL     1      14.456  -0.826  -8.365  1.00  0.00     0.031 C 
ATOM     46  C   UNL     1      13.296  -5.333 -10.274  1.00  0.00     0.029 A 
ATOM     47  N   UNL     1      14.101  -3.795 -11.684  1.00  0.00    -0.354 N 
ATOM     48  C   UNL     1      15.126   0.167 -10.313  1.00  0.00     0.074 A 
ATOM     49  C   UNL     1      14.825   0.325  -8.907  1.00  0.00     0.031 C 
ATOM     50  C   UNL     1      13.343  -5.891 -11.495  1.00  0.00     0.029 A 
ATOM     51  C   UNL     1      13.867  -4.914 -12.444  1.00  0.00     0.049 A 
ATOM     52  H   UNL     1      14.445  -2.951 -12.058  1.00  0.00     0.167 HD
ATOM     53  C   UNL     1      15.632   1.147 -11.098  1.00  0.00     0.031 A 
ATOM     54  C   UNL     1      14.068  -5.134 -13.756  1.00  0.00     0.031 A 
ATOM     55  C   UNL     1      15.944   0.985 -12.492  1.00  0.00     0.049 A 
ATOM     56  C   UNL     1      14.661  -4.041 -14.599  1.00  0.00     0.074 A 
ATOM     57  C   UNL     1      16.510   1.900 -13.363  1.00  0.00     0.029 A 
ATOM     58  N   UNL     1      15.718  -0.173 -13.219  1.00  0.00    -0.354 N 
ATOM     59  N   UNL     1      15.015  -2.828 -14.249  1.00  0.00    -0.248 NA
ATOM     60  C   UNL     1      14.902  -4.357 -16.014  1.00  0.00     0.031 C 
ATOM     61  C   UNL     1      16.594   1.306 -14.627  1.00  0.00     0.029 A 
ATOM     62  C   UNL     1      16.123   0.006 -14.530  1.00  0.00     0.049 A 
ATOM     63  H   UNL     1      15.327  -1.001 -12.856  1.00  0.00     0.167 HD
ATOM     64  C   UNL     1      15.550  -2.247 -15.392  1.00  0.00     0.074 A 
ATOM     65  C   UNL     1      15.485  -3.246 -16.439  1.00  0.00     0.031 C 
ATOM     66  C   UNL     1      16.053  -1.000 -15.558  1.00  0.00     0.031 A 
BRANCH  53  67
ATOM     67  C   UNL     1      15.878   2.484 -10.456  1.00  0.00    -0.014 A 
ATOM     68  C   UNL     1      16.916   2.662  -9.527  1.00  0.00     0.009 A 
ATOM     69  C   UNL     1      15.078   3.584 -10.799  1.00  0.00     0.009 A 
ATOM     70  C   UNL     1      17.122   3.904  -8.925  1.00  0.00     0.001 A 
ATOM     71  C   UNL     1      15.304   4.832 -10.216  1.00  0.00     0.001 A 
ATOM     72  C   UNL     1      16.319   4.989  -9.273  1.00  0.00     0.000 A 
ENDBRANCH  53  67
BRANCH  54  73
ATOM     73  C   UNL     1      13.754  -6.461 -14.344  1.00  0.00    -0.014 A 
ATOM     74  C   UNL     1      14.787  -7.334 -14.716  1.00  0.00     0.009 A 
ATOM     75  C   UNL     1      12.423  -6.861 -14.536  1.00  0.00     0.009 A 
ATOM     76  C   UNL     1      14.495  -8.571 -15.294  1.00  0.00     0.001 A 
ATOM     77  C   UNL     1      12.133  -8.109 -15.091  1.00  0.00     0.001 A 
ATOM     78  C   UNL     1      13.169  -8.959 -15.479  1.00  0.00     0.000 A 
ENDBRANCH  54  73
BRANCH  66  79
ATOM     79  C   UNL     1      16.608  -0.664 -16.912  1.00  0.00    -0.014 A 
ATOM     80  C   UNL     1      15.766  -0.448 -18.013  1.00  0.00     0.009 A 
ATOM     81  C   UNL     1      17.996  -0.537 -17.078  1.00  0.00     0.009 A 
ATOM     82  C   UNL     1      16.307  -0.149 -19.265  1.00  0.00     0.001 A 
ATOM     83  C   UNL     1      18.532  -0.212 -18.325  1.00  0.00     0.001 A 
ATOM     84  C   UNL     1      17.688  -0.029 -19.419  1.00  0.00     0.000 A 
ENDBRANCH  66  79
ENDBRANCH  40  41
ENDBRANCH  32  35
ENDBRANCH  30  31
ENDBRANCH  29  30
ENDBRANCH   1  29
TORSDOF 14
