REMARK SMILES Cc1ccc(-c2nc(NC(=O)[C@H]3[C@@H](C(=O)NCCCCNC(=O)c4ccc(-c5c6nc(c(-c7ccccc7)c7ccc([nH]7)c(-c7ccccc7)c7nc(c(-c8ccccc8)c8ccc5[nH]8)C=C7)C=C6)cc4)[C@@H]4CC[C@H]3O4)sc2C)cc1
REMARK SMILES IDX 18 1 17 2 16 3 14 4 15 5 13 7 12 8 75 9 72 10 74 11 76 12
REMARK SMILES IDX 73 13 10 14 9 15 11 17 8 18 6 19 7 20 78 21 77 22 79 23 5 24
REMARK SMILES IDX 1 25 2 26 3 27 81 28 4 29 80 30 19 31 20 32 21 33 22 34
REMARK SMILES IDX 23 36 24 37 25 38 71 39 26 40 70 41 27 42 28 43 29 44 64 45
REMARK SMILES IDX 30 46 69 47 63 48 65 49 31 50 68 51 62 52 61 53 32 55 54 56
REMARK SMILES IDX 39 57 53 58 40 59 43 60 52 61 66 62 41 63 42 64 51 66 67 67
REMARK SMILES IDX 44 68 33 69 34 70 38 71 35 72 37 73 36 74 55 75 56 76 60 77
REMARK SMILES IDX 57 78 59 79 58 80 45 81 46 82 50 83 47 84 49 85 48 86
REMARK H PARENT 16 6 9 16 21 35 65 54 43 65
REMARK Flexibility Score: inf
ROOT
ATOM      1  C   UNL     1      -5.684  -0.670   0.131  1.00  0.00     0.023 C 
ENDROOT
BRANCH   1   2
ATOM      2  C   UNL     1      -6.460  -0.445   1.440  1.00  0.00     0.116 C 
BRANCH   2   3
ATOM      3  N   UNL     1      -7.423   0.633   1.598  1.00  0.00    -0.356 N 
ATOM      4  C   UNL     1      -8.800   0.622   1.473  1.00  0.00     0.226 C 
ATOM      5  O   UNL     1      -9.514   1.208   2.283  1.00  0.00    -0.275 OA
ATOM      6  H   UNL     1      -7.034   1.507   1.831  1.00  0.00     0.163 HD
BRANCH   4   7
ATOM      7  C   UNL     1      -9.376  -0.137   0.345  1.00  0.00     0.122 C 
ATOM      8  C   UNL     1      -8.730  -0.088  -1.020  1.00  0.00     0.123 C 
ATOM      9  C   UNL     1      -9.905  -0.676  -1.831  1.00  0.00     0.132 C 
ATOM     10  C   UNL     1     -10.880   0.003  -0.016  1.00  0.00     0.132 C 
ATOM     11  C   UNL     1     -10.502  -1.980  -1.200  1.00  0.00     0.035 C 
ATOM     12  O   UNL     1     -10.880   0.311  -1.445  1.00  0.00    -0.373 OA
ATOM     13  C   UNL     1     -11.450  -1.409  -0.126  1.00  0.00     0.035 C 
BRANCH   8  14
ATOM     14  C   UNL     1      -8.070   1.087  -1.834  1.00  0.00     0.232 C 
ATOM     15  N   UNL     1      -7.937   2.438  -1.749  1.00  0.00    -0.302 N 
ATOM     16  H   UNL     1      -7.627   2.785  -2.617  1.00  0.00     0.172 HD
ATOM     17  O   UNL     1      -7.535   0.672  -2.893  1.00  0.00    -0.274 OA
BRANCH  15  18
ATOM     18  C   UNL     1      -8.085   3.489  -0.875  1.00  0.00     0.190 A 
ATOM     19  C   UNL     1      -8.424   5.513   0.015  1.00  0.00     0.086 A 
ATOM     20  N   UNL     1      -7.952   4.793  -1.123  1.00  0.00    -0.220 NA
ATOM     21  C   UNL     1      -9.105   4.675   0.879  1.00  0.00     0.031 A 
ATOM     22  S   UNL     1      -8.207   3.254   0.767  1.00  0.00    -0.101 S 
ATOM     23  C   UNL     1     -10.178   4.798   1.888  1.00  0.00     0.059 C 
BRANCH  19  24
ATOM     24  C   UNL     1      -8.245   6.936   0.322  1.00  0.00     0.001 A 
ATOM     25  C   UNL     1      -7.993  11.113   1.470  1.00  0.00     0.044 C 
ATOM     26  C   UNL     1      -8.034   9.666   1.073  1.00  0.00    -0.051 A 
ATOM     27  C   UNL     1      -7.959   9.271  -0.274  1.00  0.00     0.004 A 
ATOM     28  C   UNL     1      -8.149   8.684   2.050  1.00  0.00     0.004 A 
ATOM     29  C   UNL     1      -8.062   7.916  -0.649  1.00  0.00     0.010 A 
ATOM     30  C   UNL     1      -8.226   7.344   1.676  1.00  0.00     0.010 A 
ENDBRANCH  19  24
ENDBRANCH  15  18
ENDBRANCH   8  14
ENDBRANCH   4   7
ENDBRANCH   2   3
ENDBRANCH   1   2
BRANCH   1  31
ATOM     31  C   UNL     1      -4.944   0.484  -0.530  1.00  0.00     0.023 C 
BRANCH  31  32
ATOM     32  C   UNL     1      -3.730   0.949   0.237  1.00  0.00     0.116 C 
BRANCH  32  33
ATOM     33  N   UNL     1      -2.707  -0.081   0.373  1.00  0.00    -0.352 N 
ATOM     34  C   UNL     1      -1.421  -0.041   0.880  1.00  0.00     0.251 C 
ATOM     35  H   UNL     1      -2.982  -0.967   0.044  1.00  0.00     0.163 HD
ATOM     36  O   UNL     1      -0.728  -1.042   0.817  1.00  0.00    -0.269 OA
BRANCH  34  37
ATOM     37  C   UNL     1      -0.973   1.125   1.690  1.00  0.00     0.039 A 
ATOM     38  C   UNL     1      -0.286   0.785   2.864  1.00  0.00     0.014 A 
ATOM     39  C   UNL     1      -1.663   2.321   1.608  1.00  0.00     0.014 A 
ATOM     40  C   UNL     1      -0.626   1.429   4.040  1.00  0.00     0.010 A 
ATOM     41  C   UNL     1      -2.167   2.821   2.776  1.00  0.00     0.010 A 
ATOM     42  C   UNL     1      -1.675   2.336   3.987  1.00  0.00    -0.014 A 
BRANCH  42  43
ATOM     43  C   UNL     1      -2.243   2.990   5.138  1.00  0.00     0.031 A 
ATOM     44  C   UNL     1      -1.655   4.288   5.480  1.00  0.00     0.074 A 
ATOM     45  C   UNL     1      -3.332   2.472   5.739  1.00  0.00     0.049 A 
ATOM     46  N   UNL     1      -1.654   4.784   6.661  1.00  0.00    -0.248 NA
ATOM     47  C   UNL     1      -0.939   5.110   4.502  1.00  0.00     0.031 C 
ATOM     48  C   UNL     1      -4.218   3.102   6.707  1.00  0.00     0.029 A 
ATOM     49  N   UNL     1      -3.737   1.141   5.721  1.00  0.00    -0.354 N 
ATOM     50  C   UNL     1      -1.281   6.100   6.525  1.00  0.00     0.074 A 
ATOM     51  C   UNL     1      -0.713   6.219   5.207  1.00  0.00     0.031 C 
ATOM     52  C   UNL     1      -4.880   2.141   7.377  1.00  0.00     0.029 A 
ATOM     53  C   UNL     1      -4.319   0.861   6.971  1.00  0.00     0.049 A 
ATOM     54  H   UNL     1      -3.635   0.511   4.971  1.00  0.00     0.167 HD
ATOM     55  C   UNL     1      -1.679   6.984   7.475  1.00  0.00     0.031 A 
ATOM     56  C   UNL     1      -3.692  -0.020   7.812  1.00  0.00     0.031 A 
ATOM     57  C   UNL     1      -2.419   6.305   8.537  1.00  0.00     0.049 A 
ATOM     58  C   UNL     1      -3.112   0.640   9.052  1.00  0.00     0.074 A 
ATOM     59  C   UNL     1      -3.769   6.147   8.804  1.00  0.00     0.029 A 
ATOM     60  N   UNL     1      -1.770   5.320   9.262  1.00  0.00    -0.354 N 
ATOM     61  N   UNL     1      -3.020   1.931   9.225  1.00  0.00    -0.248 NA
ATOM     62  C   UNL     1      -2.528  -0.103  10.168  1.00  0.00     0.031 C 
ATOM     63  C   UNL     1      -3.916   5.049   9.701  1.00  0.00     0.029 A 
ATOM     64  C   UNL     1      -2.656   4.561   9.996  1.00  0.00     0.049 A 
ATOM     65  H   UNL     1      -0.795   5.179   9.255  1.00  0.00     0.167 HD
ATOM     66  C   UNL     1      -2.381   2.204  10.404  1.00  0.00     0.074 A 
ATOM     67  C   UNL     1      -2.070   0.892  10.948  1.00  0.00     0.031 C 
ATOM     68  C   UNL     1      -2.138   3.482  10.826  1.00  0.00     0.031 A 
BRANCH  55  69
ATOM     69  C   UNL     1      -1.657   8.473   7.281  1.00  0.00    -0.014 A 
ATOM     70  C   UNL     1      -2.586   9.259   7.983  1.00  0.00     0.009 A 
ATOM     71  C   UNL     1      -0.786   9.161   6.418  1.00  0.00     0.009 A 
ATOM     72  C   UNL     1      -2.690  10.639   7.784  1.00  0.00     0.001 A 
ATOM     73  C   UNL     1      -0.906  10.538   6.188  1.00  0.00     0.001 A 
ATOM     74  C   UNL     1      -1.863  11.277   6.869  1.00  0.00     0.000 A 
ENDBRANCH  55  69
BRANCH  56  75
ATOM     75  C   UNL     1      -3.057  -1.148   7.055  1.00  0.00    -0.014 A 
ATOM     76  C   UNL     1      -3.913  -2.029   6.358  1.00  0.00     0.009 A 
ATOM     77  C   UNL     1      -1.720  -1.053   6.642  1.00  0.00     0.009 A 
ATOM     78  C   UNL     1      -3.494  -2.646   5.174  1.00  0.00     0.001 A 
ATOM     79  C   UNL     1      -1.302  -1.690   5.465  1.00  0.00     0.001 A 
ATOM     80  C   UNL     1      -2.200  -2.438   4.705  1.00  0.00     0.000 A 
ENDBRANCH  56  75
BRANCH  68  81
ATOM     81  C   UNL     1      -1.363   3.850  12.067  1.00  0.00    -0.014 A 
ATOM     82  C   UNL     1      -1.420   3.119  13.257  1.00  0.00     0.009 A 
ATOM     83  C   UNL     1      -0.603   5.043  12.099  1.00  0.00     0.009 A 
ATOM     84  C   UNL     1      -0.685   3.510  14.385  1.00  0.00     0.001 A 
ATOM     85  C   UNL     1       0.109   5.454  13.226  1.00  0.00     0.001 A 
ATOM     86  C   UNL     1       0.084   4.672  14.367  1.00  0.00     0.000 A 
ENDBRANCH  68  81
ENDBRANCH  42  43
ENDBRANCH  34  37
ENDBRANCH  32  33
ENDBRANCH  31  32
ENDBRANCH   1  31
TORSDOF 14
