REMARK SMILES COc1cc(/C=N/[NH+]=C2\NC(=O)[C@@H](CC(=O)NCCCCNC(=O)c3ccc(-c4c5nc(c(-c6ccccc6)c6ccc([nH]6)c(-c6ccccc6)c6nc(c(-c7ccccc7)c7ccc4[nH]7)C=C6)C=C5)cc3)S2)cc(I)c1OC
REMARK SMILES IDX 18 1 17 2 15 3 16 4 14 6 13 7 8 8 9 9 10 11 73 12 11 13
REMARK SMILES IDX 12 15 7 16 6 17 5 18 3 19 4 20 77 21 75 22 74 23 76 24 2 25
REMARK SMILES IDX 1 26 78 27 79 28 19 29 20 30 21 31 22 32 23 33 24 35 25 36
REMARK SMILES IDX 26 37 72 38 27 39 71 40 28 41 29 42 30 43 65 44 31 45 70 46
REMARK SMILES IDX 64 47 66 48 32 49 69 50 63 51 62 52 33 54 55 55 40 56 54 57
REMARK SMILES IDX 41 58 44 59 53 60 67 61 42 62 43 63 52 65 68 66 45 67 34 68
REMARK SMILES IDX 35 69 39 70 36 71 38 72 37 73 56 74 57 75 61 76 58 77 60 78
REMARK SMILES IDX 59 79 46 80 47 81 51 82 48 83 50 84 49 85
REMARK H PARENT 17 5 8 10 10 14 22 34 66 53 44 64
REMARK Flexibility Score: inf
ROOT
ATOM      1  C   UNL     1       9.845   7.605  -0.664  1.00  0.00     0.116 C 
ENDROOT
BRANCH   1   2
ATOM      2  N   UNL     1       9.179   8.861  -0.389  1.00  0.00    -0.356 N 
ATOM      3  C   UNL     1       7.846   9.119  -0.294  1.00  0.00     0.221 C 
ATOM      4  O   UNL     1       7.475  10.286  -0.181  1.00  0.00    -0.275 OA
ATOM      5  H   UNL     1       9.772   9.635  -0.253  1.00  0.00     0.163 HD
BRANCH   3   6
ATOM      6  C   UNL     1       6.854   7.982  -0.324  1.00  0.00     0.127 C 
BRANCH   6   7
ATOM      7  C   UNL     1       6.459   7.613  -1.751  1.00  0.00     0.183 C 
ATOM      8  N   UNL     1       5.684   3.865  -2.119  1.00  0.00    -0.142 N 
ATOM      9  C   UNL     1       5.756   5.147  -2.012  1.00  0.00     0.337 C 
ATOM     10  H   UNL     1       6.455   3.296  -2.343  1.00  0.00     0.343 HD
ATOM     11  N   UNL     1       4.728   5.984  -1.745  1.00  0.00    -0.202 N 
ATOM     12  S   UNL     1       7.209   6.025  -2.292  1.00  0.00    -0.020 SA
ATOM     13  C   UNL     1       4.971   7.325  -1.774  1.00  0.00     0.322 C 
ATOM     14  H   UNL     1       3.831   5.635  -1.537  1.00  0.00     0.316 HD
ATOM     15  O   UNL     1       4.090   8.170  -1.780  1.00  0.00    -0.246 OA
BRANCH   8  16
ATOM     16  N   UNL     1       4.403   3.364  -1.886  1.00  0.00    -0.093 NA
ATOM     17  C   UNL     1       3.721   3.283  -2.984  1.00  0.00     0.166 C 
BRANCH  17  18
ATOM     18  C   UNL     1       2.328   2.845  -2.955  1.00  0.00     0.002 A 
ATOM     19  C   UNL     1       0.599   1.440  -2.078  1.00  0.00     0.162 A 
ATOM     20  C   UNL     1       1.938   1.825  -2.102  1.00  0.00     0.060 A 
ATOM     21  C   UNL     1      -0.373   2.089  -2.895  1.00  0.00     0.174 A 
ATOM     22  C   UNL     1       0.050   3.141  -3.730  1.00  0.00     0.060 A 
ATOM     23  C   UNL     1       1.409   3.500  -3.766  1.00  0.00     0.028 A 
ATOM     24  I   UNL     1      -1.125   4.382  -4.969  1.00  0.00    -0.040 I 
BRANCH  19  25
ATOM     25  O   UNL     1       0.164   0.370  -1.326  1.00  0.00    -0.493 OA
ATOM     26  C   UNL     1       0.820   0.170  -0.079  1.00  0.00     0.278 C 
ENDBRANCH  19  25
BRANCH  21  27
ATOM     27  O   UNL     1      -1.622   1.575  -2.683  1.00  0.00    -0.492 OA
ATOM     28  C   UNL     1      -2.732   1.900  -3.489  1.00  0.00     0.278 C 
ENDBRANCH  21  27
ENDBRANCH  17  18
ENDBRANCH   8  16
ENDBRANCH   6   7
ENDBRANCH   3   6
ENDBRANCH   1   2
BRANCH   1  29
ATOM     29  C   UNL     1      10.218   7.503  -2.144  1.00  0.00     0.023 C 
BRANCH  29  30
ATOM     30  C   UNL     1      11.414   8.354  -2.553  1.00  0.00     0.023 C 
BRANCH  30  31
ATOM     31  C   UNL     1      12.695   8.034  -1.803  1.00  0.00     0.116 C 
BRANCH  31  32
ATOM     32  N   UNL     1      13.114   6.647  -1.947  1.00  0.00    -0.352 N 
ATOM     33  C   UNL     1      14.392   6.160  -2.081  1.00  0.00     0.251 C 
ATOM     34  H   UNL     1      12.393   5.976  -1.949  1.00  0.00     0.163 HD
ATOM     35  O   UNL     1      14.593   4.976  -2.321  1.00  0.00    -0.269 OA
BRANCH  33  36
ATOM     36  C   UNL     1      15.521   7.103  -1.972  1.00  0.00     0.039 A 
ATOM     37  C   UNL     1      16.498   7.108  -2.968  1.00  0.00     0.014 A 
ATOM     38  C   UNL     1      15.570   8.024  -0.921  1.00  0.00     0.014 A 
ATOM     39  C   UNL     1      17.495   8.082  -2.942  1.00  0.00     0.010 A 
ATOM     40  C   UNL     1      16.506   9.049  -0.951  1.00  0.00     0.010 A 
ATOM     41  C   UNL     1      17.485   9.082  -1.955  1.00  0.00    -0.014 A 
BRANCH  41  42
ATOM     42  C   UNL     1      18.503  10.160  -1.939  1.00  0.00     0.031 A 
ATOM     43  C   UNL     1      19.444  10.282  -0.771  1.00  0.00     0.074 A 
ATOM     44  C   UNL     1      18.546  11.059  -2.941  1.00  0.00     0.049 A 
ATOM     45  N   UNL     1      20.366  11.183  -0.545  1.00  0.00    -0.248 NA
ATOM     46  C   UNL     1      19.313   9.275   0.296  1.00  0.00     0.031 C 
ATOM     47  C   UNL     1      17.664  11.071  -4.111  1.00  0.00     0.029 A 
ATOM     48  N   UNL     1      19.367  12.140  -3.134  1.00  0.00    -0.354 N 
ATOM     49  C   UNL     1      20.911  10.859   0.691  1.00  0.00     0.074 A 
ATOM     50  C   UNL     1      20.176   9.721   1.195  1.00  0.00     0.031 C 
ATOM     51  C   UNL     1      18.016  12.087  -4.916  1.00  0.00     0.029 A 
ATOM     52  C   UNL     1      19.114  12.824  -4.299  1.00  0.00     0.049 A 
ATOM     53  H   UNL     1      20.072  12.402  -2.498  1.00  0.00     0.167 HD
ATOM     54  C   UNL     1      21.947  11.440   1.339  1.00  0.00     0.031 A 
ATOM     55  C   UNL     1      19.698  13.925  -4.809  1.00  0.00     0.031 A 
ATOM     56  C   UNL     1      22.681  12.569   0.835  1.00  0.00     0.049 A 
ATOM     57  C   UNL     1      20.827  14.571  -4.053  1.00  0.00     0.074 A 
ATOM     58  C   UNL     1      23.777  13.203   1.393  1.00  0.00     0.029 A 
ATOM     59  N   UNL     1      22.390  13.234  -0.347  1.00  0.00    -0.354 N 
ATOM     60  N   UNL     1      21.375  14.213  -2.918  1.00  0.00    -0.248 NA
ATOM     61  C   UNL     1      21.426  15.768  -4.660  1.00  0.00     0.031 C 
ATOM     62  C   UNL     1      24.113  14.289   0.578  1.00  0.00     0.029 A 
ATOM     63  C   UNL     1      23.271  14.288  -0.522  1.00  0.00     0.049 A 
ATOM     64  H   UNL     1      21.666  12.992  -0.968  1.00  0.00     0.167 HD
ATOM     65  C   UNL     1      22.406  15.117  -2.692  1.00  0.00     0.074 A 
ATOM     66  C   UNL     1      22.415  16.029  -3.817  1.00  0.00     0.031 C 
ATOM     67  C   UNL     1      23.269  15.184  -1.649  1.00  0.00     0.031 A 
BRANCH  54  68
ATOM     68  C   UNL     1      22.341  10.864   2.672  1.00  0.00    -0.014 A 
ATOM     69  C   UNL     1      22.920   9.588   2.772  1.00  0.00     0.009 A 
ATOM     70  C   UNL     1      22.158  11.618   3.841  1.00  0.00     0.009 A 
ATOM     71  C   UNL     1      23.270   9.064   4.018  1.00  0.00     0.001 A 
ATOM     72  C   UNL     1      22.541  11.106   5.082  1.00  0.00     0.001 A 
ATOM     73  C   UNL     1      23.086   9.826   5.171  1.00  0.00     0.000 A 
ENDBRANCH  54  68
BRANCH  55  74
ATOM     74  C   UNL     1      19.239  14.483  -6.109  1.00  0.00    -0.014 A 
ATOM     75  C   UNL     1      20.071  14.435  -7.239  1.00  0.00     0.009 A 
ATOM     76  C   UNL     1      17.978  15.087  -6.224  1.00  0.00     0.009 A 
ATOM     77  C   UNL     1      19.664  15.011  -8.445  1.00  0.00     0.001 A 
ATOM     78  C   UNL     1      17.559  15.632  -7.440  1.00  0.00     0.001 A 
ATOM     79  C   UNL     1      18.407  15.604  -8.545  1.00  0.00     0.000 A 
ENDBRANCH  55  74
BRANCH  67  80
ATOM     80  C   UNL     1      24.328  16.250  -1.699  1.00  0.00    -0.014 A 
ATOM     81  C   UNL     1      24.013  17.609  -1.540  1.00  0.00     0.009 A 
ATOM     82  C   UNL     1      25.673  15.880  -1.866  1.00  0.00     0.009 A 
ATOM     83  C   UNL     1      25.019  18.576  -1.587  1.00  0.00     0.001 A 
ATOM     84  C   UNL     1      26.679  16.846  -1.877  1.00  0.00     0.001 A 
ATOM     85  C   UNL     1      26.350  18.194  -1.749  1.00  0.00     0.000 A 
ENDBRANCH  67  80
ENDBRANCH  41  42
ENDBRANCH  33  36
ENDBRANCH  31  32
ENDBRANCH  30  31
ENDBRANCH  29  30
ENDBRANCH   1  29
TORSDOF 16
