REMARK SMILES CC1=C[C@@H]([C@@H]2N=N[C@H](S)N2/N=C/c2ccc(C(=O)NCCCCNC(=O)c3ccc(-c4c5nc(c(-c6ccccc6)c6ccc([nH]6)c(-c6ccccc6)c6nc(c(-c7ccccc7)c7ccc4[nH]7)C=C6)C=C5)cc3)cc2)N=N1
REMARK SMILES IDX 21 1 20 2 19 3 17 4 18 5 16 7 13 8 14 9 76 10 15 11 75 12
REMARK SMILES IDX 12 13 11 14 10 15 5 16 6 17 7 18 8 19 4 20 1 21 2 22 3 23
REMARK SMILES IDX 78 24 77 25 9 26 22 28 23 29 24 30 25 31 26 33 27 34 28 35
REMARK SMILES IDX 74 36 29 37 73 38 30 39 31 40 32 41 67 42 33 43 72 44 66 45
REMARK SMILES IDX 68 46 34 47 71 48 65 49 64 50 35 52 57 53 42 54 56 55 43 56
REMARK SMILES IDX 46 57 55 58 69 59 44 60 45 61 54 63 70 64 47 65 36 66 37 67
REMARK SMILES IDX 41 68 38 69 40 70 39 71 58 72 59 73 63 74 60 75 62 76 61 77
REMARK SMILES IDX 48 78 49 79 53 80 50 81 52 82 51 83
REMARK H PARENT 19 6 9 27 24 32 68 51 46 62
REMARK Flexibility Score: inf
ROOT
ATOM      1  C   UNL     1      -6.808  -6.779  -7.969  1.00  0.00     0.023 C 
ENDROOT
BRANCH   1   2
ATOM      2  C   UNL     1      -6.395  -7.363  -6.613  1.00  0.00     0.116 C 
BRANCH   2   3
ATOM      3  N   UNL     1      -5.636  -8.588  -6.769  1.00  0.00    -0.352 N 
ATOM      4  C   UNL     1      -4.293  -8.867  -6.768  1.00  0.00     0.251 C 
ATOM      5  O   UNL     1      -3.969 -10.051  -6.880  1.00  0.00    -0.269 OA
ATOM      6  H   UNL     1      -6.200  -9.384  -6.904  1.00  0.00     0.163 HD
BRANCH   4   7
ATOM      7  C   UNL     1      -3.222  -7.843  -6.592  1.00  0.00     0.039 A 
ATOM      8  C   UNL     1      -1.119  -6.047  -6.106  1.00  0.00    -0.005 A 
ATOM      9  C   UNL     1      -0.903  -7.414  -5.945  1.00  0.00     0.010 A 
ATOM     10  C   UNL     1      -2.349  -5.575  -6.556  1.00  0.00     0.010 A 
ATOM     11  C   UNL     1      -1.958  -8.303  -6.173  1.00  0.00     0.014 A 
ATOM     12  C   UNL     1      -3.379  -6.476  -6.835  1.00  0.00     0.014 A 
BRANCH   8  13
ATOM     13  C   UNL     1      -0.034  -5.097  -5.812  1.00  0.00     0.141 C 
ATOM     14  N   UNL     1      -0.297  -3.862  -5.525  1.00  0.00    -0.180 NA
BRANCH  14  15
ATOM     15  N   UNL     1       0.735  -3.029  -5.283  1.00  0.00    -0.233 NA
ATOM     16  C   UNL     1       0.630  -1.903  -4.354  1.00  0.00     0.274 C 
ATOM     17  N   UNL     1       2.015  -1.559  -3.927  1.00  0.00    -0.161 NA
ATOM     18  N   UNL     1       2.855  -2.257  -4.545  1.00  0.00    -0.153 NA
ATOM     19  C   UNL     1       2.172  -3.231  -5.420  1.00  0.00     0.298 C 
BRANCH  16  20
ATOM     20  C   UNL     1      -0.068  -0.658  -4.976  1.00  0.00     0.201 C 
ATOM     21  C   UNL     1       2.131   1.428  -7.076  1.00  0.00     0.068 C 
ATOM     22  C   UNL     1       1.168   0.823  -6.122  1.00  0.00     0.058 C 
ATOM     23  C   UNL     1       0.466  -0.290  -6.318  1.00  0.00     0.031 C 
ATOM     24  N   UNL     1       1.008   1.328  -4.857  1.00  0.00    -0.160 NA
ATOM     25  N   UNL     1       0.262   0.563  -4.176  1.00  0.00    -0.177 NA
ENDBRANCH  16  20
BRANCH  19  26
ATOM     26  S   UNL     1       2.642  -3.156  -7.184  1.00  0.00    -0.128 SA
ATOM     27  H   UNL     1       2.290  -1.947  -7.696  1.00  0.00     0.106 HD
ENDBRANCH  19  26
ENDBRANCH  14  15
ENDBRANCH   8  13
ENDBRANCH   4   7
ENDBRANCH   2   3
ENDBRANCH   1   2
BRANCH   1  28
ATOM     28  C   UNL     1      -7.957  -7.516  -8.675  1.00  0.00     0.023 C 
BRANCH  28  29
ATOM     29  C   UNL     1      -9.300  -7.457  -7.956  1.00  0.00     0.116 C 
BRANCH  29  30
ATOM     30  N   UNL     1      -9.806  -6.095  -7.790  1.00  0.00    -0.352 N 
ATOM     31  C   UNL     1     -10.843  -5.663  -6.981  1.00  0.00     0.251 C 
ATOM     32  H   UNL     1      -9.352  -5.399  -8.319  1.00  0.00     0.163 HD
ATOM     33  O   UNL     1     -11.443  -4.628  -7.218  1.00  0.00    -0.269 OA
BRANCH  31  34
ATOM     34  C   UNL     1     -11.195  -6.477  -5.803  1.00  0.00     0.039 A 
ATOM     35  C   UNL     1     -12.521  -6.729  -5.451  1.00  0.00     0.014 A 
ATOM     36  C   UNL     1     -10.146  -7.023  -5.069  1.00  0.00     0.014 A 
ATOM     37  C   UNL     1     -12.776  -7.613  -4.404  1.00  0.00     0.010 A 
ATOM     38  C   UNL     1     -10.396  -8.011  -4.151  1.00  0.00     0.010 A 
ATOM     39  C   UNL     1     -11.706  -8.275  -3.775  1.00  0.00    -0.014 A 
BRANCH  39  40
ATOM     40  C   UNL     1     -11.947  -9.352  -2.819  1.00  0.00     0.031 A 
ATOM     41  C   UNL     1     -12.869 -10.406  -3.316  1.00  0.00     0.074 A 
ATOM     42  C   UNL     1     -11.259  -9.510  -1.666  1.00  0.00     0.049 A 
ATOM     43  N   UNL     1     -14.079 -10.622  -2.922  1.00  0.00    -0.248 NA
ATOM     44  C   UNL     1     -12.465 -11.214  -4.478  1.00  0.00     0.031 C 
ATOM     45  C   UNL     1     -10.116  -8.736  -1.167  1.00  0.00     0.029 A 
ATOM     46  N   UNL     1     -11.380 -10.489  -0.727  1.00  0.00    -0.354 N 
ATOM     47  C   UNL     1     -14.516 -11.738  -3.626  1.00  0.00     0.074 A 
ATOM     48  C   UNL     1     -13.566 -11.939  -4.691  1.00  0.00     0.031 C 
ATOM     49  C   UNL     1      -9.508  -9.412  -0.165  1.00  0.00     0.029 A 
ATOM     50  C   UNL     1     -10.318 -10.568   0.170  1.00  0.00     0.049 A 
ATOM     51  H   UNL     1     -12.156 -11.093  -0.685  1.00  0.00     0.167 HD
ATOM     52  C   UNL     1     -15.464 -12.563  -3.100  1.00  0.00     0.031 A 
ATOM     53  C   UNL     1     -10.118 -11.522   1.114  1.00  0.00     0.031 A 
ATOM     54  C   UNL     1     -16.145 -11.944  -1.987  1.00  0.00     0.049 A 
ATOM     55  C   UNL     1     -11.425 -12.162   1.374  1.00  0.00     0.074 A 
ATOM     56  C   UNL     1     -16.874 -10.786  -1.806  1.00  0.00     0.029 A 
ATOM     57  N   UNL     1     -15.762 -12.343  -0.728  1.00  0.00    -0.354 N 
ATOM     58  N   UNL     1     -12.415 -11.548   1.950  1.00  0.00    -0.248 NA
ATOM     59  C   UNL     1     -11.782 -13.333   0.592  1.00  0.00     0.031 C 
ATOM     60  C   UNL     1     -16.470 -10.293  -0.528  1.00  0.00     0.029 A 
ATOM     61  C   UNL     1     -15.588 -11.217   0.034  1.00  0.00     0.049 A 
ATOM     62  H   UNL     1     -15.635 -13.272  -0.427  1.00  0.00     0.167 HD
ATOM     63  C   UNL     1     -13.531 -11.943   1.230  1.00  0.00     0.074 A 
ATOM     64  C   UNL     1     -13.097 -13.125   0.483  1.00  0.00     0.031 C 
ATOM     65  C   UNL     1     -14.604 -11.109   1.087  1.00  0.00     0.031 A 
BRANCH  52  66
ATOM     66  C   UNL     1     -15.442 -14.065  -3.274  1.00  0.00    -0.014 A 
ATOM     67  C   UNL     1     -16.463 -14.823  -2.673  1.00  0.00     0.009 A 
ATOM     68  C   UNL     1     -14.314 -14.775  -3.729  1.00  0.00     0.009 A 
ATOM     69  C   UNL     1     -16.316 -16.197  -2.450  1.00  0.00     0.001 A 
ATOM     70  C   UNL     1     -14.182 -16.154  -3.547  1.00  0.00     0.001 A 
ATOM     71  C   UNL     1     -15.169 -16.859  -2.877  1.00  0.00     0.000 A 
ENDBRANCH  52  66
BRANCH  53  72
ATOM     72  C   UNL     1      -8.863 -12.106   1.635  1.00  0.00    -0.014 A 
ATOM     73  C   UNL     1      -8.872 -12.875   2.813  1.00  0.00     0.009 A 
ATOM     74  C   UNL     1      -7.725 -12.182   0.813  1.00  0.00     0.009 A 
ATOM     75  C   UNL     1      -7.811 -13.736   3.122  1.00  0.00     0.001 A 
ATOM     76  C   UNL     1      -6.664 -13.040   1.124  1.00  0.00     0.001 A 
ATOM     77  C   UNL     1      -6.716 -13.833   2.267  1.00  0.00     0.000 A 
ENDBRANCH  53  72
BRANCH  65  78
ATOM     78  C   UNL     1     -14.643  -9.863   1.942  1.00  0.00    -0.014 A 
ATOM     79  C   UNL     1     -13.641  -8.874   1.932  1.00  0.00     0.009 A 
ATOM     80  C   UNL     1     -15.789  -9.632   2.717  1.00  0.00     0.009 A 
ATOM     81  C   UNL     1     -13.762  -7.720   2.716  1.00  0.00     0.001 A 
ATOM     82  C   UNL     1     -15.920  -8.470   3.480  1.00  0.00     0.001 A 
ATOM     83  C   UNL     1     -14.902  -7.520   3.490  1.00  0.00     0.000 A 
ENDBRANCH  65  78
ENDBRANCH  39  40
ENDBRANCH  31  34
ENDBRANCH  29  30
ENDBRANCH  28  29
ENDBRANCH   1  28
TORSDOF 15
