REMARK SMILES CC(=O)Nc1cnc(N2CC=C(c3ccccc3C)CC2)c(C(=O)NCCCCNC(=O)c2ccc(-c3c4nc(c(-c5ccccc5)c5ccc([nH]5)c(-c5ccccc5)c5nc(c(-c6ccccc6)c6ccc3[nH]6)C=C5)C=C4)cc2)c1
REMARK SMILES IDX 27 1 26 2 25 3 23 4 24 5 22 7 5 8 6 9 81 10 7 11 8 12 4 13
REMARK SMILES IDX 1 14 2 15 3 16 9 18 10 19 21 20 11 21 20 22 12 23 13 24
REMARK SMILES IDX 14 25 18 26 15 27 17 28 19 29 16 30 28 31 29 32 30 33 31 34
REMARK SMILES IDX 32 36 33 37 34 38 80 39 35 40 79 41 36 42 37 43 38 44 73 45
REMARK SMILES IDX 39 46 78 47 72 48 74 49 40 50 77 51 71 52 70 53 41 55 63 56
REMARK SMILES IDX 48 57 62 58 49 59 52 60 61 61 75 62 50 63 51 64 60 66 76 67
REMARK SMILES IDX 53 68 42 69 43 70 47 71 44 72 46 73 45 74 64 75 65 76 69 77
REMARK SMILES IDX 66 78 68 79 67 80 54 81 55 82 59 83 56 84 58 85 57 86
REMARK H PARENT 25 6 4 17 30 35 74 54 52 65
REMARK Flexibility Score: inf
ROOT
ATOM      1  C   UNL     1       4.989  -0.178  -1.139  1.00  0.00     0.023 C 
ENDROOT
BRANCH   1   2
ATOM      2  C   UNL     1       4.613  -0.262   0.348  1.00  0.00     0.116 C 
BRANCH   2   3
ATOM      3  N   UNL     1       5.246   0.766   1.154  1.00  0.00    -0.352 N 
ATOM      4  C   UNL     1       4.935   2.034   1.589  1.00  0.00     0.255 C 
ATOM      5  O   UNL     1       5.725   2.440   2.442  1.00  0.00    -0.269 OA
ATOM      6  H   UNL     1       6.132   0.480   1.475  1.00  0.00     0.163 HD
BRANCH   4   7
ATOM      7  C   UNL     1       3.763   2.872   1.138  1.00  0.00     0.084 A 
ATOM      8  C   UNL     1       1.649   3.061  -0.088  1.00  0.00     0.060 A 
ATOM      9  C   UNL     1       1.509   4.320   0.451  1.00  0.00     0.139 A 
ATOM     10  C   UNL     1       2.813   2.367   0.232  1.00  0.00     0.045 A 
ATOM     11  N   UNL     1       2.399   4.864   1.302  1.00  0.00    -0.236 NA
ATOM     12  C   UNL     1       3.522   4.171   1.650  1.00  0.00     0.141 A 
BRANCH   8  13
ATOM     13  N   UNL     1       0.661   2.566  -0.955  1.00  0.00    -0.325 N 
ATOM     14  C   UNL     1       0.693   0.157  -0.313  1.00  0.00     0.114 C 
ATOM     15  C   UNL     1       0.276   1.282  -1.224  1.00  0.00     0.221 C 
ATOM     16  O   UNL     1      -0.468   1.067  -2.182  1.00  0.00    -0.275 OA
ATOM     17  H   UNL     1       0.164   3.257  -1.450  1.00  0.00     0.169 HD
ENDBRANCH   8  13
BRANCH  12  18
ATOM     18  N   UNL     1       4.353   4.886   2.476  1.00  0.00    -0.352 N 
ATOM     19  C   UNL     1       3.814   5.391   3.731  1.00  0.00     0.146 C 
ATOM     20  C   UNL     1       5.740   5.169   2.135  1.00  0.00     0.123 C 
ATOM     21  C   UNL     1       4.509   6.654   4.170  1.00  0.00    -0.002 C 
ATOM     22  C   UNL     1       5.997   6.680   2.189  1.00  0.00     0.057 C 
ATOM     23  C   UNL     1       5.492   7.265   3.482  1.00  0.00    -0.041 C 
BRANCH  23  24
ATOM     24  C   UNL     1       6.130   8.490   3.999  1.00  0.00    -0.020 A 
ATOM     25  C   UNL     1       6.844   8.401   5.208  1.00  0.00     0.008 A 
ATOM     26  C   UNL     1       6.061   9.730   3.334  1.00  0.00    -0.044 A 
ATOM     27  C   UNL     1       7.490   9.514   5.746  1.00  0.00     0.001 A 
ATOM     28  C   UNL     1       6.731  10.839   3.881  1.00  0.00     0.004 A 
ATOM     29  C   UNL     1       5.308   9.911   2.045  1.00  0.00     0.045 C 
ATOM     30  C   UNL     1       7.437  10.733   5.080  1.00  0.00     0.000 A 
ENDBRANCH  23  24
ENDBRANCH  12  18
ENDBRANCH   4   7
ENDBRANCH   2   3
ENDBRANCH   1   2
BRANCH   1  31
ATOM     31  C   UNL     1       6.434  -0.584  -1.462  1.00  0.00     0.023 C 
BRANCH  31  32
ATOM     32  C   UNL     1       6.744  -2.053  -1.199  1.00  0.00     0.116 C 
BRANCH  32  33
ATOM     33  N   UNL     1       6.318  -2.981  -2.239  1.00  0.00    -0.352 N 
ATOM     34  C   UNL     1       6.162  -4.361  -2.192  1.00  0.00     0.251 C 
ATOM     35  H   UNL     1       6.108  -2.567  -3.107  1.00  0.00     0.163 HD
ATOM     36  O   UNL     1       5.907  -4.979  -3.212  1.00  0.00    -0.269 OA
BRANCH  34  37
ATOM     37  C   UNL     1       6.147  -5.064  -0.880  1.00  0.00     0.039 A 
ATOM     38  C   UNL     1       5.134  -6.008  -0.665  1.00  0.00     0.014 A 
ATOM     39  C   UNL     1       6.923  -4.625   0.187  1.00  0.00     0.014 A 
ATOM     40  C   UNL     1       4.707  -6.266   0.635  1.00  0.00     0.010 A 
ATOM     41  C   UNL     1       6.425  -4.779   1.465  1.00  0.00     0.010 A 
ATOM     42  C   UNL     1       5.267  -5.532   1.677  1.00  0.00    -0.014 A 
BRANCH  42  43
ATOM     43  C   UNL     1       4.627  -5.366   2.976  1.00  0.00     0.031 A 
ATOM     44  C   UNL     1       5.231  -5.951   4.189  1.00  0.00     0.074 A 
ATOM     45  C   UNL     1       3.512  -4.607   3.082  1.00  0.00     0.049 A 
ATOM     46  N   UNL     1       4.592  -6.136   5.295  1.00  0.00    -0.248 NA
ATOM     47  C   UNL     1       6.597  -6.467   4.226  1.00  0.00     0.031 C 
ATOM     48  C   UNL     1       2.921  -4.048   4.295  1.00  0.00     0.029 A 
ATOM     49  N   UNL     1       2.557  -4.357   2.110  1.00  0.00    -0.354 N 
ATOM     50  C   UNL     1       5.517  -6.473   6.251  1.00  0.00     0.074 A 
ATOM     51  C   UNL     1       6.710  -6.805   5.513  1.00  0.00     0.031 C 
ATOM     52  C   UNL     1       1.637  -3.734   4.054  1.00  0.00     0.029 A 
ATOM     53  C   UNL     1       1.310  -4.233   2.728  1.00  0.00     0.049 A 
ATOM     54  H   UNL     1       2.729  -4.280   1.144  1.00  0.00     0.167 HD
ATOM     55  C   UNL     1       5.210  -6.277   7.563  1.00  0.00     0.031 A 
ATOM     56  C   UNL     1       0.299  -5.115   2.468  1.00  0.00     0.031 A 
ATOM     57  C   UNL     1       3.786  -5.988   7.745  1.00  0.00     0.049 A 
ATOM     58  C   UNL     1      -0.141  -5.918   3.678  1.00  0.00     0.074 A 
ATOM     59  C   UNL     1       3.076  -4.838   8.045  1.00  0.00     0.029 A 
ATOM     60  N   UNL     1       2.849  -6.934   7.341  1.00  0.00    -0.354 N 
ATOM     61  N   UNL     1       0.560  -6.038   4.772  1.00  0.00    -0.248 NA
ATOM     62  C   UNL     1      -1.386  -6.681   3.734  1.00  0.00     0.031 C 
ATOM     63  C   UNL     1       1.709  -5.076   7.733  1.00  0.00     0.029 A 
ATOM     64  C   UNL     1       1.586  -6.380   7.286  1.00  0.00     0.049 A 
ATOM     65  H   UNL     1       3.059  -7.872   7.124  1.00  0.00     0.167 HD
ATOM     66  C   UNL     1      -0.089  -6.865   5.651  1.00  0.00     0.074 A 
ATOM     67  C   UNL     1      -1.313  -7.230   4.960  1.00  0.00     0.031 C 
ATOM     68  C   UNL     1       0.448  -7.189   6.864  1.00  0.00     0.031 A 
BRANCH  55  69
ATOM     69  C   UNL     1       6.240  -6.101   8.661  1.00  0.00    -0.014 A 
ATOM     70  C   UNL     1       5.828  -5.656   9.931  1.00  0.00     0.009 A 
ATOM     71  C   UNL     1       7.630  -6.240   8.493  1.00  0.00     0.009 A 
ATOM     72  C   UNL     1       6.745  -5.333  10.944  1.00  0.00     0.001 A 
ATOM     73  C   UNL     1       8.553  -5.935   9.503  1.00  0.00     0.001 A 
ATOM     74  C   UNL     1       8.110  -5.468  10.728  1.00  0.00     0.000 A 
ENDBRANCH  55  69
BRANCH  56  75
ATOM     75  C   UNL     1       0.304  -5.631   1.070  1.00  0.00    -0.014 A 
ATOM     76  C   UNL     1       0.013  -4.729   0.028  1.00  0.00     0.009 A 
ATOM     77  C   UNL     1       0.941  -6.840   0.752  1.00  0.00     0.009 A 
ATOM     78  C   UNL     1       0.459  -4.972  -1.275  1.00  0.00     0.001 A 
ATOM     79  C   UNL     1       1.374  -7.084  -0.558  1.00  0.00     0.001 A 
ATOM     80  C   UNL     1       1.168  -6.136  -1.559  1.00  0.00     0.000 A 
ENDBRANCH  56  75
BRANCH  68  81
ATOM     81  C   UNL     1      -0.055  -8.257   7.810  1.00  0.00    -0.014 A 
ATOM     82  C   UNL     1      -0.889  -9.321   7.443  1.00  0.00     0.009 A 
ATOM     83  C   UNL     1       0.442  -8.280   9.135  1.00  0.00     0.009 A 
ATOM     84  C   UNL     1      -1.244 -10.324   8.358  1.00  0.00     0.001 A 
ATOM     85  C   UNL     1       0.131  -9.301  10.036  1.00  0.00     0.001 A 
ATOM     86  C   UNL     1      -0.725 -10.320   9.649  1.00  0.00     0.000 A 
ENDBRANCH  68  81
ENDBRANCH  42  43
ENDBRANCH  34  37
ENDBRANCH  32  33
ENDBRANCH  31  32
ENDBRANCH   1  31
TORSDOF 14
