REMARK SMILES Cc1c(-c2ccc(O)cc2)nc(N)c(C#N)c1-c1ccccc1OCC(=O)NCCCCNC(=O)c1ccc(-c2c3nc(c(-c4ccccc4)c4ccc([nH]4)c(-c4ccccc4)c4nc(c(-c5ccccc5)c5ccc2[nH]5)C=C4)C=C3)cc1
REMARK SMILES IDX 29 1 28 2 26 3 27 4 25 6 24 7 23 8 18 9 19 10 20 11 22 12
REMARK SMILES IDX 21 13 17 14 1 15 2 16 3 17 11 18 14 19 12 20 4 21 5 22 10 23
REMARK SMILES IDX 6 24 9 25 7 26 8 27 15 29 16 30 13 31 30 34 31 35 32 36
REMARK SMILES IDX 33 37 34 38 35 40 36 41 37 42 83 43 38 44 82 45 39 46 40 47
REMARK SMILES IDX 41 48 76 49 42 50 81 51 75 52 77 53 43 54 80 55 74 56 73 57
REMARK SMILES IDX 44 59 66 60 51 61 65 62 52 63 55 64 64 65 78 66 53 67 54 68
REMARK SMILES IDX 63 70 79 71 56 72 45 73 46 74 50 75 47 76 49 77 48 78 67 79
REMARK SMILES IDX 68 80 72 81 69 82 71 83 70 84 57 85 58 86 62 87 59 88 61 89
REMARK SMILES IDX 60 90
REMARK H PARENT 28 5 8 28 13 32 13 33 33 39 77 58 55 69
REMARK Flexibility Score: inf
ROOT
ATOM      1  C   UNL     1       3.723  -1.356   0.543  1.00  0.00     0.116 C 
ENDROOT
BRANCH   1   2
ATOM      2  N   UNL     1       2.857  -1.221  -0.612  1.00  0.00    -0.353 N 
ATOM      3  C   UNL     1       2.958  -0.275  -1.601  1.00  0.00     0.257 C 
ATOM      4  O   UNL     1       2.603  -0.575  -2.742  1.00  0.00    -0.271 OA
ATOM      5  H   UNL     1       2.124  -1.873  -0.696  1.00  0.00     0.163 HD
BRANCH   3   6
ATOM      6  C   UNL     1       3.540   1.109  -1.315  1.00  0.00     0.329 C 
BRANCH   6   7
ATOM      7  O   UNL     1       3.393   1.552   0.015  1.00  0.00    -0.483 OA
BRANCH   7   8
ATOM      8  C   UNL     1       2.517   2.537   0.371  1.00  0.00     0.127 A 
ATOM      9  C   UNL     1       1.239   2.851  -0.150  1.00  0.00     0.026 A 
ATOM     10  C   UNL     1       0.488   3.843   0.524  1.00  0.00     0.012 A 
ATOM     11  C   UNL     1       0.967   4.487   1.668  1.00  0.00     0.001 A 
ATOM     12  C   UNL     1       2.981   3.197   1.524  1.00  0.00     0.047 A 
ATOM     13  C   UNL     1       2.217   4.162   2.170  1.00  0.00     0.004 A 
BRANCH   9  14
ATOM     14  C   UNL     1       0.566   2.154  -1.279  1.00  0.00     0.012 A 
ATOM     15  C   UNL     1      -0.026   0.275   0.283  1.00  0.00     0.047 C 
ATOM     16  C   UNL     1       0.017   0.857  -1.101  1.00  0.00    -0.015 A 
ATOM     17  C   UNL     1      -0.487   0.179  -2.227  1.00  0.00     0.076 A 
ATOM     18  N   UNL     1      -0.597   0.789  -3.435  1.00  0.00    -0.230 NA
ATOM     19  C   UNL     1       0.424   2.769  -2.540  1.00  0.00     0.102 A 
ATOM     20  C   UNL     1      -0.186   2.062  -3.575  1.00  0.00     0.142 A 
BRANCH  17  21
ATOM     21  C   UNL     1      -0.734  -1.284  -2.274  1.00  0.00     0.001 A 
ATOM     22  C   UNL     1      -0.015  -2.070  -3.198  1.00  0.00     0.014 A 
ATOM     23  C   UNL     1      -1.588  -1.961  -1.388  1.00  0.00     0.014 A 
ATOM     24  C   UNL     1      -0.059  -3.466  -3.171  1.00  0.00     0.047 A 
ATOM     25  C   UNL     1      -1.632  -3.362  -1.348  1.00  0.00     0.047 A 
ATOM     26  C   UNL     1      -0.852  -4.102  -2.230  1.00  0.00     0.115 A 
BRANCH  26  27
ATOM     27  O   UNL     1      -0.833  -5.464  -2.199  1.00  0.00    -0.508 OA
ATOM     28  H   UNL     1      -0.298  -5.939  -2.805  1.00  0.00     0.293 HD
ENDBRANCH  26  27
ENDBRANCH  17  21
BRANCH  19  29
ATOM     29  C   UNL     1       0.862   4.114  -2.765  1.00  0.00     0.104 C 
ATOM     30  N   UNL     1       1.171   5.221  -2.942  1.00  0.00    -0.192 NA
ENDBRANCH  19  29
BRANCH  20  31
ATOM     31  N   UNL     1      -0.339   2.571  -4.851  1.00  0.00    -0.383 N 
ATOM     32  H   UNL     1      -0.777   2.030  -5.547  1.00  0.00     0.158 HD
ATOM     33  H   UNL     1      -0.010   3.474  -5.063  1.00  0.00     0.158 HD
ENDBRANCH  20  31
ENDBRANCH   9  14
ENDBRANCH   7   8
ENDBRANCH   6   7
ENDBRANCH   3   6
ENDBRANCH   1   2
BRANCH   1  34
ATOM     34  C   UNL     1       3.092  -1.065   1.906  1.00  0.00     0.023 C 
BRANCH  34  35
ATOM     35  C   UNL     1       1.912  -1.936   2.339  1.00  0.00     0.023 C 
BRANCH  35  36
ATOM     36  C   UNL     1       2.070  -3.433   2.142  1.00  0.00     0.116 C 
BRANCH  36  37
ATOM     37  N   UNL     1       3.205  -3.974   2.867  1.00  0.00    -0.352 N 
ATOM     38  C   UNL     1       3.253  -4.977   3.802  1.00  0.00     0.251 C 
ATOM     39  H   UNL     1       4.072  -3.558   2.656  1.00  0.00     0.163 HD
ATOM     40  O   UNL     1       4.293  -5.190   4.417  1.00  0.00    -0.269 OA
BRANCH  38  41
ATOM     41  C   UNL     1       2.047  -5.779   4.098  1.00  0.00     0.039 A 
ATOM     42  C   UNL     1       1.746  -6.066   5.431  1.00  0.00     0.014 A 
ATOM     43  C   UNL     1       1.220  -6.254   3.075  1.00  0.00     0.014 A 
ATOM     44  C   UNL     1       0.588  -6.779   5.742  1.00  0.00     0.010 A 
ATOM     45  C   UNL     1       0.021  -6.886   3.391  1.00  0.00     0.010 A 
ATOM     46  C   UNL     1      -0.301  -7.166   4.726  1.00  0.00    -0.014 A 
BRANCH  46  47
ATOM     47  C   UNL     1      -1.559  -7.884   5.049  1.00  0.00     0.031 A 
ATOM     48  C   UNL     1      -1.773  -9.290   4.564  1.00  0.00     0.074 A 
ATOM     49  C   UNL     1      -2.525  -7.258   5.748  1.00  0.00     0.049 A 
ATOM     50  N   UNL     1      -2.807 -10.072   4.738  1.00  0.00    -0.248 NA
ATOM     51  C   UNL     1      -0.696  -9.888   3.760  1.00  0.00     0.031 C 
ATOM     52  C   UNL     1      -2.450  -5.886   6.250  1.00  0.00     0.029 A 
ATOM     53  N   UNL     1      -3.758  -7.698   6.162  1.00  0.00    -0.354 N 
ATOM     54  C   UNL     1      -2.509 -11.246   4.058  1.00  0.00     0.074 A 
ATOM     55  C   UNL     1      -1.228 -11.051   3.418  1.00  0.00     0.031 C 
ATOM     56  C   UNL     1      -3.568  -5.609   6.937  1.00  0.00     0.029 A 
ATOM     57  C   UNL     1      -4.460  -6.765   6.885  1.00  0.00     0.049 A 
ATOM     58  H   UNL     1      -4.105  -8.597   5.960  1.00  0.00     0.167 HD
ATOM     59  C   UNL     1      -3.228 -12.391   3.991  1.00  0.00     0.031 A 
ATOM     60  C   UNL     1      -5.685  -6.825   7.441  1.00  0.00     0.031 A 
ATOM     61  C   UNL     1      -4.502 -12.581   4.632  1.00  0.00     0.049 A 
ATOM     62  C   UNL     1      -6.483  -8.093   7.327  1.00  0.00     0.074 A 
ATOM     63  C   UNL     1      -5.280 -13.724   4.671  1.00  0.00     0.029 A 
ATOM     64  N   UNL     1      -5.189 -11.603   5.334  1.00  0.00    -0.354 N 
ATOM     65  N   UNL     1      -6.155  -9.222   6.745  1.00  0.00    -0.248 NA
ATOM     66  C   UNL     1      -7.813  -8.101   7.951  1.00  0.00     0.031 C 
ATOM     67  C   UNL     1      -6.475 -13.414   5.325  1.00  0.00     0.029 A 
ATOM     68  C   UNL     1      -6.407 -12.101   5.766  1.00  0.00     0.049 A 
ATOM     69  H   UNL     1      -4.861 -10.690   5.500  1.00  0.00     0.167 HD
ATOM     70  C   UNL     1      -7.229 -10.079   6.944  1.00  0.00     0.074 A 
ATOM     71  C   UNL     1      -8.210  -9.346   7.720  1.00  0.00     0.031 C 
ATOM     72  C   UNL     1      -7.386 -11.358   6.521  1.00  0.00     0.031 A 
BRANCH  59  73
ATOM     73  C   UNL     1      -2.660 -13.522   3.175  1.00  0.00    -0.014 A 
ATOM     74  C   UNL     1      -1.494 -14.198   3.568  1.00  0.00     0.009 A 
ATOM     75  C   UNL     1      -3.325 -13.941   2.012  1.00  0.00     0.009 A 
ATOM     76  C   UNL     1      -0.984 -15.242   2.792  1.00  0.00     0.001 A 
ATOM     77  C   UNL     1      -2.834 -15.008   1.258  1.00  0.00     0.001 A 
ATOM     78  C   UNL     1      -1.657 -15.650   1.642  1.00  0.00     0.000 A 
ENDBRANCH  59  73
BRANCH  60  79
ATOM     79  C   UNL     1      -6.206  -5.641   8.174  1.00  0.00    -0.014 A 
ATOM     80  C   UNL     1      -6.309  -5.655   9.572  1.00  0.00     0.009 A 
ATOM     81  C   UNL     1      -6.533  -4.463   7.482  1.00  0.00     0.009 A 
ATOM     82  C   UNL     1      -6.724  -4.513  10.262  1.00  0.00     0.001 A 
ATOM     83  C   UNL     1      -6.918  -3.314   8.176  1.00  0.00     0.001 A 
ATOM     84  C   UNL     1      -7.015  -3.341   9.565  1.00  0.00     0.000 A 
ENDBRANCH  60  79
BRANCH  72  85
ATOM     85  C   UNL     1      -8.666 -12.062   6.879  1.00  0.00    -0.014 A 
ATOM     86  C   UNL     1      -9.883 -11.707   6.276  1.00  0.00     0.009 A 
ATOM     87  C   UNL     1      -8.640 -13.157   7.759  1.00  0.00     0.009 A 
ATOM     88  C   UNL     1     -11.049 -12.421   6.563  1.00  0.00     0.001 A 
ATOM     89  C   UNL     1      -9.799 -13.890   8.017  1.00  0.00     0.001 A 
ATOM     90  C   UNL     1     -11.004 -13.517   7.424  1.00  0.00     0.000 A 
ENDBRANCH  72  85
ENDBRANCH  46  47
ENDBRANCH  38  41
ENDBRANCH  36  37
ENDBRANCH  35  36
ENDBRANCH  34  35
ENDBRANCH   1  34
TORSDOF 18
