REMARK SMILES O=C(C[C@H](c1ccccc1)[NH+]1CC2(CCOCC2)C1)NCCCCNC(=O)c1ccc(-c2c3nc(c(-c4ccccc4)c4ccc([nH]4)c(-c4ccccc4)c4nc(c(-c5ccccc5)c5ccc2[nH]5)C=C4)C=C3)cc1
REMARK SMILES IDX 22 1 21 2 20 3 1 4 2 5 3 7 4 8 11 9 12 10 19 11 13 13 14 14
REMARK SMILES IDX 18 15 15 16 17 17 16 18 5 19 6 20 10 21 7 22 9 23 8 24 23 25
REMARK SMILES IDX 24 26 25 27 26 28 27 30 28 31 29 32 75 33 30 34 74 35 31 36
REMARK SMILES IDX 32 37 33 38 68 39 34 40 73 41 67 42 69 43 35 44 72 45 66 46
REMARK SMILES IDX 65 47 36 49 58 50 43 51 57 52 44 53 47 54 56 55 70 56 45 57
REMARK SMILES IDX 46 58 55 60 71 61 48 62 37 63 38 64 42 65 39 66 41 67 40 68
REMARK SMILES IDX 59 69 60 70 64 71 61 72 63 73 62 74 49 75 50 76 54 77 51 78
REMARK SMILES IDX 53 79 52 80
REMARK H PARENT 20 6 11 12 25 29 69 48 47 59
REMARK Flexibility Score: inf
ROOT
ATOM      1  C   UNL     1       5.801   0.414   5.692  1.00  0.00     0.023 C 
ENDROOT
BRANCH   1   2
ATOM      2  C   UNL     1       4.476  -0.053   5.076  1.00  0.00     0.116 C 
BRANCH   2   3
ATOM      3  N   UNL     1       4.290   0.513   3.756  1.00  0.00    -0.356 N 
ATOM      4  O   UNL     1       3.308  -1.323   2.778  1.00  0.00    -0.275 OA
ATOM      5  C   UNL     1       3.893  -0.251   2.675  1.00  0.00     0.226 C 
ATOM      6  H   UNL     1       4.453   1.475   3.624  1.00  0.00     0.163 HD
BRANCH   5   7
ATOM      7  C   UNL     1       4.484   0.240   1.370  1.00  0.00     0.170 C 
BRANCH   7   8
ATOM      8  C   UNL     1       3.917   1.553   0.800  1.00  0.00     0.224 C 
BRANCH   8   9
ATOM      9  N   UNL     1       4.827   2.688   0.457  1.00  0.00    -0.327 N 
ATOM     10  C   UNL     1       5.732   2.612  -0.702  1.00  0.00     0.275 C 
ATOM     11  C   UNL     1       5.978   2.873   1.356  1.00  0.00     0.275 C 
ATOM     12  H   UNL     1       4.058   3.356   0.404  1.00  0.00     0.348 HD
ATOM     13  C   UNL     1       6.949   2.381   0.230  1.00  0.00     0.073 C 
ATOM     14  C   UNL     1       8.147   3.326   0.063  1.00  0.00     0.047 C 
ATOM     15  C   UNL     1       7.439   0.922   0.278  1.00  0.00     0.047 C 
ATOM     16  C   UNL     1       9.018   2.860  -1.095  1.00  0.00     0.161 C 
ATOM     17  C   UNL     1       8.428   0.609  -0.831  1.00  0.00     0.161 C 
ATOM     18  O   UNL     1       9.499   1.542  -0.834  1.00  0.00    -0.381 OA
ENDBRANCH   8   9
BRANCH   8  19
ATOM     19  C   UNL     1       2.901   1.244  -0.316  1.00  0.00     0.010 A 
ATOM     20  C   UNL     1       3.287   0.686  -1.548  1.00  0.00     0.010 A 
ATOM     21  C   UNL     1       1.529   1.474  -0.115  1.00  0.00     0.010 A 
ATOM     22  C   UNL     1       2.368   0.468  -2.576  1.00  0.00     0.001 A 
ATOM     23  C   UNL     1       0.599   1.207  -1.128  1.00  0.00     0.001 A 
ATOM     24  C   UNL     1       1.021   0.730  -2.366  1.00  0.00     0.000 A 
ENDBRANCH   8  19
ENDBRANCH   7   8
ENDBRANCH   5   7
ENDBRANCH   2   3
ENDBRANCH   1   2
BRANCH   1  25
ATOM     25  C   UNL     1       5.930   1.927   5.901  1.00  0.00     0.023 C 
BRANCH  25  26
ATOM     26  C   UNL     1       4.778   2.579   6.653  1.00  0.00     0.116 C 
BRANCH  26  27
ATOM     27  N   UNL     1       4.625   2.071   8.005  1.00  0.00    -0.352 N 
ATOM     28  C   UNL     1       4.421   2.762   9.178  1.00  0.00     0.251 C 
ATOM     29  H   UNL     1       4.676   1.093   8.095  1.00  0.00     0.163 HD
ATOM     30  O   UNL     1       4.444   2.173  10.248  1.00  0.00    -0.269 OA
BRANCH  28  31
ATOM     31  C   UNL     1       4.213   4.229   9.145  1.00  0.00     0.039 A 
ATOM     32  C   UNL     1       4.892   5.021  10.075  1.00  0.00     0.014 A 
ATOM     33  C   UNL     1       3.365   4.823   8.207  1.00  0.00     0.014 A 
ATOM     34  C   UNL     1       4.775   6.412  10.018  1.00  0.00     0.010 A 
ATOM     35  C   UNL     1       3.312   6.211   8.101  1.00  0.00     0.010 A 
ATOM     36  C   UNL     1       4.017   7.021   9.005  1.00  0.00    -0.014 A 
BRANCH  36  37
ATOM     37  C   UNL     1       3.961   8.499   8.869  1.00  0.00     0.031 A 
ATOM     38  C   UNL     1       2.656   9.230   9.029  1.00  0.00     0.074 A 
ATOM     39  C   UNL     1       5.076   9.182   8.542  1.00  0.00     0.049 A 
ATOM     40  N   UNL     1       2.404  10.509   8.895  1.00  0.00    -0.248 NA
ATOM     41  C   UNL     1       1.475   8.417   9.361  1.00  0.00     0.031 C 
ATOM     42  C   UNL     1       6.399   8.593   8.323  1.00  0.00     0.029 A 
ATOM     43  N   UNL     1       5.273  10.524   8.330  1.00  0.00    -0.354 N 
ATOM     44  C   UNL     1       1.038  10.649   9.110  1.00  0.00     0.074 A 
ATOM     45  C   UNL     1       0.507   9.322   9.332  1.00  0.00     0.031 C 
ATOM     46  C   UNL     1       7.274   9.570   8.038  1.00  0.00     0.029 A 
ATOM     47  C   UNL     1       6.569  10.847   8.008  1.00  0.00     0.049 A 
ATOM     48  H   UNL     1       4.553  11.193   8.402  1.00  0.00     0.167 HD
ATOM     49  C   UNL     1       0.295  11.781   9.140  1.00  0.00     0.031 A 
ATOM     50  C   UNL     1       7.129  12.036   7.712  1.00  0.00     0.031 A 
ATOM     51  C   UNL     1       0.821  13.103   8.922  1.00  0.00     0.049 A 
ATOM     52  C   UNL     1       6.276  13.274   7.722  1.00  0.00     0.074 A 
ATOM     53  C   UNL     1       0.156  14.315   8.984  1.00  0.00     0.029 A 
ATOM     54  N   UNL     1       2.138  13.385   8.595  1.00  0.00    -0.354 N 
ATOM     55  N   UNL     1       4.999  13.397   7.995  1.00  0.00    -0.248 NA
ATOM     56  C   UNL     1       6.945  14.540   7.392  1.00  0.00     0.031 C 
ATOM     57  C   UNL     1       1.057  15.326   8.634  1.00  0.00     0.029 A 
ATOM     58  C   UNL     1       2.299  14.750   8.421  1.00  0.00     0.049 A 
ATOM     59  H   UNL     1       2.853  12.714   8.499  1.00  0.00     0.167 HD
ATOM     60  C   UNL     1       4.721  14.754   7.901  1.00  0.00     0.074 A 
ATOM     61  C   UNL     1       5.964  15.415   7.562  1.00  0.00     0.031 C 
ATOM     62  C   UNL     1       3.541  15.396   8.082  1.00  0.00     0.031 A 
BRANCH  49  63
ATOM     63  C   UNL     1      -1.179  11.636   9.408  1.00  0.00    -0.014 A 
ATOM     64  C   UNL     1      -1.656  11.237  10.667  1.00  0.00     0.009 A 
ATOM     65  C   UNL     1      -2.106  11.938   8.398  1.00  0.00     0.009 A 
ATOM     66  C   UNL     1      -3.028  11.106  10.896  1.00  0.00     0.001 A 
ATOM     67  C   UNL     1      -3.477  11.838   8.639  1.00  0.00     0.001 A 
ATOM     68  C   UNL     1      -3.937  11.412   9.884  1.00  0.00     0.000 A 
ENDBRANCH  49  63
BRANCH  50  69
ATOM     69  C   UNL     1       8.578  12.118   7.387  1.00  0.00    -0.014 A 
ATOM     70  C   UNL     1       9.471  12.748   8.268  1.00  0.00     0.009 A 
ATOM     71  C   UNL     1       9.075  11.578   6.191  1.00  0.00     0.009 A 
ATOM     72  C   UNL     1      10.825  12.862   7.943  1.00  0.00     0.001 A 
ATOM     73  C   UNL     1      10.434  11.665   5.883  1.00  0.00     0.001 A 
ATOM     74  C   UNL     1      11.306  12.316   6.754  1.00  0.00     0.000 A 
ENDBRANCH  50  69
BRANCH  62  75
ATOM     75  C   UNL     1       3.543  16.895   7.956  1.00  0.00    -0.014 A 
ATOM     76  C   UNL     1       3.704  17.526   6.712  1.00  0.00     0.009 A 
ATOM     77  C   UNL     1       3.342  17.686   9.098  1.00  0.00     0.009 A 
ATOM     78  C   UNL     1       3.698  18.919   6.622  1.00  0.00     0.001 A 
ATOM     79  C   UNL     1       3.304  19.078   9.000  1.00  0.00     0.001 A 
ATOM     80  C   UNL     1       3.492  19.693   7.764  1.00  0.00     0.000 A 
ENDBRANCH  62  75
ENDBRANCH  36  37
ENDBRANCH  28  31
ENDBRANCH  26  27
ENDBRANCH  25  26
ENDBRANCH   1  25
TORSDOF 14
