REMARK SMILES O=C(NCCCCNC(=O)c1sccc1S(=O)(=O)Nc1ccccc1N1CCCCC1)c1ccc(-c2c3nc(c(-c4ccccc4)c4ccc([nH]4)c(-c4ccccc4)c4nc(c(-c5ccccc5)c5ccc2[nH]5)C=C4)C=C3)cc1
REMARK SMILES IDX 6 1 5 2 4 3 3 4 1 5 2 6 32 8 33 9 79 10 34 11 78 12 35 13
REMARK SMILES IDX 36 14 37 15 72 16 38 17 77 18 71 19 73 20 39 21 76 22 70 23
REMARK SMILES IDX 69 24 40 26 62 27 47 28 61 29 48 30 51 31 60 32 74 33 49 34
REMARK SMILES IDX 50 35 59 37 75 38 52 39 41 40 42 41 46 42 43 43 45 44 44 45
REMARK SMILES IDX 63 46 64 47 68 48 65 49 67 50 66 51 53 52 54 53 58 54 55 55
REMARK SMILES IDX 57 56 56 57 7 58 8 59 9 60 10 62 11 63 12 64 15 65 13 66
REMARK SMILES IDX 14 67 16 68 17 69 18 70 19 71 20 73 21 74 25 75 22 76 24 77
REMARK SMILES IDX 23 78 26 79 27 80 31 81 28 82 30 83 29 84
REMARK H PARENT 3 7 73 25 51 36 8 61 19 72
REMARK Flexibility Score: inf
ROOT
ATOM      1  C   UNL     1       3.705  -0.123   3.882  1.00  0.00     0.023 C 
ENDROOT
BRANCH   1   2
ATOM      2  C   UNL     1       4.373   0.398   2.603  1.00  0.00     0.023 C 
BRANCH   2   3
ATOM      3  C   UNL     1       4.160  -0.462   1.359  1.00  0.00     0.116 C 
BRANCH   3   4
ATOM      4  N   UNL     1       2.766  -0.593   0.984  1.00  0.00    -0.352 N 
ATOM      5  O   UNL     1       0.837  -0.109  -0.074  1.00  0.00    -0.269 OA
ATOM      6  C   UNL     1       2.057   0.019  -0.017  1.00  0.00     0.251 C 
ATOM      7  H   UNL     1       2.246  -1.222   1.535  1.00  0.00     0.163 HD
BRANCH   6   8
ATOM      8  C   UNL     1       2.745   0.859  -1.018  1.00  0.00     0.039 A 
ATOM      9  C   UNL     1       3.865   0.396  -1.716  1.00  0.00     0.014 A 
ATOM     10  C   UNL     1       2.212   2.119  -1.302  1.00  0.00     0.014 A 
ATOM     11  C   UNL     1       4.516   1.235  -2.621  1.00  0.00     0.010 A 
ATOM     12  C   UNL     1       2.830   2.935  -2.249  1.00  0.00     0.010 A 
ATOM     13  C   UNL     1       4.000   2.509  -2.898  1.00  0.00    -0.014 A 
BRANCH  13  14
ATOM     14  C   UNL     1       4.647   3.393  -3.898  1.00  0.00     0.031 A 
ATOM     15  C   UNL     1       5.284   4.685  -3.473  1.00  0.00     0.074 A 
ATOM     16  C   UNL     1       4.600   3.062  -5.201  1.00  0.00     0.049 A 
ATOM     17  N   UNL     1       5.782   5.642  -4.214  1.00  0.00    -0.248 NA
ATOM     18  C   UNL     1       5.362   4.939  -2.026  1.00  0.00     0.031 C 
ATOM     19  C   UNL     1       4.006   1.838  -5.741  1.00  0.00     0.029 A 
ATOM     20  N   UNL     1       5.040   3.740  -6.310  1.00  0.00    -0.354 N 
ATOM     21  C   UNL     1       6.203   6.625  -3.328  1.00  0.00     0.074 A 
ATOM     22  C   UNL     1       5.892   6.153  -1.995  1.00  0.00     0.031 C 
ATOM     23  C   UNL     1       4.114   1.853  -7.078  1.00  0.00     0.029 A 
ATOM     24  C   UNL     1       4.734   3.108  -7.490  1.00  0.00     0.049 A 
ATOM     25  H   UNL     1       5.526   4.595  -6.264  1.00  0.00     0.167 HD
ATOM     26  C   UNL     1       6.791   7.814  -3.602  1.00  0.00     0.031 A 
ATOM     27  C   UNL     1       4.898   3.508  -8.764  1.00  0.00     0.031 A 
ATOM     28  C   UNL     1       7.099   8.282  -4.927  1.00  0.00     0.049 A 
ATOM     29  C   UNL     1       5.520   4.843  -9.046  1.00  0.00     0.074 A 
ATOM     30  C   UNL     1       7.740   9.451  -5.302  1.00  0.00     0.029 A 
ATOM     31  N   UNL     1       6.779   7.608  -6.096  1.00  0.00    -0.354 N 
ATOM     32  N   UNL     1       5.949   5.745  -8.198  1.00  0.00    -0.248 NA
ATOM     33  C   UNL     1       5.681   5.215 -10.459  1.00  0.00     0.031 C 
ATOM     34  C   UNL     1       7.766   9.505  -6.700  1.00  0.00     0.029 A 
ATOM     35  C   UNL     1       7.184   8.348  -7.194  1.00  0.00     0.049 A 
ATOM     36  H   UNL     1       6.330   6.733  -6.138  1.00  0.00     0.167 HD
ATOM     37  C   UNL     1       6.448   6.784  -8.971  1.00  0.00     0.074 A 
ATOM     38  C   UNL     1       6.275   6.397 -10.357  1.00  0.00     0.031 C 
ATOM     39  C   UNL     1       7.003   7.951  -8.566  1.00  0.00     0.031 A 
BRANCH  26  40
ATOM     40  C   UNL     1       7.106   8.710  -2.438  1.00  0.00    -0.014 A 
ATOM     41  C   UNL     1       8.161   8.423  -1.558  1.00  0.00     0.009 A 
ATOM     42  C   UNL     1       6.347   9.873  -2.233  1.00  0.00     0.009 A 
ATOM     43  C   UNL     1       8.425   9.263  -0.474  1.00  0.00     0.001 A 
ATOM     44  C   UNL     1       6.629  10.724  -1.163  1.00  0.00     0.001 A 
ATOM     45  C   UNL     1       7.661  10.413  -0.279  1.00  0.00     0.000 A 
ENDBRANCH  26  40
BRANCH  27  46
ATOM     46  C   UNL     1       4.433   2.626  -9.863  1.00  0.00    -0.014 A 
ATOM     47  C   UNL     1       5.353   1.893 -10.625  1.00  0.00     0.009 A 
ATOM     48  C   UNL     1       3.060   2.471 -10.114  1.00  0.00     0.009 A 
ATOM     49  C   UNL     1       4.906   1.022 -11.622  1.00  0.00     0.001 A 
ATOM     50  C   UNL     1       2.616   1.583 -11.095  1.00  0.00     0.001 A 
ATOM     51  C   UNL     1       3.539   0.862 -11.850  1.00  0.00     0.000 A 
ENDBRANCH  27  46
BRANCH  39  52
ATOM     52  C   UNL     1       7.495   8.885  -9.633  1.00  0.00    -0.014 A 
ATOM     53  C   UNL     1       6.604   9.680 -10.368  1.00  0.00     0.009 A 
ATOM     54  C   UNL     1       8.874   9.013  -9.860  1.00  0.00     0.009 A 
ATOM     55  C   UNL     1       7.085  10.574 -11.327  1.00  0.00     0.001 A 
ATOM     56  C   UNL     1       9.353   9.922 -10.804  1.00  0.00     0.001 A 
ATOM     57  C   UNL     1       8.459  10.698 -11.540  1.00  0.00     0.000 A 
ENDBRANCH  39  52
ENDBRANCH  13  14
ENDBRANCH   6   8
ENDBRANCH   3   4
ENDBRANCH   2   3
ENDBRANCH   1   2
BRANCH   1  58
ATOM     58  C   UNL     1       4.081  -1.553   4.257  1.00  0.00     0.116 C 
BRANCH  58  59
ATOM     59  N   UNL     1       5.484  -1.699   4.569  1.00  0.00    -0.351 N 
ATOM     60  C   UNL     1       6.105  -2.713   5.247  1.00  0.00     0.262 C 
ATOM     61  H   UNL     1       6.070  -0.974   4.253  1.00  0.00     0.163 HD
ATOM     62  O   UNL     1       7.260  -2.499   5.623  1.00  0.00    -0.268 OA
BRANCH  60  63
ATOM     63  C   UNL     1       5.378  -3.912   5.590  1.00  0.00     0.112 A 
ATOM     64  S   UNL     1       5.293  -4.231   7.291  1.00  0.00    -0.137 S 
ATOM     65  C   UNL     1       4.768  -4.921   4.862  1.00  0.00     0.111 A 
ATOM     66  C   UNL     1       4.375  -5.642   7.070  1.00  0.00     0.067 A 
ATOM     67  C   UNL     1       4.150  -5.891   5.739  1.00  0.00     0.035 A 
BRANCH  65  68
ATOM     68  S   UNL     1       4.596  -5.121   3.146  1.00  0.00     0.263 S 
ATOM     69  O   UNL     1       4.465  -6.561   2.992  1.00  0.00    -0.201 OA
ATOM     70  O   UNL     1       3.438  -4.307   2.846  1.00  0.00    -0.201 OA
BRANCH  68  71
ATOM     71  N   UNL     1       5.767  -4.636   2.061  1.00  0.00    -0.277 N 
ATOM     72  H   UNL     1       5.590  -4.784   1.103  1.00  0.00     0.180 HD
BRANCH  71  73
ATOM     73  C   UNL     1       7.003  -4.023   2.414  1.00  0.00     0.072 A 
ATOM     74  C   UNL     1       7.229  -2.734   1.906  1.00  0.00     0.029 A 
ATOM     75  C   UNL     1       7.991  -4.670   3.182  1.00  0.00     0.061 A 
ATOM     76  C   UNL     1       8.383  -2.027   2.232  1.00  0.00     0.002 A 
ATOM     77  C   UNL     1       9.135  -3.924   3.519  1.00  0.00     0.028 A 
ATOM     78  C   UNL     1       9.328  -2.617   3.060  1.00  0.00     0.002 A 
BRANCH  75  79
ATOM     79  N   UNL     1       7.951  -6.012   3.524  1.00  0.00    -0.370 N 
ATOM     80  C   UNL     1       7.912  -6.412   4.926  1.00  0.00     0.116 C 
ATOM     81  C   UNL     1       7.717  -7.008   2.480  1.00  0.00     0.116 C 
ATOM     82  C   UNL     1       8.740  -7.670   5.157  1.00  0.00     0.021 C 
ATOM     83  C   UNL     1       8.556  -8.256   2.736  1.00  0.00     0.021 C 
ATOM     84  C   UNL     1       8.364  -8.763   4.162  1.00  0.00     0.004 C 
ENDBRANCH  75  79
ENDBRANCH  71  73
ENDBRANCH  68  71
ENDBRANCH  65  68
ENDBRANCH  60  63
ENDBRANCH  58  59
ENDBRANCH   1  58
TORSDOF 15
