REMARK SMILES Cc1ccc(Oc2cc(C(=O)NCCCCNC(=O)c3ccc(-c4c5nc(c(-c6ccccc6)c6ccc([nH]6)c(-c6ccccc6)c6nc(c(-c7ccccc7)c7ccc4[nH]7)C=C6)C=C5)cc3)nc3ccccc23)cc1
REMARK SMILES IDX 14 1 13 2 12 3 10 4 11 5 9 7 7 8 8 9 74 10 69 11 73 12 68 13
REMARK SMILES IDX 70 14 72 15 71 16 6 17 5 18 1 19 2 20 3 21 76 22 4 23 75 24
REMARK SMILES IDX 15 25 16 26 17 27 18 28 19 30 20 31 21 32 67 33 22 34 66 35
REMARK SMILES IDX 23 36 24 37 25 38 60 39 26 40 65 41 59 42 61 43 27 44 64 45
REMARK SMILES IDX 58 46 57 47 28 49 50 50 35 51 49 52 36 53 39 54 48 55 62 56
REMARK SMILES IDX 37 57 38 58 47 60 63 61 40 62 29 63 30 64 34 65 31 66 33 67
REMARK SMILES IDX 32 68 51 69 52 70 56 71 53 72 55 73 54 74 41 75 42 76 46 77
REMARK SMILES IDX 43 78 45 79 44 80
REMARK H PARENT 12 6 17 29 61 48 39 59
REMARK Flexibility Score: inf
ROOT
ATOM      1  C   UNL     1      -8.116   5.351  -0.095  1.00  0.00     0.023 C 
ENDROOT
BRANCH   1   2
ATOM      2  C   UNL     1      -7.008   5.421   0.965  1.00  0.00     0.116 C 
BRANCH   2   3
ATOM      3  N   UNL     1      -7.024   4.283   1.871  1.00  0.00    -0.351 N 
ATOM      4  C   UNL     1      -6.357   3.078   1.826  1.00  0.00     0.270 C 
ATOM      5  O   UNL     1      -6.546   2.291   2.756  1.00  0.00    -0.268 OA
ATOM      6  H   UNL     1      -7.614   4.393   2.651  1.00  0.00     0.163 HD
BRANCH   4   7
ATOM      7  C   UNL     1      -5.419   2.698   0.717  1.00  0.00     0.132 A 
ATOM      8  C   UNL     1      -3.807   1.202  -0.194  1.00  0.00     0.139 A 
ATOM      9  C   UNL     1      -4.697   1.521   0.827  1.00  0.00     0.082 A 
ATOM     10  C   UNL     1      -3.690   2.027  -1.335  1.00  0.00     0.043 A 
ATOM     11  C   UNL     1      -4.453   3.211  -1.330  1.00  0.00     0.075 A 
ATOM     12  C   UNL     1      -2.857   1.757  -2.448  1.00  0.00     0.014 A 
ATOM     13  N   UNL     1      -5.300   3.531  -0.342  1.00  0.00    -0.242 NA
ATOM     14  C   UNL     1      -4.318   4.102  -2.384  1.00  0.00     0.029 A 
ATOM     15  C   UNL     1      -2.734   2.671  -3.493  1.00  0.00     0.001 A 
ATOM     16  C   UNL     1      -3.458   3.853  -3.455  1.00  0.00     0.002 A 
BRANCH   8  17
ATOM     17  O   UNL     1      -3.107   0.025  -0.035  1.00  0.00    -0.457 OA
BRANCH  17  18
ATOM     18  C   UNL     1      -1.732   0.077   0.077  1.00  0.00     0.127 A 
ATOM     19  C   UNL     1       2.575  -0.110   0.077  1.00  0.00     0.044 C 
ATOM     20  C   UNL     1       1.077  -0.043   0.103  1.00  0.00    -0.051 A 
ATOM     21  C   UNL     1       0.320  -1.207  -0.070  1.00  0.00     0.007 A 
ATOM     22  C   UNL     1       0.416   1.171   0.317  1.00  0.00     0.007 A 
ATOM     23  C   UNL     1      -1.076  -1.146  -0.086  1.00  0.00     0.047 A 
ATOM     24  C   UNL     1      -0.981   1.230   0.319  1.00  0.00     0.047 A 
ENDBRANCH  17  18
ENDBRANCH   8  17
ENDBRANCH   4   7
ENDBRANCH   2   3
ENDBRANCH   1   2
BRANCH   1  25
ATOM     25  C   UNL     1      -9.543   5.436   0.463  1.00  0.00     0.023 C 
BRANCH  25  26
ATOM     26  C   UNL     1      -9.890   6.771   1.114  1.00  0.00     0.116 C 
BRANCH  26  27
ATOM     27  N   UNL     1     -10.347   7.810   0.201  1.00  0.00    -0.352 N 
ATOM     28  C   UNL     1     -10.574   9.161   0.428  1.00  0.00     0.251 C 
ATOM     29  H   UNL     1     -10.521   7.507  -0.720  1.00  0.00     0.163 HD
ATOM     30  O   UNL     1     -11.063   9.847  -0.453  1.00  0.00    -0.269 OA
BRANCH  28  31
ATOM     31  C   UNL     1     -10.081   9.806   1.678  1.00  0.00     0.039 A 
ATOM     32  C   UNL     1      -9.477  11.066   1.558  1.00  0.00     0.014 A 
ATOM     33  C   UNL     1      -9.990   9.112   2.878  1.00  0.00     0.014 A 
ATOM     34  C   UNL     1      -8.551  11.476   2.513  1.00  0.00     0.010 A 
ATOM     35  C   UNL     1      -8.992   9.456   3.767  1.00  0.00     0.010 A 
ATOM     36  C   UNL     1      -8.216  10.595   3.536  1.00  0.00    -0.014 A 
BRANCH  36  37
ATOM     37  C   UNL     1      -6.979  10.684   4.300  1.00  0.00     0.031 A 
ATOM     38  C   UNL     1      -6.990  11.038   5.728  1.00  0.00     0.074 A 
ATOM     39  C   UNL     1      -5.823  10.298   3.717  1.00  0.00     0.049 A 
ATOM     40  N   UNL     1      -5.957  11.457   6.377  1.00  0.00    -0.248 NA
ATOM     41  C   UNL     1      -8.202  10.997   6.534  1.00  0.00     0.031 C 
ATOM     42  C   UNL     1      -4.559   9.965   4.366  1.00  0.00     0.029 A 
ATOM     43  N   UNL     1      -5.513  10.336   2.359  1.00  0.00    -0.354 N 
ATOM     44  C   UNL     1      -6.272  11.412   7.713  1.00  0.00     0.074 A 
ATOM     45  C   UNL     1      -7.707  11.240   7.750  1.00  0.00     0.031 C 
ATOM     46  C   UNL     1      -3.570  10.062   3.463  1.00  0.00     0.029 A 
ATOM     47  C   UNL     1      -4.140  10.627   2.253  1.00  0.00     0.049 A 
ATOM     48  H   UNL     1      -6.138  10.187   1.613  1.00  0.00     0.167 HD
ATOM     49  C   UNL     1      -5.266  11.369   8.633  1.00  0.00     0.031 A 
ATOM     50  C   UNL     1      -3.732  11.796   1.673  1.00  0.00     0.031 A 
ATOM     51  C   UNL     1      -3.945  11.546   8.019  1.00  0.00     0.049 A 
ATOM     52  C   UNL     1      -3.018  12.752   2.611  1.00  0.00     0.074 A 
ATOM     53  C   UNL     1      -2.868  10.711   7.766  1.00  0.00     0.029 A 
ATOM     54  N   UNL     1      -3.695  12.709   7.305  1.00  0.00    -0.354 N 
ATOM     55  N   UNL     1      -2.827  12.542   3.884  1.00  0.00    -0.248 NA
ATOM     56  C   UNL     1      -2.551  14.077   2.195  1.00  0.00     0.031 C 
ATOM     57  C   UNL     1      -1.971  11.390   6.889  1.00  0.00     0.029 A 
ATOM     58  C   UNL     1      -2.496  12.640   6.623  1.00  0.00     0.049 A 
ATOM     59  H   UNL     1      -4.298  13.487   7.287  1.00  0.00     0.167 HD
ATOM     60  C   UNL     1      -2.302  13.668   4.462  1.00  0.00     0.074 A 
ATOM     61  C   UNL     1      -2.137  14.600   3.362  1.00  0.00     0.031 C 
ATOM     62  C   UNL     1      -2.090  13.773   5.806  1.00  0.00     0.031 A 
BRANCH  49  63
ATOM     63  C   UNL     1      -5.465  10.908  10.061  1.00  0.00    -0.014 A 
ATOM     64  C   UNL     1      -4.373  10.398  10.787  1.00  0.00     0.009 A 
ATOM     65  C   UNL     1      -6.700  10.886  10.732  1.00  0.00     0.009 A 
ATOM     66  C   UNL     1      -4.524   9.813  12.053  1.00  0.00     0.001 A 
ATOM     67  C   UNL     1      -6.869  10.274  11.982  1.00  0.00     0.001 A 
ATOM     68  C   UNL     1      -5.780   9.724  12.639  1.00  0.00     0.000 A 
ENDBRANCH  49  63
BRANCH  50  69
ATOM     69  C   UNL     1      -4.609  12.217   0.543  1.00  0.00    -0.014 A 
ATOM     70  C   UNL     1      -4.624  11.424  -0.622  1.00  0.00     0.009 A 
ATOM     71  C   UNL     1      -5.660  13.122   0.751  1.00  0.00     0.009 A 
ATOM     72  C   UNL     1      -5.720  11.448  -1.489  1.00  0.00     0.001 A 
ATOM     73  C   UNL     1      -6.749  13.152  -0.128  1.00  0.00     0.001 A 
ATOM     74  C   UNL     1      -6.796  12.290  -1.224  1.00  0.00     0.000 A 
ENDBRANCH  50  69
BRANCH  62  75
ATOM     75  C   UNL     1      -1.508  14.989   6.477  1.00  0.00    -0.014 A 
ATOM     76  C   UNL     1      -0.464  15.740   5.920  1.00  0.00     0.009 A 
ATOM     77  C   UNL     1      -1.927  15.345   7.776  1.00  0.00     0.009 A 
ATOM     78  C   UNL     1       0.086  16.834   6.601  1.00  0.00     0.001 A 
ATOM     79  C   UNL     1      -1.365  16.420   8.469  1.00  0.00     0.001 A 
ATOM     80  C   UNL     1      -0.365  17.174   7.874  1.00  0.00     0.000 A 
ENDBRANCH  62  75
ENDBRANCH  36  37
ENDBRANCH  28  31
ENDBRANCH  26  27
ENDBRANCH  25  26
ENDBRANCH   1  25
TORSDOF 13
