REMARK SMILES O=C(CCCCCN1C(=O)/C(=C/c2cccc(O)c2)SC1=S)NCCCCNC(=O)c1ccc(-c2c3nc(c(-c4ccccc4)c4ccc([nH]4)c(-c4ccccc4)c4nc(c(-c5ccccc5)c5ccc2[nH]5)C=C4)C=C3)cc1
REMARK SMILES IDX 1 1 2 2 23 3 3 5 4 6 5 7 6 8 7 9 8 10 9 11 21 12 10 13 11 14
REMARK SMILES IDX 20 15 22 16 12 17 13 18 14 19 19 20 15 21 17 22 16 23 18 24
REMARK SMILES IDX 24 26 25 27 26 28 27 29 28 30 29 31 30 33 31 34 32 35 78 36
REMARK SMILES IDX 33 37 77 38 34 39 35 40 36 41 71 42 37 43 76 44 70 45 72 46
REMARK SMILES IDX 38 47 75 48 69 49 68 50 39 52 61 53 46 54 60 55 47 56 50 57
REMARK SMILES IDX 59 58 73 59 48 60 49 61 58 63 74 64 51 65 40 66 41 67 45 68
REMARK SMILES IDX 42 69 44 70 43 71 62 72 63 73 67 74 64 75 66 76 65 77 52 78
REMARK SMILES IDX 53 79 57 80 54 81 56 82 55 83
REMARK H PARENT 23 4 18 25 28 32 72 51 50 62
REMARK Flexibility Score: inf
ROOT
ATOM      1  O   UNL     1       0.695   0.009   0.474  1.00  0.00    -0.275 OA
ATOM      2  C   UNL     1       1.848  -0.044   0.061  1.00  0.00     0.219 C 
ATOM      3  N   UNL     1       2.499  -1.220  -0.234  1.00  0.00    -0.356 N 
ATOM      4  H   UNL     1       3.401  -1.177  -0.626  1.00  0.00     0.163 HD
ENDROOT
BRANCH   2   5
ATOM      5  C   UNL     1       2.686   1.203  -0.160  1.00  0.00     0.100 C 
BRANCH   5   6
ATOM      6  C   UNL     1       3.664   1.487   0.984  1.00  0.00     0.010 C 
BRANCH   6   7
ATOM      7  C   UNL     1       4.800   0.476   1.166  1.00  0.00     0.002 C 
BRANCH   7   8
ATOM      8  C   UNL     1       5.712   0.290  -0.051  1.00  0.00     0.022 C 
BRANCH   8   9
ATOM      9  C   UNL     1       6.798   1.361  -0.226  1.00  0.00     0.127 C 
BRANCH   9  10
ATOM     10  N   UNL     1       7.623   1.592   0.961  1.00  0.00    -0.293 N 
ATOM     11  C   UNL     1       7.654   2.867   1.513  1.00  0.00     0.266 C 
ATOM     12  C   UNL     1       8.449   0.653   1.548  1.00  0.00     0.148 C 
ATOM     13  O   UNL     1       7.054   3.848   1.101  1.00  0.00    -0.268 OA
ATOM     14  C   UNL     1       8.566   2.896   2.688  1.00  0.00     0.081 C 
ATOM     15  S   UNL     1       9.147   1.312   3.014  1.00  0.00    -0.054 SA
ATOM     16  S   UNL     1       8.814  -0.894   1.037  1.00  0.00    -0.052 S 
ATOM     17  C   UNL     1       8.864   4.026   3.347  1.00  0.00     0.029 C 
BRANCH  17  18
ATOM     18  C   UNL     1       9.748   4.096   4.518  1.00  0.00    -0.021 A 
ATOM     19  C   UNL     1      11.082   3.667   4.453  1.00  0.00     0.008 A 
ATOM     20  C   UNL     1       9.243   4.568   5.732  1.00  0.00     0.054 A 
ATOM     21  C   UNL     1      11.875   3.642   5.601  1.00  0.00     0.004 A 
ATOM     22  C   UNL     1      10.046   4.550   6.869  1.00  0.00     0.116 A 
ATOM     23  C   UNL     1      11.354   4.078   6.817  1.00  0.00     0.046 A 
BRANCH  22  24
ATOM     24  O   UNL     1       9.500   4.994   8.038  1.00  0.00    -0.508 OA
ATOM     25  H   UNL     1      10.012   4.995   8.823  1.00  0.00     0.293 HD
ENDBRANCH  22  24
ENDBRANCH  17  18
ENDBRANCH   9  10
ENDBRANCH   8   9
ENDBRANCH   7   8
ENDBRANCH   6   7
ENDBRANCH   5   6
ENDBRANCH   2   5
BRANCH   3  26
ATOM     26  C   UNL     1       1.907  -2.520   0.009  1.00  0.00     0.116 C 
BRANCH  26  27
ATOM     27  C   UNL     1       2.364  -3.560  -1.012  1.00  0.00     0.023 C 
BRANCH  27  28
ATOM     28  C   UNL     1       3.865  -3.872  -1.008  1.00  0.00     0.023 C 
BRANCH  28  29
ATOM     29  C   UNL     1       4.420  -4.425   0.301  1.00  0.00     0.116 C 
BRANCH  29  30
ATOM     30  N   UNL     1       3.853  -5.718   0.649  1.00  0.00    -0.352 N 
ATOM     31  C   UNL     1       4.473  -6.920   0.895  1.00  0.00     0.251 C 
ATOM     32  H   UNL     1       2.871  -5.736   0.720  1.00  0.00     0.163 HD
ATOM     33  O   UNL     1       3.799  -7.939   1.012  1.00  0.00    -0.269 OA
BRANCH  31  34
ATOM     34  C   UNL     1       5.949  -7.006   0.992  1.00  0.00     0.039 A 
ATOM     35  C   UNL     1       6.600  -8.081   0.381  1.00  0.00     0.014 A 
ATOM     36  C   UNL     1       6.691  -6.053   1.695  1.00  0.00     0.014 A 
ATOM     37  C   UNL     1       7.995  -8.162   0.414  1.00  0.00     0.010 A 
ATOM     38  C   UNL     1       8.084  -6.093   1.661  1.00  0.00     0.010 A 
ATOM     39  C   UNL     1       8.752  -7.147   1.020  1.00  0.00    -0.014 A 
BRANCH  39  40
ATOM     40  C   UNL     1      10.238  -7.164   0.977  1.00  0.00     0.031 A 
ATOM     41  C   UNL     1      11.040  -7.267   2.246  1.00  0.00     0.074 A 
ATOM     42  C   UNL     1      10.872  -7.028  -0.205  1.00  0.00     0.049 A 
ATOM     43  N   UNL     1      12.341  -7.249   2.406  1.00  0.00    -0.248 NA
ATOM     44  C   UNL     1      10.283  -7.386   3.502  1.00  0.00     0.031 C 
ATOM     45  C   UNL     1      10.217  -6.887  -1.507  1.00  0.00     0.029 A 
ATOM     46  N   UNL     1      12.212  -6.979  -0.502  1.00  0.00    -0.354 N 
ATOM     47  C   UNL     1      12.555  -7.337   3.776  1.00  0.00     0.074 A 
ATOM     48  C   UNL     1      11.252  -7.360   4.405  1.00  0.00     0.031 C 
ATOM     49  C   UNL     1      11.155  -6.799  -2.464  1.00  0.00     0.029 A 
ATOM     50  C   UNL     1      12.475  -6.827  -1.842  1.00  0.00     0.049 A 
ATOM     51  H   UNL     1      12.918  -7.048   0.181  1.00  0.00     0.167 HD
ATOM     52  C   UNL     1      13.728  -7.409   4.450  1.00  0.00     0.031 A 
ATOM     53  C   UNL     1      13.644  -6.711  -2.499  1.00  0.00     0.031 A 
ATOM     54  C   UNL     1      15.025  -7.383   3.826  1.00  0.00     0.049 A 
ATOM     55  C   UNL     1      14.932  -6.756  -1.724  1.00  0.00     0.074 A 
ATOM     56  C   UNL     1      16.270  -7.504   4.420  1.00  0.00     0.029 A 
ATOM     57  N   UNL     1      15.246  -7.217   2.467  1.00  0.00    -0.354 N 
ATOM     58  N   UNL     1      15.118  -6.911  -0.436  1.00  0.00    -0.248 NA
ATOM     59  C   UNL     1      16.174  -6.620  -2.499  1.00  0.00     0.031 C 
ATOM     60  C   UNL     1      17.245  -7.345   3.430  1.00  0.00     0.029 A 
ATOM     61  C   UNL     1      16.607  -7.198   2.209  1.00  0.00     0.049 A 
ATOM     62  H   UNL     1      14.540  -7.125   1.787  1.00  0.00     0.167 HD
ATOM     63  C   UNL     1      16.494  -6.923  -0.250  1.00  0.00     0.074 A 
ATOM     64  C   UNL     1      17.096  -6.777  -1.559  1.00  0.00     0.031 C 
ATOM     65  C   UNL     1      17.196  -7.048   0.903  1.00  0.00     0.031 A 
BRANCH  52  66
ATOM     66  C   UNL     1      13.661  -7.503   5.951  1.00  0.00    -0.014 A 
ATOM     67  C   UNL     1      13.169  -8.653   6.590  1.00  0.00     0.009 A 
ATOM     68  C   UNL     1      14.133  -6.441   6.738  1.00  0.00     0.009 A 
ATOM     69  C   UNL     1      13.110  -8.718   7.984  1.00  0.00     0.001 A 
ATOM     70  C   UNL     1      14.104  -6.522   8.132  1.00  0.00     0.001 A 
ATOM     71  C   UNL     1      13.583  -7.656   8.753  1.00  0.00     0.000 A 
ENDBRANCH  52  66
BRANCH  53  72
ATOM     72  C   UNL     1      13.656  -6.549  -3.977  1.00  0.00    -0.014 A 
ATOM     73  C   UNL     1      14.141  -7.575  -4.803  1.00  0.00     0.009 A 
ATOM     74  C   UNL     1      13.192  -5.364  -4.571  1.00  0.00     0.009 A 
ATOM     75  C   UNL     1      14.187  -7.407  -6.189  1.00  0.00     0.001 A 
ATOM     76  C   UNL     1      13.209  -5.212  -5.959  1.00  0.00     0.001 A 
ATOM     77  C   UNL     1      13.717  -6.229  -6.766  1.00  0.00     0.000 A 
ENDBRANCH  53  72
BRANCH  65  78
ATOM     78  C   UNL     1      18.697  -7.072   0.798  1.00  0.00    -0.014 A 
ATOM     79  C   UNL     1      19.429  -5.923   0.463  1.00  0.00     0.009 A 
ATOM     80  C   UNL     1      19.391  -8.260   1.079  1.00  0.00     0.009 A 
ATOM     81  C   UNL     1      20.822  -5.972   0.375  1.00  0.00     0.001 A 
ATOM     82  C   UNL     1      20.785  -8.298   1.024  1.00  0.00     0.001 A 
ATOM     83  C   UNL     1      21.499  -7.157   0.661  1.00  0.00     0.000 A 
ENDBRANCH  65  78
ENDBRANCH  39  40
ENDBRANCH  31  34
ENDBRANCH  29  30
ENDBRANCH  28  29
ENDBRANCH  27  28
ENDBRANCH  26  27
ENDBRANCH   3  26
TORSDOF 18
