REMARK SMILES CC(C)[C@H]([NH2+]Cc1ccc(N(C)C)cc1)C(=O)NCCCCNC(=O)c1ccc(-c2c3nc(c(-c4ccccc4)c4ccc([nH]4)c(-c4ccccc4)c4nc(c(-c5ccccc5)c5ccc2[nH]5)C=C4)C=C3)cc1
REMARK SMILES IDX 19 1 18 2 16 3 17 4 4 6 2 7 1 8 3 9 5 10 6 13 7 14 8 15
REMARK SMILES IDX 15 16 9 17 14 18 10 19 11 20 12 21 13 22 20 23 21 24 22 25
REMARK SMILES IDX 23 26 24 27 25 29 26 30 27 31 73 32 28 33 72 34 29 35 30 36
REMARK SMILES IDX 31 37 66 38 32 39 71 40 65 41 67 42 33 43 70 44 64 45 63 46
REMARK SMILES IDX 34 48 56 49 41 50 55 51 42 52 45 53 54 54 68 55 43 56 44 57
REMARK SMILES IDX 53 59 69 60 46 61 35 62 36 63 40 64 37 65 39 66 38 67 57 68
REMARK SMILES IDX 58 69 62 70 59 71 61 72 60 73 47 74 48 75 52 76 49 77 51 78
REMARK SMILES IDX 50 79
REMARK H PARENT 18 5 5 11 5 12 23 28 67 47 45 58
REMARK Flexibility Score: inf
ROOT
ATOM      1  C   UNL     1       0.130  -2.561   3.020  1.00  0.00     0.116 C 
ENDROOT
BRANCH   1   2
ATOM      2  N   UNL     1      -0.807  -1.520   3.391  1.00  0.00    -0.351 N 
ATOM      3  C   UNL     1      -1.339  -0.518   2.630  1.00  0.00     0.278 C 
ATOM      4  O   UNL     1      -2.180   0.214   3.164  1.00  0.00    -0.268 OA
ATOM      5  H   UNL     1      -1.105  -1.538   4.330  1.00  0.00     0.163 HD
BRANCH   3   6
ATOM      6  C   UNL     1      -0.937  -0.302   1.146  1.00  0.00     0.275 C 
BRANCH   6   7
ATOM      7  C   UNL     1      -1.577  -1.323   0.139  1.00  0.00     0.051 C 
ATOM      8  C   UNL     1      -0.607  -1.907  -0.898  1.00  0.00     0.014 C 
ATOM      9  C   UNL     1      -2.388  -2.472   0.750  1.00  0.00     0.014 C 
ENDBRANCH   6   7
BRANCH   6  10
ATOM     10  N   UNL     1       0.529  -0.132   1.022  1.00  0.00    -0.332 N 
ATOM     11  H   UNL     1       0.773  -0.144   0.032  1.00  0.00     0.347 HD
ATOM     12  H   UNL     1       0.965  -0.898   1.536  1.00  0.00     0.347 HD
BRANCH  10  13
ATOM     13  C   UNL     1       1.022   1.121   1.609  1.00  0.00     0.297 C 
BRANCH  13  14
ATOM     14  C   UNL     1       2.534   1.124   1.612  1.00  0.00     0.006 A 
ATOM     15  C   UNL     1       3.230   0.056   2.175  1.00  0.00     0.012 A 
ATOM     16  C   UNL     1       3.284   2.171   1.085  1.00  0.00     0.012 A 
ATOM     17  C   UNL     1       4.628   0.019   2.205  1.00  0.00     0.026 A 
ATOM     18  C   UNL     1       4.692   2.125   1.118  1.00  0.00     0.026 A 
ATOM     19  C   UNL     1       5.412   1.048   1.674  1.00  0.00     0.036 A 
BRANCH  19  20
ATOM     20  N   UNL     1       6.800   1.021   1.708  1.00  0.00    -0.378 N 
ATOM     21  C   UNL     1       7.575  -0.112   2.206  1.00  0.00     0.143 C 
ATOM     22  C   UNL     1       7.575   2.064   1.046  1.00  0.00     0.143 C 
ENDBRANCH  19  20
ENDBRANCH  13  14
ENDBRANCH  10  13
ENDBRANCH   6  10
ENDBRANCH   3   6
ENDBRANCH   1   2
BRANCH   1  23
ATOM     23  C   UNL     1       1.269  -2.709   4.024  1.00  0.00     0.023 C 
BRANCH  23  24
ATOM     24  C   UNL     1       0.872  -3.232   5.402  1.00  0.00     0.023 C 
BRANCH  24  25
ATOM     25  C   UNL     1       0.053  -4.514   5.411  1.00  0.00     0.116 C 
BRANCH  25  26
ATOM     26  N   UNL     1       0.715  -5.627   4.746  1.00  0.00    -0.352 N 
ATOM     27  C   UNL     1       0.956  -6.901   5.207  1.00  0.00     0.251 C 
ATOM     28  H   UNL     1       1.036  -5.441   3.834  1.00  0.00     0.163 HD
ATOM     29  O   UNL     1       1.628  -7.681   4.547  1.00  0.00    -0.269 OA
BRANCH  27  30
ATOM     30  C   UNL     1       0.431  -7.310   6.528  1.00  0.00     0.039 A 
ATOM     31  C   UNL     1       1.291  -7.950   7.424  1.00  0.00     0.014 A 
ATOM     32  C   UNL     1      -0.888  -7.034   6.893  1.00  0.00     0.014 A 
ATOM     33  C   UNL     1       0.849  -8.239   8.717  1.00  0.00     0.010 A 
ATOM     34  C   UNL     1      -1.299  -7.244   8.206  1.00  0.00     0.010 A 
ATOM     35  C   UNL     1      -0.435  -7.848   9.132  1.00  0.00    -0.014 A 
BRANCH  35  36
ATOM     36  C   UNL     1      -0.889  -8.057  10.530  1.00  0.00     0.031 A 
ATOM     37  C   UNL     1      -2.062  -8.953  10.820  1.00  0.00     0.074 A 
ATOM     38  C   UNL     1      -0.291  -7.385  11.534  1.00  0.00     0.049 A 
ATOM     39  N   UNL     1      -2.637  -9.215  11.966  1.00  0.00    -0.248 NA
ATOM     40  C   UNL     1      -2.690  -9.620   9.667  1.00  0.00     0.031 C 
ATOM     41  C   UNL     1       0.821  -6.444  11.384  1.00  0.00     0.029 A 
ATOM     42  N   UNL     1      -0.544  -7.386  12.884  1.00  0.00    -0.354 N 
ATOM     43  C   UNL     1      -3.703 -10.055  11.670  1.00  0.00     0.074 A 
ATOM     44  C   UNL     1      -3.726 -10.220  10.233  1.00  0.00     0.031 C 
ATOM     45  C   UNL     1       1.171  -5.980  12.595  1.00  0.00     0.029 A 
ATOM     46  C   UNL     1       0.287  -6.559  13.601  1.00  0.00     0.049 A 
ATOM     47  H   UNL     1      -1.253  -7.928  13.299  1.00  0.00     0.167 HD
ATOM     48  C   UNL     1      -4.574 -10.652  12.518  1.00  0.00     0.031 A 
ATOM     49  C   UNL     1       0.331  -6.293  14.920  1.00  0.00     0.031 A 
ATOM     50  C   UNL     1      -4.541 -10.505  13.948  1.00  0.00     0.049 A 
ATOM     51  C   UNL     1      -0.640  -6.978  15.841  1.00  0.00     0.074 A 
ATOM     52  C   UNL     1      -5.337 -11.125  14.896  1.00  0.00     0.029 A 
ATOM     53  N   UNL     1      -3.667  -9.679  14.636  1.00  0.00    -0.354 N 
ATOM     54  N   UNL     1      -1.590  -7.834  15.552  1.00  0.00    -0.248 NA
ATOM     55  C   UNL     1      -0.522  -6.670  17.273  1.00  0.00     0.031 C 
ATOM     56  C   UNL     1      -4.977 -10.636  16.155  1.00  0.00     0.029 A 
ATOM     57  C   UNL     1      -3.919  -9.756  15.996  1.00  0.00     0.049 A 
ATOM     58  H   UNL     1      -2.971  -9.121  14.221  1.00  0.00     0.167 HD
ATOM     59  C   UNL     1      -2.163  -8.188  16.767  1.00  0.00     0.074 A 
ATOM     60  C   UNL     1      -1.442  -7.468  17.796  1.00  0.00     0.031 C 
ATOM     61  C   UNL     1      -3.193  -9.034  17.008  1.00  0.00     0.031 A 
BRANCH  48  62
ATOM     62  C   UNL     1      -5.644 -11.519  11.914  1.00  0.00    -0.014 A 
ATOM     63  C   UNL     1      -5.333 -12.756  11.327  1.00  0.00     0.009 A 
ATOM     64  C   UNL     1      -6.985 -11.111  11.969  1.00  0.00     0.009 A 
ATOM     65  C   UNL     1      -6.341 -13.549  10.774  1.00  0.00     0.001 A 
ATOM     66  C   UNL     1      -7.994 -11.919  11.442  1.00  0.00     0.001 A 
ATOM     67  C   UNL     1      -7.670 -13.133  10.837  1.00  0.00     0.000 A 
ENDBRANCH  48  62
BRANCH  49  68
ATOM     68  C   UNL     1       1.341  -5.345  15.458  1.00  0.00    -0.014 A 
ATOM     69  C   UNL     1       2.411  -5.810  16.238  1.00  0.00     0.009 A 
ATOM     70  C   UNL     1       1.234  -3.968  15.206  1.00  0.00     0.009 A 
ATOM     71  C   UNL     1       3.334  -4.913  16.781  1.00  0.00     0.001 A 
ATOM     72  C   UNL     1       2.175  -3.077  15.725  1.00  0.00     0.001 A 
ATOM     73  C   UNL     1       3.217  -3.548  16.521  1.00  0.00     0.000 A 
ENDBRANCH  49  68
BRANCH  61  74
ATOM     74  C   UNL     1      -3.577  -9.257  18.444  1.00  0.00    -0.014 A 
ATOM     75  C   UNL     1      -4.231  -8.264  19.188  1.00  0.00     0.009 A 
ATOM     76  C   UNL     1      -3.310 -10.496  19.048  1.00  0.00     0.009 A 
ATOM     77  C   UNL     1      -4.576  -8.494  20.521  1.00  0.00     0.001 A 
ATOM     78  C   UNL     1      -3.684 -10.734  20.371  1.00  0.00     0.001 A 
ATOM     79  C   UNL     1      -4.307  -9.730  21.110  1.00  0.00     0.000 A 
ENDBRANCH  61  74
ENDBRANCH  35  36
ENDBRANCH  27  30
ENDBRANCH  25  26
ENDBRANCH  24  25
ENDBRANCH  23  24
ENDBRANCH   1  23
TORSDOF 16
