REMARK SMILES CC(C)[C@H]([NH2+][C@@H](C)C[C@@H]1CCCC[NH2+]1)C(=O)NCCCCNC(=O)c1ccc(-c2c3nc(c(-c4ccccc4)c4ccc([nH]4)c(-c4ccccc4)c4nc(c(-c5ccccc5)c5ccc2[nH]5)C=C4)C=C3)cc1
REMARK SMILES IDX 18 1 17 2 15 3 16 4 4 6 2 7 1 8 3 9 5 10 6 13 7 14 8 15 9 16
REMARK SMILES IDX 10 17 14 18 11 19 13 20 12 23 19 24 20 25 21 26 22 27 23 28
REMARK SMILES IDX 24 30 25 31 26 32 72 33 27 34 71 35 28 36 29 37 30 38 65 39
REMARK SMILES IDX 31 40 70 41 64 42 66 43 32 44 69 45 63 46 62 47 33 49 55 50
REMARK SMILES IDX 40 51 54 52 41 53 44 54 53 55 67 56 42 57 43 58 52 60 68 61
REMARK SMILES IDX 45 62 34 63 35 64 39 65 36 66 38 67 37 68 56 69 57 70 61 71
REMARK SMILES IDX 58 72 60 73 59 74 46 75 47 76 51 77 48 78 50 79 49 80
REMARK H PARENT 17 5 5 11 5 12 14 21 14 22 22 29 66 48 44 59
REMARK Flexibility Score: inf
ROOT
ATOM      1  C   UNL     1      -0.553   3.127   2.672  1.00  0.00     0.116 C 
ENDROOT
BRANCH   1   2
ATOM      2  N   UNL     1      -0.969   3.654   1.383  1.00  0.00    -0.351 N 
ATOM      3  C   UNL     1      -1.052   3.030   0.164  1.00  0.00     0.278 C 
ATOM      4  O   UNL     1      -1.464   3.698  -0.789  1.00  0.00    -0.268 OA
ATOM      5  H   UNL     1      -1.231   4.603   1.385  1.00  0.00     0.163 HD
BRANCH   3   6
ATOM      6  C   UNL     1      -0.716   1.512  -0.013  1.00  0.00     0.275 C 
BRANCH   6   7
ATOM      7  C   UNL     1      -1.989   0.625   0.119  1.00  0.00     0.051 C 
ATOM      8  C   UNL     1      -3.187   1.267   0.830  1.00  0.00     0.014 C 
ATOM      9  C   UNL     1      -2.449   0.025  -1.214  1.00  0.00     0.014 C 
ENDBRANCH   6   7
BRANCH   6  10
ATOM     10  N   UNL     1       0.467   1.202   0.833  1.00  0.00    -0.333 N 
ATOM     11  H   UNL     1       0.302   1.653   1.733  1.00  0.00     0.347 HD
ATOM     12  H   UNL     1       1.240   1.530   0.253  1.00  0.00     0.347 HD
BRANCH  10  13
ATOM     13  C   UNL     1       0.865  -0.178   1.129  1.00  0.00     0.185 C 
ATOM     14  C   UNL     1       2.388  -0.258   0.907  1.00  0.00     0.075 C 
BRANCH  13  15
ATOM     15  C   UNL     1       0.596  -0.551   2.625  1.00  0.00     0.129 C 
BRANCH  15  16
ATOM     16  C   UNL     1      -0.875  -0.796   3.004  1.00  0.00     0.188 C 
ATOM     17  C   UNL     1      -1.150  -0.764   4.511  1.00  0.00     0.065 C 
ATOM     18  N   UNL     1      -1.354  -2.083   2.476  1.00  0.00    -0.344 N 
ATOM     19  C   UNL     1      -2.665  -0.825   4.739  1.00  0.00     0.012 C 
ATOM     20  C   UNL     1      -2.807  -2.204   2.606  1.00  0.00     0.260 C 
ATOM     21  H   UNL     1      -0.910  -2.841   2.995  1.00  0.00     0.346 HD
ATOM     22  H   UNL     1      -1.114  -2.135   1.486  1.00  0.00     0.346 HD
ATOM     23  C   UNL     1      -3.282  -2.040   4.048  1.00  0.00     0.062 C 
ENDBRANCH  15  16
ENDBRANCH  13  15
ENDBRANCH  10  13
ENDBRANCH   6  10
ENDBRANCH   3   6
ENDBRANCH   1   2
BRANCH   1  24
ATOM     24  C   UNL     1       0.863   3.575   3.042  1.00  0.00     0.023 C 
BRANCH  24  25
ATOM     25  C   UNL     1       0.903   4.948   3.712  1.00  0.00     0.023 C 
BRANCH  25  26
ATOM     26  C   UNL     1       0.168   5.022   5.046  1.00  0.00     0.116 C 
BRANCH  26  27
ATOM     27  N   UNL     1       0.727   4.145   6.065  1.00  0.00    -0.352 N 
ATOM     28  C   UNL     1       0.909   4.399   7.405  1.00  0.00     0.251 C 
ATOM     29  H   UNL     1       1.013   3.255   5.755  1.00  0.00     0.163 HD
ATOM     30  O   UNL     1       1.500   3.614   8.119  1.00  0.00    -0.269 OA
BRANCH  28  31
ATOM     31  C   UNL     1       0.404   5.678   7.956  1.00  0.00     0.039 A 
ATOM     32  C   UNL     1       1.275   6.478   8.698  1.00  0.00     0.014 A 
ATOM     33  C   UNL     1      -0.898   6.107   7.683  1.00  0.00     0.014 A 
ATOM     34  C   UNL     1       0.860   7.747   9.102  1.00  0.00     0.010 A 
ATOM     35  C   UNL     1      -1.279   7.402   8.017  1.00  0.00     0.010 A 
ATOM     36  C   UNL     1      -0.403   8.236   8.726  1.00  0.00    -0.014 A 
BRANCH  36  37
ATOM     37  C   UNL     1      -0.803   9.629   9.045  1.00  0.00     0.031 A 
ATOM     38  C   UNL     1      -1.967   9.901   9.955  1.00  0.00     0.074 A 
ATOM     39  C   UNL     1      -0.146  10.654   8.467  1.00  0.00     0.049 A 
ATOM     40  N   UNL     1      -2.454  11.051  10.348  1.00  0.00    -0.248 NA
ATOM     41  C   UNL     1      -2.697   8.732  10.470  1.00  0.00     0.031 C 
ATOM     42  C   UNL     1       0.961  10.524   7.516  1.00  0.00     0.029 A 
ATOM     43  N   UNL     1      -0.314  12.010   8.597  1.00  0.00    -0.354 N 
ATOM     44  C   UNL     1      -3.551  10.744  11.144  1.00  0.00     0.074 A 
ATOM     45  C   UNL     1      -3.691   9.305  11.132  1.00  0.00     0.031 C 
ATOM     46  C   UNL     1       1.398  11.749   7.181  1.00  0.00     0.029 A 
ATOM     47  C   UNL     1       0.581  12.748   7.861  1.00  0.00     0.049 A 
ATOM     48  H   UNL     1      -1.009  12.415   9.164  1.00  0.00     0.167 HD
ATOM     49  C   UNL     1      -4.356  11.582  11.839  1.00  0.00     0.031 A 
ATOM     50  C   UNL     1       0.732  14.081   7.749  1.00  0.00     0.031 A 
ATOM     51  C   UNL     1      -4.214  13.014  11.853  1.00  0.00     0.049 A 
ATOM     52  C   UNL     1      -0.170  14.990   8.534  1.00  0.00     0.074 A 
ATOM     53  C   UNL     1      -4.938  13.945  12.579  1.00  0.00     0.029 A 
ATOM     54  N   UNL     1      -3.292  13.723  11.100  1.00  0.00    -0.354 N 
ATOM     55  N   UNL     1      -1.145  14.680   9.354  1.00  0.00    -0.248 NA
ATOM     56  C   UNL     1       0.062  16.434   8.389  1.00  0.00     0.031 C 
ATOM     57  C   UNL     1      -4.490  15.221  12.221  1.00  0.00     0.029 A 
ATOM     58  C   UNL     1      -3.446  15.082  11.320  1.00  0.00     0.049 A 
ATOM     59  H   UNL     1      -2.625  13.321  10.498  1.00  0.00     0.167 HD
ATOM     60  C   UNL     1      -1.629  15.888   9.839  1.00  0.00     0.074 A 
ATOM     61  C   UNL     1      -0.824  16.933   9.240  1.00  0.00     0.031 C 
ATOM     62  C   UNL     1      -2.649  16.112  10.705  1.00  0.00     0.031 A 
BRANCH  49  63
ATOM     63  C   UNL     1      -5.472  10.963  12.636  1.00  0.00    -0.014 A 
ATOM     64  C   UNL     1      -5.210  10.190  13.779  1.00  0.00     0.009 A 
ATOM     65  C   UNL     1      -6.805  11.176  12.253  1.00  0.00     0.009 A 
ATOM     66  C   UNL     1      -6.258   9.609  14.497  1.00  0.00     0.001 A 
ATOM     67  C   UNL     1      -7.852  10.620  12.990  1.00  0.00     0.001 A 
ATOM     68  C   UNL     1      -7.577   9.828  14.104  1.00  0.00     0.000 A 
ENDBRANCH  49  63
BRANCH  50  69
ATOM     69  C   UNL     1       1.800  14.635   6.876  1.00  0.00    -0.014 A 
ATOM     70  C   UNL     1       2.927  15.257   7.436  1.00  0.00     0.009 A 
ATOM     71  C   UNL     1       1.700  14.542   5.479  1.00  0.00     0.009 A 
ATOM     72  C   UNL     1       3.920  15.794   6.614  1.00  0.00     0.001 A 
ATOM     73  C   UNL     1       2.709  15.054   4.661  1.00  0.00     0.001 A 
ATOM     74  C   UNL     1       3.813  15.688   5.228  1.00  0.00     0.000 A 
ENDBRANCH  50  69
BRANCH  62  75
ATOM     75  C   UNL     1      -2.933  17.542  11.069  1.00  0.00    -0.014 A 
ATOM     76  C   UNL     1      -3.501  18.432  10.143  1.00  0.00     0.009 A 
ATOM     77  C   UNL     1      -2.647  18.000  12.364  1.00  0.00     0.009 A 
ATOM     78  C   UNL     1      -3.736  19.763  10.495  1.00  0.00     0.001 A 
ATOM     79  C   UNL     1      -2.913  19.322  12.724  1.00  0.00     0.001 A 
ATOM     80  C   UNL     1      -3.446  20.205  11.786  1.00  0.00     0.000 A 
ENDBRANCH  62  75
ENDBRANCH  36  37
ENDBRANCH  28  31
ENDBRANCH  26  27
ENDBRANCH  25  26
ENDBRANCH  24  25
ENDBRANCH   1  24
TORSDOF 16
