REMARK SMILES CCOC(=O)c1c(NC(=O)[C@@H]2[C@@H](C(=O)NCCCCNC(=O)c3ccc(-c4c5nc(c(-c6ccccc6)c6ccc([nH]6)c(-c6ccccc6)c6nc(c(-c7ccccc7)c7ccc4[nH]7)C=C6)C=C5)cc3)[C@@H]3C=C[C@H]2CC3)sc2c1CCC2
REMARK SMILES IDX 16 1 15 2 13 3 14 4 12 6 11 7 74 8 71 9 73 10 75 11 72 12
REMARK SMILES IDX 76 13 9 14 8 15 10 17 7 18 6 19 79 20 77 21 78 22 80 23
REMARK SMILES IDX 82 24 81 25 4 26 5 27 3 28 2 29 1 30 17 31 18 32 19 33 20 34
REMARK SMILES IDX 21 35 22 37 23 38 24 39 70 40 25 41 69 42 26 43 27 44 28 45
REMARK SMILES IDX 63 46 29 47 68 48 62 49 64 50 30 51 67 52 61 53 60 54 31 56
REMARK SMILES IDX 53 57 38 58 52 59 39 60 42 61 51 62 65 63 40 64 41 65 50 67
REMARK SMILES IDX 66 68 43 69 32 70 33 71 37 72 34 73 36 74 35 75 54 76 55 77
REMARK SMILES IDX 59 78 56 79 58 80 57 81 44 82 45 83 49 84 46 85 48 86 47 87
REMARK H PARENT 15 5 8 16 20 36 64 55 42 66
REMARK Flexibility Score: inf
ROOT
ATOM      1  C   UNL     1       8.636  -3.484   6.318  1.00  0.00     0.116 C 
ENDROOT
BRANCH   1   2
ATOM      2  N   UNL     1       8.988  -4.192   5.095  1.00  0.00    -0.356 N 
ATOM      3  C   UNL     1       8.348  -4.486   3.928  1.00  0.00     0.224 C 
ATOM      4  O   UNL     1       9.101  -4.854   3.014  1.00  0.00    -0.275 OA
ATOM      5  H   UNL     1       9.908  -4.543   5.116  1.00  0.00     0.163 HD
BRANCH   3   6
ATOM      6  C   UNL     1       6.821  -4.536   3.675  1.00  0.00     0.098 C 
ATOM      7  C   UNL     1       5.977  -3.331   4.113  1.00  0.00     0.099 C 
ATOM      8  C   UNL     1       4.889  -3.791   5.130  1.00  0.00     0.025 C 
ATOM      9  C   UNL     1       6.218  -5.856   4.257  1.00  0.00     0.025 C 
ATOM     10  C   UNL     1       4.027  -4.854   4.515  1.00  0.00    -0.027 C 
ATOM     11  C   UNL     1       5.525  -4.603   6.315  1.00  0.00     0.009 C 
ATOM     12  C   UNL     1       4.721  -5.934   4.108  1.00  0.00    -0.027 C 
ATOM     13  C   UNL     1       6.304  -5.849   5.774  1.00  0.00     0.009 C 
BRANCH   7  14
ATOM     14  C   UNL     1       5.561  -2.349   2.977  1.00  0.00     0.229 C 
ATOM     15  N   UNL     1       4.654  -2.467   1.970  1.00  0.00    -0.317 N 
ATOM     16  H   UNL     1       4.606  -1.664   1.402  1.00  0.00     0.170 HD
ATOM     17  O   UNL     1       6.104  -1.225   3.018  1.00  0.00    -0.274 OA
BRANCH  15  18
ATOM     18  C   UNL     1       3.789  -3.458   1.568  1.00  0.00     0.110 A 
ATOM     19  C   UNL     1       2.510  -3.338   1.009  1.00  0.00     0.098 A 
ATOM     20  C   UNL     1       1.838  -4.576   1.234  1.00  0.00    -0.017 A 
ATOM     21  S   UNL     1       4.315  -5.066   1.313  1.00  0.00    -0.122 S 
ATOM     22  C   UNL     1       2.730  -5.564   1.553  1.00  0.00     0.011 A 
ATOM     23  C   UNL     1       0.462  -5.134   1.194  1.00  0.00     0.038 C 
ATOM     24  C   UNL     1       2.126  -6.853   1.954  1.00  0.00     0.047 C 
ATOM     25  C   UNL     1       0.619  -6.470   1.997  1.00  0.00     0.010 C 
BRANCH  19  26
ATOM     26  C   UNL     1       2.033  -2.104   0.413  1.00  0.00     0.341 C 
ATOM     27  O   UNL     1       2.815  -1.260  -0.014  1.00  0.00    -0.246 OA
BRANCH  26  28
ATOM     28  O   UNL     1       0.679  -2.027   0.303  1.00  0.00    -0.462 OA
BRANCH  28  29
ATOM     29  C   UNL     1       0.181  -1.002  -0.575  1.00  0.00     0.230 C 
ATOM     30  C   UNL     1       0.451   0.418  -0.100  1.00  0.00     0.049 C 
ENDBRANCH  28  29
ENDBRANCH  26  28
ENDBRANCH  19  26
ENDBRANCH  15  18
ENDBRANCH   7  14
ENDBRANCH   3   6
ENDBRANCH   1   2
BRANCH   1  31
ATOM     31  C   UNL     1       8.623  -4.310   7.619  1.00  0.00     0.023 C 
BRANCH  31  32
ATOM     32  C   UNL     1       9.969  -4.713   8.207  1.00  0.00     0.023 C 
BRANCH  32  33
ATOM     33  C   UNL     1      10.769  -3.527   8.701  1.00  0.00     0.116 C 
BRANCH  33  34
ATOM     34  N   UNL     1      10.020  -2.713   9.661  1.00  0.00    -0.352 N 
ATOM     35  C   UNL     1      10.315  -1.439  10.094  1.00  0.00     0.251 C 
ATOM     36  H   UNL     1       9.211  -3.125  10.041  1.00  0.00     0.163 HD
ATOM     37  O   UNL     1       9.820  -0.965  11.107  1.00  0.00    -0.269 OA
BRANCH  35  38
ATOM     38  C   UNL     1      11.247  -0.658   9.275  1.00  0.00     0.039 A 
ATOM     39  C   UNL     1      12.410  -0.120   9.822  1.00  0.00     0.014 A 
ATOM     40  C   UNL     1      10.990  -0.611   7.906  1.00  0.00     0.014 A 
ATOM     41  C   UNL     1      13.366   0.391   8.953  1.00  0.00     0.010 A 
ATOM     42  C   UNL     1      11.996  -0.254   7.047  1.00  0.00     0.010 A 
ATOM     43  C   UNL     1      13.165   0.289   7.564  1.00  0.00    -0.014 A 
BRANCH  43  44
ATOM     44  C   UNL     1      14.230   0.643   6.639  1.00  0.00     0.031 A 
ATOM     45  C   UNL     1      15.525  -0.037   6.895  1.00  0.00     0.074 A 
ATOM     46  C   UNL     1      14.037   1.393   5.535  1.00  0.00     0.049 A 
ATOM     47  N   UNL     1      16.577   0.480   7.433  1.00  0.00    -0.248 NA
ATOM     48  C   UNL     1      15.623  -1.488   6.671  1.00  0.00     0.031 C 
ATOM     49  C   UNL     1      12.780   1.878   4.954  1.00  0.00     0.029 A 
ATOM     50  N   UNL     1      14.962   1.813   4.632  1.00  0.00    -0.354 N 
ATOM     51  C   UNL     1      17.548  -0.514   7.423  1.00  0.00     0.074 A 
ATOM     52  C   UNL     1      16.856  -1.742   7.119  1.00  0.00     0.031 C 
ATOM     53  C   UNL     1      13.002   2.322   3.696  1.00  0.00     0.029 A 
ATOM     54  C   UNL     1      14.432   2.331   3.458  1.00  0.00     0.049 A 
ATOM     55  H   UNL     1      15.930   1.754   4.798  1.00  0.00     0.167 HD
ATOM     56  C   UNL     1      18.874  -0.195   7.420  1.00  0.00     0.031 A 
ATOM     57  C   UNL     1      15.129   2.734   2.368  1.00  0.00     0.031 A 
ATOM     58  C   UNL     1      19.075   1.200   7.733  1.00  0.00     0.049 A 
ATOM     59  C   UNL     1      16.515   3.005   2.812  1.00  0.00     0.074 A 
ATOM     60  C   UNL     1      18.780   2.011   8.810  1.00  0.00     0.029 A 
ATOM     61  N   UNL     1      19.285   2.046   6.668  1.00  0.00    -0.354 N 
ATOM     62  N   UNL     1      16.828   3.983   3.612  1.00  0.00    -0.248 NA
ATOM     63  C   UNL     1      17.481   1.921   2.741  1.00  0.00     0.031 C 
ATOM     64  C   UNL     1      18.350   3.243   8.231  1.00  0.00     0.029 A 
ATOM     65  C   UNL     1      18.489   3.147   6.845  1.00  0.00     0.049 A 
ATOM     66  H   UNL     1      19.898   1.888   5.914  1.00  0.00     0.167 HD
ATOM     67  C   UNL     1      17.771   3.442   4.475  1.00  0.00     0.074 A 
ATOM     68  C   UNL     1      18.212   2.208   3.823  1.00  0.00     0.031 C 
ATOM     69  C   UNL     1      17.890   3.893   5.759  1.00  0.00     0.031 A 
BRANCH  56  70
ATOM     70  C   UNL     1      19.939  -1.001   6.712  1.00  0.00    -0.014 A 
ATOM     71  C   UNL     1      21.264  -0.525   6.742  1.00  0.00     0.009 A 
ATOM     72  C   UNL     1      19.660  -2.026   5.791  1.00  0.00     0.009 A 
ATOM     73  C   UNL     1      22.225  -0.976   5.829  1.00  0.00     0.001 A 
ATOM     74  C   UNL     1      20.628  -2.509   4.905  1.00  0.00     0.001 A 
ATOM     75  C   UNL     1      21.901  -1.959   4.901  1.00  0.00     0.000 A 
ENDBRANCH  56  70
BRANCH  57  76
ATOM     76  C   UNL     1      14.761   2.665   0.940  1.00  0.00    -0.014 A 
ATOM     77  C   UNL     1      15.460   3.421  -0.015  1.00  0.00     0.009 A 
ATOM     78  C   UNL     1      13.926   1.633   0.477  1.00  0.00     0.009 A 
ATOM     79  C   UNL     1      15.366   3.120  -1.381  1.00  0.00     0.001 A 
ATOM     80  C   UNL     1      13.832   1.333  -0.886  1.00  0.00     0.001 A 
ATOM     81  C   UNL     1      14.567   2.064  -1.813  1.00  0.00     0.000 A 
ENDBRANCH  57  76
BRANCH  69  82
ATOM     82  C   UNL     1      17.142   5.149   6.141  1.00  0.00    -0.014 A 
ATOM     83  C   UNL     1      15.741   5.266   6.085  1.00  0.00     0.009 A 
ATOM     84  C   UNL     1      17.870   6.198   6.720  1.00  0.00     0.009 A 
ATOM     85  C   UNL     1      15.096   6.411   6.568  1.00  0.00     0.001 A 
ATOM     86  C   UNL     1      17.226   7.330   7.223  1.00  0.00     0.001 A 
ATOM     87  C   UNL     1      15.840   7.440   7.142  1.00  0.00     0.000 A 
ENDBRANCH  69  82
ENDBRANCH  43  44
ENDBRANCH  35  38
ENDBRANCH  33  34
ENDBRANCH  32  33
ENDBRANCH  31  32
ENDBRANCH   1  31
TORSDOF 16
