REMARK SMILES O=C(Cc1ccccc1Nc1c(Cl)cccc1C(F)(F)F)NCCCCNC(=O)c1ccc(-c2c3nc(c(-c4ccccc4)c4ccc([nH]4)c(-c4ccccc4)c4nc(c(-c5ccccc5)c5ccc2[nH]5)C=C4)C=C3)cc1
REMARK SMILES IDX 23 1 22 2 1 3 2 4 3 6 4 7 5 8 9 9 6 10 8 11 7 12 10 13 11 15
REMARK SMILES IDX 12 16 17 17 13 18 14 19 16 20 15 21 18 22 19 23 20 24 21 25
REMARK SMILES IDX 24 26 25 27 26 28 27 29 28 30 29 32 30 33 31 34 77 35 32 36
REMARK SMILES IDX 76 37 33 38 34 39 35 40 70 41 36 42 75 43 69 44 71 45 37 46
REMARK SMILES IDX 74 47 68 48 67 49 38 51 60 52 45 53 59 54 46 55 49 56 58 57
REMARK SMILES IDX 72 58 47 59 48 60 57 62 73 63 50 64 39 65 40 66 44 67 41 68
REMARK SMILES IDX 43 69 42 70 61 71 62 72 66 73 63 74 65 75 64 76 51 77 52 78
REMARK SMILES IDX 56 79 53 80 55 81 54 82
REMARK H PARENT 22 5 10 14 27 31 71 50 49 61
REMARK Flexibility Score: inf
ROOT
ATOM      1  C   UNL     1       1.963  -1.675   1.637  1.00  0.00     0.116 C 
ENDROOT
BRANCH   1   2
ATOM      2  N   UNL     1       2.747  -0.870   0.722  1.00  0.00    -0.356 N 
ATOM      3  O   UNL     1       1.023   0.405  -0.119  1.00  0.00    -0.275 OA
ATOM      4  C   UNL     1       2.219   0.137  -0.063  1.00  0.00     0.224 C 
ATOM      5  H   UNL     1       3.713  -1.050   0.656  1.00  0.00     0.163 HD
BRANCH   4   6
ATOM      6  C   UNL     1       3.268   0.907  -0.858  1.00  0.00     0.137 C 
BRANCH   6   7
ATOM      7  C   UNL     1       3.918   1.993  -0.024  1.00  0.00    -0.015 A 
ATOM      8  C   UNL     1       4.925   1.615   0.890  1.00  0.00     0.006 A 
ATOM      9  C   UNL     1       3.538   3.349  -0.104  1.00  0.00     0.042 A 
ATOM     10  C   UNL     1       5.508   2.542   1.749  1.00  0.00     0.000 A 
ATOM     11  C   UNL     1       4.127   4.262   0.787  1.00  0.00     0.026 A 
ATOM     12  C   UNL     1       5.096   3.865   1.708  1.00  0.00     0.002 A 
BRANCH   9  13
ATOM     13  N   UNL     1       2.640   3.795  -1.098  1.00  0.00    -0.354 N 
ATOM     14  H   UNL     1       2.056   3.096  -1.473  1.00  0.00     0.167 HD
BRANCH  13  15
ATOM     15  C   UNL     1       2.447   5.089  -1.641  1.00  0.00     0.070 A 
ATOM     16  C   UNL     1       1.127   5.598  -1.712  1.00  0.00     0.065 A 
ATOM     17  C   UNL     1       3.503   5.939  -2.038  1.00  0.00     0.080 A 
ATOM     18  Cl  UNL     1      -0.228   4.596  -1.303  1.00  0.00    -0.082 Cl
ATOM     19  C   UNL     1       0.861   6.914  -2.099  1.00  0.00     0.023 A 
ATOM     20  C   UNL     1       3.214   7.277  -2.400  1.00  0.00     0.015 A 
ATOM     21  C   UNL     1       1.910   7.762  -2.424  1.00  0.00     0.002 A 
BRANCH  17  22
ATOM     22  C   UNL     1       4.950   5.508  -2.148  1.00  0.00     0.418 C 
ATOM     23  F   UNL     1       5.577   6.119  -3.204  1.00  0.00    -0.166 F 
ATOM     24  F   UNL     1       5.689   5.865  -1.059  1.00  0.00    -0.166 F 
ATOM     25  F   UNL     1       5.161   4.181  -2.352  1.00  0.00    -0.166 F 
ENDBRANCH  17  22
ENDBRANCH  13  15
ENDBRANCH   9  13
ENDBRANCH   6   7
ENDBRANCH   4   6
ENDBRANCH   1   2
BRANCH   1  26
ATOM     26  C   UNL     1       2.326  -3.159   1.551  1.00  0.00     0.023 C 
BRANCH  26  27
ATOM     27  C   UNL     1       3.807  -3.494   1.766  1.00  0.00     0.023 C 
BRANCH  27  28
ATOM     28  C   UNL     1       4.400  -3.052   3.101  1.00  0.00     0.116 C 
BRANCH  28  29
ATOM     29  N   UNL     1       3.839  -3.774   4.231  1.00  0.00    -0.352 N 
ATOM     30  C   UNL     1       4.468  -4.498   5.213  1.00  0.00     0.251 C 
ATOM     31  H   UNL     1       2.857  -3.739   4.303  1.00  0.00     0.163 HD
ATOM     32  O   UNL     1       3.798  -5.172   5.998  1.00  0.00    -0.269 OA
BRANCH  30  33
ATOM     33  C   UNL     1       5.944  -4.504   5.329  1.00  0.00     0.039 A 
ATOM     34  C   UNL     1       6.595  -5.717   5.578  1.00  0.00     0.014 A 
ATOM     35  C   UNL     1       6.691  -3.327   5.222  1.00  0.00     0.014 A 
ATOM     36  C   UNL     1       7.990  -5.761   5.651  1.00  0.00     0.010 A 
ATOM     37  C   UNL     1       8.085  -3.382   5.227  1.00  0.00     0.010 A 
ATOM     38  C   UNL     1       8.750  -4.600   5.438  1.00  0.00    -0.014 A 
BRANCH  38  39
ATOM     39  C   UNL     1      10.237  -4.645   5.418  1.00  0.00     0.031 A 
ATOM     40  C   UNL     1      11.040  -3.903   6.452  1.00  0.00     0.074 A 
ATOM     41  C   UNL     1      10.871  -5.306   4.429  1.00  0.00     0.049 A 
ATOM     42  N   UNL     1      12.340  -3.776   6.553  1.00  0.00    -0.248 NA
ATOM     43  C   UNL     1      10.284  -3.192   7.494  1.00  0.00     0.031 C 
ATOM     44  C   UNL     1      10.216  -6.040   3.344  1.00  0.00     0.029 A 
ATOM     45  N   UNL     1      12.211  -5.460   4.172  1.00  0.00    -0.354 N 
ATOM     46  C   UNL     1      12.556  -2.963   7.658  1.00  0.00     0.074 A 
ATOM     47  C   UNL     1      11.253  -2.586   8.165  1.00  0.00     0.031 C 
ATOM     48  C   UNL     1      11.155  -6.582   2.552  1.00  0.00     0.029 A 
ATOM     49  C   UNL     1      12.474  -6.202   3.046  1.00  0.00     0.049 A 
ATOM     50  H   UNL     1      12.916  -5.074   4.740  1.00  0.00     0.167 HD
ATOM     51  C   UNL     1      13.729  -2.577   8.215  1.00  0.00     0.031 A 
ATOM     52  C   UNL     1      13.644  -6.534   2.468  1.00  0.00     0.031 A 
ATOM     53  C   UNL     1      15.027  -2.951   7.718  1.00  0.00     0.049 A 
ATOM     54  C   UNL     1      14.933  -6.075   3.091  1.00  0.00     0.074 A 
ATOM     55  C   UNL     1      16.272  -2.648   8.243  1.00  0.00     0.029 A 
ATOM     56  N   UNL     1      15.249  -3.708   6.578  1.00  0.00    -0.354 N 
ATOM     57  N   UNL     1      15.119  -5.357   4.171  1.00  0.00    -0.248 NA
ATOM     58  C   UNL     1      16.175  -6.484   2.418  1.00  0.00     0.031 C 
ATOM     59  C   UNL     1      17.248  -3.178   7.393  1.00  0.00     0.029 A 
ATOM     60  C   UNL     1      16.610  -3.861   6.370  1.00  0.00     0.049 A 
ATOM     61  H   UNL     1      14.543  -4.082   6.002  1.00  0.00     0.167 HD
ATOM     62  C   UNL     1      16.495  -5.251   4.323  1.00  0.00     0.074 A 
ATOM     63  C   UNL     1      17.097  -5.992   3.234  1.00  0.00     0.031 C 
ATOM     64  C   UNL     1      17.198  -4.598   5.282  1.00  0.00     0.031 A 
BRANCH  51  65
ATOM     65  C   UNL     1      13.660  -1.692   9.429  1.00  0.00    -0.014 A 
ATOM     66  C   UNL     1      13.201  -2.183  10.662  1.00  0.00     0.009 A 
ATOM     67  C   UNL     1      14.091  -0.358   9.349  1.00  0.00     0.009 A 
ATOM     68  C   UNL     1      13.138  -1.346  11.779  1.00  0.00     0.001 A 
ATOM     69  C   UNL     1      14.055   0.468  10.474  1.00  0.00     0.001 A 
ATOM     70  C   UNL     1      13.569  -0.024  11.685  1.00  0.00     0.000 A 
ENDBRANCH  51  65
BRANCH  52  71
ATOM     71  C   UNL     1      13.654  -7.354   1.228  1.00  0.00    -0.014 A 
ATOM     72  C   UNL     1      14.102  -8.683   1.256  1.00  0.00     0.009 A 
ATOM     73  C   UNL     1      13.219  -6.809   0.009  1.00  0.00     0.009 A 
ATOM     74  C   UNL     1      14.138  -9.442   0.084  1.00  0.00     0.001 A 
ATOM     75  C   UNL     1      13.228  -7.580  -1.155  1.00  0.00     0.001 A 
ATOM     76  C   UNL     1      13.697  -8.892  -1.119  1.00  0.00     0.000 A 
ENDBRANCH  52  71
BRANCH  64  77
ATOM     77  C   UNL     1      18.697  -4.685   5.215  1.00  0.00    -0.014 A 
ATOM     78  C   UNL     1      19.426  -3.999   4.232  1.00  0.00     0.009 A 
ATOM     79  C   UNL     1      19.392  -5.435   6.178  1.00  0.00     0.009 A 
ATOM     80  C   UNL     1      20.819  -4.090   4.194  1.00  0.00     0.001 A 
ATOM     81  C   UNL     1      20.786  -5.500   6.154  1.00  0.00     0.001 A 
ATOM     82  C   UNL     1      21.497  -4.836   5.157  1.00  0.00     0.000 A 
ENDBRANCH  64  77
ENDBRANCH  38  39
ENDBRANCH  30  33
ENDBRANCH  28  29
ENDBRANCH  27  28
ENDBRANCH  26  27
ENDBRANCH   1  26
TORSDOF 15
