REMARK SMILES O=C(/C=C/c1ccc(S(=O)(=O)Nc2ccc3c(c2)OCCO3)cc1)NCCCCNC(=O)c1ccc(-c2c3nc(c(-c4ccccc4)c4ccc([nH]4)c(-c4ccccc4)c4nc(c(-c5ccccc5)c5ccc2[nH]5)C=C4)C=C3)cc1
REMARK SMILES IDX 26 1 25 2 1 3 2 4 3 6 4 7 5 8 6 9 24 10 7 11 23 12 8 13 9 14
REMARK SMILES IDX 10 15 11 16 12 17 13 19 14 20 18 21 15 22 17 23 16 24 19 25
REMARK SMILES IDX 22 26 20 27 21 28 27 29 28 30 29 31 30 32 31 33 32 35 33 36
REMARK SMILES IDX 34 37 80 38 35 39 79 40 36 41 37 42 38 43 73 44 39 45 78 46
REMARK SMILES IDX 72 47 74 48 40 49 77 50 71 51 70 52 41 54 63 55 48 56 62 57
REMARK SMILES IDX 49 58 52 59 61 60 75 61 50 62 51 63 60 65 76 66 53 67 42 68
REMARK SMILES IDX 43 69 47 70 44 71 46 72 45 73 64 74 65 75 69 76 66 77 68 78
REMARK SMILES IDX 67 79 54 80 55 81 59 82 56 83 58 84 57 85
REMARK H PARENT 25 5 12 18 30 34 74 53 52 64
REMARK Flexibility Score: inf
ROOT
ATOM      1  C   UNL     1       2.230  -1.466   1.867  1.00  0.00     0.116 C 
ENDROOT
BRANCH   1   2
ATOM      2  N   UNL     1       2.891  -0.744   0.794  1.00  0.00    -0.353 N 
ATOM      3  O   UNL     1       0.986  -0.474  -0.449  1.00  0.00    -0.270 OA
ATOM      4  C   UNL     1       2.192  -0.306  -0.299  1.00  0.00     0.243 C 
ATOM      5  H   UNL     1       3.858  -0.566   0.853  1.00  0.00     0.163 HD
BRANCH   4   6
ATOM      6  C   UNL     1       2.936   0.468  -1.329  1.00  0.00     0.072 C 
ATOM      7  C   UNL     1       4.263   0.555  -1.525  1.00  0.00     0.014 C 
BRANCH   7   8
ATOM      8  C   UNL     1       4.904   1.341  -2.609  1.00  0.00    -0.025 A 
ATOM      9  C   UNL     1       6.290   1.240  -2.802  1.00  0.00     0.009 A 
ATOM     10  C   UNL     1       4.192   2.204  -3.458  1.00  0.00     0.009 A 
ATOM     11  C   UNL     1       6.947   2.013  -3.775  1.00  0.00     0.023 A 
ATOM     12  C   UNL     1       4.834   2.932  -4.471  1.00  0.00     0.023 A 
ATOM     13  C   UNL     1       6.218   2.876  -4.600  1.00  0.00     0.087 A 
BRANCH  13  14
ATOM     14  S   UNL     1       7.096   3.898  -5.773  1.00  0.00     0.261 S 
ATOM     15  O   UNL     1       8.369   4.241  -5.159  1.00  0.00    -0.201 OA
ATOM     16  O   UNL     1       7.059   3.225  -7.048  1.00  0.00    -0.201 OA
BRANCH  14  17
ATOM     17  N   UNL     1       6.276   5.407  -5.965  1.00  0.00    -0.279 N 
ATOM     18  H   UNL     1       6.236   5.865  -6.836  1.00  0.00     0.180 HD
BRANCH  17  19
ATOM     19  C   UNL     1       5.657   5.960  -4.796  1.00  0.00     0.053 A 
ATOM     20  C   UNL     1       4.277   6.189  -4.852  1.00  0.00     0.031 A 
ATOM     21  C   UNL     1       6.359   6.122  -3.606  1.00  0.00     0.077 A 
ATOM     22  C   UNL     1       3.559   6.355  -3.671  1.00  0.00     0.052 A 
ATOM     23  C   UNL     1       5.637   6.215  -2.425  1.00  0.00     0.163 A 
ATOM     24  C   UNL     1       4.238   6.268  -2.460  1.00  0.00     0.161 A 
ATOM     25  O   UNL     1       6.362   6.104  -1.268  1.00  0.00    -0.486 OA
ATOM     26  O   UNL     1       3.482   6.112  -1.325  1.00  0.00    -0.486 OA
ATOM     27  C   UNL     1       5.549   5.911  -0.104  1.00  0.00     0.271 C 
ATOM     28  C   UNL     1       4.213   5.261  -0.430  1.00  0.00     0.271 C 
ENDBRANCH  17  19
ENDBRANCH  14  17
ENDBRANCH  13  14
ENDBRANCH   7   8
ENDBRANCH   4   6
ENDBRANCH   1   2
BRANCH   1  29
ATOM     29  C   UNL     1       2.485  -2.972   1.803  1.00  0.00     0.023 C 
BRANCH  29  30
ATOM     30  C   UNL     1       3.948  -3.383   1.985  1.00  0.00     0.023 C 
BRANCH  30  31
ATOM     31  C   UNL     1       4.602  -2.921   3.284  1.00  0.00     0.116 C 
BRANCH  31  32
ATOM     32  N   UNL     1       3.981  -3.484   4.472  1.00  0.00    -0.352 N 
ATOM     33  C   UNL     1       4.571  -4.047   5.579  1.00  0.00     0.251 C 
ATOM     34  H   UNL     1       2.997  -3.458   4.486  1.00  0.00     0.163 HD
ATOM     35  O   UNL     1       3.880  -4.584   6.439  1.00  0.00    -0.269 OA
BRANCH  33  36
ATOM     36  C   UNL     1       6.044  -4.040   5.721  1.00  0.00     0.039 A 
ATOM     37  C   UNL     1       6.687  -5.219   6.111  1.00  0.00     0.014 A 
ATOM     38  C   UNL     1       6.791  -2.885   5.475  1.00  0.00     0.014 A 
ATOM     39  C   UNL     1       8.082  -5.259   6.183  1.00  0.00     0.010 A 
ATOM     40  C   UNL     1       8.183  -2.944   5.483  1.00  0.00     0.010 A 
ATOM     41  C   UNL     1       8.843  -4.132   5.833  1.00  0.00    -0.014 A 
BRANCH  41  42
ATOM     42  C   UNL     1      10.328  -4.181   5.812  1.00  0.00     0.031 A 
ATOM     43  C   UNL     1      11.131  -3.333   6.758  1.00  0.00     0.074 A 
ATOM     44  C   UNL     1      10.958  -4.941   4.894  1.00  0.00     0.049 A 
ATOM     45  N   UNL     1      12.431  -3.191   6.840  1.00  0.00    -0.248 NA
ATOM     46  C   UNL     1      10.375  -2.519   7.724  1.00  0.00     0.031 C 
ATOM     47  C   UNL     1      10.300  -5.783   3.893  1.00  0.00     0.029 A 
ATOM     48  N   UNL     1      12.297  -5.119   4.650  1.00  0.00    -0.354 N 
ATOM     49  C   UNL     1      12.646  -2.263   7.851  1.00  0.00     0.074 A 
ATOM     50  C   UNL     1      11.344  -1.842   8.322  1.00  0.00     0.031 C 
ATOM     51  C   UNL     1      11.236  -6.402   3.157  1.00  0.00     0.029 A 
ATOM     52  C   UNL     1      12.557  -5.975   3.607  1.00  0.00     0.049 A 
ATOM     53  H   UNL     1      13.004  -4.675   5.171  1.00  0.00     0.167 HD
ATOM     54  C   UNL     1      13.820  -1.815   8.356  1.00  0.00     0.031 A 
ATOM     55  C   UNL     1      13.726  -6.368   3.067  1.00  0.00     0.031 A 
ATOM     56  C   UNL     1      15.117  -2.237   7.899  1.00  0.00     0.049 A 
ATOM     57  C   UNL     1      15.015  -5.849   3.638  1.00  0.00     0.074 A 
ATOM     58  C   UNL     1      16.363  -1.876   8.383  1.00  0.00     0.029 A 
ATOM     59  N   UNL     1      15.336  -3.116   6.849  1.00  0.00    -0.354 N 
ATOM     60  N   UNL     1      15.201  -5.016   4.633  1.00  0.00    -0.248 NA
ATOM     61  C   UNL     1      16.256  -6.333   3.017  1.00  0.00     0.031 C 
ATOM     62  C   UNL     1      17.336  -2.502   7.598  1.00  0.00     0.029 A 
ATOM     63  C   UNL     1      16.696  -3.293   6.657  1.00  0.00     0.049 A 
ATOM     64  H   UNL     1      14.629  -3.550   6.319  1.00  0.00     0.167 HD
ATOM     65  C   UNL     1      16.578  -4.897   4.774  1.00  0.00     0.074 A 
ATOM     66  C   UNL     1      17.178  -5.753   3.772  1.00  0.00     0.031 C 
ATOM     67  C   UNL     1      17.280  -4.145   5.656  1.00  0.00     0.031 A 
BRANCH  54  68
ATOM     68  C   UNL     1      13.751  -0.803   9.466  1.00  0.00    -0.014 A 
ATOM     69  C   UNL     1      13.317  -1.165  10.751  1.00  0.00     0.009 A 
ATOM     70  C   UNL     1      14.153   0.521   9.232  1.00  0.00     0.009 A 
ATOM     71  C   UNL     1      13.251  -0.212  11.770  1.00  0.00     0.001 A 
ATOM     72  C   UNL     1      14.113   1.465  10.260  1.00  0.00     0.001 A 
ATOM     73  C   UNL     1      13.652   1.101  11.524  1.00  0.00     0.000 A 
ENDBRANCH  54  68
BRANCH  55  74
ATOM     74  C   UNL     1      13.733  -7.317   1.924  1.00  0.00    -0.014 A 
ATOM     75  C   UNL     1      14.154  -8.643   2.104  1.00  0.00     0.009 A 
ATOM     76  C   UNL     1      13.322  -6.901   0.648  1.00  0.00     0.009 A 
ATOM     77  C   UNL     1      14.185  -9.528   1.024  1.00  0.00     0.001 A 
ATOM     78  C   UNL     1      13.329  -7.795  -0.424  1.00  0.00     0.001 A 
ATOM     79  C   UNL     1      13.769  -9.105  -0.237  1.00  0.00     0.000 A 
ENDBRANCH  55  74
BRANCH  67  80
ATOM     80  C   UNL     1      18.779  -4.239   5.597  1.00  0.00    -0.014 A 
ATOM     81  C   UNL     1      19.506  -3.642   4.556  1.00  0.00     0.009 A 
ATOM     82  C   UNL     1      19.473  -4.904   6.620  1.00  0.00     0.009 A 
ATOM     83  C   UNL     1      20.899  -3.735   4.525  1.00  0.00     0.001 A 
ATOM     84  C   UNL     1      20.867  -4.973   6.600  1.00  0.00     0.001 A 
ATOM     85  C   UNL     1      21.578  -4.396   5.549  1.00  0.00     0.000 A 
ENDBRANCH  67  80
ENDBRANCH  41  42
ENDBRANCH  33  36
ENDBRANCH  31  32
ENDBRANCH  30  31
ENDBRANCH  29  30
ENDBRANCH   1  29
TORSDOF 15
