REMARK SMILES CO[C@@H]1C[NH2+][C@@H](O[C@@H]2C[C@@H](C(=O)NCCCCNC(=O)c3ccc(-c4c5nc(c(-c6ccccc6)c6ccc([nH]6)c(-c6ccccc6)c6nc(c(-c7ccccc7)c7ccc4[nH]7)C=C6)C=C5)cc3)N(C(=O)OC(C)(C)C)C2)c2cc(Cl)ccc21
REMARK SMILES IDX 15 1 14 2 13 3 11 4 12 5 10 7 8 8 9 9 77 10 69 11 7 12 6 13
REMARK SMILES IDX 3 14 4 15 84 16 5 17 78 18 83 19 79 22 82 23 80 24 81 25
REMARK SMILES IDX 2 26 1 27 70 28 71 29 72 30 73 31 74 32 75 33 76 34 16 35
REMARK SMILES IDX 17 36 18 37 19 38 20 40 21 41 22 42 68 43 23 44 67 45 24 46
REMARK SMILES IDX 25 47 26 48 61 49 27 50 66 51 60 52 62 53 28 54 65 55 59 56
REMARK SMILES IDX 58 57 29 59 51 60 36 61 50 62 37 63 40 64 49 65 63 66 38 67
REMARK SMILES IDX 39 68 48 70 64 71 41 72 30 73 31 74 35 75 32 76 34 77 33 78
REMARK SMILES IDX 52 79 53 80 57 81 54 82 56 83 55 84 42 85 43 86 47 87 44 88
REMARK SMILES IDX 46 89 45 90
REMARK H PARENT 13 6 5 20 5 21 18 39 62 58 40 69
REMARK Flexibility Score: inf
ROOT
ATOM      1  C   UNL     1       0.492   6.199  -4.583  1.00  0.00     0.023 C 
ENDROOT
BRANCH   1   2
ATOM      2  C   UNL     1       0.028   5.582  -3.261  1.00  0.00     0.116 C 
BRANCH   2   3
ATOM      3  N   UNL     1      -0.564   4.277  -3.490  1.00  0.00    -0.354 N 
ATOM      4  C   UNL     1       0.107   3.201  -4.025  1.00  0.00     0.243 C 
ATOM      5  O   UNL     1      -0.370   2.677  -5.031  1.00  0.00    -0.273 OA
ATOM      6  H   UNL     1      -1.510   4.152  -3.246  1.00  0.00     0.163 HD
BRANCH   4   7
ATOM      7  C   UNL     1       1.269   2.608  -3.206  1.00  0.00     0.180 C 
ATOM      8  C   UNL     1       3.618   2.622  -2.655  1.00  0.00     0.147 C 
ATOM      9  C   UNL     1       2.449   3.545  -2.956  1.00  0.00     0.069 C 
ATOM     10  C   UNL     1       3.338   1.405  -3.538  1.00  0.00     0.156 C 
ATOM     11  N   UNL     1       1.896   1.389  -3.721  1.00  0.00    -0.293 N 
BRANCH   8  12
ATOM     12  O   UNL     1       3.965   2.423  -1.290  1.00  0.00    -0.320 OA
BRANCH  12  13
ATOM     13  C   UNL     1       3.167   2.010  -0.186  1.00  0.00     0.354 C 
ATOM     14  C   UNL     1       0.650   0.456  -0.298  1.00  0.00     0.203 C 
ATOM     15  C   UNL     1       2.058  -0.132  -0.583  1.00  0.00     0.300 C 
ATOM     16  C   UNL     1       0.632   1.932   0.061  1.00  0.00    -0.002 A 
ATOM     17  N   UNL     1       3.186   0.570   0.019  1.00  0.00    -0.315 N 
ATOM     18  C   UNL     1       1.832   2.673   0.095  1.00  0.00     0.046 A 
ATOM     19  C   UNL     1      -0.600   2.592   0.224  1.00  0.00     0.009 A 
ATOM     20  H   UNL     1       4.046   0.200  -0.385  1.00  0.00     0.349 HD
ATOM     21  H   UNL     1       3.124   0.416   1.026  1.00  0.00     0.349 HD
ATOM     22  C   UNL     1       1.772   4.047   0.397  1.00  0.00     0.033 A 
ATOM     23  C   UNL     1      -0.646   3.965   0.461  1.00  0.00     0.021 A 
ATOM     24  C   UNL     1       0.541   4.682   0.566  1.00  0.00     0.041 A 
ATOM     25  Cl  UNL     1       0.488   6.378   0.852  1.00  0.00    -0.084 Cl
BRANCH  14  26
ATOM     26  O   UNL     1      -0.158  -0.342   0.570  1.00  0.00    -0.371 OA
ATOM     27  C   UNL     1       0.383  -0.578   1.857  1.00  0.00     0.196 C 
ENDBRANCH  14  26
ENDBRANCH  12  13
ENDBRANCH   8  12
BRANCH  11  28
ATOM     28  C   UNL     1       1.244   0.205  -3.990  1.00  0.00     0.411 C 
ATOM     29  O   UNL     1       1.828  -0.810  -4.349  1.00  0.00    -0.224 OA
BRANCH  28  30
ATOM     30  O   UNL     1      -0.077   0.281  -3.712  1.00  0.00    -0.444 OA
BRANCH  30  31
ATOM     31  C   UNL     1      -0.968  -0.851  -3.880  1.00  0.00     0.106 C 
ATOM     32  C   UNL     1      -0.974  -1.355  -5.325  1.00  0.00     0.056 C 
ATOM     33  C   UNL     1      -0.641  -1.977  -2.892  1.00  0.00     0.056 C 
ATOM     34  C   UNL     1      -2.360  -0.293  -3.544  1.00  0.00     0.056 C 
ENDBRANCH  30  31
ENDBRANCH  28  30
ENDBRANCH  11  28
ENDBRANCH   4   7
ENDBRANCH   2   3
ENDBRANCH   1   2
BRANCH   1  35
ATOM     35  C   UNL     1      -0.609   6.266  -5.644  1.00  0.00     0.023 C 
BRANCH  35  36
ATOM     36  C   UNL     1      -1.868   6.982  -5.184  1.00  0.00     0.116 C 
BRANCH  36  37
ATOM     37  N   UNL     1      -1.625   8.384  -4.882  1.00  0.00    -0.352 N 
ATOM     38  C   UNL     1      -2.316   9.481  -5.340  1.00  0.00     0.251 C 
ATOM     39  H   UNL     1      -0.873   8.571  -4.274  1.00  0.00     0.163 HD
ATOM     40  O   UNL     1      -1.899  10.616  -5.148  1.00  0.00    -0.269 OA
BRANCH  38  41
ATOM     41  C   UNL     1      -3.554   9.251  -6.107  1.00  0.00     0.039 A 
ATOM     42  C   UNL     1      -4.520   8.370  -5.615  1.00  0.00     0.014 A 
ATOM     43  C   UNL     1      -3.694   9.834  -7.367  1.00  0.00     0.014 A 
ATOM     44  C   UNL     1      -5.530   7.931  -6.458  1.00  0.00     0.010 A 
ATOM     45  C   UNL     1      -4.770   9.463  -8.176  1.00  0.00     0.010 A 
ATOM     46  C   UNL     1      -5.665   8.468  -7.749  1.00  0.00    -0.014 A 
BRANCH  46  47
ATOM     47  C   UNL     1      -6.743   7.967  -8.638  1.00  0.00     0.031 A 
ATOM     48  C   UNL     1      -6.417   7.246  -9.918  1.00  0.00     0.074 A 
ATOM     49  C   UNL     1      -8.025   8.110  -8.252  1.00  0.00     0.049 A 
ATOM     50  N   UNL     1      -7.235   6.729 -10.800  1.00  0.00    -0.248 NA
ATOM     51  C   UNL     1      -4.994   7.081 -10.255  1.00  0.00     0.031 C 
ATOM     52  C   UNL     1      -8.461   8.756  -7.012  1.00  0.00     0.029 A 
ATOM     53  N   UNL     1      -9.192   7.693  -8.839  1.00  0.00    -0.354 N 
ATOM     54  C   UNL     1      -6.430   6.192 -11.797  1.00  0.00     0.074 A 
ATOM     55  C   UNL     1      -5.060   6.479 -11.434  1.00  0.00     0.031 C 
ATOM     56  C   UNL     1      -9.790   8.631  -6.898  1.00  0.00     0.029 A 
ATOM     57  C   UNL     1     -10.310   7.972  -8.092  1.00  0.00     0.049 A 
ATOM     58  H   UNL     1      -9.225   7.239  -9.712  1.00  0.00     0.167 HD
ATOM     59  C   UNL     1      -6.801   5.508 -12.906  1.00  0.00     0.031 A 
ATOM     60  C   UNL     1     -11.613   7.738  -8.338  1.00  0.00     0.031 A 
ATOM     61  C   UNL     1      -8.168   5.224 -13.261  1.00  0.00     0.049 A 
ATOM     62  C   UNL     1     -12.003   7.052  -9.614  1.00  0.00     0.074 A 
ATOM     63  C   UNL     1      -8.642   4.539 -14.366  1.00  0.00     0.029 A 
ATOM     64  N   UNL     1      -9.276   5.605 -12.519  1.00  0.00    -0.354 N 
ATOM     65  N   UNL     1     -11.230   6.561 -10.553  1.00  0.00    -0.248 NA
ATOM     66  C   UNL     1     -13.440   6.890  -9.869  1.00  0.00     0.031 C 
ATOM     67  C   UNL     1     -10.038   4.564 -14.328  1.00  0.00     0.029 A 
ATOM     68  C   UNL     1     -10.434   5.194 -13.159  1.00  0.00     0.049 A 
ATOM     69  H   UNL     1      -9.244   6.094 -11.666  1.00  0.00     0.167 HD
ATOM     70  C   UNL     1     -12.085   6.018 -11.502  1.00  0.00     0.074 A 
ATOM     71  C   UNL     1     -13.434   6.222 -11.016  1.00  0.00     0.031 C 
ATOM     72  C   UNL     1     -11.774   5.406 -12.670  1.00  0.00     0.031 A 
BRANCH  59  73
ATOM     73  C   UNL     1      -5.718   5.022 -13.834  1.00  0.00    -0.014 A 
ATOM     74  C   UNL     1      -5.618   5.554 -15.131  1.00  0.00     0.009 A 
ATOM     75  C   UNL     1      -4.854   3.981 -13.463  1.00  0.00     0.009 A 
ATOM     76  C   UNL     1      -4.687   5.045 -16.039  1.00  0.00     0.001 A 
ATOM     77  C   UNL     1      -3.900   3.496 -14.362  1.00  0.00     0.001 A 
ATOM     78  C   UNL     1      -3.825   4.021 -15.652  1.00  0.00     0.000 A 
ENDBRANCH  59  73
BRANCH  60  79
ATOM     79  C   UNL     1     -12.624   8.151  -7.330  1.00  0.00    -0.014 A 
ATOM     80  C   UNL     1     -12.838   9.511  -7.046  1.00  0.00     0.009 A 
ATOM     81  C   UNL     1     -13.317   7.187  -6.584  1.00  0.00     0.009 A 
ATOM     82  C   UNL     1     -13.692   9.894  -6.010  1.00  0.00     0.001 A 
ATOM     83  C   UNL     1     -14.197   7.575  -5.571  1.00  0.00     0.001 A 
ATOM     84  C   UNL     1     -14.373   8.926  -5.276  1.00  0.00     0.000 A 
ENDBRANCH  60  79
BRANCH  72  85
ATOM     85  C   UNL     1     -12.904   4.893 -13.520  1.00  0.00    -0.014 A 
ATOM     86  C   UNL     1     -13.063   3.510 -13.705  1.00  0.00     0.009 A 
ATOM     87  C   UNL     1     -13.737   5.773 -14.227  1.00  0.00     0.009 A 
ATOM     88  C   UNL     1     -14.017   3.018 -14.597  1.00  0.00     0.001 A 
ATOM     89  C   UNL     1     -14.713   5.277 -15.094  1.00  0.00     0.001 A 
ATOM     90  C   UNL     1     -14.843   3.902 -15.288  1.00  0.00     0.000 A 
ENDBRANCH  72  85
ENDBRANCH  46  47
ENDBRANCH  38  41
ENDBRANCH  36  37
ENDBRANCH  35  36
ENDBRANCH   1  35
TORSDOF 17
