REMARK SMILES CCOc1cc(N2CCOCC2)ccc1[C@H]([NH3+])C(=O)NCCCCNC(=O)c1ccc(-c2c3nc(c(-c4ccccc4)c4ccc([nH]4)c(-c4ccccc4)c4nc(c(-c5ccccc5)c5ccc2[nH]5)C=C4)C=C3)cc1
REMARK SMILES IDX 22 1 21 2 20 3 18 4 19 5 16 7 15 8 4 9 5 10 6 11 14 12 13 13
REMARK SMILES IDX 3 14 2 15 1 16 7 17 8 18 12 19 9 20 11 21 10 22 17 23 23 27
REMARK SMILES IDX 24 28 25 29 26 30 27 32 28 33 29 34 75 35 30 36 74 37 31 38
REMARK SMILES IDX 32 39 33 40 68 41 34 42 73 43 67 44 69 45 35 46 72 47 66 48
REMARK SMILES IDX 65 49 36 51 58 52 43 53 57 54 44 55 47 56 56 57 70 58 45 59
REMARK SMILES IDX 46 60 55 62 71 63 48 64 37 65 38 66 42 67 39 68 41 69 40 70
REMARK SMILES IDX 59 71 60 72 64 73 61 74 63 75 62 76 49 77 50 78 54 79 51 80
REMARK SMILES IDX 53 81 52 82
REMARK H PARENT 20 6 17 24 17 25 17 26 25 31 69 50 47 61
REMARK Flexibility Score: inf
ROOT
ATOM      1  C   UNL     1       6.305   0.149  -0.009  1.00  0.00     0.023 C 
ENDROOT
BRANCH   1   2
ATOM      2  C   UNL     1       5.292   1.200  -0.496  1.00  0.00     0.116 C 
BRANCH   2   3
ATOM      3  N   UNL     1       4.264   0.574  -1.309  1.00  0.00    -0.351 N 
ATOM      4  C   UNL     1       2.947   0.277  -1.180  1.00  0.00     0.283 C 
ATOM      5  O   UNL     1       2.520  -0.387  -2.144  1.00  0.00    -0.268 OA
ATOM      6  H   UNL     1       4.615   0.291  -2.184  1.00  0.00     0.163 HD
BRANCH   4   7
ATOM      7  C   UNL     1       1.941   0.694  -0.061  1.00  0.00     0.306 C 
BRANCH   7   8
ATOM      8  C   UNL     1       2.319   1.696   1.010  1.00  0.00     0.061 A 
ATOM      9  C   UNL     1       2.849   1.378   2.273  1.00  0.00     0.131 A 
ATOM     10  C   UNL     1       3.192   2.392   3.190  1.00  0.00     0.072 A 
ATOM     11  C   UNL     1       2.996   3.748   2.882  1.00  0.00     0.040 A 
ATOM     12  C   UNL     1       2.047   3.048   0.750  1.00  0.00     0.016 A 
ATOM     13  C   UNL     1       2.366   4.046   1.672  1.00  0.00     0.027 A 
BRANCH   9  14
ATOM     14  O   UNL     1       2.888   0.066   2.694  1.00  0.00    -0.493 OA
BRANCH  14  15
ATOM     15  C   UNL     1       4.184  -0.515   2.558  1.00  0.00     0.226 C 
ATOM     16  C   UNL     1       4.054  -1.965   2.113  1.00  0.00     0.049 C 
ENDBRANCH  14  15
ENDBRANCH   9  14
BRANCH  11  17
ATOM     17  N   UNL     1       3.429   4.750   3.734  1.00  0.00    -0.367 N 
ATOM     18  C   UNL     1       2.737   4.976   5.013  1.00  0.00     0.145 C 
ATOM     19  C   UNL     1       4.093   5.949   3.190  1.00  0.00     0.145 C 
ATOM     20  C   UNL     1       1.835   6.224   4.915  1.00  0.00     0.181 C 
ATOM     21  C   UNL     1       3.144   7.158   3.185  1.00  0.00     0.181 C 
ATOM     22  O   UNL     1       2.571   7.384   4.483  1.00  0.00    -0.378 OA
ENDBRANCH  11  17
ENDBRANCH   7   8
BRANCH   7  23
ATOM     23  N   UNL     1       1.234  -0.487   0.485  1.00  0.00    -0.343 N 
ATOM     24  H   UNL     1       1.890  -1.062   1.014  1.00  0.00     0.345 HD
ATOM     25  H   UNL     1       0.844  -1.035  -0.282  1.00  0.00     0.345 HD
ATOM     26  H   UNL     1       0.481  -0.179   1.100  1.00  0.00     0.345 HD
ENDBRANCH   7  23
ENDBRANCH   4   7
ENDBRANCH   2   3
ENDBRANCH   1   2
BRANCH   1  27
ATOM     27  C   UNL     1       7.499  -0.128  -0.916  1.00  0.00     0.023 C 
BRANCH  27  28
ATOM     28  C   UNL     1       8.542   0.980  -0.950  1.00  0.00     0.116 C 
BRANCH  28  29
ATOM     29  N   UNL     1       9.164   1.269   0.339  1.00  0.00    -0.352 N 
ATOM     30  C   UNL     1      10.442   1.732   0.581  1.00  0.00     0.251 C 
ATOM     31  H   UNL     1       8.602   1.116   1.133  1.00  0.00     0.163 HD
ATOM     32  O   UNL     1      10.852   1.893   1.720  1.00  0.00    -0.269 OA
BRANCH  30  33
ATOM     33  C   UNL     1      11.331   1.968  -0.577  1.00  0.00     0.039 A 
ATOM     34  C   UNL     1      12.577   1.340  -0.612  1.00  0.00     0.014 A 
ATOM     35  C   UNL     1      10.871   2.702  -1.671  1.00  0.00     0.014 A 
ATOM     36  C   UNL     1      13.318   1.359  -1.795  1.00  0.00     0.010 A 
ATOM     37  C   UNL     1      11.561   2.635  -2.873  1.00  0.00     0.010 A 
ATOM     38  C   UNL     1      12.787   1.957  -2.950  1.00  0.00    -0.014 A 
BRANCH  38  39
ATOM     39  C   UNL     1      13.488   1.891  -4.256  1.00  0.00     0.031 A 
ATOM     40  C   UNL     1      13.917   3.161  -4.935  1.00  0.00     0.074 A 
ATOM     41  C   UNL     1      13.657   0.703  -4.870  1.00  0.00     0.049 A 
ATOM     42  N   UNL     1      14.442   3.327  -6.121  1.00  0.00    -0.248 NA
ATOM     43  C   UNL     1      13.688   4.416  -4.198  1.00  0.00     0.031 C 
ATOM     44  C   UNL     1      13.238  -0.599  -4.344  1.00  0.00     0.029 A 
ATOM     45  N   UNL     1      14.228   0.401  -6.081  1.00  0.00    -0.354 N 
ATOM     46  C   UNL     1      14.570   4.700  -6.285  1.00  0.00     0.074 A 
ATOM     47  C   UNL     1      14.023   5.324  -5.101  1.00  0.00     0.031 C 
ATOM     48  C   UNL     1      13.608  -1.561  -5.205  1.00  0.00     0.029 A 
ATOM     49  C   UNL     1      14.252  -0.945  -6.359  1.00  0.00     0.049 A 
ATOM     50  H   UNL     1      14.586   1.084  -6.693  1.00  0.00     0.167 HD
ATOM     51  C   UNL     1      15.117   5.383  -7.316  1.00  0.00     0.031 A 
ATOM     52  C   UNL     1      14.746  -1.606  -7.423  1.00  0.00     0.031 A 
ATOM     53  C   UNL     1      15.703   4.764  -8.472  1.00  0.00     0.049 A 
ATOM     54  C   UNL     1      15.383  -0.827  -8.539  1.00  0.00     0.074 A 
ATOM     55  C   UNL     1      16.341   5.365  -9.542  1.00  0.00     0.029 A 
ATOM     56  N   UNL     1      15.734   3.398  -8.699  1.00  0.00    -0.354 N 
ATOM     57  N   UNL     1      15.538   0.469  -8.657  1.00  0.00    -0.248 NA
ATOM     58  C   UNL     1      15.923  -1.606  -9.663  1.00  0.00     0.031 C 
ATOM     59  C   UNL     1      16.737   4.361 -10.432  1.00  0.00     0.029 A 
ATOM     60  C   UNL     1      16.379   3.135  -9.895  1.00  0.00     0.049 A 
ATOM     61  H   UNL     1      15.355   2.716  -8.099  1.00  0.00     0.167 HD
ATOM     62  C   UNL     1      16.216   0.660  -9.854  1.00  0.00     0.074 A 
ATOM     63  C   UNL     1      16.451  -0.653 -10.419  1.00  0.00     0.031 C 
ATOM     64  C   UNL     1      16.609   1.820 -10.433  1.00  0.00     0.031 A 
BRANCH  51  65
ATOM     65  C   UNL     1      15.113   6.882  -7.226  1.00  0.00    -0.014 A 
ATOM     66  C   UNL     1      15.946   7.555  -6.318  1.00  0.00     0.009 A 
ATOM     67  C   UNL     1      14.277   7.632  -8.066  1.00  0.00     0.009 A 
ATOM     68  C   UNL     1      15.913   8.948  -6.226  1.00  0.00     0.001 A 
ATOM     69  C   UNL     1      14.266   9.026  -7.992  1.00  0.00     0.001 A 
ATOM     70  C   UNL     1      15.076   9.682  -7.065  1.00  0.00     0.000 A 
ENDBRANCH  51  65
BRANCH  52  71
ATOM     71  C   UNL     1      14.707  -3.090  -7.463  1.00  0.00    -0.014 A 
ATOM     72  C   UNL     1      15.883  -3.829  -7.263  1.00  0.00     0.009 A 
ATOM     73  C   UNL     1      13.507  -3.775  -7.702  1.00  0.00     0.009 A 
ATOM     74  C   UNL     1      15.864  -5.224  -7.323  1.00  0.00     0.001 A 
ATOM     75  C   UNL     1      13.486  -5.172  -7.739  1.00  0.00     0.001 A 
ATOM     76  C   UNL     1      14.665  -5.894  -7.558  1.00  0.00     0.000 A 
ENDBRANCH  52  71
BRANCH  64  77
ATOM     77  C   UNL     1      17.367   1.720 -11.724  1.00  0.00    -0.014 A 
ATOM     78  C   UNL     1      16.713   1.420 -12.928  1.00  0.00     0.009 A 
ATOM     79  C   UNL     1      18.745   1.985 -11.740  1.00  0.00     0.009 A 
ATOM     80  C   UNL     1      17.433   1.361 -14.122  1.00  0.00     0.001 A 
ATOM     81  C   UNL     1      19.457   1.948 -12.939  1.00  0.00     0.001 A 
ATOM     82  C   UNL     1      18.802   1.630 -14.127  1.00  0.00     0.000 A 
ENDBRANCH  64  77
ENDBRANCH  38  39
ENDBRANCH  30  33
ENDBRANCH  28  29
ENDBRANCH  27  28
ENDBRANCH   1  27
TORSDOF 16
