REMARK SMILES C[C@@H](C(=O)NCCCCNC(=O)c1ccc(-c2c3nc(c(-c4ccccc4)c4ccc([nH]4)c(-c4ccccc4)c4nc(c(-c5ccccc5)c5ccc2[nH]5)C=C4)C=C3)cc1)c1ccc(C[C@H]2CCC[C@@H]2O)cc1Br
REMARK SMILES IDX 6 1 5 2 3 3 4 4 2 6 1 7 61 8 62 9 73 10 63 11 72 12 74 13
REMARK SMILES IDX 64 14 65 15 66 16 67 17 70 18 68 19 69 20 71 21 7 23 8 24
REMARK SMILES IDX 9 25 10 26 11 27 12 29 13 30 14 31 60 32 15 33 59 34 16 35
REMARK SMILES IDX 17 36 18 37 53 38 19 39 58 40 52 41 54 42 20 43 57 44 51 45
REMARK SMILES IDX 50 46 21 48 43 49 28 50 42 51 29 52 32 53 41 54 55 55 30 56
REMARK SMILES IDX 31 57 40 59 56 60 33 61 22 62 23 63 27 64 24 65 26 66 25 67
REMARK SMILES IDX 44 68 45 69 49 70 46 71 48 72 47 73 34 74 35 75 39 76 36 77
REMARK SMILES IDX 38 78 37 79
REMARK H PARENT 5 5 71 22 10 28 54 47 32 58
REMARK Flexibility Score: inf
ROOT
ATOM      1  C   UNL     1       3.347   1.999  -0.283  1.00  0.00     0.116 C 
ENDROOT
BRANCH   1   2
ATOM      2  N   UNL     1       2.267   2.288  -1.206  1.00  0.00    -0.356 N 
ATOM      3  C   UNL     1       1.013   1.748  -1.282  1.00  0.00     0.227 C 
ATOM      4  O   UNL     1       0.389   1.954  -2.324  1.00  0.00    -0.274 OA
ATOM      5  H   UNL     1       2.467   2.978  -1.880  1.00  0.00     0.163 HD
BRANCH   3   6
ATOM      6  C   UNL     1       0.417   0.987  -0.075  1.00  0.00     0.106 C 
ATOM      7  C   UNL     1       1.077  -0.381   0.064  1.00  0.00     0.023 C 
BRANCH   6   8
ATOM      8  C   UNL     1      -1.121   1.057  -0.064  1.00  0.00    -0.022 A 
ATOM      9  C   UNL     1      -1.653   2.372  -0.057  1.00  0.00     0.006 A 
ATOM     10  C   UNL     1      -2.055   0.006  -0.033  1.00  0.00     0.022 A 
ATOM     11  C   UNL     1      -3.025   2.630  -0.007  1.00  0.00     0.004 A 
ATOM     12  C   UNL     1      -3.433   0.277   0.077  1.00  0.00     0.019 A 
ATOM     13  Br  UNL     1      -1.677  -1.855  -0.158  1.00  0.00    -0.051 Br
ATOM     14  C   UNL     1      -3.930   1.583   0.112  1.00  0.00    -0.047 A 
BRANCH  14  15
ATOM     15  C   UNL     1      -5.409   1.827   0.279  1.00  0.00     0.041 C 
BRANCH  15  16
ATOM     16  C   UNL     1      -5.863   2.320   1.663  1.00  0.00     0.022 C 
ATOM     17  C   UNL     1      -5.337   1.541   2.881  1.00  0.00     0.007 C 
ATOM     18  C   UNL     1      -5.533   3.781   1.978  1.00  0.00     0.117 C 
ATOM     19  C   UNL     1      -5.132   2.579   3.990  1.00  0.00     0.003 C 
ATOM     20  C   UNL     1      -5.771   3.861   3.478  1.00  0.00     0.032 C 
BRANCH  18  21
ATOM     21  O   UNL     1      -6.356   4.680   1.260  1.00  0.00    -0.393 OA
ATOM     22  H   UNL     1      -7.287   4.498   1.461  1.00  0.00     0.210 HD
ENDBRANCH  18  21
ENDBRANCH  15  16
ENDBRANCH  14  15
ENDBRANCH   6   8
ENDBRANCH   3   6
ENDBRANCH   1   2
BRANCH   1  23
ATOM     23  C   UNL     1       4.258   0.907  -0.853  1.00  0.00     0.023 C 
BRANCH  23  24
ATOM     24  C   UNL     1       5.064   1.332  -2.082  1.00  0.00     0.023 C 
BRANCH  24  25
ATOM     25  C   UNL     1       6.076   2.437  -1.826  1.00  0.00     0.116 C 
BRANCH  25  26
ATOM     26  N   UNL     1       7.098   2.058  -0.860  1.00  0.00    -0.352 N 
ATOM     27  C   UNL     1       8.439   2.356  -0.886  1.00  0.00     0.251 C 
ATOM     28  H   UNL     1       6.790   1.524  -0.093  1.00  0.00     0.163 HD
ATOM     29  O   UNL     1       9.209   1.876  -0.061  1.00  0.00    -0.269 OA
BRANCH  27  30
ATOM     30  C   UNL     1       8.945   3.236  -1.956  1.00  0.00     0.039 A 
ATOM     31  C   UNL     1       9.992   2.788  -2.766  1.00  0.00     0.014 A 
ATOM     32  C   UNL     1       8.326   4.464  -2.199  1.00  0.00     0.014 A 
ATOM     33  C   UNL     1      10.368   3.542  -3.878  1.00  0.00     0.010 A 
ATOM     34  C   UNL     1       8.659   5.179  -3.342  1.00  0.00     0.010 A 
ATOM     35  C   UNL     1       9.676   4.721  -4.195  1.00  0.00    -0.014 A 
BRANCH  35  36
ATOM     36  C   UNL     1       9.977   5.503  -5.416  1.00  0.00     0.031 A 
ATOM     37  C   UNL     1      10.491   6.907  -5.288  1.00  0.00     0.074 A 
ATOM     38  C   UNL     1       9.663   5.003  -6.626  1.00  0.00     0.049 A 
ATOM     39  N   UNL     1      10.640   7.821  -6.212  1.00  0.00    -0.248 NA
ATOM     40  C   UNL     1      10.847   7.353  -3.932  1.00  0.00     0.031 C 
ATOM     41  C   UNL     1       9.111   3.671  -6.879  1.00  0.00     0.029 A 
ATOM     42  N   UNL     1       9.733   5.578  -7.870  1.00  0.00    -0.354 N 
ATOM     43  C   UNL     1      11.062   8.961  -5.544  1.00  0.00     0.074 A 
ATOM     44  C   UNL     1      11.120   8.633  -4.136  1.00  0.00     0.031 C 
ATOM     45  C   UNL     1       8.891   3.531  -8.197  1.00  0.00     0.029 A 
ATOM     46  C   UNL     1       9.247   4.775  -8.873  1.00  0.00     0.049 A 
ATOM     47  H   UNL     1      10.096   6.479  -8.029  1.00  0.00     0.167 HD
ATOM     48  C   UNL     1      11.379  10.173  -6.057  1.00  0.00     0.031 A 
ATOM     49  C   UNL     1       9.084   5.020 -10.186  1.00  0.00     0.031 A 
ATOM     50  C   UNL     1      11.350  10.489  -7.459  1.00  0.00     0.049 A 
ATOM     51  C   UNL     1       9.475   6.359 -10.741  1.00  0.00     0.074 A 
ATOM     52  C   UNL     1      11.733  11.660  -8.088  1.00  0.00     0.029 A 
ATOM     53  N   UNL     1      10.911   9.624  -8.450  1.00  0.00    -0.354 N 
ATOM     54  N   UNL     1       9.936   7.409 -10.107  1.00  0.00    -0.248 NA
ATOM     55  C   UNL     1       9.330   6.543 -12.192  1.00  0.00     0.031 C 
ATOM     56  C   UNL     1      11.493  11.517  -9.459  1.00  0.00     0.029 A 
ATOM     57  C   UNL     1      10.998  10.242  -9.686  1.00  0.00     0.049 A 
ATOM     58  H   UNL     1      10.587   8.707  -8.298  1.00  0.00     0.167 HD
ATOM     59  C   UNL     1      10.157   8.373 -11.082  1.00  0.00     0.074 A 
ATOM     60  C   UNL     1       9.787   7.779 -12.351  1.00  0.00     0.031 C 
ATOM     61  C   UNL     1      10.627   9.635 -10.938  1.00  0.00     0.031 A 
BRANCH  48  62
ATOM     62  C   UNL     1      11.765  11.249  -5.083  1.00  0.00    -0.014 A 
ATOM     63  C   UNL     1      12.988  11.206  -4.395  1.00  0.00     0.009 A 
ATOM     64  C   UNL     1      10.890  12.320  -4.849  1.00  0.00     0.009 A 
ATOM     65  C   UNL     1      13.305  12.190  -3.457  1.00  0.00     0.001 A 
ATOM     66  C   UNL     1      11.222  13.318  -3.931  1.00  0.00     0.001 A 
ATOM     67  C   UNL     1      12.423  13.245  -3.227  1.00  0.00     0.000 A 
ENDBRANCH  48  62
BRANCH  49  68
ATOM     68  C   UNL     1       8.524   3.962 -11.064  1.00  0.00    -0.014 A 
ATOM     69  C   UNL     1       9.364   3.233 -11.920  1.00  0.00     0.009 A 
ATOM     70  C   UNL     1       7.156   3.652 -11.025  1.00  0.00     0.009 A 
ATOM     71  C   UNL     1       8.841   2.223 -12.730  1.00  0.00     0.001 A 
ATOM     72  C   UNL     1       6.641   2.626 -11.820  1.00  0.00     0.001 A 
ATOM     73  C   UNL     1       7.482   1.916 -12.675  1.00  0.00     0.000 A 
ENDBRANCH  49  68
BRANCH  61  74
ATOM     74  C   UNL     1      10.800  10.452 -12.184  1.00  0.00    -0.014 A 
ATOM     75  C   UNL     1       9.699  11.036 -12.827  1.00  0.00     0.009 A 
ATOM     76  C   UNL     1      12.090  10.690 -12.684  1.00  0.00     0.009 A 
ATOM     77  C   UNL     1       9.886  11.831 -13.960  1.00  0.00     0.001 A 
ATOM     78  C   UNL     1      12.275  11.501 -13.803  1.00  0.00     0.001 A 
ATOM     79  C   UNL     1      11.173  12.067 -14.443  1.00  0.00     0.000 A 
ENDBRANCH  61  74
ENDBRANCH  35  36
ENDBRANCH  27  30
ENDBRANCH  25  26
ENDBRANCH  24  25
ENDBRANCH  23  24
ENDBRANCH   1  23
TORSDOF 15
