REMARK SMILES C[C@@H]1[C@@H](C(=O)NCCCCNC(=O)c2ccc(-c3c4nc(c(-c5ccccc5)c5ccc([nH]5)c(-c5ccccc5)c5nc(c(-c6ccccc6)c6ccc3[nH]6)C=C5)C=C4)cc2)CCN1C(=O)[C@@H](C)OCc1ccccc1
REMARK SMILES IDX 7 1 6 2 4 3 5 4 3 6 1 7 2 8 64 9 62 10 63 11 65 12 66 13
REMARK SMILES IDX 67 14 68 15 69 16 70 17 71 18 72 19 76 20 73 21 75 22 74 23
REMARK SMILES IDX 8 24 9 25 10 26 11 27 12 28 13 30 14 31 15 32 61 33 16 34
REMARK SMILES IDX 60 35 17 36 18 37 19 38 54 39 20 40 59 41 53 42 55 43 21 44
REMARK SMILES IDX 58 45 52 46 51 47 22 49 44 50 29 51 43 52 30 53 33 54 42 55
REMARK SMILES IDX 56 56 31 57 32 58 41 60 57 61 34 62 23 63 24 64 28 65 25 66
REMARK SMILES IDX 27 67 26 68 45 69 46 70 50 71 47 72 49 73 48 74 35 75 36 76
REMARK SMILES IDX 40 77 37 78 39 79 38 80
REMARK H PARENT 6 5 11 29 55 48 33 59
REMARK Flexibility Score: inf
ROOT
ATOM      1  C   UNL     1      -2.624   3.051  -0.704  1.00  0.00     0.116 C 
ENDROOT
BRANCH   1   2
ATOM      2  N   UNL     1      -1.896   2.253  -1.671  1.00  0.00    -0.356 N 
ATOM      3  C   UNL     1      -1.021   1.228  -1.430  1.00  0.00     0.225 C 
ATOM      4  O   UNL     1      -0.559   0.620  -2.391  1.00  0.00    -0.275 OA
ATOM      5  H   UNL     1      -2.049   2.476  -2.617  1.00  0.00     0.163 HD
BRANCH   3   6
ATOM      6  C   UNL     1      -0.644   0.932   0.014  1.00  0.00     0.102 C 
ATOM      7  C   UNL     1       1.251   0.161   1.455  1.00  0.00     0.032 C 
ATOM      8  C   UNL     1       0.483  -0.102   0.149  1.00  0.00     0.094 C 
ATOM      9  N   UNL     1      -0.197  -1.384   0.223  1.00  0.00    -0.337 N 
ATOM     10  C   UNL     1      -1.790   0.285   0.798  1.00  0.00     0.037 C 
ATOM     11  C   UNL     1      -1.590  -1.211   0.595  1.00  0.00     0.121 C 
BRANCH   9  12
ATOM     12  C   UNL     1       0.273  -2.648  -0.061  1.00  0.00     0.251 C 
ATOM     13  O   UNL     1      -0.383  -3.629   0.321  1.00  0.00    -0.272 OA
BRANCH  12  14
ATOM     14  C   UNL     1       1.512  -2.891  -1.005  1.00  0.00     0.204 C 
ATOM     15  C   UNL     1       1.173  -2.457  -2.433  1.00  0.00     0.049 C 
BRANCH  14  16
ATOM     16  O   UNL     1       2.887  -2.810  -0.680  1.00  0.00    -0.364 OA
BRANCH  16  17
ATOM     17  C   UNL     1       3.572  -1.577  -0.539  1.00  0.00     0.196 C 
BRANCH  17  18
ATOM     18  C   UNL     1       3.751  -0.754  -1.791  1.00  0.00    -0.022 A 
ATOM     19  C   UNL     1       4.206  -1.341  -2.977  1.00  0.00     0.006 A 
ATOM     20  C   UNL     1       3.465   0.621  -1.786  1.00  0.00     0.006 A 
ATOM     21  C   UNL     1       4.273  -0.593  -4.154  1.00  0.00     0.000 A 
ATOM     22  C   UNL     1       3.520   1.364  -2.964  1.00  0.00     0.000 A 
ATOM     23  C   UNL     1       3.910   0.753  -4.151  1.00  0.00     0.000 A 
ENDBRANCH  17  18
ENDBRANCH  16  17
ENDBRANCH  14  16
ENDBRANCH  12  14
ENDBRANCH   9  12
ENDBRANCH   3   6
ENDBRANCH   1   2
BRANCH   1  24
ATOM     24  C   UNL     1      -2.875   4.479  -1.170  1.00  0.00     0.023 C 
BRANCH  24  25
ATOM     25  C   UNL     1      -3.712   4.617  -2.440  1.00  0.00     0.023 C 
BRANCH  25  26
ATOM     26  C   UNL     1      -4.987   3.783  -2.482  1.00  0.00     0.116 C 
BRANCH  26  27
ATOM     27  N   UNL     1      -5.886   4.054  -1.370  1.00  0.00    -0.352 N 
ATOM     28  C   UNL     1      -7.203   4.450  -1.380  1.00  0.00     0.251 C 
ATOM     29  H   UNL     1      -5.492   3.936  -0.475  1.00  0.00     0.163 HD
ATOM     30  O   UNL     1      -7.766   4.744  -0.335  1.00  0.00    -0.269 OA
BRANCH  28  31
ATOM     31  C   UNL     1      -7.924   4.556  -2.666  1.00  0.00     0.039 A 
ATOM     32  C   UNL     1      -8.666   5.710  -2.928  1.00  0.00     0.014 A 
ATOM     33  C   UNL     1      -7.846   3.536  -3.616  1.00  0.00     0.014 A 
ATOM     34  C   UNL     1      -9.268   5.874  -4.177  1.00  0.00     0.010 A 
ATOM     35  C   UNL     1      -8.372   3.739  -4.887  1.00  0.00     0.010 A 
ATOM     36  C   UNL     1      -9.091   4.908  -5.180  1.00  0.00    -0.014 A 
BRANCH  36  37
ATOM     37  C   UNL     1      -9.659   5.091  -6.539  1.00  0.00     0.031 A 
ATOM     38  C   UNL     1     -10.693   4.129  -7.056  1.00  0.00     0.074 A 
ATOM     39  C   UNL     1      -9.196   6.075  -7.334  1.00  0.00     0.049 A 
ATOM     40  N   UNL     1     -11.252   4.073  -8.238  1.00  0.00    -0.248 NA
ATOM     41  C   UNL     1     -11.134   3.071  -6.132  1.00  0.00     0.031 C 
ATOM     42  C   UNL     1      -8.166   7.051  -6.969  1.00  0.00     0.029 A 
ATOM     43  N   UNL     1      -9.531   6.413  -8.621  1.00  0.00    -0.354 N 
ATOM     44  C   UNL     1     -12.088   2.965  -8.206  1.00  0.00     0.074 A 
ATOM     45  C   UNL     1     -11.925   2.347  -6.909  1.00  0.00     0.031 C 
ATOM     46  C   UNL     1      -7.976   7.894  -7.997  1.00  0.00     0.029 A 
ATOM     47  C   UNL     1      -8.839   7.496  -9.105  1.00  0.00     0.049 A 
ATOM     48  H   UNL     1     -10.205   5.925  -9.149  1.00  0.00     0.167 HD
ATOM     49  C   UNL     1     -12.934   2.511  -9.161  1.00  0.00     0.031 A 
ATOM     50  C   UNL     1      -8.892   8.100 -10.307  1.00  0.00     0.031 A 
ATOM     51  C   UNL     1     -13.113   3.134 -10.445  1.00  0.00     0.049 A 
ATOM     52  C   UNL     1      -9.839   7.579 -11.351  1.00  0.00     0.074 A 
ATOM     53  C   UNL     1     -13.985   2.783 -11.460  1.00  0.00     0.029 A 
ATOM     54  N   UNL     1     -12.405   4.240 -10.887  1.00  0.00    -0.354 N 
ATOM     55  N   UNL     1     -10.667   6.566 -11.284  1.00  0.00    -0.248 NA
ATOM     56  C   UNL     1      -9.866   8.296 -12.634  1.00  0.00     0.031 C 
ATOM     57  C   UNL     1     -13.774   3.653 -12.535  1.00  0.00     0.029 A 
ATOM     58  C   UNL     1     -12.810   4.577 -12.168  1.00  0.00     0.049 A 
ATOM     59  H   UNL     1     -11.717   4.716 -10.368  1.00  0.00     0.167 HD
ATOM     60  C   UNL     1     -11.338   6.544 -12.499  1.00  0.00     0.074 A 
ATOM     61  C   UNL     1     -10.827   7.651 -13.281  1.00  0.00     0.031 C 
ATOM     62  C   UNL     1     -12.295   5.685 -12.929  1.00  0.00     0.031 A 
BRANCH  49  63
ATOM     63  C   UNL     1     -13.728   1.274  -8.845  1.00  0.00    -0.014 A 
ATOM     64  C   UNL     1     -14.756   1.293  -7.888  1.00  0.00     0.009 A 
ATOM     65  C   UNL     1     -13.455   0.076  -9.523  1.00  0.00     0.009 A 
ATOM     66  C   UNL     1     -15.464   0.129  -7.585  1.00  0.00     0.001 A 
ATOM     67  C   UNL     1     -14.185  -1.080  -9.241  1.00  0.00     0.001 A 
ATOM     68  C   UNL     1     -15.180  -1.056  -8.264  1.00  0.00     0.000 A 
ENDBRANCH  49  63
BRANCH  50  69
ATOM     69  C   UNL     1      -8.041   9.288 -10.581  1.00  0.00    -0.014 A 
ATOM     70  C   UNL     1      -8.617  10.564 -10.680  1.00  0.00     0.009 A 
ATOM     71  C   UNL     1      -6.655   9.154 -10.751  1.00  0.00     0.009 A 
ATOM     72  C   UNL     1      -7.826  11.678 -10.969  1.00  0.00     0.001 A 
ATOM     73  C   UNL     1      -5.862  10.274 -11.013  1.00  0.00     0.001 A 
ATOM     74  C   UNL     1      -6.449  11.533 -11.131  1.00  0.00     0.000 A 
ENDBRANCH  50  69
BRANCH  62  75
ATOM     75  C   UNL     1     -12.885   5.938 -14.287  1.00  0.00    -0.014 A 
ATOM     76  C   UNL     1     -12.161   5.676 -15.460  1.00  0.00     0.009 A 
ATOM     77  C   UNL     1     -14.204   6.407 -14.391  1.00  0.00     0.009 A 
ATOM     78  C   UNL     1     -12.736   5.912 -16.710  1.00  0.00     0.001 A 
ATOM     79  C   UNL     1     -14.786   6.614 -15.642  1.00  0.00     0.001 A 
ATOM     80  C   UNL     1     -14.048   6.376 -16.800  1.00  0.00     0.000 A 
ENDBRANCH  62  75
ENDBRANCH  36  37
ENDBRANCH  28  31
ENDBRANCH  26  27
ENDBRANCH  25  26
ENDBRANCH  24  25
ENDBRANCH   1  24
TORSDOF 16
