REMARK SMILES O=C(CSc1nnc2sc3ccccc3n12)N[C@H](Cc1c[nH]c2ccccc12)C(=O)NCCCCNC(=O)c1ccc(-c2c3nc(c(-c4ccccc4)c4ccc([nH]4)c(-c4ccccc4)c4nc(c(-c5ccccc5)c5ccc2[nH]5)C=C4)C=C3)cc1
REMARK SMILES IDX 32 1 31 2 29 3 30 4 18 6 17 7 1 8 2 9 3 11 4 12 5 13 6 14
REMARK SMILES IDX 16 15 7 16 8 17 15 18 9 19 10 20 14 21 11 22 13 23 12 24
REMARK SMILES IDX 19 25 20 26 21 27 28 28 22 29 23 30 27 31 24 33 26 34 25 35
REMARK SMILES IDX 33 36 34 37 35 38 36 39 37 40 38 42 39 43 40 44 86 45 41 46
REMARK SMILES IDX 85 47 42 48 43 49 44 50 79 51 45 52 84 53 78 54 80 55 46 56
REMARK SMILES IDX 83 57 77 58 76 59 47 61 69 62 54 63 68 64 55 65 58 66 67 67
REMARK SMILES IDX 81 68 56 69 57 70 66 72 82 73 59 74 48 75 49 76 53 77 50 78
REMARK SMILES IDX 52 79 51 80 70 81 71 82 75 83 72 84 74 85 73 86 60 87 61 88
REMARK SMILES IDX 65 89 62 90 64 91 63 92
REMARK H PARENT 31 5 17 10 22 32 36 41 80 60 58 71
REMARK Flexibility Score: inf
ROOT
ATOM      1  C   UNL     1       5.342  -0.137  -3.367  1.00  0.00     0.116 C 
ENDROOT
BRANCH   1   2
ATOM      2  N   UNL     1       4.285  -0.875  -4.019  1.00  0.00    -0.354 N 
ATOM      3  C   UNL     1       2.936  -0.749  -3.910  1.00  0.00     0.242 C 
ATOM      4  O   UNL     1       2.244  -1.358  -4.730  1.00  0.00    -0.273 OA
ATOM      5  H   UNL     1       4.589  -1.579  -4.637  1.00  0.00     0.163 HD
BRANCH   3   6
ATOM      6  C   UNL     1       2.309   0.151  -2.842  1.00  0.00     0.175 C 
BRANCH   6   7
ATOM      7  N   UNL     1       2.805   1.515  -3.179  1.00  0.00    -0.343 N 
ATOM      8  O   UNL     1       1.617   1.629  -5.103  1.00  0.00    -0.274 OA
ATOM      9  C   UNL     1       2.561   2.020  -4.442  1.00  0.00     0.231 C 
ATOM     10  H   UNL     1       3.298   2.047  -2.514  1.00  0.00     0.164 HD
BRANCH   9  11
ATOM     11  C   UNL     1       3.650   2.961  -4.964  1.00  0.00     0.178 C 
BRANCH  11  12
ATOM     12  S   UNL     1       3.015   4.390  -5.851  1.00  0.00    -0.076 SA
BRANCH  12  13
ATOM     13  C   UNL     1       1.963   3.691  -7.031  1.00  0.00     0.197 A 
ATOM     14  N   UNL     1       2.149   2.573  -7.712  1.00  0.00    -0.122 NA
ATOM     15  N   UNL     1       0.777   4.247  -7.407  1.00  0.00    -0.260 N 
ATOM     16  N   UNL     1       1.011   2.345  -8.492  1.00  0.00    -0.118 NA
ATOM     17  C   UNL     1       0.208   3.347  -8.256  1.00  0.00     0.217 A 
ATOM     18  C   UNL     1       0.092   5.448  -7.246  1.00  0.00     0.068 A 
ATOM     19  S   UNL     1      -1.308   3.880  -8.901  1.00  0.00    -0.094 S 
ATOM     20  C   UNL     1      -1.069   5.438  -8.036  1.00  0.00     0.055 A 
ATOM     21  C   UNL     1       0.492   6.564  -6.531  1.00  0.00     0.028 A 
ATOM     22  C   UNL     1      -1.840   6.583  -8.147  1.00  0.00     0.021 A 
ATOM     23  C   UNL     1      -0.283   7.717  -6.648  1.00  0.00     0.002 A 
ATOM     24  C   UNL     1      -1.432   7.730  -7.456  1.00  0.00     0.002 A 
ENDBRANCH  12  13
ENDBRANCH  11  12
ENDBRANCH   9  11
ENDBRANCH   6   7
BRANCH   6  25
ATOM     25  C   UNL     1       2.586  -0.228  -1.377  1.00  0.00     0.072 C 
BRANCH  25  26
ATOM     26  C   UNL     1       2.961  -1.615  -0.880  1.00  0.00    -0.020 A 
ATOM     27  C   UNL     1       3.393  -1.782   0.432  1.00  0.00     0.087 A 
ATOM     28  C   UNL     1       3.051  -2.934  -1.473  1.00  0.00     0.003 A 
ATOM     29  N   UNL     1       3.831  -3.060   0.611  1.00  0.00    -0.361 N 
ATOM     30  C   UNL     1       3.729  -3.756  -0.564  1.00  0.00     0.046 A 
ATOM     31  C   UNL     1       2.682  -3.548  -2.690  1.00  0.00     0.010 A 
ATOM     32  H   UNL     1       4.170  -3.428   1.458  1.00  0.00     0.166 HD
ATOM     33  C   UNL     1       4.172  -5.054  -0.865  1.00  0.00     0.026 A 
ATOM     34  C   UNL     1       3.152  -4.823  -3.034  1.00  0.00     0.001 A 
ATOM     35  C   UNL     1       3.913  -5.557  -2.139  1.00  0.00     0.002 A 
ENDBRANCH  25  26
ENDBRANCH   6  25
ENDBRANCH   3   6
ENDBRANCH   1   2
BRANCH   1  36
ATOM     36  C   UNL     1       6.358  -1.044  -2.701  1.00  0.00     0.023 C 
BRANCH  36  37
ATOM     37  C   UNL     1       6.944  -2.112  -3.619  1.00  0.00     0.023 C 
BRANCH  37  38
ATOM     38  C   UNL     1       7.401  -1.611  -4.996  1.00  0.00     0.116 C 
BRANCH  38  39
ATOM     39  N   UNL     1       8.304  -0.476  -4.963  1.00  0.00    -0.352 N 
ATOM     40  C   UNL     1       9.650  -0.331  -4.771  1.00  0.00     0.251 C 
ATOM     41  H   UNL     1       7.845   0.382  -5.111  1.00  0.00     0.163 HD
ATOM     42  O   UNL     1      10.110   0.801  -4.935  1.00  0.00    -0.269 OA
BRANCH  40  43
ATOM     43  C   UNL     1      10.559  -1.417  -4.318  1.00  0.00     0.039 A 
ATOM     44  C   UNL     1      10.179  -2.740  -4.122  1.00  0.00     0.014 A 
ATOM     45  C   UNL     1      11.880  -1.048  -4.004  1.00  0.00     0.014 A 
ATOM     46  C   UNL     1      11.026  -3.632  -3.486  1.00  0.00     0.010 A 
ATOM     47  C   UNL     1      12.760  -1.957  -3.420  1.00  0.00     0.010 A 
ATOM     48  C   UNL     1      12.308  -3.234  -3.108  1.00  0.00    -0.014 A 
BRANCH  48  49
ATOM     49  C   UNL     1      13.116  -4.247  -2.440  1.00  0.00     0.031 A 
ATOM     50  C   UNL     1      13.307  -5.524  -3.186  1.00  0.00     0.074 A 
ATOM     51  C   UNL     1      13.691  -4.084  -1.236  1.00  0.00     0.049 A 
ATOM     52  N   UNL     1      12.955  -6.719  -2.837  1.00  0.00    -0.248 NA
ATOM     53  C   UNL     1      13.904  -5.436  -4.527  1.00  0.00     0.031 C 
ATOM     54  C   UNL     1      13.873  -2.849  -0.473  1.00  0.00     0.029 A 
ATOM     55  N   UNL     1      14.334  -5.021  -0.482  1.00  0.00    -0.354 N 
ATOM     56  C   UNL     1      13.402  -7.564  -3.850  1.00  0.00     0.074 A 
ATOM     57  C   UNL     1      13.899  -6.714  -4.903  1.00  0.00     0.031 C 
ATOM     58  C   UNL     1      14.778  -3.069   0.507  1.00  0.00     0.029 A 
ATOM     59  C   UNL     1      15.109  -4.485   0.528  1.00  0.00     0.049 A 
ATOM     60  H   UNL     1      14.253  -5.989  -0.643  1.00  0.00     0.167 HD
ATOM     61  C   UNL     1      13.474  -8.916  -3.703  1.00  0.00     0.031 A 
ATOM     62  C   UNL     1      16.019  -5.149   1.276  1.00  0.00     0.031 A 
ATOM     63  C   UNL     1      12.663  -9.396  -2.620  1.00  0.00     0.049 A 
ATOM     64  C   UNL     1      15.711  -6.594   1.214  1.00  0.00     0.074 A 
ATOM     65  C   UNL     1      11.311  -9.418  -2.347  1.00  0.00     0.029 A 
ATOM     66  N   UNL     1      13.291  -9.710  -1.441  1.00  0.00    -0.354 N 
ATOM     67  N   UNL     1      14.663  -7.141   1.758  1.00  0.00    -0.248 NA
ATOM     68  C   UNL     1      16.412  -7.420   0.244  1.00  0.00     0.031 C 
ATOM     69  C   UNL     1      11.213  -9.294  -0.932  1.00  0.00     0.029 A 
ATOM     70  C   UNL     1      12.512  -9.223  -0.423  1.00  0.00     0.049 A 
ATOM     71  H   UNL     1      14.142 -10.194  -1.344  1.00  0.00     0.167 HD
ATOM     72  C   UNL     1      14.332  -8.190   0.915  1.00  0.00     0.074 A 
ATOM     73  C   UNL     1      15.517  -8.398   0.091  1.00  0.00     0.031 C 
ATOM     74  C   UNL     1      13.037  -8.605   0.777  1.00  0.00     0.031 A 
BRANCH  61  75
ATOM     75  C   UNL     1      14.529  -9.772  -4.356  1.00  0.00    -0.014 A 
ATOM     76  C   UNL     1      15.713  -9.244  -4.906  1.00  0.00     0.009 A 
ATOM     77  C   UNL     1      14.479 -11.170  -4.193  1.00  0.00     0.009 A 
ATOM     78  C   UNL     1      16.789 -10.057  -5.271  1.00  0.00     0.001 A 
ATOM     79  C   UNL     1      15.573 -11.983  -4.516  1.00  0.00     0.001 A 
ATOM     80  C   UNL     1      16.729 -11.426  -5.053  1.00  0.00     0.000 A 
ENDBRANCH  61  75
BRANCH  62  81
ATOM     81  C   UNL     1      17.319  -4.639   1.755  1.00  0.00    -0.014 A 
ATOM     82  C   UNL     1      18.006  -3.658   1.017  1.00  0.00     0.009 A 
ATOM     83  C   UNL     1      18.015  -5.306   2.773  1.00  0.00     0.009 A 
ATOM     84  C   UNL     1      19.352  -3.377   1.260  1.00  0.00     0.001 A 
ATOM     85  C   UNL     1      19.366  -5.028   3.014  1.00  0.00     0.001 A 
ATOM     86  C   UNL     1      20.037  -4.076   2.248  1.00  0.00     0.000 A 
ENDBRANCH  62  81
BRANCH  74  87
ATOM     87  C   UNL     1      12.016  -8.113   1.776  1.00  0.00    -0.014 A 
ATOM     88  C   UNL     1      11.182  -9.053   2.404  1.00  0.00     0.009 A 
ATOM     89  C   UNL     1      11.748  -6.748   1.980  1.00  0.00     0.009 A 
ATOM     90  C   UNL     1      10.115  -8.643   3.208  1.00  0.00     0.001 A 
ATOM     91  C   UNL     1      10.697  -6.338   2.808  1.00  0.00     0.001 A 
ATOM     92  C   UNL     1       9.876  -7.286   3.414  1.00  0.00     0.000 A 
ENDBRANCH  74  87
ENDBRANCH  48  49
ENDBRANCH  40  43
ENDBRANCH  38  39
ENDBRANCH  37  38
ENDBRANCH  36  37
ENDBRANCH   1  36
TORSDOF 17
