REMARK SMILES O=C(NCCCCNC(=O)c1sccc1S(=O)(=O)N1CCO[C@@H]2CCCC[C@@H]21)c1ccc(-c2c3nc(c(-c4ccccc4)c4ccc([nH]4)c(-c4ccccc4)c4nc(c(-c5ccccc5)c5ccc2[nH]5)C=C4)C=C3)cc1
REMARK SMILES IDX 5 1 4 2 3 3 1 4 2 5 29 7 30 8 76 9 31 10 75 11 32 12 33 13
REMARK SMILES IDX 34 14 69 15 35 16 74 17 68 18 70 19 36 20 73 21 67 22 66 23
REMARK SMILES IDX 37 25 59 26 44 27 58 28 45 29 48 30 57 31 71 32 46 33 47 34
REMARK SMILES IDX 56 36 72 37 49 38 38 39 39 40 43 41 40 42 42 43 41 44 60 45
REMARK SMILES IDX 61 46 65 47 62 48 64 49 63 50 50 51 51 52 55 53 52 54 54 55
REMARK SMILES IDX 53 56 6 57 7 58 8 59 9 60 10 62 11 63 12 64 15 65 13 66
REMARK SMILES IDX 14 67 16 68 17 69 18 70 19 71 20 72 28 73 21 74 23 75 27 76
REMARK SMILES IDX 22 77 24 78 26 79 25 80
REMARK H PARENT 3 6 70 24 48 35 8 61
REMARK Flexibility Score: inf
ROOT
ATOM      1  C   UNL     1       4.144  -1.615  -2.365  1.00  0.00     0.023 C 
ENDROOT
BRANCH   1   2
ATOM      2  C   UNL     1       3.814  -1.025  -1.011  1.00  0.00     0.116 C 
BRANCH   2   3
ATOM      3  N   UNL     1       2.519  -0.385  -0.901  1.00  0.00    -0.352 N 
ATOM      4  O   UNL     1       0.748   0.330   0.351  1.00  0.00    -0.269 OA
ATOM      5  C   UNL     1       1.882  -0.123   0.299  1.00  0.00     0.251 C 
ATOM      6  H   UNL     1       2.064  -0.120  -1.733  1.00  0.00     0.163 HD
BRANCH   5   7
ATOM      7  C   UNL     1       2.624  -0.465   1.533  1.00  0.00     0.039 A 
ATOM      8  C   UNL     1       3.842   0.170   1.789  1.00  0.00     0.014 A 
ATOM      9  C   UNL     1       2.202  -1.546   2.310  1.00  0.00     0.014 A 
ATOM     10  C   UNL     1       4.701  -0.363   2.743  1.00  0.00     0.010 A 
ATOM     11  C   UNL     1       3.040  -2.037   3.315  1.00  0.00     0.010 A 
ATOM     12  C   UNL     1       4.310  -1.472   3.515  1.00  0.00    -0.014 A 
BRANCH  12  13
ATOM     13  C   UNL     1       5.223  -1.979   4.569  1.00  0.00     0.031 A 
ATOM     14  C   UNL     1       5.883  -3.326   4.466  1.00  0.00     0.074 A 
ATOM     15  C   UNL     1       5.483  -1.182   5.622  1.00  0.00     0.049 A 
ATOM     16  N   UNL     1       6.705  -3.903   5.308  1.00  0.00    -0.248 NA
ATOM     17  C   UNL     1       5.585  -4.132   3.272  1.00  0.00     0.031 C 
ATOM     18  C   UNL     1       4.907   0.148   5.833  1.00  0.00     0.029 A 
ATOM     19  N   UNL     1       6.309  -1.363   6.700  1.00  0.00    -0.354 N 
ATOM     20  C   UNL     1       7.009  -5.143   4.758  1.00  0.00     0.074 A 
ATOM     21  C   UNL     1       6.275  -5.240   3.513  1.00  0.00     0.031 C 
ATOM     22  C   UNL     1       5.428   0.679   6.948  1.00  0.00     0.029 A 
ATOM     23  C   UNL     1       6.329  -0.292   7.557  1.00  0.00     0.049 A 
ATOM     24  H   UNL     1       6.837  -2.182   6.845  1.00  0.00     0.167 HD
ATOM     25  C   UNL     1       7.822  -6.109   5.248  1.00  0.00     0.031 A 
ATOM     26  C   UNL     1       6.985  -0.111   8.716  1.00  0.00     0.031 A 
ATOM     27  C   UNL     1       8.551  -6.016   6.487  1.00  0.00     0.049 A 
ATOM     28  C   UNL     1       7.869  -1.200   9.238  1.00  0.00     0.074 A 
ATOM     29  C   UNL     1       9.398  -6.949   7.065  1.00  0.00     0.029 A 
ATOM     30  N   UNL     1       8.525  -4.923   7.339  1.00  0.00    -0.354 N 
ATOM     31  N   UNL     1       8.133  -2.369   8.709  1.00  0.00    -0.248 NA
ATOM     32  C   UNL     1       8.541  -0.946  10.519  1.00  0.00     0.031 C 
ATOM     33  C   UNL     1       9.860  -6.431   8.280  1.00  0.00     0.029 A 
ATOM     34  C   UNL     1       9.331  -5.161   8.440  1.00  0.00     0.049 A 
ATOM     35  H   UNL     1       8.009  -4.098   7.184  1.00  0.00     0.167 HD
ATOM     36  C   UNL     1       9.001  -2.993   9.592  1.00  0.00     0.074 A 
ATOM     37  C   UNL     1       9.241  -2.061  10.676  1.00  0.00     0.031 C 
ATOM     38  C   UNL     1       9.544  -4.231   9.517  1.00  0.00     0.031 A 
BRANCH  25  39
ATOM     39  C   UNL     1       7.956  -7.377   4.453  1.00  0.00    -0.014 A 
ATOM     40  C   UNL     1       8.762  -7.430   3.305  1.00  0.00     0.009 A 
ATOM     41  C   UNL     1       7.327  -8.550   4.897  1.00  0.00     0.009 A 
ATOM     42  C   UNL     1       8.920  -8.631   2.608  1.00  0.00     0.001 A 
ATOM     43  C   UNL     1       7.500  -9.753   4.209  1.00  0.00     0.001 A 
ATOM     44  C   UNL     1       8.293  -9.791   3.063  1.00  0.00     0.000 A 
ENDBRANCH  25  39
BRANCH  26  45
ATOM     45  C   UNL     1       6.801   1.155   9.465  1.00  0.00    -0.014 A 
ATOM     46  C   UNL     1       7.814   2.123   9.489  1.00  0.00     0.009 A 
ATOM     47  C   UNL     1       5.590   1.413  10.127  1.00  0.00     0.009 A 
ATOM     48  C   UNL     1       7.621   3.324  10.174  1.00  0.00     0.001 A 
ATOM     49  C   UNL     1       5.392   2.625  10.789  1.00  0.00     0.001 A 
ATOM     50  C   UNL     1       6.410   3.576  10.817  1.00  0.00     0.000 A 
ENDBRANCH  26  45
BRANCH  38  51
ATOM     51  C   UNL     1      10.451  -4.635  10.640  1.00  0.00    -0.014 A 
ATOM     52  C   UNL     1       9.927  -5.010  11.888  1.00  0.00     0.009 A 
ATOM     53  C   UNL     1      11.841  -4.639  10.451  1.00  0.00     0.009 A 
ATOM     54  C   UNL     1      10.783  -5.347  12.937  1.00  0.00     0.001 A 
ATOM     55  C   UNL     1      12.693  -4.996  11.497  1.00  0.00     0.001 A 
ATOM     56  C   UNL     1      12.164  -5.340  12.741  1.00  0.00     0.000 A 
ENDBRANCH  38  51
ENDBRANCH  12  13
ENDBRANCH   5   7
ENDBRANCH   2   3
ENDBRANCH   1   2
BRANCH   1  57
ATOM     57  C   UNL     1       4.373  -0.664  -3.558  1.00  0.00     0.023 C 
BRANCH  57  58
ATOM     58  C   UNL     1       5.322   0.651  -3.248  1.00  0.00     0.116 C 
BRANCH  58  59
ATOM     59  N   UNL     1       6.735   1.603  -4.283  1.00  0.00    -0.351 N 
ATOM     60  C   UNL     1       7.358   2.367  -5.323  1.00  0.00     0.262 C 
ATOM     61  H   UNL     1       7.511   1.444  -3.698  1.00  0.00     0.163 HD
ATOM     62  O   UNL     1       8.579   2.448  -5.122  1.00  0.00    -0.268 OA
BRANCH  60  63
ATOM     63  C   UNL     1       6.805   3.016  -6.498  1.00  0.00     0.112 A 
ATOM     64  S   UNL     1       7.363   2.488  -8.045  1.00  0.00    -0.137 S 
ATOM     65  C   UNL     1       6.014   4.142  -6.636  1.00  0.00     0.106 A 
ATOM     66  C   UNL     1       6.405   3.637  -8.869  1.00  0.00     0.067 A 
ATOM     67  C   UNL     1       5.749   4.476  -7.999  1.00  0.00     0.034 A 
BRANCH  65  68
ATOM     68  S   UNL     1       5.335   5.023  -5.314  1.00  0.00     0.245 S 
ATOM     69  O   UNL     1       5.895   6.349  -5.469  1.00  0.00    -0.207 OA
ATOM     70  O   UNL     1       3.913   4.782  -5.432  1.00  0.00    -0.207 OA
BRANCH  68  71
ATOM     71  N   UNL     1       5.874   4.354  -3.880  1.00  0.00    -0.190 NA
ATOM     72  C   UNL     1       7.125   4.915  -3.315  1.00  0.00     0.131 C 
ATOM     73  C   UNL     1       5.429   2.977  -3.466  1.00  0.00     0.102 C 
ATOM     74  C   UNL     1       7.433   4.395  -1.919  1.00  0.00     0.177 C 
ATOM     75  C   UNL     1       6.721   2.171  -2.246  1.00  0.00     0.136 C 
ATOM     76  C   UNL     1       4.755   1.897  -4.952  1.00  0.00     0.023 C 
ATOM     77  O   UNL     1       7.831   3.031  -1.978  1.00  0.00    -0.375 OA
ATOM     78  C   UNL     1       7.532   0.438  -2.630  1.00  0.00     0.034 C 
ATOM     79  C   UNL     1       5.708   0.287  -5.471  1.00  0.00     0.002 C 
ATOM     80  C   UNL     1       7.030  -0.464  -4.260  1.00  0.00     0.003 C 
ENDBRANCH  68  71
ENDBRANCH  65  68
ENDBRANCH  60  63
ENDBRANCH  58  59
ENDBRANCH  57  58
ENDBRANCH   1  57
TORSDOF 13
