REMARK SMILES O=C(C[C@@H]1C(=O)NCCN1C(=O)OCC1c2ccccc2-c2ccccc21)NCCCCNC(=O)c1ccc(-c2c3nc(c(-c4ccccc4)c4ccc([nH]4)c(-c4ccccc4)c4nc(c(-c5ccccc5)c5ccc2[nH]5)C=C4)C=C3)cc1
REMARK SMILES IDX 29 1 28 2 1 3 2 4 3 6 4 7 5 8 10 9 6 10 7 11 9 12 8 13 11 15
REMARK SMILES IDX 12 16 13 17 14 18 15 19 16 20 27 21 17 22 21 23 22 24 26 25
REMARK SMILES IDX 18 26 20 27 23 28 25 29 19 30 24 31 30 32 31 33 32 34 33 35
REMARK SMILES IDX 34 36 35 38 36 39 37 40 83 41 38 42 82 43 39 44 40 45 41 46
REMARK SMILES IDX 76 47 42 48 81 49 75 50 77 51 43 52 80 53 74 54 73 55 44 57
REMARK SMILES IDX 66 58 51 59 65 60 52 61 55 62 64 63 78 64 53 65 54 66 63 68
REMARK SMILES IDX 79 69 56 70 45 71 46 72 50 73 47 74 49 75 48 76 67 77 68 78
REMARK SMILES IDX 72 79 69 80 71 81 70 82 57 83 58 84 62 85 59 86 61 87 60 88
REMARK H PARENT 28 5 7 14 33 37 77 56 55 67
REMARK Flexibility Score: inf
ROOT
ATOM      1  C   UNL     1       2.086   1.200  -1.986  1.00  0.00     0.116 C 
ENDROOT
BRANCH   1   2
ATOM      2  N   UNL     1       2.590   0.619  -0.754  1.00  0.00    -0.356 N 
ATOM      3  O   UNL     1       0.635  -0.452  -0.221  1.00  0.00    -0.275 OA
ATOM      4  C   UNL     1       1.826  -0.252  -0.000  1.00  0.00     0.222 C 
ATOM      5  H   UNL     1       3.497   0.851  -0.448  1.00  0.00     0.163 HD
BRANCH   4   6
ATOM      6  C   UNL     1       2.546  -0.920   1.159  1.00  0.00     0.135 C 
BRANCH   6   7
ATOM      7  C   UNL     1       3.795  -1.677   0.669  1.00  0.00     0.187 C 
ATOM      8  C   UNL     1       3.382  -3.176   0.555  1.00  0.00     0.243 C 
ATOM      9  N   UNL     1       5.070  -1.434   1.403  1.00  0.00    -0.294 N 
ATOM     10  O   UNL     1       2.412  -3.543  -0.105  1.00  0.00    -0.273 OA
ATOM     11  N   UNL     1       4.130  -4.118   1.205  1.00  0.00    -0.353 N 
ATOM     12  C   UNL     1       5.983  -2.568   1.517  1.00  0.00     0.145 C 
ATOM     13  C   UNL     1       5.252  -3.789   2.048  1.00  0.00     0.137 C 
ATOM     14  H   UNL     1       3.891  -5.066   1.093  1.00  0.00     0.163 HD
BRANCH   9  15
ATOM     15  C   UNL     1       5.626  -0.189   1.631  1.00  0.00     0.410 C 
ATOM     16  O   UNL     1       6.838   0.012   1.685  1.00  0.00    -0.224 OA
BRANCH  15  17
ATOM     17  O   UNL     1       4.707   0.774   1.876  1.00  0.00    -0.448 OA
BRANCH  17  18
ATOM     18  C   UNL     1       5.162   1.889   2.676  1.00  0.00     0.248 C 
BRANCH  18  19
ATOM     19  C   UNL     1       5.055   1.637   4.199  1.00  0.00     0.088 C 
ATOM     20  C   UNL     1       3.643   1.315   4.681  1.00  0.00    -0.029 A 
ATOM     21  C   UNL     1       5.835   0.432   4.717  1.00  0.00    -0.029 A 
ATOM     22  C   UNL     1       2.500   2.096   4.595  1.00  0.00     0.005 A 
ATOM     23  C   UNL     1       3.626   0.068   5.345  1.00  0.00    -0.014 A 
ATOM     24  C   UNL     1       4.963  -0.484   5.344  1.00  0.00    -0.014 A 
ATOM     25  C   UNL     1       7.197   0.184   4.642  1.00  0.00     0.005 A 
ATOM     26  C   UNL     1       1.325   1.610   5.174  1.00  0.00     0.000 A 
ATOM     27  C   UNL     1       2.458  -0.415   5.913  1.00  0.00     0.009 A 
ATOM     28  C   UNL     1       5.442  -1.680   5.855  1.00  0.00     0.009 A 
ATOM     29  C   UNL     1       7.679  -1.023   5.153  1.00  0.00     0.000 A 
ATOM     30  C   UNL     1       1.302   0.365   5.825  1.00  0.00     0.001 A 
ATOM     31  C   UNL     1       6.809  -1.951   5.747  1.00  0.00     0.001 A 
ENDBRANCH  18  19
ENDBRANCH  17  18
ENDBRANCH  15  17
ENDBRANCH   9  15
ENDBRANCH   6   7
ENDBRANCH   4   6
ENDBRANCH   1   2
BRANCH   1  32
ATOM     32  C   UNL     1       2.496   2.659  -2.169  1.00  0.00     0.023 C 
BRANCH  32  33
ATOM     33  C   UNL     1       3.991   2.899  -2.400  1.00  0.00     0.023 C 
BRANCH  33  34
ATOM     34  C   UNL     1       4.591   2.240  -3.641  1.00  0.00     0.116 C 
BRANCH  34  35
ATOM     35  N   UNL     1       4.002   2.709  -4.885  1.00  0.00    -0.352 N 
ATOM     36  C   UNL     1       4.605   3.163  -6.035  1.00  0.00     0.251 C 
ATOM     37  H   UNL     1       3.018   2.701  -4.908  1.00  0.00     0.163 HD
ATOM     38  O   UNL     1       3.917   3.626  -6.941  1.00  0.00    -0.269 OA
BRANCH  36  39
ATOM     39  C   UNL     1       6.079   3.134  -6.184  1.00  0.00     0.039 A 
ATOM     40  C   UNL     1       6.717   4.248  -6.741  1.00  0.00     0.014 A 
ATOM     41  C   UNL     1       6.833   2.022  -5.803  1.00  0.00     0.014 A 
ATOM     42  C   UNL     1       8.111   4.278  -6.843  1.00  0.00     0.010 A 
ATOM     43  C   UNL     1       8.227   2.078  -5.845  1.00  0.00     0.010 A 
ATOM     44  C   UNL     1       8.881   3.209  -6.357  1.00  0.00    -0.014 A 
BRANCH  44  45
ATOM     45  C   UNL     1      10.366   3.266  -6.357  1.00  0.00     0.031 A 
ATOM     46  C   UNL     1      11.169   2.303  -7.187  1.00  0.00     0.074 A 
ATOM     47  C   UNL     1      10.999   4.143  -5.552  1.00  0.00     0.049 A 
ATOM     48  N   UNL     1      12.469   2.154  -7.253  1.00  0.00    -0.248 NA
ATOM     49  C   UNL     1      10.413   1.371  -8.038  1.00  0.00     0.031 C 
ATOM     50  C   UNL     1      10.344   5.109  -4.668  1.00  0.00     0.029 A 
ATOM     51  N   UNL     1      12.339   4.354  -5.340  1.00  0.00    -0.354 N 
ATOM     52  C   UNL     1      12.685   1.104  -8.136  1.00  0.00     0.074 A 
ATOM     53  C   UNL     1      11.383   0.625  -8.548  1.00  0.00     0.031 C 
ATOM     54  C   UNL     1      11.283   5.821  -4.023  1.00  0.00     0.029 A 
ATOM     55  C   UNL     1      12.602   5.338  -4.417  1.00  0.00     0.049 A 
ATOM     56  H   UNL     1      13.045   3.849  -5.804  1.00  0.00     0.167 HD
ATOM     57  C   UNL     1      13.860   0.594  -8.579  1.00  0.00     0.031 A 
ATOM     58  C   UNL     1      13.772   5.796  -3.933  1.00  0.00     0.031 A 
ATOM     59  C   UNL     1      15.157   1.071  -8.181  1.00  0.00     0.049 A 
ATOM     60  C   UNL     1      15.061   5.205  -4.431  1.00  0.00     0.074 A 
ATOM     61  C   UNL     1      16.402   0.647  -8.614  1.00  0.00     0.029 A 
ATOM     62  N   UNL     1      15.378   2.078  -7.255  1.00  0.00    -0.354 N 
ATOM     63  N   UNL     1      15.247   4.250  -5.309  1.00  0.00    -0.248 NA
ATOM     64  C   UNL     1      16.302   5.765  -3.876  1.00  0.00     0.031 C 
ATOM     65  C   UNL     1      17.378   1.369  -7.918  1.00  0.00     0.029 A 
ATOM     66  C   UNL     1      16.739   2.276  -7.089  1.00  0.00     0.049 A 
ATOM     67  H   UNL     1      14.673   2.578  -6.785  1.00  0.00     0.167 HD
ATOM     68  C   UNL     1      16.623   4.112  -5.431  1.00  0.00     0.074 A 
ATOM     69  C   UNL     1      17.225   5.090  -4.548  1.00  0.00     0.031 C 
ATOM     70  C   UNL     1      17.325   3.251  -6.207  1.00  0.00     0.031 A 
BRANCH  57  71
ATOM     71  C   UNL     1      13.791  -0.553  -9.548  1.00  0.00    -0.014 A 
ATOM     72  C   UNL     1      13.366  -0.359 -10.873  1.00  0.00     0.009 A 
ATOM     73  C   UNL     1      14.190  -1.836  -9.144  1.00  0.00     0.009 A 
ATOM     74  C   UNL     1      13.307  -1.434 -11.761  1.00  0.00     0.001 A 
ATOM     75  C   UNL     1      14.155  -2.904 -10.043  1.00  0.00     0.001 A 
ATOM     76  C   UNL     1      13.705  -2.704 -11.347  1.00  0.00     0.000 A 
ENDBRANCH  57  71
BRANCH  58  77
ATOM     77  C   UNL     1      13.781   6.884  -2.922  1.00  0.00    -0.014 A 
ATOM     78  C   UNL     1      14.205   8.175  -3.271  1.00  0.00     0.009 A 
ATOM     79  C   UNL     1      13.373   6.636  -1.602  1.00  0.00     0.009 A 
ATOM     80  C   UNL     1      14.243   9.190  -2.312  1.00  0.00     0.001 A 
ATOM     81  C   UNL     1      13.386   7.659  -0.653  1.00  0.00     0.001 A 
ATOM     82  C   UNL     1      13.830   8.933  -1.006  1.00  0.00     0.000 A 
ENDBRANCH  58  77
BRANCH  70  83
ATOM     83  C   UNL     1      18.823   3.351  -6.161  1.00  0.00    -0.014 A 
ATOM     84  C   UNL     1      19.550   2.891  -5.052  1.00  0.00     0.009 A 
ATOM     85  C   UNL     1      19.519   3.879  -7.260  1.00  0.00     0.009 A 
ATOM     86  C   UNL     1      20.943   2.987  -5.033  1.00  0.00     0.001 A 
ATOM     87  C   UNL     1      20.912   3.950  -7.249  1.00  0.00     0.001 A 
ATOM     88  C   UNL     1      21.623   3.512  -6.132  1.00  0.00     0.000 A 
ENDBRANCH  70  83
ENDBRANCH  44  45
ENDBRANCH  36  39
ENDBRANCH  34  35
ENDBRANCH  33  34
ENDBRANCH  32  33
ENDBRANCH   1  32
TORSDOF 16
