REMARK SMILES Cc1ccc(C(=O)N2C[C@@H](C(=O)NCCCCNC(=O)c3ccc(-c4c5nc(c(-c6ccccc6)c6ccc([nH]6)c(-c6ccccc6)c6nc(c(-c7ccccc7)c7ccc4[nH]7)C=C6)C=C5)cc3)C[C@H](C(=O)N3CCOCC3)C2)cc1F
REMARK SMILES IDX 15 1 14 2 13 3 11 4 12 5 10 7 8 8 9 9 79 10 70 11 69 12 6 13
REMARK SMILES IDX 7 14 5 15 1 16 2 17 3 18 81 19 4 20 80 21 82 22 71 23 72 24
REMARK SMILES IDX 73 25 74 26 78 27 75 28 77 29 76 30 16 31 17 32 18 33 19 34
REMARK SMILES IDX 20 36 21 37 22 38 68 39 23 40 67 41 24 42 25 43 26 44 61 45
REMARK SMILES IDX 27 46 66 47 60 48 62 49 28 50 65 51 59 52 58 53 29 55 51 56
REMARK SMILES IDX 36 57 50 58 37 59 40 60 49 61 63 62 38 63 39 64 48 66 64 67
REMARK SMILES IDX 41 68 30 69 31 70 35 71 32 72 34 73 33 74 52 75 53 76 57 77
REMARK SMILES IDX 54 78 56 79 55 80 42 81 43 82 47 83 44 84 46 85 45 86
REMARK H PARENT 13 6 18 35 62 54 40 65
REMARK Flexibility Score: inf
ROOT
ATOM      1  C   UNL     1      -9.145   1.455   0.972  1.00  0.00     0.023 C 
ENDROOT
BRANCH   1   2
ATOM      2  C   UNL     1      -7.922   0.791   1.590  1.00  0.00     0.116 C 
BRANCH   2   3
ATOM      3  N   UNL     1      -8.246  -0.513   2.132  1.00  0.00    -0.356 N 
ATOM      4  C   UNL     1      -7.745  -1.740   1.845  1.00  0.00     0.224 C 
ATOM      5  O   UNL     1      -8.258  -2.715   2.397  1.00  0.00    -0.275 OA
ATOM      6  H   UNL     1      -8.947  -0.508   2.824  1.00  0.00     0.163 HD
BRANCH   4   7
ATOM      7  C   UNL     1      -6.595  -1.921   0.875  1.00  0.00     0.099 C 
ATOM      8  N   UNL     1      -4.283  -1.136   0.383  1.00  0.00    -0.337 N 
ATOM      9  C   UNL     1      -5.345  -1.214   1.372  1.00  0.00     0.133 C 
ATOM     10  C   UNL     1      -4.648  -0.691  -0.960  1.00  0.00     0.133 C 
ATOM     11  C   UNL     1      -5.827  -1.485  -1.553  1.00  0.00     0.099 C 
ATOM     12  C   UNL     1      -6.993  -1.654  -0.581  1.00  0.00     0.030 C 
BRANCH   8  13
ATOM     13  C   UNL     1      -2.985  -1.325   0.846  1.00  0.00     0.254 C 
ATOM     14  O   UNL     1      -2.729  -2.042   1.813  1.00  0.00    -0.269 OA
BRANCH  13  15
ATOM     15  C   UNL     1      -1.861  -0.551   0.274  1.00  0.00     0.042 A 
ATOM     16  C   UNL     1       1.696   1.799  -0.290  1.00  0.00     0.047 C 
ATOM     17  C   UNL     1       0.438   0.990  -0.183  1.00  0.00    -0.015 A 
ATOM     18  C   UNL     1      -0.819   1.605  -0.119  1.00  0.00     0.007 A 
ATOM     19  C   UNL     1       0.516  -0.401  -0.065  1.00  0.00     0.126 A 
ATOM     20  C   UNL     1      -1.966   0.838   0.114  1.00  0.00     0.014 A 
ATOM     21  C   UNL     1      -0.615  -1.173   0.168  1.00  0.00     0.053 A 
ATOM     22  F   UNL     1       1.712  -1.005  -0.114  1.00  0.00    -0.207 F 
ENDBRANCH  13  15
ENDBRANCH   8  13
BRANCH  11  23
ATOM     23  C   UNL     1      -5.280  -2.695  -2.325  1.00  0.00     0.227 C 
ATOM     24  O   UNL     1      -5.017  -2.548  -3.524  1.00  0.00    -0.275 OA
ATOM     25  N   UNL     1      -4.833  -3.803  -1.647  1.00  0.00    -0.338 N 
ATOM     26  C   UNL     1      -5.629  -4.683  -0.793  1.00  0.00     0.148 C 
ATOM     27  C   UNL     1      -3.579  -4.428  -2.064  1.00  0.00     0.148 C 
ATOM     28  C   UNL     1      -4.799  -5.106   0.426  1.00  0.00     0.181 C 
ATOM     29  C   UNL     1      -2.799  -4.880  -0.823  1.00  0.00     0.181 C 
ATOM     30  O   UNL     1      -3.589  -5.759  -0.002  1.00  0.00    -0.378 OA
ENDBRANCH  11  23
ENDBRANCH   4   7
ENDBRANCH   2   3
ENDBRANCH   1   2
BRANCH   1  31
ATOM     31  C   UNL     1     -10.281   1.721   1.958  1.00  0.00     0.023 C 
BRANCH  31  32
ATOM     32  C   UNL     1      -9.858   2.405   3.251  1.00  0.00     0.116 C 
BRANCH  32  33
ATOM     33  N   UNL     1      -9.133   3.647   3.027  1.00  0.00    -0.352 N 
ATOM     34  C   UNL     1      -9.287   4.851   3.667  1.00  0.00     0.251 C 
ATOM     35  H   UNL     1      -8.444   3.620   2.325  1.00  0.00     0.163 HD
ATOM     36  O   UNL     1      -8.677   5.845   3.290  1.00  0.00    -0.269 OA
BRANCH  34  37
ATOM     37  C   UNL     1     -10.234   4.935   4.792  1.00  0.00     0.039 A 
ATOM     38  C   UNL     1     -11.238   5.902   4.756  1.00  0.00     0.014 A 
ATOM     39  C   UNL     1     -10.171   4.003   5.832  1.00  0.00     0.014 A 
ATOM     40  C   UNL     1     -12.229   5.894   5.737  1.00  0.00     0.010 A 
ATOM     41  C   UNL     1     -11.202   3.947   6.761  1.00  0.00     0.010 A 
ATOM     42  C   UNL     1     -12.238   4.893   6.723  1.00  0.00    -0.014 A 
BRANCH  42  43
ATOM     43  C   UNL     1     -13.325   4.819   7.729  1.00  0.00     0.031 A 
ATOM     44  C   UNL     1     -13.011   5.013   9.185  1.00  0.00     0.074 A 
ATOM     45  C   UNL     1     -14.577   4.515   7.338  1.00  0.00     0.049 A 
ATOM     46  N   UNL     1     -13.810   4.936  10.219  1.00  0.00    -0.248 NA
ATOM     47  C   UNL     1     -11.608   5.301   9.529  1.00  0.00     0.031 C 
ATOM     48  C   UNL     1     -14.999   4.258   5.959  1.00  0.00     0.029 A 
ATOM     49  N   UNL     1     -15.727   4.365   8.071  1.00  0.00    -0.354 N 
ATOM     50  C   UNL     1     -13.005   5.147  11.331  1.00  0.00     0.074 A 
ATOM     51  C   UNL     1     -11.649   5.300  10.852  1.00  0.00     0.031 C 
ATOM     52  C   UNL     1     -16.319   4.013   5.943  1.00  0.00     0.029 A 
ATOM     53  C   UNL     1     -16.828   4.056   7.309  1.00  0.00     0.049 A 
ATOM     54  H   UNL     1     -15.761   4.468   9.049  1.00  0.00     0.167 HD
ATOM     55  C   UNL     1     -13.365   5.229  12.633  1.00  0.00     0.031 A 
ATOM     56  C   UNL     1     -18.105   3.832   7.673  1.00  0.00     0.031 A 
ATOM     57  C   UNL     1     -14.715   5.090  13.106  1.00  0.00     0.049 A 
ATOM     58  C   UNL     1     -18.479   3.923   9.126  1.00  0.00     0.074 A 
ATOM     59  C   UNL     1     -15.194   5.217  14.398  1.00  0.00     0.029 A 
ATOM     60  N   UNL     1     -15.804   4.788  12.302  1.00  0.00    -0.354 N 
ATOM     61  N   UNL     1     -17.720   4.198  10.159  1.00  0.00    -0.248 NA
ATOM     62  C   UNL     1     -19.890   3.684   9.460  1.00  0.00     0.031 C 
ATOM     63  C   UNL     1     -16.565   4.943  14.383  1.00  0.00     0.029 A 
ATOM     64  C   UNL     1     -16.950   4.702  13.074  1.00  0.00     0.049 A 
ATOM     65  H   UNL     1     -15.767   4.656  11.327  1.00  0.00     0.167 HD
ATOM     66  C   UNL     1     -18.564   4.193  11.261  1.00  0.00     0.074 A 
ATOM     67  C   UNL     1     -19.895   3.903  10.768  1.00  0.00     0.031 C 
ATOM     68  C   UNL     1     -18.265   4.410  12.565  1.00  0.00     0.031 A 
BRANCH  55  69
ATOM     69  C   UNL     1     -12.272   5.473  13.636  1.00  0.00    -0.014 A 
ATOM     70  C   UNL     1     -11.606   6.708  13.700  1.00  0.00     0.009 A 
ATOM     71  C   UNL     1     -11.916   4.463  14.542  1.00  0.00     0.009 A 
ATOM     72  C   UNL     1     -10.578   6.911  14.622  1.00  0.00     0.001 A 
ATOM     73  C   UNL     1     -10.909   4.679  15.484  1.00  0.00     0.001 A 
ATOM     74  C   UNL     1     -10.233   5.898  15.516  1.00  0.00     0.000 A 
ENDBRANCH  55  69
BRANCH  56  75
ATOM     75  C   UNL     1     -19.129   3.520   6.642  1.00  0.00    -0.014 A 
ATOM     76  C   UNL     1     -20.120   4.459   6.318  1.00  0.00     0.009 A 
ATOM     77  C   UNL     1     -19.123   2.283   5.978  1.00  0.00     0.009 A 
ATOM     78  C   UNL     1     -21.099   4.156   5.369  1.00  0.00     0.001 A 
ATOM     79  C   UNL     1     -20.086   1.995   5.009  1.00  0.00     0.001 A 
ATOM     80  C   UNL     1     -21.079   2.927   4.712  1.00  0.00     0.000 A 
ENDBRANCH  56  75
BRANCH  68  81
ATOM     81  C   UNL     1     -19.403   4.375  13.545  1.00  0.00    -0.014 A 
ATOM     82  C   UNL     1     -20.019   3.167  13.905  1.00  0.00     0.009 A 
ATOM     83  C   UNL     1     -19.834   5.567  14.149  1.00  0.00     0.009 A 
ATOM     84  C   UNL     1     -21.068   3.158  14.827  1.00  0.00     0.001 A 
ATOM     85  C   UNL     1     -20.863   5.551  15.092  1.00  0.00     0.001 A 
ATOM     86  C   UNL     1     -21.484   4.349  15.423  1.00  0.00     0.000 A 
ENDBRANCH  68  81
ENDBRANCH  42  43
ENDBRANCH  34  37
ENDBRANCH  32  33
ENDBRANCH  31  32
ENDBRANCH   1  31
TORSDOF 14
