REMARK SMILES CN(CC(N)=O)S(=O)(=O)c1ccc(C(=O)NCCCCNC(=O)c2ccc(-c3c4nc(c(-c5ccccc5)c5ccc([nH]5)c(-c5ccccc5)c5nc(c(-c6ccccc6)c6ccc3[nH]6)C=C5)C=C4)cc2)cc1Br
REMARK SMILES IDX 17 1 16 2 14 3 15 4 13 6 10 7 11 8 73 9 12 10 72 11 74 12
REMARK SMILES IDX 7 13 8 14 9 15 2 16 1 17 3 18 4 19 5 20 6 21 18 24 19 25
REMARK SMILES IDX 20 26 21 27 22 28 23 30 24 31 25 32 71 33 26 34 70 35 27 36
REMARK SMILES IDX 28 37 29 38 64 39 30 40 69 41 63 42 65 43 31 44 68 45 62 46
REMARK SMILES IDX 61 47 32 49 54 50 39 51 53 52 40 53 43 54 52 55 66 56 41 57
REMARK SMILES IDX 42 58 51 60 67 61 44 62 33 63 34 64 38 65 35 66 37 67 36 68
REMARK SMILES IDX 55 69 56 70 60 71 57 72 59 73 58 74 45 75 46 76 50 77 47 78
REMARK SMILES IDX 49 79 48 80
REMARK H PARENT 16 5 5 22 5 23 21 29 65 48 43 59
REMARK Flexibility Score: inf
ROOT
ATOM      1  C   UNL     1      -0.957  -0.969   8.455  1.00  0.00     0.116 C 
ENDROOT
BRANCH   1   2
ATOM      2  N   UNL     1      -1.068  -2.401   8.278  1.00  0.00    -0.352 N 
ATOM      3  C   UNL     1      -0.850  -3.242   7.219  1.00  0.00     0.251 C 
ATOM      4  O   UNL     1      -1.088  -4.436   7.415  1.00  0.00    -0.269 OA
ATOM      5  H   UNL     1      -1.363  -2.871   9.091  1.00  0.00     0.163 HD
BRANCH   3   6
ATOM      6  C   UNL     1      -0.341  -2.827   5.873  1.00  0.00     0.041 A 
ATOM      7  C   UNL     1       0.667  -2.268   3.282  1.00  0.00     0.096 A 
ATOM      8  C   UNL     1       0.488  -3.592   3.708  1.00  0.00     0.024 A 
ATOM      9  C   UNL     1       0.374  -1.227   4.157  1.00  0.00     0.038 A 
ATOM     10  C   UNL     1       0.011  -3.863   4.993  1.00  0.00     0.015 A 
ATOM     11  C   UNL     1      -0.179  -1.516   5.419  1.00  0.00     0.031 A 
ATOM     12  Br  UNL     1       0.728   0.613   3.832  1.00  0.00    -0.049 Br
BRANCH   7  13
ATOM     13  S   UNL     1       1.247  -2.035   1.621  1.00  0.00     0.244 S 
ATOM     14  O   UNL     1       0.813  -3.193   0.861  1.00  0.00    -0.207 OA
ATOM     15  O   UNL     1       2.648  -1.699   1.723  1.00  0.00    -0.207 OA
BRANCH  13  16
ATOM     16  N   UNL     1       0.407  -0.702   0.996  1.00  0.00    -0.192 NA
ATOM     17  C   UNL     1       0.992  -0.176  -0.261  1.00  0.00     0.125 C 
BRANCH  16  18
ATOM     18  C   UNL     1      -1.073  -0.759   0.955  1.00  0.00     0.201 C 
BRANCH  18  19
ATOM     19  C   UNL     1      -1.691  -1.749  -0.010  1.00  0.00     0.232 C 
ATOM     20  N   UNL     1      -2.362  -2.795   0.557  1.00  0.00    -0.369 N 
ATOM     21  O   UNL     1      -1.635  -1.626  -1.230  1.00  0.00    -0.274 OA
ATOM     22  H   UNL     1      -2.399  -2.882   1.537  1.00  0.00     0.159 HD
ATOM     23  H   UNL     1      -2.808  -3.461  -0.014  1.00  0.00     0.159 HD
ENDBRANCH  18  19
ENDBRANCH  16  18
ENDBRANCH  13  16
ENDBRANCH   7  13
ENDBRANCH   3   6
ENDBRANCH   1   2
BRANCH   1  24
ATOM     24  C   UNL     1      -2.240  -0.265   8.002  1.00  0.00     0.023 C 
BRANCH  24  25
ATOM     25  C   UNL     1      -3.314  -0.177   9.092  1.00  0.00     0.023 C 
BRANCH  25  26
ATOM     26  C   UNL     1      -2.935   0.698  10.284  1.00  0.00     0.116 C 
BRANCH  26  27
ATOM     27  N   UNL     1      -2.630   2.071   9.916  1.00  0.00    -0.352 N 
ATOM     28  C   UNL     1      -2.666   3.192  10.708  1.00  0.00     0.251 C 
ATOM     29  H   UNL     1      -2.364   2.215   8.979  1.00  0.00     0.163 HD
ATOM     30  O   UNL     1      -2.477   4.302  10.221  1.00  0.00    -0.269 OA
BRANCH  28  31
ATOM     31  C   UNL     1      -2.989   3.056  12.142  1.00  0.00     0.039 A 
ATOM     32  C   UNL     1      -3.987   3.870  12.681  1.00  0.00     0.014 A 
ATOM     33  C   UNL     1      -2.331   2.118  12.942  1.00  0.00     0.014 A 
ATOM     34  C   UNL     1      -4.371   3.700  14.012  1.00  0.00     0.010 A 
ATOM     35  C   UNL     1      -2.758   1.906  14.249  1.00  0.00     0.010 A 
ATOM     36  C   UNL     1      -3.780   2.696  14.796  1.00  0.00    -0.014 A 
BRANCH  36  37
ATOM     37  C   UNL     1      -4.222   2.459  16.190  1.00  0.00     0.031 A 
ATOM     38  C   UNL     1      -3.286   2.724  17.335  1.00  0.00     0.074 A 
ATOM     39  C   UNL     1      -5.446   1.947  16.421  1.00  0.00     0.049 A 
ATOM     40  N   UNL     1      -3.480   2.544  18.617  1.00  0.00    -0.248 NA
ATOM     41  C   UNL     1      -1.949   3.234  16.994  1.00  0.00     0.031 C 
ATOM     42  C   UNL     1      -6.429   1.599  15.392  1.00  0.00     0.029 A 
ATOM     43  N   UNL     1      -6.070   1.626  17.600  1.00  0.00    -0.354 N 
ATOM     44  C   UNL     1      -2.286   2.898  19.231  1.00  0.00     0.074 A 
ATOM     45  C   UNL     1      -1.360   3.261  18.180  1.00  0.00     0.031 C 
ATOM     46  C   UNL     1      -7.542   1.139  15.987  1.00  0.00     0.029 A 
ATOM     47  C   UNL     1      -7.340   1.132  17.432  1.00  0.00     0.049 A 
ATOM     48  H   UNL     1      -5.647   1.739  18.482  1.00  0.00     0.167 HD
ATOM     49  C   UNL     1      -1.991   2.937  20.552  1.00  0.00     0.031 A 
ATOM     50  C   UNL     1      -8.243   0.722  18.342  1.00  0.00     0.031 A 
ATOM     51  C   UNL     1      -2.916   2.595  21.598  1.00  0.00     0.049 A 
ATOM     52  C   UNL     1      -7.899   0.793  19.803  1.00  0.00     0.074 A 
ATOM     53  C   UNL     1      -2.733   2.664  22.968  1.00  0.00     0.029 A 
ATOM     54  N   UNL     1      -4.202   2.122  21.388  1.00  0.00    -0.354 N 
ATOM     55  N   UNL     1      -6.790   1.199  20.371  1.00  0.00    -0.248 NA
ATOM     56  C   UNL     1      -8.939   0.361  20.747  1.00  0.00     0.031 C 
ATOM     57  C   UNL     1      -3.897   2.196  23.588  1.00  0.00     0.029 A 
ATOM     58  C   UNL     1      -4.819   1.878  22.603  1.00  0.00     0.049 A 
ATOM     59  H   UNL     1      -4.615   1.981  20.505  1.00  0.00     0.167 HD
ATOM     60  C   UNL     1      -7.007   1.097  21.738  1.00  0.00     0.074 A 
ATOM     61  C   UNL     1      -8.357   0.603  21.914  1.00  0.00     0.031 C 
ATOM     62  C   UNL     1      -6.163   1.387  22.758  1.00  0.00     0.031 A 
BRANCH  49  63
ATOM     63  C   UNL     1      -0.602   3.363  20.934  1.00  0.00    -0.014 A 
ATOM     64  C   UNL     1      -0.189   4.698  20.794  1.00  0.00     0.009 A 
ATOM     65  C   UNL     1       0.298   2.424  21.459  1.00  0.00     0.009 A 
ATOM     66  C   UNL     1       1.111   5.075  21.137  1.00  0.00     0.001 A 
ATOM     67  C   UNL     1       1.589   2.809  21.826  1.00  0.00     0.001 A 
ATOM     68  C   UNL     1       1.997   4.132  21.655  1.00  0.00     0.000 A 
ENDBRANCH  49  63
BRANCH  50  69
ATOM     69  C   UNL     1      -9.575   0.237  17.899  1.00  0.00    -0.014 A 
ATOM     70  C   UNL     1     -10.716   1.031  18.088  1.00  0.00     0.009 A 
ATOM     71  C   UNL     1      -9.712  -1.018  17.287  1.00  0.00     0.009 A 
ATOM     72  C   UNL     1     -11.973   0.568  17.694  1.00  0.00     0.001 A 
ATOM     73  C   UNL     1     -10.967  -1.468  16.873  1.00  0.00     0.001 A 
ATOM     74  C   UNL     1     -12.097  -0.679  17.084  1.00  0.00     0.000 A 
ENDBRANCH  50  69
BRANCH  62  75
ATOM     75  C   UNL     1      -6.688   1.206  24.152  1.00  0.00    -0.014 A 
ATOM     76  C   UNL     1      -6.847  -0.073  24.708  1.00  0.00     0.009 A 
ATOM     77  C   UNL     1      -6.992   2.333  24.931  1.00  0.00     0.009 A 
ATOM     78  C   UNL     1      -7.331  -0.219  26.009  1.00  0.00     0.001 A 
ATOM     79  C   UNL     1      -7.452   2.184  26.240  1.00  0.00     0.001 A 
ATOM     80  C   UNL     1      -7.629   0.908  26.775  1.00  0.00     0.000 A 
ENDBRANCH  62  75
ENDBRANCH  36  37
ENDBRANCH  28  31
ENDBRANCH  26  27
ENDBRANCH  25  26
ENDBRANCH  24  25
ENDBRANCH   1  24
TORSDOF 15
