REMARK SMILES Cc1c(CC(=O)NCCCCNC(=O)c2ccc(-c3c4nc(c(-c5ccccc5)c5ccc([nH]5)c(-c5ccccc5)c5nc(c(-c6ccccc6)c6ccc3[nH]6)C=C5)C=C4)cc2)c2ccccc2n1C(=O)c1ccc(Cl)cc1
REMARK SMILES IDX 9 1 8 2 7 3 5 4 6 5 4 7 3 8 1 9 2 10 69 11 63 12 68 13 64 14
REMARK SMILES IDX 67 15 65 16 66 17 70 18 71 19 72 20 73 21 78 22 74 23 77 24
REMARK SMILES IDX 75 25 76 26 10 27 11 28 12 29 13 30 14 32 15 33 16 34 62 35
REMARK SMILES IDX 17 36 61 37 18 38 19 39 20 40 55 41 21 42 60 43 54 44 56 45
REMARK SMILES IDX 22 46 59 47 53 48 52 49 23 51 45 52 30 53 44 54 31 55 34 56
REMARK SMILES IDX 43 57 57 58 32 59 33 60 42 62 58 63 35 64 24 65 25 66 29 67
REMARK SMILES IDX 26 68 28 69 27 70 46 71 47 72 51 73 48 74 50 75 49 76 36 77
REMARK SMILES IDX 37 78 41 79 38 80 40 81 39 82
REMARK H PARENT 7 6 12 31 56 50 34 61
REMARK Flexibility Score: inf
ROOT
ATOM      1  C   UNL     1      -2.462  -2.110   0.550  1.00  0.00     0.023 C 
ENDROOT
BRANCH   1   2
ATOM      2  C   UNL     1      -1.203  -2.323   1.387  1.00  0.00     0.116 C 
BRANCH   2   3
ATOM      3  N   UNL     1      -0.656  -3.653   1.215  1.00  0.00    -0.356 N 
ATOM      4  C   UNL     1       0.527  -4.017   0.639  1.00  0.00     0.224 C 
ATOM      5  O   UNL     1       0.808  -5.217   0.595  1.00  0.00    -0.275 OA
ATOM      6  H   UNL     1      -1.210  -4.391   1.559  1.00  0.00     0.163 HD
BRANCH   4   7
ATOM      7  C   UNL     1       1.486  -2.955   0.122  1.00  0.00     0.138 C 
BRANCH   7   8
ATOM      8  C   UNL     1       0.945  -2.184  -1.050  1.00  0.00    -0.010 A 
ATOM      9  C   UNL     1       1.337   0.222  -0.193  1.00  0.00     0.065 C 
ATOM     10  C   UNL     1       0.843  -0.801  -1.172  1.00  0.00     0.028 A 
ATOM     11  N   UNL     1       0.196  -0.507  -2.385  1.00  0.00    -0.280 N 
ATOM     12  C   UNL     1       0.504  -2.751  -2.276  1.00  0.00     0.004 A 
ATOM     13  C   UNL     1       0.130  -1.703  -3.123  1.00  0.00     0.056 A 
ATOM     14  C   UNL     1       0.433  -4.083  -2.746  1.00  0.00     0.010 A 
ATOM     15  C   UNL     1      -0.227  -1.979  -4.461  1.00  0.00     0.027 A 
ATOM     16  C   UNL     1       0.013  -4.349  -4.048  1.00  0.00     0.001 A 
ATOM     17  C   UNL     1      -0.300  -3.304  -4.900  1.00  0.00     0.002 A 
BRANCH  11  18
ATOM     18  C   UNL     1      -0.298   0.769  -2.793  1.00  0.00     0.262 C 
ATOM     19  O   UNL     1      -0.118   1.743  -2.075  1.00  0.00    -0.268 OA
BRANCH  18  20
ATOM     20  C   UNL     1      -1.019   1.043  -4.049  1.00  0.00     0.040 A 
ATOM     21  C   UNL     1      -2.280   0.492  -4.304  1.00  0.00     0.015 A 
ATOM     22  C   UNL     1      -0.395   1.872  -4.988  1.00  0.00     0.015 A 
ATOM     23  C   UNL     1      -2.877   0.705  -5.550  1.00  0.00     0.021 A 
ATOM     24  C   UNL     1      -1.000   2.087  -6.226  1.00  0.00     0.021 A 
ATOM     25  C   UNL     1      -2.228   1.488  -6.508  1.00  0.00     0.041 A 
ATOM     26  Cl  UNL     1      -2.938   1.702  -8.060  1.00  0.00    -0.084 Cl
ENDBRANCH  18  20
ENDBRANCH  11  18
ENDBRANCH   7   8
ENDBRANCH   4   7
ENDBRANCH   2   3
ENDBRANCH   1   2
BRANCH   1  27
ATOM     27  C   UNL     1      -3.681  -2.912   1.025  1.00  0.00     0.023 C 
BRANCH  27  28
ATOM     28  C   UNL     1      -3.993  -2.772   2.518  1.00  0.00     0.116 C 
BRANCH  28  29
ATOM     29  N   UNL     1      -4.149  -1.394   2.940  1.00  0.00    -0.352 N 
ATOM     30  C   UNL     1      -5.202  -0.526   3.023  1.00  0.00     0.251 C 
ATOM     31  H   UNL     1      -3.302  -0.990   3.235  1.00  0.00     0.163 HD
ATOM     32  O   UNL     1      -4.958   0.572   3.530  1.00  0.00    -0.269 OA
BRANCH  30  33
ATOM     33  C   UNL     1      -6.579  -0.792   2.524  1.00  0.00     0.039 A 
ATOM     34  C   UNL     1      -6.994  -1.951   1.871  1.00  0.00     0.014 A 
ATOM     35  C   UNL     1      -7.511   0.253   2.685  1.00  0.00     0.014 A 
ATOM     36  C   UNL     1      -8.274  -2.044   1.337  1.00  0.00     0.010 A 
ATOM     37  C   UNL     1      -8.798   0.162   2.160  1.00  0.00     0.010 A 
ATOM     38  C   UNL     1      -9.165  -0.975   1.449  1.00  0.00    -0.014 A 
BRANCH  38  39
ATOM     39  C   UNL     1     -10.466  -1.130   0.805  1.00  0.00     0.031 A 
ATOM     40  C   UNL     1     -11.331  -2.242   1.295  1.00  0.00     0.074 A 
ATOM     41  C   UNL     1     -10.926  -0.298  -0.149  1.00  0.00     0.049 A 
ATOM     42  N   UNL     1     -11.823  -3.237   0.628  1.00  0.00    -0.248 NA
ATOM     43  C   UNL     1     -11.654  -2.261   2.729  1.00  0.00     0.031 C 
ATOM     44  C   UNL     1     -10.393   1.004  -0.557  1.00  0.00     0.029 A 
ATOM     45  N   UNL     1     -12.060  -0.422  -0.896  1.00  0.00    -0.354 N 
ATOM     46  C   UNL     1     -12.621  -3.951   1.522  1.00  0.00     0.074 A 
ATOM     47  C   UNL     1     -12.422  -3.348   2.817  1.00  0.00     0.031 C 
ATOM     48  C   UNL     1     -11.322   1.647  -1.299  1.00  0.00     0.029 A 
ATOM     49  C   UNL     1     -12.433   0.742  -1.544  1.00  0.00     0.049 A 
ATOM     50  H   UNL     1     -12.567  -1.263  -0.967  1.00  0.00     0.167 HD
ATOM     51  C   UNL     1     -13.500  -4.915   1.129  1.00  0.00     0.031 A 
ATOM     52  C   UNL     1     -13.605   0.968  -2.178  1.00  0.00     0.031 A 
ATOM     53  C   UNL     1     -13.225  -5.404  -0.192  1.00  0.00     0.049 A 
ATOM     54  C   UNL     1     -14.223  -0.337  -2.497  1.00  0.00     0.074 A 
ATOM     55  C   UNL     1     -12.186  -6.097  -0.778  1.00  0.00     0.029 A 
ATOM     56  N   UNL     1     -13.994  -4.936  -1.227  1.00  0.00    -0.354 N 
ATOM     57  N   UNL     1     -13.746  -1.175  -3.372  1.00  0.00    -0.248 NA
ATOM     58  C   UNL     1     -15.205  -0.887  -1.577  1.00  0.00     0.031 C 
ATOM     59  C   UNL     1     -12.123  -5.608  -2.114  1.00  0.00     0.029 A 
ATOM     60  C   UNL     1     -13.141  -4.664  -2.265  1.00  0.00     0.049 A 
ATOM     61  H   UNL     1     -14.971  -4.817  -1.224  1.00  0.00     0.167 HD
ATOM     62  C   UNL     1     -14.047  -2.430  -2.864  1.00  0.00     0.074 A 
ATOM     63  C   UNL     1     -15.052  -2.187  -1.835  1.00  0.00     0.031 C 
ATOM     64  C   UNL     1     -13.257  -3.511  -3.134  1.00  0.00     0.031 A 
BRANCH  51  65
ATOM     65  C   UNL     1     -14.784  -5.238   1.848  1.00  0.00    -0.014 A 
ATOM     66  C   UNL     1     -15.385  -4.361   2.771  1.00  0.00     0.009 A 
ATOM     67  C   UNL     1     -15.560  -6.331   1.420  1.00  0.00     0.009 A 
ATOM     68  C   UNL     1     -16.684  -4.563   3.248  1.00  0.00     0.001 A 
ATOM     69  C   UNL     1     -16.877  -6.513   1.863  1.00  0.00     0.001 A 
ATOM     70  C   UNL     1     -17.439  -5.627   2.776  1.00  0.00     0.000 A 
ENDBRANCH  51  65
BRANCH  52  71
ATOM     71  C   UNL     1     -14.369   2.229  -2.215  1.00  0.00    -0.014 A 
ATOM     72  C   UNL     1     -14.327   3.103  -1.112  1.00  0.00     0.009 A 
ATOM     73  C   UNL     1     -15.348   2.449  -3.193  1.00  0.00     0.009 A 
ATOM     74  C   UNL     1     -15.251   4.141  -0.974  1.00  0.00     0.001 A 
ATOM     75  C   UNL     1     -16.276   3.489  -3.054  1.00  0.00     0.001 A 
ATOM     76  C   UNL     1     -16.235   4.324  -1.938  1.00  0.00     0.000 A 
ENDBRANCH  52  71
BRANCH  64  77
ATOM     77  C   UNL     1     -12.199  -3.378  -4.205  1.00  0.00    -0.014 A 
ATOM     78  C   UNL     1     -12.128  -4.356  -5.210  1.00  0.00     0.009 A 
ATOM     79  C   UNL     1     -11.168  -2.423  -4.136  1.00  0.00     0.009 A 
ATOM     80  C   UNL     1     -11.061  -4.384  -6.111  1.00  0.00     0.001 A 
ATOM     81  C   UNL     1     -10.114  -2.435  -5.055  1.00  0.00     0.001 A 
ATOM     82  C   UNL     1     -10.056  -3.422  -6.035  1.00  0.00     0.000 A 
ENDBRANCH  64  77
ENDBRANCH  38  39
ENDBRANCH  30  33
ENDBRANCH  28  29
ENDBRANCH  27  28
ENDBRANCH   1  27
TORSDOF 14
