REMARK SMILES O=C(NCCCCNC(=O)c1ccccc1NC(=O)c1ccncc1)c1ccc(-c2c3nc(c(-c4ccccc4)c4ccc([nH]4)c(-c4ccccc4)c4nc(c(-c5ccccc5)c5ccc2[nH]5)C=C4)C=C3)cc1
REMARK SMILES IDX 5 1 4 2 3 3 1 4 2 5 26 7 27 8 73 9 28 10 72 11 29 12 30 13
REMARK SMILES IDX 31 14 66 15 32 16 71 17 65 18 67 19 33 20 70 21 64 22 63 23
REMARK SMILES IDX 34 25 56 26 41 27 55 28 42 29 45 30 54 31 68 32 43 33 44 34
REMARK SMILES IDX 53 36 69 37 46 38 35 39 36 40 40 41 37 42 39 43 38 44 57 45
REMARK SMILES IDX 58 46 62 47 59 48 61 49 60 50 47 51 48 52 52 53 49 54 51 55
REMARK SMILES IDX 50 56 6 57 7 58 8 59 9 60 10 62 11 63 12 64 16 65 13 66
REMARK SMILES IDX 15 67 14 68 17 69 18 70 19 72 20 73 21 74 25 75 22 76 24 77
REMARK SMILES IDX 23 78
REMARK H PARENT 3 6 67 24 45 35 8 61 17 71
REMARK Flexibility Score: inf
ROOT
ATOM      1  C   UNL     1       4.758  -0.611  -2.656  1.00  0.00     0.023 C 
ENDROOT
BRANCH   1   2
ATOM      2  C   UNL     1       4.463   0.162  -1.377  1.00  0.00     0.116 C 
BRANCH   2   3
ATOM      3  N   UNL     1       3.042   0.281  -1.093  1.00  0.00    -0.352 N 
ATOM      4  O   UNL     1       1.111  -0.057   0.026  1.00  0.00    -0.269 OA
ATOM      5  C   UNL     1       2.337  -0.119   0.018  1.00  0.00     0.251 C 
ATOM      6  H   UNL     1       2.506   0.710  -1.800  1.00  0.00     0.163 HD
BRANCH   5   7
ATOM      7  C   UNL     1       3.055  -0.659   1.194  1.00  0.00     0.039 A 
ATOM      8  C   UNL     1       4.207  -0.035   1.673  1.00  0.00     0.014 A 
ATOM      9  C   UNL     1       2.575  -1.814   1.819  1.00  0.00     0.014 A 
ATOM     10  C   UNL     1       4.969  -0.656   2.654  1.00  0.00     0.010 A 
ATOM     11  C   UNL     1       3.293  -2.386   2.875  1.00  0.00     0.010 A 
ATOM     12  C   UNL     1       4.519  -1.834   3.275  1.00  0.00    -0.014 A 
BRANCH  12  13
ATOM     13  C   UNL     1       5.334  -2.423   4.368  1.00  0.00     0.031 A 
ATOM     14  C   UNL     1       5.979  -3.775   4.230  1.00  0.00     0.074 A 
ATOM     15  C   UNL     1       5.550  -1.685   5.475  1.00  0.00     0.049 A 
ATOM     16  N   UNL     1       6.791  -4.385   5.058  1.00  0.00    -0.248 NA
ATOM     17  C   UNL     1       5.673  -4.547   3.015  1.00  0.00     0.031 C 
ATOM     18  C   UNL     1       4.968  -0.365   5.734  1.00  0.00     0.029 A 
ATOM     19  N   UNL     1       6.343  -1.919   6.569  1.00  0.00    -0.354 N 
ATOM     20  C   UNL     1       7.083  -5.612   4.474  1.00  0.00     0.074 A 
ATOM     21  C   UNL     1       6.340  -5.673   3.234  1.00  0.00     0.031 C 
ATOM     22  C   UNL     1       5.476   0.123   6.874  1.00  0.00     0.029 A 
ATOM     23  C   UNL     1       6.369  -0.871   7.457  1.00  0.00     0.049 A 
ATOM     24  H   UNL     1       6.844  -2.755   6.705  1.00  0.00     0.167 HD
ATOM     25  C   UNL     1       7.902  -6.593   4.926  1.00  0.00     0.031 A 
ATOM     26  C   UNL     1       7.034  -0.722   8.617  1.00  0.00     0.031 A 
ATOM     27  C   UNL     1       8.641  -6.535   6.161  1.00  0.00     0.049 A 
ATOM     28  C   UNL     1       7.929  -1.826   9.092  1.00  0.00     0.074 A 
ATOM     29  C   UNL     1       9.498  -7.480   6.700  1.00  0.00     0.029 A 
ATOM     30  N   UNL     1       8.613  -5.471   7.048  1.00  0.00    -0.354 N 
ATOM     31  N   UNL     1       8.204  -2.970   8.516  1.00  0.00    -0.248 NA
ATOM     32  C   UNL     1       8.607  -1.616  10.379  1.00  0.00     0.031 C 
ATOM     33  C   UNL     1       9.959  -7.003   7.932  1.00  0.00     0.029 A 
ATOM     34  C   UNL     1       9.427  -5.741   8.137  1.00  0.00     0.049 A 
ATOM     35  H   UNL     1       8.091  -4.645   6.924  1.00  0.00     0.167 HD
ATOM     36  C   UNL     1       9.089  -3.616   9.367  1.00  0.00     0.074 A 
ATOM     37  C   UNL     1       9.331  -2.721  10.480  1.00  0.00     0.031 C 
ATOM     38  C   UNL     1       9.645  -4.846   9.242  1.00  0.00     0.031 A 
BRANCH  25  39
ATOM     39  C   UNL     1       8.035  -7.831   4.082  1.00  0.00    -0.014 A 
ATOM     40  C   UNL     1       8.777  -7.820   2.891  1.00  0.00     0.009 A 
ATOM     41  C   UNL     1       7.460  -9.037   4.513  1.00  0.00     0.009 A 
ATOM     42  C   UNL     1       8.921  -8.987   2.136  1.00  0.00     0.001 A 
ATOM     43  C   UNL     1       7.625 -10.207   3.769  1.00  0.00     0.001 A 
ATOM     44  C   UNL     1       8.349 -10.180   2.578  1.00  0.00     0.000 A 
ENDBRANCH  25  39
BRANCH  26  45
ATOM     45  C   UNL     1       6.862   0.521   9.410  1.00  0.00    -0.014 A 
ATOM     46  C   UNL     1       7.907   1.449   9.528  1.00  0.00     0.009 A 
ATOM     47  C   UNL     1       5.638   0.789  10.045  1.00  0.00     0.009 A 
ATOM     48  C   UNL     1       7.736   2.611  10.285  1.00  0.00     0.001 A 
ATOM     49  C   UNL     1       5.461   1.964  10.775  1.00  0.00     0.001 A 
ATOM     50  C   UNL     1       6.512   2.870  10.902  1.00  0.00     0.000 A 
ENDBRANCH  26  45
BRANCH  38  51
ATOM     51  C   UNL     1      10.574  -5.279  10.338  1.00  0.00    -0.014 A 
ATOM     52  C   UNL     1      10.081  -5.645  11.601  1.00  0.00     0.009 A 
ATOM     53  C   UNL     1      11.956  -5.327  10.104  1.00  0.00     0.009 A 
ATOM     54  C   UNL     1      10.960  -6.011  12.621  1.00  0.00     0.001 A 
ATOM     55  C   UNL     1      12.830  -5.718  11.119  1.00  0.00     0.001 A 
ATOM     56  C   UNL     1      12.333  -6.049  12.379  1.00  0.00     0.000 A 
ENDBRANCH  38  51
ENDBRANCH  12  13
ENDBRANCH   5   7
ENDBRANCH   2   3
ENDBRANCH   1   2
BRANCH   1  57
ATOM     57  C   UNL     1       4.265   0.037  -3.948  1.00  0.00     0.023 C 
BRANCH  57  58
ATOM     58  C   UNL     1       4.649   1.503  -4.136  1.00  0.00     0.116 C 
BRANCH  58  59
ATOM     59  N   UNL     1       6.080   1.726  -4.021  1.00  0.00    -0.352 N 
ATOM     60  C   UNL     1       6.944   2.328  -4.897  1.00  0.00     0.253 C 
ATOM     61  H   UNL     1       6.490   1.396  -3.189  1.00  0.00     0.163 HD
ATOM     62  O   UNL     1       8.150   2.316  -4.670  1.00  0.00    -0.269 OA
BRANCH  60  63
ATOM     63  C   UNL     1       6.442   2.993  -6.117  1.00  0.00     0.063 A 
ATOM     64  C   UNL     1       6.961   2.517  -7.330  1.00  0.00     0.016 A 
ATOM     65  C   UNL     1       5.534   4.072  -6.087  1.00  0.00     0.054 A 
ATOM     66  C   UNL     1       6.574   3.103  -8.531  1.00  0.00     0.001 A 
ATOM     67  C   UNL     1       5.213   4.685  -7.302  1.00  0.00     0.027 A 
ATOM     68  C   UNL     1       5.710   4.193  -8.514  1.00  0.00     0.002 A 
BRANCH  65  69
ATOM     69  N   UNL     1       5.016   4.511  -4.846  1.00  0.00    -0.321 N 
ATOM     70  C   UNL     1       3.920   5.264  -4.497  1.00  0.00     0.255 C 
ATOM     71  H   UNL     1       5.550   4.216  -4.074  1.00  0.00     0.170 HD
ATOM     72  O   UNL     1       3.765   5.602  -3.324  1.00  0.00    -0.269 OA
BRANCH  70  73
ATOM     73  C   UNL     1       2.872   5.629  -5.465  1.00  0.00     0.043 A 
ATOM     74  C   UNL     1       2.245   4.670  -6.261  1.00  0.00     0.034 A 
ATOM     75  C   UNL     1       2.493   6.966  -5.545  1.00  0.00     0.034 A 
ATOM     76  C   UNL     1       1.311   5.115  -7.176  1.00  0.00     0.112 A 
ATOM     77  C   UNL     1       1.541   7.306  -6.486  1.00  0.00     0.112 A 
ATOM     78  N   UNL     1       0.957   6.412  -7.314  1.00  0.00    -0.265 NA
ENDBRANCH  70  73
ENDBRANCH  65  69
ENDBRANCH  60  63
ENDBRANCH  58  59
ENDBRANCH  57  58
ENDBRANCH   1  57
TORSDOF 13
