REMARK SMILES O=C(NCCCCNC(=O)c1cc(NC(=O)c2ccccc2Cl)ccc1N1CCC[C@H](C[NH+]2CCCC2)C1)c1ccc(-c2c3nc(c(-c4ccccc4)c4ccc([nH]4)c(-c4ccccc4)c4nc(c(-c5ccccc5)c5ccc2[nH]5)C=C4)C=C3)cc1
REMARK SMILES IDX 6 1 5 2 4 3 3 4 1 5 2 6 39 8 40 9 86 10 41 11 85 12 42 13
REMARK SMILES IDX 43 14 44 15 79 16 45 17 84 18 78 19 80 20 46 21 83 22 77 23
REMARK SMILES IDX 76 24 47 26 69 27 54 28 68 29 55 30 58 31 67 32 81 33 56 34
REMARK SMILES IDX 57 35 66 37 82 38 59 39 48 40 49 41 53 42 50 43 52 44 51 45
REMARK SMILES IDX 70 46 71 47 75 48 72 49 74 50 73 51 60 52 61 53 65 54 62 55
REMARK SMILES IDX 64 56 63 57 7 58 8 59 9 60 10 62 11 63 12 64 26 65 13 66
REMARK SMILES IDX 25 67 24 68 27 69 28 70 38 71 29 72 31 73 30 74 32 75 33 76
REMARK SMILES IDX 34 77 37 78 35 80 36 81 14 82 15 83 16 85 17 86 18 87 22 88
REMARK SMILES IDX 19 89 21 90 23 91 20 92
REMARK H PARENT 3 7 80 25 58 36 8 61 33 79 14 84
REMARK Flexibility Score: inf
ROOT
ATOM      1  C   UNL     1       4.757  -0.829   3.705  1.00  0.00     0.023 C 
ENDROOT
BRANCH   1   2
ATOM      2  C   UNL     1       5.125  -0.096   2.411  1.00  0.00     0.023 C 
BRANCH   2   3
ATOM      3  C   UNL     1       4.705  -0.763   1.102  1.00  0.00     0.116 C 
BRANCH   3   4
ATOM      4  N   UNL     1       3.263  -0.841   0.924  1.00  0.00    -0.352 N 
ATOM      5  O   UNL     1       1.220  -0.294   0.146  1.00  0.00    -0.269 OA
ATOM      6  C   UNL     1       2.434  -0.163   0.058  1.00  0.00     0.251 C 
ATOM      7  H   UNL     1       2.807  -1.482   1.516  1.00  0.00     0.163 HD
BRANCH   6   8
ATOM      8  C   UNL     1       2.999   0.754  -0.958  1.00  0.00     0.039 A 
ATOM      9  C   UNL     1       4.055   0.362  -1.784  1.00  0.00     0.014 A 
ATOM     10  C   UNL     1       2.439   2.027  -1.098  1.00  0.00     0.014 A 
ATOM     11  C   UNL     1       4.648   1.287  -2.641  1.00  0.00     0.010 A 
ATOM     12  C   UNL     1       2.987   2.930  -2.013  1.00  0.00     0.010 A 
ATOM     13  C   UNL     1       4.120   2.581  -2.765  1.00  0.00    -0.014 A 
BRANCH  13  14
ATOM     14  C   UNL     1       4.726   3.558  -3.706  1.00  0.00     0.031 A 
ATOM     15  C   UNL     1       5.351   4.827  -3.198  1.00  0.00     0.074 A 
ATOM     16  C   UNL     1       4.678   3.318  -5.029  1.00  0.00     0.049 A 
ATOM     17  N   UNL     1       5.841   5.835  -3.875  1.00  0.00    -0.248 NA
ATOM     18  C   UNL     1       5.427   4.989  -1.738  1.00  0.00     0.031 C 
ATOM     19  C   UNL     1       4.107   2.122  -5.650  1.00  0.00     0.029 A 
ATOM     20  N   UNL     1       5.102   4.077  -6.091  1.00  0.00    -0.354 N 
ATOM     21  C   UNL     1       6.256   6.763  -2.927  1.00  0.00     0.074 A 
ATOM     22  C   UNL     1       5.940   6.206  -1.629  1.00  0.00     0.031 C 
ATOM     23  C   UNL     1       4.220   2.224  -6.982  1.00  0.00     0.029 A 
ATOM     24  C   UNL     1       4.808   3.518  -7.311  1.00  0.00     0.049 A 
ATOM     25  H   UNL     1       5.570   4.937  -5.989  1.00  0.00     0.167 HD
ATOM     26  C   UNL     1       6.844   7.969  -3.121  1.00  0.00     0.031 A 
ATOM     27  C   UNL     1       4.955   4.004  -8.558  1.00  0.00     0.031 A 
ATOM     28  C   UNL     1       7.142   8.525  -4.416  1.00  0.00     0.049 A 
ATOM     29  C   UNL     1       5.553   5.366  -8.753  1.00  0.00     0.074 A 
ATOM     30  C   UNL     1       7.770   9.722  -4.717  1.00  0.00     0.029 A 
ATOM     31  N   UNL     1       6.817   7.929  -5.626  1.00  0.00    -0.354 N 
ATOM     32  N   UNL     1       5.976   6.215  -7.848  1.00  0.00    -0.248 NA
ATOM     33  C   UNL     1       5.699   5.835 -10.137  1.00  0.00     0.031 C 
ATOM     34  C   UNL     1       7.763   9.881  -6.106  1.00  0.00     0.029 A 
ATOM     35  C   UNL     1       7.199   8.750  -6.674  1.00  0.00     0.049 A 
ATOM     36  H   UNL     1       6.380   7.053  -5.725  1.00  0.00     0.167 HD
ATOM     37  C   UNL     1       6.466   7.307  -8.553  1.00  0.00     0.074 A 
ATOM     38  C   UNL     1       6.289   7.010  -9.960  1.00  0.00     0.031 C 
ATOM     39  C   UNL     1       7.021   8.446  -8.072  1.00  0.00     0.031 A 
BRANCH  26  40
ATOM     40  C   UNL     1       7.153   8.793  -1.899  1.00  0.00    -0.014 A 
ATOM     41  C   UNL     1       8.142   8.408  -0.979  1.00  0.00     0.009 A 
ATOM     42  C   UNL     1       6.447   9.985  -1.671  1.00  0.00     0.009 A 
ATOM     43  C   UNL     1       8.378   9.170   0.168  1.00  0.00     0.001 A 
ATOM     44  C   UNL     1       6.709  10.763  -0.541  1.00  0.00     0.001 A 
ATOM     45  C   UNL     1       7.663  10.347   0.385  1.00  0.00     0.000 A 
ENDBRANCH  26  40
BRANCH  27  46
ATOM     46  C   UNL     1       4.494   3.186  -9.709  1.00  0.00    -0.014 A 
ATOM     47  C   UNL     1       5.418   2.573 -10.568  1.00  0.00     0.009 A 
ATOM     48  C   UNL     1       3.122   2.967  -9.918  1.00  0.00     0.009 A 
ATOM     49  C   UNL     1       4.976   1.763 -11.616  1.00  0.00     0.001 A 
ATOM     50  C   UNL     1       2.685   2.133 -10.948  1.00  0.00     0.001 A 
ATOM     51  C   UNL     1       3.612   1.536 -11.799  1.00  0.00     0.000 A 
ENDBRANCH  27  46
BRANCH  39  52
ATOM     52  C   UNL     1       7.530   9.448  -9.071  1.00  0.00    -0.014 A 
ATOM     53  C   UNL     1       6.655  10.251  -9.818  1.00  0.00     0.009 A 
ATOM     54  C   UNL     1       8.914   9.644  -9.203  1.00  0.00     0.009 A 
ATOM     55  C   UNL     1       7.159  11.220 -10.689  1.00  0.00     0.001 A 
ATOM     56  C   UNL     1       9.414  10.632 -10.052  1.00  0.00     0.001 A 
ATOM     57  C   UNL     1       8.536  11.416 -10.798  1.00  0.00     0.000 A 
ENDBRANCH  39  52
ENDBRANCH  13  14
ENDBRANCH   6   8
ENDBRANCH   3   4
ENDBRANCH   2   3
ENDBRANCH   1   2
BRANCH   1  58
ATOM     58  C   UNL     1       5.123  -2.308   3.752  1.00  0.00     0.116 C 
BRANCH  58  59
ATOM     59  N   UNL     1       6.527  -2.613   3.608  1.00  0.00    -0.352 N 
ATOM     60  C   UNL     1       7.159  -3.812   3.871  1.00  0.00     0.253 C 
ATOM     61  H   UNL     1       7.101  -1.881   3.285  1.00  0.00     0.163 HD
ATOM     62  O   UNL     1       8.344  -3.932   3.559  1.00  0.00    -0.269 OA
BRANCH  60  63
ATOM     63  C   UNL     1       6.482  -4.913   4.619  1.00  0.00     0.065 A 
ATOM     64  C   UNL     1       7.184  -5.315   5.769  1.00  0.00     0.042 A 
ATOM     65  C   UNL     1       5.264  -5.533   4.283  1.00  0.00     0.050 A 
ATOM     66  C   UNL     1       6.637  -6.194   6.700  1.00  0.00     0.042 A 
ATOM     67  C   UNL     1       4.756  -6.472   5.204  1.00  0.00     0.029 A 
ATOM     68  C   UNL     1       5.421  -6.793   6.393  1.00  0.00     0.028 A 
BRANCH  65  69
ATOM     69  N   UNL     1       4.600  -5.382   3.072  1.00  0.00    -0.370 N 
ATOM     70  C   UNL     1       3.172  -5.044   3.049  1.00  0.00     0.116 C 
ATOM     71  C   UNL     1       5.405  -5.309   1.852  1.00  0.00     0.126 C 
ATOM     72  C   UNL     1       2.473  -5.593   1.813  1.00  0.00     0.022 C 
ATOM     73  C   UNL     1       4.703  -6.030   0.698  1.00  0.00     0.064 C 
ATOM     74  C   UNL     1       3.310  -5.405   0.551  1.00  0.00     0.013 C 
BRANCH  73  75
ATOM     75  C   UNL     1       4.747  -7.561   0.948  1.00  0.00     0.267 C 
BRANCH  75  76
ATOM     76  N   UNL     1       4.415  -8.487  -0.139  1.00  0.00    -0.335 N 
ATOM     77  C   UNL     1       5.244  -8.353  -1.334  1.00  0.00     0.262 C 
ATOM     78  C   UNL     1       3.021  -8.511  -0.569  1.00  0.00     0.262 C 
ATOM     79  H   UNL     1       4.617  -9.371   0.327  1.00  0.00     0.348 HD
ATOM     80  C   UNL     1       4.408  -7.550  -2.309  1.00  0.00     0.067 C 
ATOM     81  C   UNL     1       2.981  -7.955  -1.988  1.00  0.00     0.067 C 
ENDBRANCH  75  76
ENDBRANCH  73  75
ENDBRANCH  65  69
BRANCH  66  82
ATOM     82  N   UNL     1       7.227  -6.503   7.942  1.00  0.00    -0.322 N 
ATOM     83  C   UNL     1       8.192  -5.845   8.680  1.00  0.00     0.257 C 
ATOM     84  H   UNL     1       6.893  -7.332   8.356  1.00  0.00     0.170 HD
ATOM     85  O   UNL     1       8.662  -6.355   9.694  1.00  0.00    -0.269 OA
BRANCH  83  86
ATOM     86  C   UNL     1       8.673  -4.513   8.273  1.00  0.00     0.058 A 
ATOM     87  C   UNL     1       9.997  -4.430   7.818  1.00  0.00     0.015 A 
ATOM     88  C   UNL     1       7.826  -3.399   8.200  1.00  0.00     0.053 A 
ATOM     89  C   UNL     1      10.441  -3.262   7.198  1.00  0.00     0.001 A 
ATOM     90  C   UNL     1       8.278  -2.237   7.568  1.00  0.00     0.021 A 
ATOM     91  Cl  UNL     1       6.210  -3.412   8.809  1.00  0.00    -0.083 Cl
ATOM     92  C   UNL     1       9.575  -2.178   7.051  1.00  0.00     0.002 A 
ENDBRANCH  83  86
ENDBRANCH  66  82
ENDBRANCH  60  63
ENDBRANCH  58  59
ENDBRANCH   1  58
TORSDOF 16
