REMARK SMILES Cc1oc2c(C)c3oc(=O)c(CCC(=O)N[C@H](Cc4ccc(Cl)cc4)C(=O)NCCCCNC(=O)c4ccc(-c5c6nc(c(-c7ccccc7)c7ccc([nH]7)c(-c7ccccc7)c7nc(c(-c8ccccc8)c8ccc5[nH]8)C=C7)C=C6)cc4)c(C)c3cc2c1C
REMARK SMILES IDX 29 1 28 2 26 3 27 4 17 6 16 7 14 8 15 9 13 11 12 12 11 13
REMARK SMILES IDX 1 14 2 15 3 16 89 17 4 18 88 19 90 20 5 21 87 22 6 23 7 24
REMARK SMILES IDX 86 25 8 26 84 27 9 28 85 29 10 30 18 31 19 32 20 33 25 34
REMARK SMILES IDX 21 35 24 36 22 37 23 38 30 39 31 40 32 41 33 42 34 43 35 45
REMARK SMILES IDX 36 46 37 47 83 48 38 49 82 50 39 51 40 52 41 53 76 54 42 55
REMARK SMILES IDX 81 56 75 57 77 58 43 59 80 60 74 61 73 62 44 64 66 65 51 66
REMARK SMILES IDX 65 67 52 68 55 69 64 70 78 71 53 72 54 73 63 75 79 76 56 77
REMARK SMILES IDX 45 78 46 79 50 80 47 81 49 82 48 83 67 84 68 85 72 86 69 87
REMARK SMILES IDX 71 88 70 89 57 90 58 91 62 92 59 93 61 94 60 95
REMARK H PARENT 28 5 16 10 33 44 77 63 55 74
REMARK Flexibility Score: inf
ROOT
ATOM      1  C   UNL     1       1.844   3.841   4.191  1.00  0.00     0.116 C 
ENDROOT
BRANCH   1   2
ATOM      2  N   UNL     1       0.972   5.034   4.339  1.00  0.00    -0.354 N 
ATOM      3  C   UNL     1       0.430   6.152   3.784  1.00  0.00     0.242 C 
ATOM      4  O   UNL     1      -0.538   6.549   4.469  1.00  0.00    -0.273 OA
ATOM      5  H   UNL     1       0.628   5.001   5.261  1.00  0.00     0.163 HD
BRANCH   3   6
ATOM      6  C   UNL     1       0.761   7.103   2.289  1.00  0.00     0.175 C 
BRANCH   6   7
ATOM      7  N   UNL     1      -0.159   6.185   1.368  1.00  0.00    -0.344 N 
ATOM      8  C   UNL     1       0.002   5.015   0.702  1.00  0.00     0.220 C 
ATOM      9  O   UNL     1      -0.916   4.637  -0.029  1.00  0.00    -0.275 OA
ATOM     10  H   UNL     1      -1.063   6.557   1.256  1.00  0.00     0.164 HD
BRANCH   8  11
ATOM     11  C   UNL     1       1.262   4.176   0.851  1.00  0.00     0.105 C 
BRANCH  11  12
ATOM     12  C   UNL     1       2.625   4.858   1.143  1.00  0.00     0.053 C 
BRANCH  12  13
ATOM     13  C   UNL     1       2.446   6.317   1.377  1.00  0.00     0.042 A 
ATOM     14  C   UNL     1       0.354  14.216  -0.984  1.00  0.00     0.088 C 
ATOM     15  C   UNL     1       0.100  12.820  -0.571  1.00  0.00     0.105 A 
ATOM     16  O   UNL     1      -0.041  12.582   0.767  1.00  0.00    -0.461 OA
ATOM     17  C   UNL     1       0.094  11.639  -1.277  1.00  0.00    -0.002 A 
ATOM     18  C   UNL     1       0.002  11.218   0.977  1.00  0.00     0.141 A 
ATOM     19  C   UNL     1       0.033  10.600  -0.296  1.00  0.00     0.025 A 
ATOM     20  C   UNL     1       0.333  11.410  -2.729  1.00  0.00     0.049 C 
ATOM     21  C   UNL     1       0.156  10.633   2.276  1.00  0.00     0.036 A 
ATOM     22  C   UNL     1       0.207   9.219  -0.519  1.00  0.00     0.024 A 
ATOM     23  C   UNL     1       0.152  11.383   3.555  1.00  0.00     0.052 C 
ATOM     24  C   UNL     1       0.568   9.325   2.076  1.00  0.00     0.145 A 
ATOM     25  C   UNL     1       0.670   8.546   0.572  1.00  0.00     0.022 A 
ATOM     26  O   UNL     1       1.478   8.445   3.413  1.00  0.00    -0.422 OA
ATOM     27  C   UNL     1       1.746   7.075   0.256  1.00  0.00    -0.030 A 
ATOM     28  C   UNL     1       2.562   6.988   3.214  1.00  0.00     0.339 A 
ATOM     29  C   UNL     1       1.778   6.688  -1.201  1.00  0.00     0.046 C 
ATOM     30  O   UNL     1       3.386   6.698   4.066  1.00  0.00    -0.246 OA
ENDBRANCH  12  13
ENDBRANCH  11  12
ENDBRANCH   8  11
ENDBRANCH   6   7
BRANCH   6  31
ATOM     31  C   UNL     1       2.467   8.386   1.811  1.00  0.00     0.070 C 
BRANCH  31  32
ATOM     32  C   UNL     1       3.182   9.793   2.529  1.00  0.00    -0.045 A 
ATOM     33  C   UNL     1       3.212  10.982   1.764  1.00  0.00     0.005 A 
ATOM     34  C   UNL     1       3.765   9.822   3.811  1.00  0.00     0.005 A 
ATOM     35  C   UNL     1       3.647  12.186   2.323  1.00  0.00     0.021 A 
ATOM     36  C   UNL     1       4.229  11.027   4.355  1.00  0.00     0.021 A 
ATOM     37  C   UNL     1       4.137  12.207   3.624  1.00  0.00     0.041 A 
ATOM     38  Cl  UNL     1       4.624  13.698   4.332  1.00  0.00    -0.084 Cl
ENDBRANCH  31  32
ENDBRANCH   6  31
ENDBRANCH   3   6
ENDBRANCH   1   2
BRANCH   1  39
ATOM     39  C   UNL     1       3.312   3.913   4.640  1.00  0.00     0.023 C 
BRANCH  39  40
ATOM     40  C   UNL     1       3.739   2.887   5.695  1.00  0.00     0.023 C 
BRANCH  40  41
ATOM     41  C   UNL     1       3.563   1.418   5.322  1.00  0.00     0.116 C 
BRANCH  41  42
ATOM     42  N   UNL     1       4.375   1.044   4.178  1.00  0.00    -0.352 N 
ATOM     43  C   UNL     1       5.030  -0.139   3.955  1.00  0.00     0.251 C 
ATOM     44  H   UNL     1       4.465   1.726   3.473  1.00  0.00     0.163 HD
ATOM     45  O   UNL     1       5.845  -0.242   3.045  1.00  0.00    -0.269 OA
BRANCH  43  46
ATOM     46  C   UNL     1       4.752  -1.294   4.822  1.00  0.00     0.039 A 
ATOM     47  C   UNL     1       5.812  -1.896   5.502  1.00  0.00     0.014 A 
ATOM     48  C   UNL     1       3.454  -1.805   4.913  1.00  0.00     0.014 A 
ATOM     49  C   UNL     1       5.560  -2.992   6.320  1.00  0.00     0.010 A 
ATOM     50  C   UNL     1       3.206  -2.905   5.727  1.00  0.00     0.010 A 
ATOM     51  C   UNL     1       4.254  -3.487   6.452  1.00  0.00    -0.014 A 
BRANCH  51  52
ATOM     52  C   UNL     1       4.030  -4.534   7.466  1.00  0.00     0.031 A 
ATOM     53  C   UNL     1       2.852  -4.276   8.366  1.00  0.00     0.074 A 
ATOM     54  C   UNL     1       4.391  -5.807   7.202  1.00  0.00     0.049 A 
ATOM     55  N   UNL     1       1.617  -4.521   8.033  1.00  0.00    -0.248 NA
ATOM     56  C   UNL     1       2.977  -3.457   9.574  1.00  0.00     0.031 C 
ATOM     57  C   UNL     1       4.189  -6.468   5.906  1.00  0.00     0.029 A 
ATOM     58  N   UNL     1       4.796  -6.818   8.041  1.00  0.00    -0.354 N 
ATOM     59  C   UNL     1       0.800  -3.886   8.960  1.00  0.00     0.074 A 
ATOM     60  C   UNL     1       1.692  -3.235   9.893  1.00  0.00     0.031 C 
ATOM     61  C   UNL     1       4.292  -7.801   6.083  1.00  0.00     0.029 A 
ATOM     62  C   UNL     1       4.680  -8.081   7.464  1.00  0.00     0.049 A 
ATOM     63  H   UNL     1       5.134  -6.666   8.953  1.00  0.00     0.167 HD
ATOM     64  C   UNL     1      -0.560  -3.949   8.917  1.00  0.00     0.031 A 
ATOM     65  C   UNL     1       4.343  -9.200   8.166  1.00  0.00     0.031 A 
ATOM     66  C   UNL     1      -1.097  -4.758   7.864  1.00  0.00     0.049 A 
ATOM     67  C   UNL     1       2.852  -8.999   8.301  1.00  0.00     0.074 A 
ATOM     68  C   UNL     1      -1.684  -4.594   6.629  1.00  0.00     0.029 A 
ATOM     69  N   UNL     1      -1.049  -6.119   8.039  1.00  0.00    -0.354 N 
ATOM     70  N   UNL     1       1.960  -9.194   7.368  1.00  0.00    -0.248 NA
ATOM     71  C   UNL     1       2.393  -8.167   9.416  1.00  0.00     0.031 C 
ATOM     72  C   UNL     1      -1.509  -5.848   5.958  1.00  0.00     0.029 A 
ATOM     73  C   UNL     1      -0.796  -6.684   6.819  1.00  0.00     0.049 A 
ATOM     74  H   UNL     1      -1.174  -6.601   8.888  1.00  0.00     0.167 HD
ATOM     75  C   UNL     1       0.954  -8.254   7.611  1.00  0.00     0.074 A 
ATOM     76  C   UNL     1       1.273  -7.675   8.902  1.00  0.00     0.031 C 
ATOM     77  C   UNL     1       0.038  -7.859   6.674  1.00  0.00     0.031 A 
BRANCH  64  78
ATOM     78  C   UNL     1      -1.477  -3.458   9.975  1.00  0.00    -0.014 A 
ATOM     79  C   UNL     1      -2.024  -4.418  10.845  1.00  0.00     0.009 A 
ATOM     80  C   UNL     1      -1.989  -2.157   9.998  1.00  0.00     0.009 A 
ATOM     81  C   UNL     1      -3.093  -4.107  11.682  1.00  0.00     0.001 A 
ATOM     82  C   UNL     1      -3.054  -1.841  10.855  1.00  0.00     0.001 A 
ATOM     83  C   UNL     1      -3.615  -2.818  11.681  1.00  0.00     0.000 A 
ENDBRANCH  64  78
BRANCH  65  84
ATOM     84  C   UNL     1       5.238  -9.530   9.322  1.00  0.00    -0.014 A 
ATOM     85  C   UNL     1       6.628  -9.561   9.084  1.00  0.00     0.009 A 
ATOM     86  C   UNL     1       4.807  -9.798  10.629  1.00  0.00     0.009 A 
ATOM     87  C   UNL     1       7.547  -9.714  10.125  1.00  0.00     0.001 A 
ATOM     88  C   UNL     1       5.726  -9.927  11.679  1.00  0.00     0.001 A 
ATOM     89  C   UNL     1       7.094  -9.863  11.430  1.00  0.00     0.000 A 
ENDBRANCH  65  84
BRANCH  77  90
ATOM     90  C   UNL     1       0.092  -8.565   5.354  1.00  0.00    -0.014 A 
ATOM     91  C   UNL     1      -0.151  -9.941   5.270  1.00  0.00     0.009 A 
ATOM     92  C   UNL     1       0.354  -7.855   4.169  1.00  0.00     0.009 A 
ATOM     93  C   UNL     1      -0.151 -10.589   4.034  1.00  0.00     0.001 A 
ATOM     94  C   UNL     1       0.327  -8.498   2.929  1.00  0.00     0.001 A 
ATOM     95  C   UNL     1       0.073  -9.865   2.864  1.00  0.00     0.000 A 
ENDBRANCH  77  90
ENDBRANCH  51  52
ENDBRANCH  43  46
ENDBRANCH  41  42
ENDBRANCH  40  41
ENDBRANCH  39  40
ENDBRANCH   1  39
TORSDOF 17
