REMARK SMILES C[C@@H](C(=O)NCCCCNC(=O)c1ccc(-c2c3nc(c(-c4ccccc4)c4ccc([nH]4)c(-c4ccccc4)c4nc(c(-c5ccccc5)c5ccc2[nH]5)C=C4)C=C3)cc1)c1ccc(-c2cccc(OC(=O)Nc3ccccc3)c2)c(F)c1
REMARK SMILES IDX 6 1 5 2 3 3 4 4 2 6 1 7 61 8 62 9 83 10 63 11 81 12 64 13
REMARK SMILES IDX 82 14 65 15 66 16 80 17 67 18 69 19 68 20 70 21 71 22 72 23
REMARK SMILES IDX 73 24 74 26 75 27 79 28 76 29 78 30 77 31 7 32 8 33 9 34
REMARK SMILES IDX 10 35 11 36 12 38 13 39 14 40 60 41 15 42 59 43 16 44 17 45
REMARK SMILES IDX 18 46 53 47 19 48 58 49 52 50 54 51 20 52 57 53 51 54 50 55
REMARK SMILES IDX 21 57 43 58 28 59 42 60 29 61 32 62 41 63 55 64 30 65 31 66
REMARK SMILES IDX 40 68 56 69 33 70 22 71 23 72 27 73 24 74 26 75 25 76 44 77
REMARK SMILES IDX 45 78 49 79 46 80 48 81 47 82 34 83 35 84 39 85 36 86 38 87
REMARK SMILES IDX 37 88
REMARK H PARENT 5 5 73 25 10 37 54 56 32 67
REMARK Flexibility Score: inf
ROOT
ATOM      1  C   UNL     1       3.499  -1.927   0.456  1.00  0.00     0.116 C 
ENDROOT
BRANCH   1   2
ATOM      2  N   UNL     1       2.405  -2.311   1.322  1.00  0.00    -0.356 N 
ATOM      3  C   UNL     1       1.093  -1.934   1.289  1.00  0.00     0.227 C 
ATOM      4  O   UNL     1       0.407  -2.249   2.263  1.00  0.00    -0.274 OA
ATOM      5  H   UNL     1       2.643  -2.937   2.043  1.00  0.00     0.163 HD
BRANCH   3   6
ATOM      6  C   UNL     1       0.527  -1.197   0.056  1.00  0.00     0.105 C 
ATOM      7  C   UNL     1       1.052   0.242  -0.011  1.00  0.00     0.023 C 
BRANCH   6   8
ATOM      8  C   UNL     1      -1.002  -1.275   0.004  1.00  0.00    -0.033 A 
ATOM      9  C   UNL     1      -1.824  -0.141   0.087  1.00  0.00     0.005 A 
ATOM     10  C   UNL     1      -1.625  -2.529  -0.104  1.00  0.00     0.044 A 
ATOM     11  C   UNL     1      -3.216  -0.256   0.084  1.00  0.00     0.012 A 
ATOM     12  C   UNL     1      -3.017  -2.637  -0.088  1.00  0.00     0.131 A 
ATOM     13  C   UNL     1      -3.838  -1.508   0.016  1.00  0.00     0.018 A 
ATOM     14  F   UNL     1      -3.558  -3.863  -0.155  1.00  0.00    -0.206 F 
BRANCH  13  15
ATOM     15  C   UNL     1      -5.296  -1.605   0.155  1.00  0.00    -0.012 A 
ATOM     16  C   UNL     1      -6.163  -0.914  -0.707  1.00  0.00     0.009 A 
ATOM     17  C   UNL     1      -5.846  -2.323   1.230  1.00  0.00     0.056 A 
ATOM     18  C   UNL     1      -7.544  -0.928  -0.495  1.00  0.00     0.004 A 
ATOM     19  C   UNL     1      -7.218  -2.313   1.454  1.00  0.00     0.133 A 
ATOM     20  C   UNL     1      -8.072  -1.623   0.591  1.00  0.00     0.047 A 
BRANCH  19  21
ATOM     21  O   UNL     1      -7.851  -2.943   2.552  1.00  0.00    -0.410 OA
BRANCH  21  22
ATOM     22  C   UNL     1      -7.222  -3.438   3.693  1.00  0.00     0.417 C 
ATOM     23  O   UNL     1      -6.009  -3.503   3.873  1.00  0.00    -0.224 OA
ATOM     24  N   UNL     1      -8.070  -3.772   4.717  1.00  0.00    -0.291 N 
ATOM     25  H   UNL     1      -7.622  -4.002   5.563  1.00  0.00     0.173 HD
BRANCH  24  26
ATOM     26  C   UNL     1      -9.470  -3.840   4.759  1.00  0.00     0.044 A 
ATOM     27  C   UNL     1     -10.068  -3.784   6.023  1.00  0.00     0.026 A 
ATOM     28  C   UNL     1     -10.280  -3.988   3.631  1.00  0.00     0.026 A 
ATOM     29  C   UNL     1     -11.458  -3.823   6.154  1.00  0.00     0.002 A 
ATOM     30  C   UNL     1     -11.670  -4.044   3.764  1.00  0.00     0.002 A 
ATOM     31  C   UNL     1     -12.259  -3.952   5.023  1.00  0.00     0.000 A 
ENDBRANCH  24  26
ENDBRANCH  21  22
ENDBRANCH  19  21
ENDBRANCH  13  15
ENDBRANCH   6   8
ENDBRANCH   3   6
ENDBRANCH   1   2
BRANCH   1  32
ATOM     32  C   UNL     1       4.295  -0.773   1.073  1.00  0.00     0.023 C 
BRANCH  32  33
ATOM     33  C   UNL     1       5.083  -1.142   2.332  1.00  0.00     0.023 C 
BRANCH  33  34
ATOM     34  C   UNL     1       6.089  -2.272   2.156  1.00  0.00     0.116 C 
BRANCH  34  35
ATOM     35  N   UNL     1       7.045  -2.015   1.093  1.00  0.00    -0.352 N 
ATOM     36  C   UNL     1       8.389  -2.282   1.048  1.00  0.00     0.251 C 
ATOM     37  H   UNL     1       6.674  -1.587   0.288  1.00  0.00     0.163 HD
ATOM     38  O   UNL     1       9.061  -1.871   0.106  1.00  0.00    -0.269 OA
BRANCH  36  39
ATOM     39  C   UNL     1       9.037  -3.032   2.144  1.00  0.00     0.039 A 
ATOM     40  C   UNL     1      10.278  -2.589   2.608  1.00  0.00     0.014 A 
ATOM     41  C   UNL     1       8.442  -4.165   2.707  1.00  0.00     0.014 A 
ATOM     42  C   UNL     1      10.896  -3.250   3.669  1.00  0.00     0.010 A 
ATOM     43  C   UNL     1       9.023  -4.778   3.815  1.00  0.00     0.010 A 
ATOM     44  C   UNL     1      10.259  -4.331   4.302  1.00  0.00    -0.014 A 
BRANCH  44  45
ATOM     45  C   UNL     1      10.887  -4.988   5.475  1.00  0.00     0.031 A 
ATOM     46  C   UNL     1      11.345  -6.418   5.400  1.00  0.00     0.074 A 
ATOM     47  C   UNL     1      11.028  -4.294   6.622  1.00  0.00     0.049 A 
ATOM     48  N   UNL     1      11.953  -7.137   6.311  1.00  0.00    -0.248 NA
ATOM     49  C   UNL     1      11.068  -7.144   4.150  1.00  0.00     0.031 C 
ATOM     50  C   UNL     1      10.570  -2.920   6.842  1.00  0.00     0.029 A 
ATOM     51  N   UNL     1      11.605  -4.648   7.815  1.00  0.00    -0.354 N 
ATOM     52  C   UNL     1      12.132  -8.392   5.744  1.00  0.00     0.074 A 
ATOM     53  C   UNL     1      11.513  -8.358   4.437  1.00  0.00     0.031 C 
ATOM     54  C   UNL     1      10.917  -2.535   8.081  1.00  0.00     0.029 A 
ATOM     55  C   UNL     1      11.595  -3.641   8.749  1.00  0.00     0.049 A 
ATOM     56  H   UNL     1      11.989  -5.538   7.985  1.00  0.00     0.167 HD
ATOM     57  C   UNL     1      12.778  -9.469   6.252  1.00  0.00     0.031 A 
ATOM     58  C   UNL     1      12.084  -3.608  10.003  1.00  0.00     0.031 A 
ATOM     59  C   UNL     1      13.390  -9.507   7.554  1.00  0.00     0.049 A 
ATOM     60  C   UNL     1      12.800  -4.815  10.541  1.00  0.00     0.074 A 
ATOM     61  C   UNL     1      14.097 -10.539   8.146  1.00  0.00     0.029 A 
ATOM     62  N   UNL     1      13.367  -8.464   8.466  1.00  0.00    -0.354 N 
ATOM     63  N   UNL     1      13.026  -5.969   9.962  1.00  0.00    -0.248 NA
ATOM     64  C   UNL     1      13.348  -4.703  11.900  1.00  0.00     0.031 C 
ATOM     65  C   UNL     1      14.465 -10.136   9.434  1.00  0.00     0.029 A 
ATOM     66  C   UNL     1      14.034  -8.833   9.623  1.00  0.00     0.049 A 
ATOM     67  H   UNL     1      12.939  -7.590   8.315  1.00  0.00     0.167 HD
ATOM     68  C   UNL     1      13.759  -6.713  10.877  1.00  0.00     0.074 A 
ATOM     69  C   UNL     1      13.964  -5.868  12.036  1.00  0.00     0.031 C 
ATOM     70  C   UNL     1      14.220  -7.984  10.770  1.00  0.00     0.031 A 
BRANCH  57  71
ATOM     71  C   UNL     1      12.860 -10.695   5.386  1.00  0.00    -0.014 A 
ATOM     72  C   UNL     1      13.664 -10.713   4.234  1.00  0.00     0.009 A 
ATOM     73  C   UNL     1      12.157 -11.857   5.739  1.00  0.00     0.009 A 
ATOM     74  C   UNL     1      13.735 -11.857   3.436  1.00  0.00     0.001 A 
ATOM     75  C   UNL     1      12.253 -13.009   4.956  1.00  0.00     0.001 A 
ATOM     76  C   UNL     1      13.034 -13.005   3.801  1.00  0.00     0.000 A 
ENDBRANCH  57  71
BRANCH  58  77
ATOM     77  C   UNL     1      11.934  -2.382  10.829  1.00  0.00    -0.014 A 
ATOM     78  C   UNL     1      13.048  -1.589  11.143  1.00  0.00     0.009 A 
ATOM     79  C   UNL     1      10.674  -2.007  11.320  1.00  0.00     0.009 A 
ATOM     80  C   UNL     1      12.909  -0.464  11.959  1.00  0.00     0.001 A 
ATOM     81  C   UNL     1      10.532  -0.864  12.109  1.00  0.00     0.001 A 
ATOM     82  C   UNL     1      11.651  -0.100  12.438  1.00  0.00     0.000 A 
ENDBRANCH  58  77
BRANCH  70  83
ATOM     83  C   UNL     1      15.008  -8.521  11.931  1.00  0.00    -0.014 A 
ATOM     84  C   UNL     1      14.390  -8.827  13.154  1.00  0.00     0.009 A 
ATOM     85  C   UNL     1      16.389  -8.735  11.796  1.00  0.00     0.009 A 
ATOM     86  C   UNL     1      15.146  -9.292  14.231  1.00  0.00     0.001 A 
ATOM     87  C   UNL     1      17.137  -9.229  12.864  1.00  0.00     0.001 A 
ATOM     88  C   UNL     1      16.518  -9.495  14.085  1.00  0.00     0.000 A 
ENDBRANCH  70  83
ENDBRANCH  44  45
ENDBRANCH  36  39
ENDBRANCH  34  35
ENDBRANCH  33  34
ENDBRANCH  32  33
ENDBRANCH   1  32
TORSDOF 16
