REMARK SMILES Cc1ccc(C(c2ccccc2)(c2ccccc2)n2cnc(C[C@H]([NH3+])C(=O)NCCCCNC(=O)c3ccc(-c4c5nc(c(-c6ccccc6)c6ccc([nH]6)c(-c6ccccc6)c6nc(c(-c7ccccc7)c7ccc4[nH]7)C=C6)C=C5)cc3)c2)cc1
REMARK SMILES IDX 29 1 28 2 26 3 27 4 24 6 23 7 22 8 19 9 20 10 84 11 21 12
REMARK SMILES IDX 6 13 5 14 1 15 2 16 3 17 86 18 4 19 85 20 7 21 8 22 12 23
REMARK SMILES IDX 9 24 11 25 10 26 13 27 14 28 18 29 15 30 17 31 16 32 25 33
REMARK SMILES IDX 30 37 31 38 32 39 33 40 34 41 35 43 36 44 37 45 83 46 38 47
REMARK SMILES IDX 82 48 39 49 40 50 41 51 76 52 42 53 81 54 75 55 77 56 43 57
REMARK SMILES IDX 80 58 74 59 73 60 44 62 66 63 51 64 65 65 52 66 55 67 64 68
REMARK SMILES IDX 78 69 53 70 54 71 63 73 79 74 56 75 45 76 46 77 50 78 47 79
REMARK SMILES IDX 49 80 48 81 67 82 68 83 72 84 69 85 71 86 70 87 57 88 58 89
REMARK SMILES IDX 62 90 59 91 61 92 60 93
REMARK H PARENT 28 5 25 34 25 35 25 36 33 42 77 61 55 72
REMARK Flexibility Score: inf
ROOT
ATOM      1  C   UNL     1      -5.358  -7.001   1.870  1.00  0.00     0.116 C 
ENDROOT
BRANCH   1   2
ATOM      2  N   UNL     1      -6.745  -6.598   1.994  1.00  0.00    -0.351 N 
ATOM      3  C   UNL     1      -7.423  -5.503   1.542  1.00  0.00     0.278 C 
ATOM      4  O   UNL     1      -8.567  -5.343   1.982  1.00  0.00    -0.268 OA
ATOM      5  H   UNL     1      -7.302  -7.234   2.500  1.00  0.00     0.163 HD
BRANCH   3   6
ATOM      6  C   UNL     1      -6.787  -4.481   0.576  1.00  0.00     0.276 C 
BRANCH   6   7
ATOM      7  C   UNL     1      -6.338  -5.088  -0.763  1.00  0.00     0.133 C 
BRANCH   7   8
ATOM      8  C   UNL     1      -7.459  -5.466  -1.665  1.00  0.00     0.065 A 
ATOM      9  N   UNL     1      -8.795  -5.708  -3.394  1.00  0.00    -0.319 N 
ATOM     10  C   UNL     1      -9.388  -6.180  -2.243  1.00  0.00     0.201 A 
ATOM     11  C   UNL     1      -7.525  -5.323  -3.032  1.00  0.00     0.112 A 
ATOM     12  N   UNL     1      -8.601  -6.055  -1.199  1.00  0.00    -0.241 NA
BRANCH   9  13
ATOM     13  C   UNL     1      -9.454  -5.589  -4.739  1.00  0.00     0.121 C 
BRANCH  13  14
ATOM     14  C   UNL     1      -9.555  -7.025  -5.402  1.00  0.00    -0.013 A 
ATOM     15  C   UNL     1      -9.962 -10.908  -7.324  1.00  0.00     0.044 C 
ATOM     16  C   UNL     1      -9.805  -9.562  -6.683  1.00  0.00    -0.051 A 
ATOM     17  C   UNL     1      -9.240  -9.455  -5.409  1.00  0.00     0.004 A 
ATOM     18  C   UNL     1     -10.215  -8.399  -7.335  1.00  0.00     0.004 A 
ATOM     19  C   UNL     1      -9.113  -8.209  -4.780  1.00  0.00     0.007 A 
ATOM     20  C   UNL     1     -10.079  -7.155  -6.713  1.00  0.00     0.007 A 
ENDBRANCH  13  14
BRANCH  13  21
ATOM     21  C   UNL     1     -10.899  -4.964  -4.484  1.00  0.00    -0.013 A 
ATOM     22  C   UNL     1     -11.066  -3.817  -3.671  1.00  0.00     0.007 A 
ATOM     23  C   UNL     1     -12.093  -5.552  -4.954  1.00  0.00     0.007 A 
ATOM     24  C   UNL     1     -12.320  -3.239  -3.439  1.00  0.00     0.000 A 
ATOM     25  C   UNL     1     -13.351  -4.984  -4.712  1.00  0.00     0.000 A 
ATOM     26  C   UNL     1     -13.464  -3.816  -3.972  1.00  0.00     0.000 A 
ENDBRANCH  13  21
BRANCH  13  27
ATOM     27  C   UNL     1      -8.521  -4.652  -5.639  1.00  0.00    -0.013 A 
ATOM     28  C   UNL     1      -7.585  -5.207  -6.548  1.00  0.00     0.007 A 
ATOM     29  C   UNL     1      -8.427  -3.257  -5.441  1.00  0.00     0.007 A 
ATOM     30  C   UNL     1      -6.640  -4.423  -7.219  1.00  0.00     0.000 A 
ATOM     31  C   UNL     1      -7.459  -2.477  -6.088  1.00  0.00     0.000 A 
ATOM     32  C   UNL     1      -6.567  -3.058  -6.979  1.00  0.00     0.000 A 
ENDBRANCH  13  27
ENDBRANCH   9  13
ENDBRANCH   7   8
ENDBRANCH   6   7
BRANCH   6  33
ATOM     33  N   UNL     1      -5.695  -3.744   1.270  1.00  0.00    -0.347 N 
ATOM     34  H   UNL     1      -4.960  -4.398   1.537  1.00  0.00     0.345 HD
ATOM     35  H   UNL     1      -6.067  -3.291   2.104  1.00  0.00     0.345 HD
ATOM     36  H   UNL     1      -5.310  -3.037   0.643  1.00  0.00     0.345 HD
ENDBRANCH   6  33
ENDBRANCH   3   6
ENDBRANCH   1   2
BRANCH   1  37
ATOM     37  C   UNL     1      -4.574  -6.816   3.174  1.00  0.00     0.023 C 
BRANCH  37  38
ATOM     38  C   UNL     1      -5.125  -7.572   4.385  1.00  0.00     0.023 C 
BRANCH  38  39
ATOM     39  C   UNL     1      -5.124  -9.086   4.233  1.00  0.00     0.116 C 
BRANCH  39  40
ATOM     40  N   UNL     1      -3.855  -9.733   4.525  1.00  0.00    -0.352 N 
ATOM     41  C   UNL     1      -3.463 -11.053   4.350  1.00  0.00     0.251 C 
ATOM     42  H   UNL     1      -3.165  -9.142   4.905  1.00  0.00     0.163 HD
ATOM     43  O   UNL     1      -2.377 -11.415   4.772  1.00  0.00    -0.269 OA
BRANCH  41  44
ATOM     44  C   UNL     1      -4.284 -11.986   3.526  1.00  0.00     0.039 A 
ATOM     45  C   UNL     1      -3.604 -12.899   2.707  1.00  0.00     0.014 A 
ATOM     46  C   UNL     1      -5.658 -11.834   3.384  1.00  0.00     0.014 A 
ATOM     47  C   UNL     1      -4.243 -13.433   1.590  1.00  0.00     0.010 A 
ATOM     48  C   UNL     1      -6.258 -12.252   2.217  1.00  0.00     0.010 A 
ATOM     49  C   UNL     1      -5.530 -12.998   1.289  1.00  0.00    -0.014 A 
BRANCH  49  50
ATOM     50  C   UNL     1      -6.155 -13.156  -0.015  1.00  0.00     0.031 A 
ATOM     51  C   UNL     1      -7.276 -14.092  -0.204  1.00  0.00     0.074 A 
ATOM     52  C   UNL     1      -5.781 -12.344  -1.028  1.00  0.00     0.049 A 
ATOM     53  N   UNL     1      -7.594 -14.608  -1.343  1.00  0.00    -0.248 NA
ATOM     54  C   UNL     1      -8.115 -14.553   0.896  1.00  0.00     0.031 C 
ATOM     55  C   UNL     1      -6.474 -12.113  -2.292  1.00  0.00     0.029 A 
ATOM     56  N   UNL     1      -4.556 -11.702  -1.185  1.00  0.00    -0.354 N 
ATOM     57  C   UNL     1      -8.831 -15.185  -1.192  1.00  0.00     0.074 A 
ATOM     58  C   UNL     1      -9.072 -15.209   0.233  1.00  0.00     0.031 C 
ATOM     59  C   UNL     1      -5.602 -11.606  -3.179  1.00  0.00     0.029 A 
ATOM     60  C   UNL     1      -4.287 -11.639  -2.561  1.00  0.00     0.049 A 
ATOM     61  H   UNL     1      -3.984 -11.355  -0.463  1.00  0.00     0.167 HD
ATOM     62  C   UNL     1      -9.594 -15.434  -2.292  1.00  0.00     0.031 A 
ATOM     63  C   UNL     1      -3.199 -12.278  -3.084  1.00  0.00     0.031 A 
ATOM     64  C   UNL     1      -8.910 -15.066  -3.530  1.00  0.00     0.049 A 
ATOM     65  C   UNL     1      -3.549 -13.375  -4.067  1.00  0.00     0.074 A 
ATOM     66  C   UNL     1      -9.017 -13.978  -4.382  1.00  0.00     0.029 A 
ATOM     67  N   UNL     1      -7.735 -15.722  -3.878  1.00  0.00    -0.354 N 
ATOM     68  N   UNL     1      -4.740 -13.893  -4.193  1.00  0.00    -0.248 NA
ATOM     69  C   UNL     1      -2.581 -13.996  -4.966  1.00  0.00     0.031 C 
ATOM     70  C   UNL     1      -7.875 -13.965  -5.226  1.00  0.00     0.029 A 
ATOM     71  C   UNL     1      -7.090 -15.056  -4.901  1.00  0.00     0.049 A 
ATOM     72  H   UNL     1      -7.408 -16.548  -3.453  1.00  0.00     0.167 HD
ATOM     73  C   UNL     1      -4.723 -14.879  -5.147  1.00  0.00     0.074 A 
ATOM     74  C   UNL     1      -3.347 -14.896  -5.609  1.00  0.00     0.031 C 
ATOM     75  C   UNL     1      -5.851 -15.591  -5.456  1.00  0.00     0.031 A 
BRANCH  62  76
ATOM     76  C   UNL     1     -11.072 -15.722  -2.203  1.00  0.00    -0.014 A 
ATOM     77  C   UNL     1     -11.931 -15.291  -3.231  1.00  0.00     0.009 A 
ATOM     78  C   UNL     1     -11.684 -16.370  -1.117  1.00  0.00     0.009 A 
ATOM     79  C   UNL     1     -13.323 -15.402  -3.130  1.00  0.00     0.001 A 
ATOM     80  C   UNL     1     -13.078 -16.446  -0.988  1.00  0.00     0.001 A 
ATOM     81  C   UNL     1     -13.899 -15.950  -1.992  1.00  0.00     0.000 A 
ENDBRANCH  62  76
BRANCH  63  82
ATOM     82  C   UNL     1      -2.027 -12.282  -2.163  1.00  0.00    -0.014 A 
ATOM     83  C   UNL     1      -1.401 -11.048  -1.891  1.00  0.00     0.009 A 
ATOM     84  C   UNL     1      -1.806 -13.351  -1.284  1.00  0.00     0.009 A 
ATOM     85  C   UNL     1      -0.684 -10.852  -0.706  1.00  0.00     0.001 A 
ATOM     86  C   UNL     1      -1.076 -13.153  -0.103  1.00  0.00     0.001 A 
ATOM     87  C   UNL     1      -0.551 -11.897   0.203  1.00  0.00     0.000 A 
ENDBRANCH  63  82
BRANCH  75  88
ATOM     88  C   UNL     1      -5.962 -16.819  -6.340  1.00  0.00    -0.014 A 
ATOM     89  C   UNL     1      -4.887 -17.567  -6.831  1.00  0.00     0.009 A 
ATOM     90  C   UNL     1      -7.253 -17.328  -6.630  1.00  0.00     0.009 A 
ATOM     91  C   UNL     1      -5.088 -18.735  -7.585  1.00  0.00     0.001 A 
ATOM     92  C   UNL     1      -7.460 -18.512  -7.342  1.00  0.00     0.001 A 
ATOM     93  C   UNL     1      -6.371 -19.213  -7.830  1.00  0.00     0.000 A 
ENDBRANCH  75  88
ENDBRANCH  49  50
ENDBRANCH  41  44
ENDBRANCH  39  40
ENDBRANCH  38  39
ENDBRANCH  37  38
ENDBRANCH   1  37
TORSDOF 18
