REMARK SMILES C[C@@H]1CCC/C(=C\Nc2ccc(C(=O)NCCCCNC(=O)c3ccc(-c4c5nc(c(-c6ccccc6)c6ccc([nH]6)c(-c6ccccc6)c6nc(c(-c7ccccc7)c7ccc4[nH]7)C=C6)C=C5)cc3)c(O)c2)C1=O
REMARK SMILES IDX 17 1 16 2 15 3 13 4 14 5 12 7 9 8 10 9 73 10 11 11 71 12
REMARK SMILES IDX 8 13 7 15 1 16 2 17 3 18 74 19 4 20 6 21 75 22 5 23 72 24
REMARK SMILES IDX 18 26 19 27 20 28 21 29 22 31 23 32 24 33 70 34 25 35 69 36
REMARK SMILES IDX 26 37 27 38 28 39 63 40 29 41 68 42 62 43 64 44 30 45 67 46
REMARK SMILES IDX 61 47 60 48 31 50 53 51 38 52 52 53 39 54 42 55 51 56 65 57
REMARK SMILES IDX 40 58 41 59 50 61 66 62 43 63 32 64 33 65 37 66 34 67 36 68
REMARK SMILES IDX 35 69 54 70 55 71 59 72 56 73 58 74 57 75 44 76 45 77 49 78
REMARK SMILES IDX 46 79 48 80 47 81
REMARK H PARENT 15 6 8 14 72 25 20 30 64 49 42 60
REMARK Flexibility Score: inf
ROOT
ATOM      1  C   UNL     1      -2.784   8.645   6.513  1.00  0.00     0.023 C 
ENDROOT
BRANCH   1   2
ATOM      2  C   UNL     1      -1.486   7.881   6.277  1.00  0.00     0.116 C 
BRANCH   2   3
ATOM      3  N   UNL     1      -1.215   6.822   7.239  1.00  0.00    -0.352 N 
ATOM      4  C   UNL     1      -0.585   5.611   7.050  1.00  0.00     0.255 C 
ATOM      5  O   UNL     1      -0.456   4.845   8.001  1.00  0.00    -0.269 OA
ATOM      6  H   UNL     1      -1.526   6.997   8.157  1.00  0.00     0.163 HD
BRANCH   4   7
ATOM      7  C   UNL     1      -0.111   5.198   5.708  1.00  0.00     0.081 A 
ATOM      8  C   UNL     1       0.411   4.385   3.056  1.00  0.00     0.042 A 
ATOM      9  C   UNL     1      -0.182   3.504   3.968  1.00  0.00     0.027 A 
ATOM     10  C   UNL     1       0.822   5.641   3.522  1.00  0.00     0.073 A 
ATOM     11  C   UNL     1      -0.444   3.906   5.284  1.00  0.00     0.020 A 
ATOM     12  C   UNL     1       0.608   6.024   4.844  1.00  0.00     0.130 A 
BRANCH   8  13
ATOM     13  N   UNL     1       0.578   4.100   1.693  1.00  0.00    -0.361 N 
ATOM     14  H   UNL     1       1.193   4.696   1.207  1.00  0.00     0.166 HD
BRANCH  13  15
ATOM     15  C   UNL     1       0.003   3.107   0.945  1.00  0.00     0.090 C 
ATOM     16  C   UNL     1       1.068  -0.354  -0.218  1.00  0.00     0.016 C 
ATOM     17  C   UNL     1       0.551   0.471  -1.401  1.00  0.00     0.058 C 
ATOM     18  C   UNL     1       1.682   1.079  -2.247  1.00  0.00     0.012 C 
ATOM     19  C   UNL     1      -0.368   1.565  -0.881  1.00  0.00     0.163 C 
ATOM     20  C   UNL     1       2.390   2.250  -1.564  1.00  0.00     0.006 C 
ATOM     21  C   UNL     1       0.317   2.763  -0.312  1.00  0.00     0.011 C 
ATOM     22  O   UNL     1      -1.589   1.443  -0.841  1.00  0.00    -0.294 OA
ATOM     23  C   UNL     1       1.394   3.340  -1.174  1.00  0.00     0.041 C 
ENDBRANCH  13  15
ENDBRANCH   8  13
BRANCH  12  24
ATOM     24  O   UNL     1       1.151   7.224   5.210  1.00  0.00    -0.507 OA
ATOM     25  H   UNL     1       1.043   7.540   6.085  1.00  0.00     0.293 HD
ENDBRANCH  12  24
ENDBRANCH   4   7
ENDBRANCH   2   3
ENDBRANCH   1   2
BRANCH   1  26
ATOM     26  C   UNL     1      -2.935   9.325   7.871  1.00  0.00     0.023 C 
BRANCH  26  27
ATOM     27  C   UNL     1      -1.740  10.136   8.358  1.00  0.00     0.116 C 
BRANCH  27  28
ATOM     28  N   UNL     1      -1.384  11.242   7.481  1.00  0.00    -0.352 N 
ATOM     29  C   UNL     1      -1.334  12.594   7.731  1.00  0.00     0.251 C 
ATOM     30  H   UNL     1      -1.140  10.981   6.564  1.00  0.00     0.163 HD
ATOM     31  O   UNL     1      -1.101  13.376   6.812  1.00  0.00    -0.269 OA
BRANCH  29  32
ATOM     32  C   UNL     1      -1.600  13.121   9.088  1.00  0.00     0.039 A 
ATOM     33  C   UNL     1      -2.426  14.240   9.225  1.00  0.00     0.014 A 
ATOM     34  C   UNL     1      -1.053  12.519  10.222  1.00  0.00     0.014 A 
ATOM     35  C   UNL     1      -2.769  14.699  10.499  1.00  0.00     0.010 A 
ATOM     36  C   UNL     1      -1.476  12.913  11.489  1.00  0.00     0.010 A 
ATOM     37  C   UNL     1      -2.337  14.009  11.644  1.00  0.00    -0.014 A 
BRANCH  37  38
ATOM     38  C   UNL     1      -2.779  14.422  13.003  1.00  0.00     0.031 A 
ATOM     39  C   UNL     1      -1.773  14.864  14.032  1.00  0.00     0.074 A 
ATOM     40  C   UNL     1      -4.085  14.352  13.330  1.00  0.00     0.049 A 
ATOM     41  N   UNL     1      -1.970  15.244  15.270  1.00  0.00    -0.248 NA
ATOM     42  C   UNL     1      -0.357  14.853  13.629  1.00  0.00     0.031 C 
ATOM     43  C   UNL     1      -5.159  13.892  12.447  1.00  0.00     0.029 A 
ATOM     44  N   UNL     1      -4.733  14.671  14.498  1.00  0.00    -0.354 N 
ATOM     45  C   UNL     1      -0.709  15.501  15.793  1.00  0.00     0.074 A 
ATOM     46  C   UNL     1       0.250  15.175  14.761  1.00  0.00     0.031 C 
ATOM     47  C   UNL     1      -6.333  13.998  13.089  1.00  0.00     0.029 A 
ATOM     48  C   UNL     1      -6.095  14.491  14.441  1.00  0.00     0.049 A 
ATOM     49  H   UNL     1      -4.266  14.996  15.302  1.00  0.00     0.167 HD
ATOM     50  C   UNL     1      -0.375  15.988  17.012  1.00  0.00     0.031 A 
ATOM     51  C   UNL     1      -7.046  14.701  15.370  1.00  0.00     0.031 A 
ATOM     52  C   UNL     1      -1.327  16.320  18.038  1.00  0.00     0.049 A 
ATOM     53  C   UNL     1      -6.650  15.232  16.720  1.00  0.00     0.074 A 
ATOM     54  C   UNL     1      -1.092  16.873  19.285  1.00  0.00     0.029 A 
ATOM     55  N   UNL     1      -2.696  16.124  17.938  1.00  0.00    -0.354 N 
ATOM     56  N   UNL     1      -5.458  15.545  17.169  1.00  0.00    -0.248 NA
ATOM     57  C   UNL     1      -7.735  15.452  17.687  1.00  0.00     0.031 C 
ATOM     58  C   UNL     1      -2.313  16.957  19.962  1.00  0.00     0.029 A 
ATOM     59  C   UNL     1      -3.316  16.521  19.111  1.00  0.00     0.049 A 
ATOM     60  H   UNL     1      -3.158  15.758  17.150  1.00  0.00     0.167 HD
ATOM     61  C   UNL     1      -5.654  16.028  18.457  1.00  0.00     0.074 A 
ATOM     62  C   UNL     1      -7.080  15.985  18.708  1.00  0.00     0.031 C 
ATOM     63  C   UNL     1      -4.735  16.469  19.350  1.00  0.00     0.031 A 
BRANCH  50  64
ATOM     64  C   UNL     1       1.089  16.186  17.302  1.00  0.00    -0.014 A 
ATOM     65  C   UNL     1       1.836  17.175  16.642  1.00  0.00     0.009 A 
ATOM     66  C   UNL     1       1.723  15.394  18.272  1.00  0.00     0.009 A 
ATOM     67  C   UNL     1       3.195  17.339  16.916  1.00  0.00     0.001 A 
ATOM     68  C   UNL     1       3.074  15.583  18.569  1.00  0.00     0.001 A 
ATOM     69  C   UNL     1       3.811  16.547  17.884  1.00  0.00     0.000 A 
ENDBRANCH  50  64
BRANCH  51  70
ATOM     70  C   UNL     1      -8.475  14.431  15.053  1.00  0.00    -0.014 A 
ATOM     71  C   UNL     1      -9.392  15.487  14.938  1.00  0.00     0.009 A 
ATOM     72  C   UNL     1      -8.932  13.116  14.877  1.00  0.00     0.009 A 
ATOM     73  C   UNL     1     -10.742  15.230  14.685  1.00  0.00     0.001 A 
ATOM     74  C   UNL     1     -10.275  12.863  14.591  1.00  0.00     0.001 A 
ATOM     75  C   UNL     1     -11.181  13.919  14.507  1.00  0.00     0.000 A 
ENDBRANCH  51  70
BRANCH  63  76
ATOM     76  C   UNL     1      -5.249  16.978  20.669  1.00  0.00    -0.014 A 
ATOM     77  C   UNL     1      -5.796  16.111  21.628  1.00  0.00     0.009 A 
ATOM     78  C   UNL     1      -5.154  18.347  20.968  1.00  0.00     0.009 A 
ATOM     79  C   UNL     1      -6.278  16.611  22.839  1.00  0.00     0.001 A 
ATOM     80  C   UNL     1      -5.604  18.839  22.193  1.00  0.00     0.001 A 
ATOM     81  C   UNL     1      -6.177  17.973  23.123  1.00  0.00     0.000 A 
ENDBRANCH  63  76
ENDBRANCH  37  38
ENDBRANCH  29  32
ENDBRANCH  27  28
ENDBRANCH  26  27
ENDBRANCH   1  26
TORSDOF 14
