REMARK SMILES COCC[C@H](NC(=O)c1ccc(Br)nc1)C(=O)NCCCCNC(=O)c1ccc(-c2c3nc(c(-c4ccccc4)c4ccc([nH]4)c(-c4ccccc4)c4nc(c(-c5ccccc5)c5ccc2[nH]5)C=C4)C=C3)cc1
REMARK SMILES IDX 20 1 19 2 18 3 16 4 17 5 5 7 4 8 3 9 2 10 1 11 6 12 7 13
REMARK SMILES IDX 8 15 9 16 10 17 15 18 11 19 14 20 12 21 13 22 21 23 22 24
REMARK SMILES IDX 23 25 24 26 25 28 26 29 27 30 73 31 28 32 72 33 29 34 30 35
REMARK SMILES IDX 31 36 66 37 32 38 71 39 65 40 67 41 33 42 70 43 64 44 63 45
REMARK SMILES IDX 34 47 56 48 41 49 55 50 42 51 45 52 54 53 68 54 43 55 44 56
REMARK SMILES IDX 53 58 69 59 46 60 35 61 36 62 40 63 37 64 39 65 38 66 57 67
REMARK SMILES IDX 58 68 62 69 59 70 61 71 60 72 47 73 48 74 52 75 49 76 51 77
REMARK SMILES IDX 50 78
REMARK H PARENT 18 6 6 14 23 27 67 46 45 57
REMARK Flexibility Score: inf
ROOT
ATOM      1  C   UNL     1       0.809   0.248   6.165  1.00  0.00     0.023 C 
ENDROOT
BRANCH   1   2
ATOM      2  C   UNL     1       1.558  -0.739   5.278  1.00  0.00     0.116 C 
BRANCH   2   3
ATOM      3  N   UNL     1       0.642  -1.691   4.695  1.00  0.00    -0.354 N 
ATOM      4  C   UNL     1       0.251  -1.806   3.395  1.00  0.00     0.242 C 
ATOM      5  O   UNL     1      -0.574  -2.678   3.111  1.00  0.00    -0.273 OA
ATOM      6  H   UNL     1       0.247  -2.342   5.319  1.00  0.00     0.163 HD
BRANCH   4   7
ATOM      7  C   UNL     1       0.954  -0.988   2.289  1.00  0.00     0.173 C 
BRANCH   7   8
ATOM      8  C   UNL     1       2.349  -1.601   2.102  1.00  0.00     0.063 C 
BRANCH   8   9
ATOM      9  C   UNL     1       2.608  -2.167   0.705  1.00  0.00     0.162 C 
BRANCH   9  10
ATOM     10  O   UNL     1       2.514  -1.204  -0.336  1.00  0.00    -0.385 OA
ATOM     11  C   UNL     1       1.240  -1.128  -0.965  1.00  0.00     0.194 C 
ENDBRANCH   9  10
ENDBRANCH   8   9
ENDBRANCH   7   8
BRANCH   7  12
ATOM     12  N   UNL     1       0.767   0.469   2.505  1.00  0.00    -0.340 N 
ATOM     13  C   UNL     1       1.547   1.588   2.639  1.00  0.00     0.253 C 
ATOM     14  H   UNL     1      -0.189   0.696   2.570  1.00  0.00     0.164 HD
ATOM     15  O   UNL     1       1.028   2.649   2.973  1.00  0.00    -0.269 OA
BRANCH  13  16
ATOM     16  C   UNL     1       2.999   1.552   2.475  1.00  0.00     0.058 A 
ATOM     17  C   UNL     1       3.607   1.282   1.255  1.00  0.00     0.018 A 
ATOM     18  C   UNL     1       3.802   1.746   3.590  1.00  0.00     0.126 A 
ATOM     19  C   UNL     1       4.985   1.069   1.226  1.00  0.00     0.037 A 
ATOM     20  N   UNL     1       5.140   1.542   3.591  1.00  0.00    -0.249 NA
ATOM     21  C   UNL     1       5.699   1.182   2.413  1.00  0.00     0.106 A 
ATOM     22  Br  UNL     1       7.543   0.743   2.417  1.00  0.00    -0.029 Br
ENDBRANCH  13  16
ENDBRANCH   7  12
ENDBRANCH   4   7
ENDBRANCH   2   3
ENDBRANCH   1   2
BRANCH   1  23
ATOM     23  C   UNL     1       0.268  -0.393   7.445  1.00  0.00     0.023 C 
BRANCH  23  24
ATOM     24  C   UNL     1       1.323  -1.108   8.277  1.00  0.00     0.116 C 
BRANCH  24  25
ATOM     25  N   UNL     1       2.417  -0.231   8.663  1.00  0.00    -0.352 N 
ATOM     26  C   UNL     1       3.073  -0.176   9.865  1.00  0.00     0.251 C 
ATOM     27  H   UNL     1       2.725   0.402   7.975  1.00  0.00     0.163 HD
ATOM     28  O   UNL     1       3.857   0.736  10.108  1.00  0.00    -0.269 OA
BRANCH  26  29
ATOM     29  C   UNL     1       2.804  -1.216  10.874  1.00  0.00     0.039 A 
ATOM     30  C   UNL     1       2.570  -0.829  12.194  1.00  0.00     0.014 A 
ATOM     31  C   UNL     1       2.767  -2.566  10.510  1.00  0.00     0.014 A 
ATOM     32  C   UNL     1       2.273  -1.801  13.147  1.00  0.00     0.010 A 
ATOM     33  C   UNL     1       2.379  -3.520  11.441  1.00  0.00     0.010 A 
ATOM     34  C   UNL     1       2.159  -3.151  12.775  1.00  0.00    -0.014 A 
BRANCH  34  35
ATOM     35  C   UNL     1       1.861  -4.190  13.790  1.00  0.00     0.031 A 
ATOM     36  C   UNL     1       2.877  -5.258  14.093  1.00  0.00     0.074 A 
ATOM     37  C   UNL     1       0.675  -4.180  14.428  1.00  0.00     0.049 A 
ATOM     38  N   UNL     1       2.818  -6.229  14.969  1.00  0.00    -0.248 NA
ATOM     39  C   UNL     1       4.112  -5.253  13.290  1.00  0.00     0.031 C 
ATOM     40  C   UNL     1      -0.410  -3.226  14.188  1.00  0.00     0.029 A 
ATOM     41  N   UNL     1       0.191  -4.993  15.421  1.00  0.00    -0.354 N 
ATOM     42  C   UNL     1       3.997  -6.948  14.815  1.00  0.00     0.074 A 
ATOM     43  C   UNL     1       4.719  -6.349  13.716  1.00  0.00     0.031 C 
ATOM     44  C   UNL     1      -1.412  -3.478  15.046  1.00  0.00     0.029 A 
ATOM     45  C   UNL     1      -1.056  -4.631  15.867  1.00  0.00     0.049 A 
ATOM     46  H   UNL     1       0.690  -5.762  15.779  1.00  0.00     0.167 HD
ATOM     47  C   UNL     1       4.455  -7.995  15.541  1.00  0.00     0.031 A 
ATOM     48  C   UNL     1      -1.822  -5.164  16.837  1.00  0.00     0.031 A 
ATOM     49  C   UNL     1       3.739  -8.585  16.639  1.00  0.00     0.049 A 
ATOM     50  C   UNL     1      -1.296  -6.334  17.622  1.00  0.00     0.074 A 
ATOM     51  C   UNL     1       4.135  -9.615  17.474  1.00  0.00     0.029 A 
ATOM     52  N   UNL     1       2.474  -8.197  17.053  1.00  0.00    -0.354 N 
ATOM     53  N   UNL     1      -0.144  -6.952  17.516  1.00  0.00    -0.248 NA
ATOM     54  C   UNL     1      -2.172  -6.865  18.674  1.00  0.00     0.031 C 
ATOM     55  C   UNL     1       3.084  -9.890  18.355  1.00  0.00     0.029 A 
ATOM     56  C   UNL     1       2.062  -8.986  18.114  1.00  0.00     0.049 A 
ATOM     57  H   UNL     1       1.946  -7.468  16.653  1.00  0.00     0.167 HD
ATOM     58  C   UNL     1      -0.146  -7.927  18.506  1.00  0.00     0.074 A 
ATOM     59  C   UNL     1      -1.402  -7.797  19.217  1.00  0.00     0.031 C 
ATOM     60  C   UNL     1       0.803  -8.849  18.802  1.00  0.00     0.031 A 
BRANCH  47  61
ATOM     61  C   UNL     1       5.793  -8.567  15.160  1.00  0.00    -0.014 A 
ATOM     62  C   UNL     1       6.979  -7.837  15.346  1.00  0.00     0.009 A 
ATOM     63  C   UNL     1       5.874  -9.863  14.627  1.00  0.00     0.009 A 
ATOM     64  C   UNL     1       8.211  -8.375  14.966  1.00  0.00     0.001 A 
ATOM     65  C   UNL     1       7.110 -10.412  14.281  1.00  0.00     0.001 A 
ATOM     66  C   UNL     1       8.275  -9.664  14.439  1.00  0.00     0.000 A 
ENDBRANCH  47  61
BRANCH  48  67
ATOM     67  C   UNL     1      -3.157  -4.584  17.141  1.00  0.00    -0.014 A 
ATOM     68  C   UNL     1      -3.389  -3.922  18.357  1.00  0.00     0.009 A 
ATOM     69  C   UNL     1      -4.213  -4.705  16.224  1.00  0.00     0.009 A 
ATOM     70  C   UNL     1      -4.659  -3.428  18.664  1.00  0.00     0.001 A 
ATOM     71  C   UNL     1      -5.473  -4.179  16.520  1.00  0.00     0.001 A 
ATOM     72  C   UNL     1      -5.698  -3.553  17.744  1.00  0.00     0.000 A 
ENDBRANCH  48  67
BRANCH  60  73
ATOM     73  C   UNL     1       0.527  -9.765  19.962  1.00  0.00    -0.014 A 
ATOM     74  C   UNL     1      -0.475 -10.747  19.899  1.00  0.00     0.009 A 
ATOM     75  C   UNL     1       1.292  -9.651  21.134  1.00  0.00     0.009 A 
ATOM     76  C   UNL     1      -0.738 -11.559  21.003  1.00  0.00     0.001 A 
ATOM     77  C   UNL     1       1.051 -10.489  22.223  1.00  0.00     0.001 A 
ATOM     78  C   UNL     1       0.027 -11.432  22.162  1.00  0.00     0.000 A 
ENDBRANCH  60  73
ENDBRANCH  34  35
ENDBRANCH  26  29
ENDBRANCH  24  25
ENDBRANCH  23  24
ENDBRANCH   1  23
TORSDOF 16
