REMARK SMILES CC/C=C/C/C=C/C/C=C/C/C=C/CCSCCCC(=O)NCCCCNC(=O)c1ccc(-c2c3nc(c(-c4ccccc4)c4ccc([nH]4)c(-c4ccccc4)c4nc(c(-c5ccccc5)c5ccc2[nH]5)C=C4)C=C3)cc1
REMARK SMILES IDX 17 1 16 2 15 3 14 4 13 5 12 6 11 7 10 8 9 9 8 10 7 11 6 12
REMARK SMILES IDX 5 13 4 14 3 15 2 16 1 17 18 18 19 19 20 20 21 21 22 22 23 24
REMARK SMILES IDX 24 25 25 26 26 27 27 28 28 29 29 31 30 32 31 33 77 34 32 35
REMARK SMILES IDX 76 36 33 37 34 38 35 39 70 40 36 41 75 42 69 43 71 44 37 45
REMARK SMILES IDX 74 46 68 47 67 48 38 50 60 51 45 52 59 53 46 54 49 55 58 56
REMARK SMILES IDX 72 57 47 58 48 59 57 61 73 62 50 63 39 64 40 65 44 66 41 67
REMARK SMILES IDX 43 68 42 69 61 70 62 71 66 72 63 73 65 74 64 75 51 76 52 77
REMARK SMILES IDX 56 78 53 79 55 80 54 81
REMARK H PARENT 22 23 27 30 71 49 49 60
REMARK Flexibility Score: inf
ROOT
ATOM      1  C   UNL     1      -6.294  -2.306 -13.499  1.00  0.00     0.070 C 
ENDROOT
BRANCH   1   2
ATOM      2  S   UNL     1      -6.846  -0.540 -13.510  1.00  0.00    -0.162 SA
BRANCH   2   3
ATOM      3  C   UNL     1      -5.763   0.510 -12.445  1.00  0.00     0.073 C 
BRANCH   3   4
ATOM      4  C   UNL     1      -6.254   0.834 -11.004  1.00  0.00     0.038 C 
BRANCH   4   5
ATOM      5  C   UNL     1      -5.576   0.085  -9.889  1.00  0.00    -0.030 C 
ATOM      6  C   UNL     1      -5.505   0.391  -8.581  1.00  0.00    -0.027 C 
BRANCH   6   7
ATOM      7  C   UNL     1      -5.051  -0.622  -7.544  1.00  0.00     0.054 C 
BRANCH   7   8
ATOM      8  C   UNL     1      -3.607  -1.018  -7.644  1.00  0.00    -0.027 C 
ATOM      9  C   UNL     1      -2.841  -1.298  -6.576  1.00  0.00    -0.027 C 
BRANCH   9  10
ATOM     10  C   UNL     1      -1.380  -1.648  -6.654  1.00  0.00     0.054 C 
BRANCH  10  11
ATOM     11  C   UNL     1      -0.586  -0.460  -6.202  1.00  0.00    -0.027 C 
ATOM     12  C   UNL     1       0.208  -0.439  -5.121  1.00  0.00    -0.027 C 
BRANCH  12  13
ATOM     13  C   UNL     1       0.802   0.821  -4.561  1.00  0.00     0.054 C 
BRANCH  13  14
ATOM     14  C   UNL     1       0.278   1.032  -3.169  1.00  0.00    -0.027 C 
ATOM     15  C   UNL     1       1.047   1.069  -2.071  1.00  0.00    -0.031 C 
BRANCH  15  16
ATOM     16  C   UNL     1       0.500   1.168  -0.678  1.00  0.00     0.023 C 
ATOM     17  C   UNL     1       0.933  -0.031   0.152  1.00  0.00     0.008 C 
ENDBRANCH  15  16
ENDBRANCH  13  14
ENDBRANCH  12  13
ENDBRANCH  10  11
ENDBRANCH   9  10
ENDBRANCH   7   8
ENDBRANCH   6   7
ENDBRANCH   4   5
ENDBRANCH   3   4
ENDBRANCH   2   3
ENDBRANCH   1   2
BRANCH   1  18
ATOM     18  C   UNL     1      -4.897  -2.855 -13.225  1.00  0.00     0.021 C 
BRANCH  18  19
ATOM     19  C   UNL     1      -4.197  -2.527 -11.925  1.00  0.00     0.101 C 
BRANCH  19  20
ATOM     20  C   UNL     1      -4.509  -3.360 -10.691  1.00  0.00     0.220 C 
ATOM     21  O   UNL     1      -3.582  -3.908 -10.085  1.00  0.00    -0.275 OA
ATOM     22  N   UNL     1      -5.744  -3.501 -10.149  1.00  0.00    -0.356 N 
ATOM     23  H   UNL     1      -5.827  -4.280  -9.553  1.00  0.00     0.163 HD
BRANCH  22  24
ATOM     24  C   UNL     1      -6.966  -2.732 -10.273  1.00  0.00     0.116 C 
BRANCH  24  25
ATOM     25  C   UNL     1      -8.223  -3.594 -10.344  1.00  0.00     0.023 C 
BRANCH  25  26
ATOM     26  C   UNL     1      -9.187  -3.279  -9.196  1.00  0.00     0.023 C 
BRANCH  26  27
ATOM     27  C   UNL     1      -9.756  -1.859  -9.220  1.00  0.00     0.116 C 
BRANCH  27  28
ATOM     28  N   UNL     1     -10.724  -1.658 -10.286  1.00  0.00    -0.352 N 
ATOM     29  C   UNL     1     -12.077  -1.411 -10.204  1.00  0.00     0.251 C 
ATOM     30  H   UNL     1     -10.360  -1.706 -11.200  1.00  0.00     0.163 HD
ATOM     31  O   UNL     1     -12.775  -1.425 -11.206  1.00  0.00    -0.269 OA
BRANCH  29  32
ATOM     32  C   UNL     1     -12.691  -1.159  -8.882  1.00  0.00     0.039 A 
ATOM     33  C   UNL     1     -13.834  -1.875  -8.520  1.00  0.00     0.014 A 
ATOM     34  C   UNL     1     -12.129  -0.236  -7.997  1.00  0.00     0.014 A 
ATOM     35  C   UNL     1     -14.364  -1.727  -7.236  1.00  0.00     0.010 A 
ATOM     36  C   UNL     1     -12.607  -0.153  -6.691  1.00  0.00     0.010 A 
ATOM     37  C   UNL     1     -13.728  -0.898  -6.295  1.00  0.00    -0.014 A 
BRANCH  37  38
ATOM     38  C   UNL     1     -14.218  -0.809  -4.895  1.00  0.00     0.031 A 
ATOM     39  C   UNL     1     -14.717   0.499  -4.346  1.00  0.00     0.074 A 
ATOM     40  C   UNL     1     -14.162  -1.895  -4.096  1.00  0.00     0.049 A 
ATOM     41  N   UNL     1     -15.148   0.779  -3.141  1.00  0.00    -0.248 NA
ATOM     42  C   UNL     1     -14.710   1.651  -5.262  1.00  0.00     0.031 C 
ATOM     43  C   UNL     1     -13.661  -3.214  -4.490  1.00  0.00     0.029 A 
ATOM     44  N   UNL     1     -14.530  -2.060  -2.784  1.00  0.00    -0.354 N 
ATOM     45  C   UNL     1     -15.450   2.136  -3.154  1.00  0.00     0.074 A 
ATOM     46  C   UNL     1     -15.096   2.635  -4.464  1.00  0.00     0.031 C 
ATOM     47  C   UNL     1     -13.787  -4.059  -3.454  1.00  0.00     0.029 A 
ATOM     48  C   UNL     1     -14.334  -3.336  -2.312  1.00  0.00     0.049 A 
ATOM     49  H   UNL     1     -14.901  -1.333  -2.233  1.00  0.00     0.167 HD
ATOM     50  C   UNL     1     -15.994   2.895  -2.173  1.00  0.00     0.031 A 
ATOM     51  C   UNL     1     -14.564  -3.864  -1.095  1.00  0.00     0.031 A 
ATOM     52  C   UNL     1     -16.348   2.400  -0.869  1.00  0.00     0.049 A 
ATOM     53  C   UNL     1     -15.142  -2.993  -0.013  1.00  0.00     0.074 A 
ATOM     54  C   UNL     1     -16.949   3.079   0.176  1.00  0.00     0.029 A 
ATOM     55  N   UNL     1     -16.129   1.103  -0.431  1.00  0.00    -0.354 N 
ATOM     56  N   UNL     1     -15.489  -1.730  -0.066  1.00  0.00    -0.248 NA
ATOM     57  C   UNL     1     -15.372  -3.627   1.293  1.00  0.00     0.031 C 
ATOM     58  C   UNL     1     -17.039   2.209   1.268  1.00  0.00     0.029 A 
ATOM     59  C   UNL     1     -16.557   0.969   0.879  1.00  0.00     0.049 A 
ATOM     60  H   UNL     1     -15.728   0.384  -0.971  1.00  0.00     0.167 HD
ATOM     61  C   UNL     1     -16.006  -1.427   1.188  1.00  0.00     0.074 A 
ATOM     62  C   UNL     1     -15.946  -2.643   1.971  1.00  0.00     0.031 C 
ATOM     63  C   UNL     1     -16.491  -0.247   1.647  1.00  0.00     0.031 A 
BRANCH  50  64
ATOM     64  C   UNL     1     -16.234   4.349  -2.477  1.00  0.00    -0.014 A 
ATOM     65  C   UNL     1     -17.210   4.749  -3.404  1.00  0.00     0.009 A 
ATOM     66  C   UNL     1     -15.495   5.336  -1.804  1.00  0.00     0.009 A 
ATOM     67  C   UNL     1     -17.413   6.102  -3.682  1.00  0.00     0.001 A 
ATOM     68  C   UNL     1     -15.723   6.689  -2.059  1.00  0.00     0.001 A 
ATOM     69  C   UNL     1     -16.673   7.071  -3.006  1.00  0.00     0.000 A 
ENDBRANCH  50  64
BRANCH  51  70
ATOM     70  C   UNL     1     -14.261  -5.297  -0.829  1.00  0.00    -0.014 A 
ATOM     71  C   UNL     1     -15.298  -6.215  -0.598  1.00  0.00     0.009 A 
ATOM     72  C   UNL     1     -12.934  -5.751  -0.786  1.00  0.00     0.009 A 
ATOM     73  C   UNL     1     -15.011  -7.548  -0.296  1.00  0.00     0.001 A 
ATOM     74  C   UNL     1     -12.651  -7.092  -0.516  1.00  0.00     0.001 A 
ATOM     75  C   UNL     1     -13.688  -7.987  -0.260  1.00  0.00     0.000 A 
ENDBRANCH  51  70
BRANCH  63  76
ATOM     76  C   UNL     1     -17.032  -0.224   3.050  1.00  0.00    -0.014 A 
ATOM     77  C   UNL     1     -16.185  -0.326   4.165  1.00  0.00     0.009 A 
ATOM     78  C   UNL     1     -18.411  -0.061   3.258  1.00  0.00     0.009 A 
ATOM     79  C   UNL     1     -16.714  -0.301   5.458  1.00  0.00     0.001 A 
ATOM     80  C   UNL     1     -18.933  -0.003   4.550  1.00  0.00     0.001 A 
ATOM     81  C   UNL     1     -18.085  -0.135   5.649  1.00  0.00     0.000 A 
ENDBRANCH  63  76
ENDBRANCH  37  38
ENDBRANCH  29  32
ENDBRANCH  27  28
ENDBRANCH  26  27
ENDBRANCH  25  26
ENDBRANCH  24  25
ENDBRANCH  22  24
ENDBRANCH  19  20
ENDBRANCH  18  19
ENDBRANCH   1  18
TORSDOF 24
