REMARK SMILES COc1ccc(C(=O)C2=C(NCCCCNC(=O)c3ccc(-c4c5nc(c(-c6ccccc6)c6ccc([nH]6)c(-c6ccccc6)c6nc(c(-c7ccccc7)c7ccc4[nH]7)C=C6)C=C5)cc3)C(=O)N(CC(=O)[O-])[C@H]2c2ccccc2)cc1
REMARK SMILES IDX 13 1 12 2 11 3 10 5 9 6 74 7 67 8 69 9 68 10 7 11 8 12 6 13
REMARK SMILES IDX 3 14 4 15 82 16 5 17 81 18 2 19 1 20 75 21 76 22 80 23 77 24
REMARK SMILES IDX 79 25 78 26 70 27 71 28 72 29 73 30 14 31 15 32 16 33 17 34
REMARK SMILES IDX 18 36 19 37 20 38 66 39 21 40 65 41 22 42 23 43 24 44 59 45
REMARK SMILES IDX 25 46 64 47 58 48 60 49 26 50 63 51 57 52 56 53 27 55 49 56
REMARK SMILES IDX 34 57 48 58 35 59 38 60 47 61 61 62 36 63 37 64 46 66 62 67
REMARK SMILES IDX 39 68 28 69 29 70 33 71 30 72 32 73 31 74 50 75 51 76 55 77
REMARK SMILES IDX 52 78 54 79 53 80 40 81 41 82 45 83 42 84 44 85 43 86
REMARK H PARENT 11 4 16 35 60 54 38 65
REMARK Flexibility Score: inf
ROOT
ATOM      1  C   UNL     1       0.615  -0.124  -7.365  1.00  0.00     0.023 C 
ENDROOT
BRANCH   1   2
ATOM      2  C   UNL     1       1.019  -1.578  -7.605  1.00  0.00     0.113 C 
BRANCH   2   3
ATOM      3  N   UNL     1       2.452  -1.682  -7.741  1.00  0.00    -0.380 N 
ATOM      4  H   UNL     1       2.843  -1.156  -8.475  1.00  0.00     0.160 HD
BRANCH   3   5
ATOM      5  C   UNL     1       3.350  -2.406  -7.000  1.00  0.00     0.110 C 
ATOM      6  C   UNL     1       3.306  -3.186  -5.911  1.00  0.00     0.056 C 
ATOM      7  C   UNL     1       4.615  -3.822  -5.545  1.00  0.00     0.153 C 
ATOM      8  C   UNL     1       4.785  -2.469  -7.445  1.00  0.00     0.271 C 
ATOM      9  N   UNL     1       5.455  -3.325  -6.608  1.00  0.00    -0.320 N 
ATOM     10  O   UNL     1       5.238  -1.853  -8.397  1.00  0.00    -0.267 OA
BRANCH   6  11
ATOM     11  C   UNL     1       2.055  -3.581  -5.244  1.00  0.00     0.193 C 
ATOM     12  O   UNL     1       1.448  -4.571  -5.644  1.00  0.00    -0.289 OA
BRANCH  11  13
ATOM     13  C   UNL     1       1.538  -2.795  -4.084  1.00  0.00     0.023 A 
ATOM     14  C   UNL     1       0.592  -1.534  -1.743  1.00  0.00     0.118 A 
ATOM     15  C   UNL     1      -0.179  -2.503  -2.388  1.00  0.00     0.047 A 
ATOM     16  C   UNL     1       1.813  -1.163  -2.300  1.00  0.00     0.047 A 
ATOM     17  C   UNL     1       0.291  -3.136  -3.546  1.00  0.00     0.016 A 
ATOM     18  C   UNL     1       2.261  -1.763  -3.482  1.00  0.00     0.016 A 
BRANCH  14  19
ATOM     19  O   UNL     1       0.058  -1.038  -0.587  1.00  0.00    -0.497 OA
ATOM     20  C   UNL     1       0.755   0.039   0.028  1.00  0.00     0.278 C 
ENDBRANCH  14  19
ENDBRANCH  11  13
ENDBRANCH   6  11
BRANCH   7  21
ATOM     21  C   UNL     1       5.139  -3.400  -4.180  1.00  0.00    -0.021 A 
ATOM     22  C   UNL     1       5.660  -2.108  -3.957  1.00  0.00     0.006 A 
ATOM     23  C   UNL     1       5.074  -4.287  -3.097  1.00  0.00     0.006 A 
ATOM     24  C   UNL     1       6.069  -1.707  -2.686  1.00  0.00     0.000 A 
ATOM     25  C   UNL     1       5.501  -3.888  -1.828  1.00  0.00     0.000 A 
ATOM     26  C   UNL     1       5.987  -2.598  -1.621  1.00  0.00     0.000 A 
ENDBRANCH   7  21
BRANCH   9  27
ATOM     27  C   UNL     1       6.871  -3.638  -6.745  1.00  0.00     0.173 C 
BRANCH  27  28
ATOM     28  C   UNL     1       7.211  -4.603  -7.869  1.00  0.00     0.061 C 
ATOM     29  O   UNL     1       8.343  -4.861  -8.253  1.00  0.00    -0.548 OA
ATOM     30  O   UNL     1       6.160  -5.270  -8.384  1.00  0.00    -0.548 OA
ENDBRANCH  27  28
ENDBRANCH   9  27
ENDBRANCH   3   5
ENDBRANCH   2   3
ENDBRANCH   1   2
BRANCH   1  31
ATOM     31  C   UNL     1       0.856   0.809  -8.552  1.00  0.00     0.023 C 
BRANCH  31  32
ATOM     32  C   UNL     1       0.184   0.386  -9.853  1.00  0.00     0.116 C 
BRANCH  32  33
ATOM     33  N   UNL     1      -1.267   0.305  -9.746  1.00  0.00    -0.352 N 
ATOM     34  C   UNL     1      -2.222   0.854 -10.571  1.00  0.00     0.251 C 
ATOM     35  H   UNL     1      -1.611  -0.210  -8.981  1.00  0.00     0.163 HD
ATOM     36  O   UNL     1      -3.410   0.808 -10.276  1.00  0.00    -0.269 OA
BRANCH  34  37
ATOM     37  C   UNL     1      -1.789   1.534 -11.808  1.00  0.00     0.039 A 
ATOM     38  C   UNL     1      -2.227   2.836 -12.059  1.00  0.00     0.014 A 
ATOM     39  C   UNL     1      -0.897   0.903 -12.678  1.00  0.00     0.014 A 
ATOM     40  C   UNL     1      -1.699   3.542 -13.143  1.00  0.00     0.010 A 
ATOM     41  C   UNL     1      -0.318   1.632 -13.709  1.00  0.00     0.010 A 
ATOM     42  C   UNL     1      -0.706   2.962 -13.947  1.00  0.00    -0.014 A 
BRANCH  42  43
ATOM     43  C   UNL     1      -0.042   3.711 -15.045  1.00  0.00     0.031 A 
ATOM     44  C   UNL     1      -0.161   3.215 -16.459  1.00  0.00     0.074 A 
ATOM     45  C   UNL     1       0.754   4.762 -14.760  1.00  0.00     0.049 A 
ATOM     46  N   UNL     1       0.473   3.616 -17.531  1.00  0.00    -0.248 NA
ATOM     47  C   UNL     1      -1.092   2.098 -16.694  1.00  0.00     0.031 C 
ATOM     48  C   UNL     1       0.981   5.324 -13.427  1.00  0.00     0.029 A 
ATOM     49  N   UNL     1       1.547   5.529 -15.580  1.00  0.00    -0.354 N 
ATOM     50  C   UNL     1       0.048   2.777 -18.554  1.00  0.00     0.074 A 
ATOM     51  C   UNL     1      -0.874   1.828 -17.973  1.00  0.00     0.031 C 
ATOM     52  C   UNL     1       1.849   6.345 -13.520  1.00  0.00     0.029 A 
ATOM     53  C   UNL     1       2.281   6.478 -14.908  1.00  0.00     0.049 A 
ATOM     54  H   UNL     1       1.586   5.410 -16.556  1.00  0.00     0.167 HD
ATOM     55  C   UNL     1       0.389   2.804 -19.863  1.00  0.00     0.031 A 
ATOM     56  C   UNL     1       3.218   7.337 -15.353  1.00  0.00     0.031 A 
ATOM     57  C   UNL     1       1.280   3.769 -20.447  1.00  0.00     0.049 A 
ATOM     58  C   UNL     1       3.582   7.337 -16.814  1.00  0.00     0.074 A 
ATOM     59  C   UNL     1       1.622   3.925 -21.779  1.00  0.00     0.029 A 
ATOM     60  N   UNL     1       1.969   4.738 -19.737  1.00  0.00    -0.354 N 
ATOM     61  N   UNL     1       3.110   6.590 -17.783  1.00  0.00    -0.248 NA
ATOM     62  C   UNL     1       4.603   8.304 -17.246  1.00  0.00     0.031 C 
ATOM     63  C   UNL     1       2.565   4.951 -21.867  1.00  0.00     0.029 A 
ATOM     64  C   UNL     1       2.758   5.476 -20.600  1.00  0.00     0.049 A 
ATOM     65  H   UNL     1       1.907   4.879 -18.765  1.00  0.00     0.167 HD
ATOM     66  C   UNL     1       3.746   7.023 -18.939  1.00  0.00     0.074 A 
ATOM     67  C   UNL     1       4.629   8.104 -18.556  1.00  0.00     0.031 C 
ATOM     68  C   UNL     1       3.611   6.566 -20.207  1.00  0.00     0.031 A 
BRANCH  55  69
ATOM     69  C   UNL     1      -0.192   1.751 -20.765  1.00  0.00    -0.014 A 
ATOM     70  C   UNL     1      -1.546   1.770 -21.132  1.00  0.00     0.009 A 
ATOM     71  C   UNL     1       0.651   0.774 -21.319  1.00  0.00     0.009 A 
ATOM     72  C   UNL     1      -2.048   0.817 -22.020  1.00  0.00     0.001 A 
ATOM     73  C   UNL     1       0.152  -0.159 -22.228  1.00  0.00     0.001 A 
ATOM     74  C   UNL     1      -1.198  -0.141 -22.574  1.00  0.00     0.000 A 
ENDBRANCH  55  69
BRANCH  56  75
ATOM     75  C   UNL     1       3.908   8.261 -14.411  1.00  0.00    -0.014 A 
ATOM     76  C   UNL     1       3.713   9.649 -14.498  1.00  0.00     0.009 A 
ATOM     77  C   UNL     1       4.804   7.764 -13.452  1.00  0.00     0.009 A 
ATOM     78  C   UNL     1       4.434  10.520 -13.677  1.00  0.00     0.001 A 
ATOM     79  C   UNL     1       5.498   8.636 -12.609  1.00  0.00     0.001 A 
ATOM     80  C   UNL     1       5.325  10.013 -12.733  1.00  0.00     0.000 A 
ENDBRANCH  56  75
BRANCH  68  81
ATOM     81  C   UNL     1       4.382   7.267 -21.289  1.00  0.00    -0.014 A 
ATOM     82  C   UNL     1       5.769   7.106 -21.424  1.00  0.00     0.009 A 
ATOM     83  C   UNL     1       3.690   8.040 -22.236  1.00  0.00     0.009 A 
ATOM     84  C   UNL     1       6.450   7.724 -22.474  1.00  0.00     0.001 A 
ATOM     85  C   UNL     1       4.369   8.630 -23.302  1.00  0.00     0.001 A 
ATOM     86  C   UNL     1       5.749   8.478 -23.416  1.00  0.00     0.000 A 
ENDBRANCH  68  81
ENDBRANCH  42  43
ENDBRANCH  34  37
ENDBRANCH  32  33
ENDBRANCH  31  32
ENDBRANCH   1  31
TORSDOF 17
