REMARK SMILES [NH3+]CCOCC(=O)N[C@]1(C(=O)NCCCCNC(=O)c2ccc(-c3c4nc(c(-c5ccccc5)c5ccc([nH]5)c(-c5ccccc5)c5nc(c(-c6ccccc6)c6ccc3[nH]6)C=C5)C=C4)cc2)CCOC1
REMARK SMILES IDX 10 1 11 2 12 3 9 5 68 6 71 7 69 8 70 9 8 10 6 11 7 12 5 14
REMARK SMILES IDX 4 15 3 16 2 17 1 18 13 22 14 23 15 24 16 25 17 26 18 27
REMARK SMILES IDX 19 29 20 30 21 31 67 32 22 33 66 34 23 35 24 36 25 37 60 38
REMARK SMILES IDX 26 39 65 40 59 41 61 42 27 43 64 44 58 45 57 46 28 48 50 49
REMARK SMILES IDX 35 50 49 51 36 52 39 53 48 54 62 55 37 56 38 57 47 59 63 60
REMARK SMILES IDX 40 61 29 62 30 63 34 64 31 65 33 66 32 67 51 68 52 69 56 70
REMARK SMILES IDX 53 71 55 72 54 73 41 74 42 75 46 76 43 77 45 78 44 79
REMARK H PARENT 12 4 8 13 1 19 1 20 1 21 17 28 61 47 39 58
REMARK Flexibility Score: inf
ROOT
ATOM      1  C   UNL     1       2.646   3.207  -4.952  1.00  0.00     0.248 C 
ATOM      2  O   UNL     1       3.176   2.206  -5.445  1.00  0.00    -0.272 OA
ATOM      3  N   UNL     1       2.261   4.183  -5.830  1.00  0.00    -0.354 N 
ATOM      4  H   UNL     1       2.522   4.015  -6.764  1.00  0.00     0.163 HD
ENDROOT
BRANCH   1   5
ATOM      5  C   UNL     1       2.452   3.340  -3.415  1.00  0.00     0.144 C 
ATOM      6  C   UNL     1       3.183   4.579  -2.882  1.00  0.00     0.069 C 
ATOM      7  C   UNL     1       0.992   3.632  -3.057  1.00  0.00     0.198 C 
ATOM      8  C   UNL     1       2.300   5.027  -1.742  1.00  0.00     0.163 C 
ATOM      9  O   UNL     1       0.960   4.735  -2.135  1.00  0.00    -0.378 OA
BRANCH   5  10
ATOM     10  N   UNL     1       3.106   2.182  -2.733  1.00  0.00    -0.338 N 
ATOM     11  C   UNL     1       2.736   0.979  -2.233  1.00  0.00     0.246 C 
ATOM     12  O   UNL     1       3.645   0.239  -1.838  1.00  0.00    -0.272 OA
ATOM     13  H   UNL     1       4.071   2.337  -2.614  1.00  0.00     0.164 HD
BRANCH  11  14
ATOM     14  C   UNL     1       1.277   0.536  -2.082  1.00  0.00     0.260 C 
BRANCH  14  15
ATOM     15  O   UNL     1       0.386   1.186  -1.194  1.00  0.00    -0.366 OA
BRANCH  15  16
ATOM     16  C   UNL     1       0.953   1.739  -0.007  1.00  0.00     0.222 C 
BRANCH  16  17
ATOM     17  C   UNL     1       0.662   0.869   1.219  1.00  0.00     0.287 C 
BRANCH  17  18
ATOM     18  N   UNL     1       1.266  -0.462   1.137  1.00  0.00    -0.356 N 
ATOM     19  H   UNL     1       1.038  -0.991   1.979  1.00  0.00     0.344 HD
ATOM     20  H   UNL     1       2.279  -0.371   1.056  1.00  0.00     0.344 HD
ATOM     21  H   UNL     1       0.902  -0.951   0.320  1.00  0.00     0.344 HD
ENDBRANCH  17  18
ENDBRANCH  16  17
ENDBRANCH  15  16
ENDBRANCH  14  15
ENDBRANCH  11  14
ENDBRANCH   5  10
ENDBRANCH   1   5
BRANCH   3  22
ATOM     22  C   UNL     1       1.534   5.428  -5.623  1.00  0.00     0.116 C 
BRANCH  22  23
ATOM     23  C   UNL     1       2.267   6.645  -6.171  1.00  0.00     0.023 C 
BRANCH  23  24
ATOM     24  C   UNL     1       2.362   6.710  -7.691  1.00  0.00     0.023 C 
BRANCH  24  25
ATOM     25  C   UNL     1       1.048   6.511  -8.435  1.00  0.00     0.116 C 
BRANCH  25  26
ATOM     26  N   UNL     1      -0.010   7.415  -8.003  1.00  0.00    -0.352 N 
ATOM     27  C   UNL     1      -0.859   8.182  -8.767  1.00  0.00     0.251 C 
ATOM     28  H   UNL     1      -0.135   7.486  -7.029  1.00  0.00     0.163 HD
ATOM     29  O   UNL     1      -1.640   8.962  -8.242  1.00  0.00    -0.269 OA
BRANCH  27  30
ATOM     30  C   UNL     1      -0.779   8.083 -10.237  1.00  0.00     0.039 A 
ATOM     31  C   UNL     1      -0.619   9.253 -10.982  1.00  0.00     0.014 A 
ATOM     32  C   UNL     1      -0.785   6.835 -10.863  1.00  0.00     0.014 A 
ATOM     33  C   UNL     1      -0.374   9.164 -12.353  1.00  0.00     0.010 A 
ATOM     34  C   UNL     1      -0.460   6.745 -12.211  1.00  0.00     0.010 A 
ATOM     35  C   UNL     1      -0.244   7.908 -12.967  1.00  0.00    -0.014 A 
BRANCH  35  36
ATOM     36  C   UNL     1       0.131   7.781 -14.396  1.00  0.00     0.031 A 
ATOM     37  C   UNL     1      -0.824   7.148 -15.368  1.00  0.00     0.074 A 
ATOM     38  C   UNL     1       1.359   8.159 -14.801  1.00  0.00     0.049 A 
ATOM     39  N   UNL     1      -0.646   6.867 -16.634  1.00  0.00    -0.248 NA
ATOM     40  C   UNL     1      -2.139   6.749 -14.841  1.00  0.00     0.031 C 
ATOM     41  C   UNL     1       2.395   8.744 -13.946  1.00  0.00     0.029 A 
ATOM     42  N   UNL     1       1.949   8.095 -16.038  1.00  0.00    -0.354 N 
ATOM     43  C   UNL     1      -1.814   6.239 -17.046  1.00  0.00     0.074 A 
ATOM     44  C   UNL     1      -2.674   6.137 -15.887  1.00  0.00     0.031 C 
ATOM     45  C   UNL     1       3.481   9.009 -14.690  1.00  0.00     0.029 A 
ATOM     46  C   UNL     1       3.235   8.577 -16.061  1.00  0.00     0.049 A 
ATOM     47  H   UNL     1       1.493   7.738 -16.834  1.00  0.00     0.167 HD
ATOM     48  C   UNL     1      -2.151   5.804 -18.282  1.00  0.00     0.031 A 
ATOM     49  C   UNL     1       4.120   8.656 -17.073  1.00  0.00     0.031 A 
ATOM     50  C   UNL     1      -1.307   5.925 -19.439  1.00  0.00     0.049 A 
ATOM     51  C   UNL     1       3.722   8.166 -18.437  1.00  0.00     0.074 A 
ATOM     52  C   UNL     1      -1.584   5.575 -20.749  1.00  0.00     0.029 A 
ATOM     53  N   UNL     1      -0.019   6.436 -19.424  1.00  0.00    -0.354 N 
ATOM     54  N   UNL     1       2.587   7.638 -18.825  1.00  0.00    -0.248 NA
ATOM     55  C   UNL     1       4.725   8.292 -19.503  1.00  0.00     0.031 C 
ATOM     56  C   UNL     1      -0.446   5.835 -21.519  1.00  0.00     0.029 A 
ATOM     57  C   UNL     1       0.521   6.391 -20.698  1.00  0.00     0.049 A 
ATOM     58  H   UNL     1       0.444   6.780 -18.625  1.00  0.00     0.167 HD
ATOM     59  C   UNL     1       2.729   7.393 -20.184  1.00  0.00     0.074 A 
ATOM     60  C   UNL     1       4.055   7.843 -20.556  1.00  0.00     0.031 C 
ATOM     61  C   UNL     1       1.841   6.845 -21.048  1.00  0.00     0.031 A 
BRANCH  48  62
ATOM     62  C   UNL     1      -3.496   5.154 -18.441  1.00  0.00    -0.014 A 
ATOM     63  C   UNL     1      -4.681   5.904 -18.360  1.00  0.00     0.009 A 
ATOM     64  C   UNL     1      -3.580   3.777 -18.700  1.00  0.00     0.009 A 
ATOM     65  C   UNL     1      -5.923   5.281 -18.497  1.00  0.00     0.001 A 
ATOM     66  C   UNL     1      -4.822   3.162 -18.865  1.00  0.00     0.001 A 
ATOM     67  C   UNL     1      -5.992   3.913 -18.753  1.00  0.00     0.000 A 
ENDBRANCH  48  62
BRANCH  49  68
ATOM     68  C   UNL     1       5.468   9.237 -16.841  1.00  0.00    -0.014 A 
ATOM     69  C   UNL     1       5.796  10.497 -17.364  1.00  0.00     0.009 A 
ATOM     70  C   UNL     1       6.433   8.536 -16.102  1.00  0.00     0.009 A 
ATOM     71  C   UNL     1       7.072  11.032 -17.174  1.00  0.00     0.001 A 
ATOM     72  C   UNL     1       7.700   9.085 -15.892  1.00  0.00     0.001 A 
ATOM     73  C   UNL     1       8.021  10.328 -16.435  1.00  0.00     0.000 A 
ENDBRANCH  49  68
BRANCH  61  74
ATOM     74  C   UNL     1       2.262   6.730 -22.485  1.00  0.00    -0.014 A 
ATOM     75  C   UNL     1       3.193   5.765 -22.895  1.00  0.00     0.009 A 
ATOM     76  C   UNL     1       1.680   7.571 -23.447  1.00  0.00     0.009 A 
ATOM     77  C   UNL     1       3.555   5.663 -24.240  1.00  0.00     0.001 A 
ATOM     78  C   UNL     1       2.023   7.448 -24.794  1.00  0.00     0.001 A 
ATOM     79  C   UNL     1       2.966   6.500 -25.188  1.00  0.00     0.000 A 
ENDBRANCH  61  74
ENDBRANCH  35  36
ENDBRANCH  27  30
ENDBRANCH  25  26
ENDBRANCH  24  25
ENDBRANCH  23  24
ENDBRANCH  22  23
ENDBRANCH   3  22
TORSDOF 17
