REMARK SMILES COc1ccc([C@@H](CC(=O)NCCCCNC(=O)c2ccc(-c3c4nc(c(-c5ccccc5)c5ccc([nH]5)c(-c5ccccc5)c5nc(c(-c6ccccc6)c6ccc3[nH]6)C=C5)C=C4)cc2)C2CCCCC2)cc1Cl
REMARK SMILES IDX 13 1 12 2 11 3 9 4 10 5 8 7 7 8 6 9 3 10 4 11 74 12 5 13
REMARK SMILES IDX 73 14 75 15 2 16 1 17 67 18 68 19 72 20 69 21 71 22 70 23
REMARK SMILES IDX 14 24 15 25 16 26 17 27 18 29 19 30 20 31 66 32 21 33 65 34
REMARK SMILES IDX 22 35 23 36 24 37 59 38 25 39 64 40 58 41 60 42 26 43 63 44
REMARK SMILES IDX 57 45 56 46 27 48 49 49 34 50 48 51 35 52 38 53 47 54 61 55
REMARK SMILES IDX 36 56 37 57 46 59 62 60 39 61 28 62 29 63 33 64 30 65 32 66
REMARK SMILES IDX 31 67 50 68 51 69 55 70 52 71 54 72 53 73 40 74 41 75 45 76
REMARK SMILES IDX 42 77 44 78 43 79
REMARK H PARENT 11 6 16 28 60 47 38 58
REMARK Flexibility Score: inf
ROOT
ATOM      1  C   UNL     1      -0.548   0.462   4.516  1.00  0.00     0.023 C 
ENDROOT
BRANCH   1   2
ATOM      2  C   UNL     1       0.114   1.236   5.643  1.00  0.00     0.116 C 
BRANCH   2   3
ATOM      3  N   UNL     1      -0.121   0.591   6.917  1.00  0.00    -0.356 N 
ATOM      4  C   UNL     1       0.597  -0.380   7.547  1.00  0.00     0.220 C 
ATOM      5  O   UNL     1       0.208  -0.745   8.659  1.00  0.00    -0.275 OA
ATOM      6  H   UNL     1      -0.920   0.900   7.402  1.00  0.00     0.163 HD
BRANCH   4   7
ATOM      7  C   UNL     1       1.873  -0.954   6.951  1.00  0.00     0.108 C 
BRANCH   7   8
ATOM      8  C   UNL     1       1.845  -2.176   5.974  1.00  0.00     0.032 C 
BRANCH   8   9
ATOM      9  C   UNL     1       1.887  -1.761   4.494  1.00  0.00    -0.042 A 
ATOM     10  C   UNL     1       1.958  -0.700   1.845  1.00  0.00     0.137 A 
ATOM     11  C   UNL     1       0.963  -1.597   2.227  1.00  0.00     0.048 A 
ATOM     12  C   UNL     1       2.969  -0.402   2.765  1.00  0.00     0.083 A 
ATOM     13  C   UNL     1       0.942  -2.132   3.527  1.00  0.00     0.008 A 
ATOM     14  C   UNL     1       2.943  -0.938   4.058  1.00  0.00     0.028 A 
ATOM     15  Cl  UNL     1       4.261   0.677   2.365  1.00  0.00    -0.080 Cl
BRANCH  10  16
ATOM     16  O   UNL     1       1.940   0.023   0.688  1.00  0.00    -0.495 OA
ATOM     17  C   UNL     1       1.391  -0.556  -0.487  1.00  0.00     0.278 C 
ENDBRANCH  10  16
ENDBRANCH   8   9
BRANCH   8  18
ATOM     18  C   UNL     1       0.937  -3.381   6.427  1.00  0.00    -0.003 C 
ATOM     19  C   UNL     1      -0.581  -3.111   6.482  1.00  0.00     0.004 C 
ATOM     20  C   UNL     1       1.292  -4.666   5.631  1.00  0.00     0.004 C 
ATOM     21  C   UNL     1      -1.417  -4.357   6.762  1.00  0.00     0.000 C 
ATOM     22  C   UNL     1       0.374  -5.853   5.904  1.00  0.00     0.000 C 
ATOM     23  C   UNL     1      -1.092  -5.468   5.780  1.00  0.00     0.000 C 
ENDBRANCH   8  18
ENDBRANCH   7   8
ENDBRANCH   4   7
ENDBRANCH   2   3
ENDBRANCH   1   2
BRANCH   1  24
ATOM     24  C   UNL     1      -1.932   0.908   4.087  1.00  0.00     0.023 C 
BRANCH  24  25
ATOM     25  C   UNL     1      -1.953   2.225   3.328  1.00  0.00     0.116 C 
BRANCH  25  26
ATOM     26  N   UNL     1      -1.145   2.243   2.114  1.00  0.00    -0.352 N 
ATOM     27  C   UNL     1      -1.442   2.761   0.868  1.00  0.00     0.251 C 
ATOM     28  H   UNL     1      -0.258   1.824   2.194  1.00  0.00     0.163 HD
ATOM     29  O   UNL     1      -0.656   2.638  -0.063  1.00  0.00    -0.269 OA
BRANCH  27  30
ATOM     30  C   UNL     1      -2.755   3.401   0.645  1.00  0.00     0.039 A 
ATOM     31  C   UNL     1      -3.480   3.068  -0.501  1.00  0.00     0.014 A 
ATOM     32  C   UNL     1      -3.308   4.247   1.604  1.00  0.00     0.014 A 
ATOM     33  C   UNL     1      -4.807   3.483  -0.621  1.00  0.00     0.010 A 
ATOM     34  C   UNL     1      -4.661   4.549   1.546  1.00  0.00     0.010 A 
ATOM     35  C   UNL     1      -5.428   4.167   0.436  1.00  0.00    -0.014 A 
BRANCH  35  36
ATOM     36  C   UNL     1      -6.874   4.501   0.416  1.00  0.00     0.031 A 
ATOM     37  C   UNL     1      -7.309   5.933   0.568  1.00  0.00     0.074 A 
ATOM     38  C   UNL     1      -7.793   3.515   0.377  1.00  0.00     0.049 A 
ATOM     39  N   UNL     1      -8.512   6.419   0.739  1.00  0.00    -0.248 NA
ATOM     40  C   UNL     1      -6.243   6.950   0.584  1.00  0.00     0.031 C 
ATOM     41  C   UNL     1      -7.507   2.080   0.298  1.00  0.00     0.029 A 
ATOM     42  N   UNL     1      -9.164   3.575   0.408  1.00  0.00    -0.354 N 
ATOM     43  C   UNL     1      -8.339   7.782   0.938  1.00  0.00     0.074 A 
ATOM     44  C   UNL     1      -6.916   8.040   0.917  1.00  0.00     0.031 C 
ATOM     45  C   UNL     1      -8.665   1.401   0.245  1.00  0.00     0.029 A 
ATOM     46  C   UNL     1      -9.772   2.345   0.331  1.00  0.00     0.049 A 
ATOM     47  H   UNL     1      -9.665   4.420   0.478  1.00  0.00     0.167 HD
ATOM     48  C   UNL     1      -9.279   8.742   1.098  1.00  0.00     0.031 A 
ATOM     49  C   UNL     1     -11.077   2.017   0.332  1.00  0.00     0.031 A 
ATOM     50  C   UNL     1     -10.694   8.496   1.052  1.00  0.00     0.049 A 
ATOM     51  C   UNL     1     -12.106   3.107   0.438  1.00  0.00     0.074 A 
ATOM     52  C   UNL     1     -11.731   9.408   1.116  1.00  0.00     0.029 A 
ATOM     53  N   UNL     1     -11.266   7.242   0.907  1.00  0.00    -0.354 N 
ATOM     54  N   UNL     1     -11.927   4.398   0.571  1.00  0.00    -0.248 NA
ATOM     55  C   UNL     1     -13.515   2.693   0.384  1.00  0.00     0.031 C 
ATOM     56  C   UNL     1     -12.936   8.702   1.034  1.00  0.00     0.029 A 
ATOM     57  C   UNL     1     -12.645   7.356   0.882  1.00  0.00     0.049 A 
ATOM     58  H   UNL     1     -10.767   6.397   0.833  1.00  0.00     0.167 HD
ATOM     59  C   UNL     1     -13.199   4.955   0.592  1.00  0.00     0.074 A 
ATOM     60  C   UNL     1     -14.138   3.862   0.444  1.00  0.00     0.031 C 
ATOM     61  C   UNL     1     -13.557   6.255   0.724  1.00  0.00     0.031 A 
BRANCH  48  62
ATOM     62  C   UNL     1      -8.796  10.146   1.327  1.00  0.00    -0.014 A 
ATOM     63  C   UNL     1      -8.174  10.878   0.303  1.00  0.00     0.009 A 
ATOM     64  C   UNL     1      -8.966  10.746   2.584  1.00  0.00     0.009 A 
ATOM     65  C   UNL     1      -7.688  12.164   0.547  1.00  0.00     0.001 A 
ATOM     66  C   UNL     1      -8.507  12.044   2.816  1.00  0.00     0.001 A 
ATOM     67  C   UNL     1      -7.858  12.747   1.802  1.00  0.00     0.000 A 
ENDBRANCH  48  62
BRANCH  49  68
ATOM     68  C   UNL     1     -11.489   0.596   0.192  1.00  0.00    -0.014 A 
ATOM     69  C   UNL     1     -12.038   0.138  -1.016  1.00  0.00     0.009 A 
ATOM     70  C   UNL     1     -11.339  -0.306   1.255  1.00  0.00     0.009 A 
ATOM     71  C   UNL     1     -12.453  -1.189  -1.148  1.00  0.00     0.001 A 
ATOM     72  C   UNL     1     -11.732  -1.639   1.112  1.00  0.00     0.001 A 
ATOM     73  C   UNL     1     -12.296  -2.077  -0.086  1.00  0.00     0.000 A 
ENDBRANCH  49  68
BRANCH  61  74
ATOM     74  C   UNL     1     -15.024   6.567   0.677  1.00  0.00    -0.014 A 
ATOM     75  C   UNL     1     -15.859   6.294   1.770  1.00  0.00     0.009 A 
ATOM     76  C   UNL     1     -15.564   7.187  -0.460  1.00  0.00     0.009 A 
ATOM     77  C   UNL     1     -17.216   6.614   1.715  1.00  0.00     0.001 A 
ATOM     78  C   UNL     1     -16.916   7.526  -0.503  1.00  0.00     0.001 A 
ATOM     79  C   UNL     1     -17.742   7.233   0.581  1.00  0.00     0.000 A 
ENDBRANCH  61  74
ENDBRANCH  35  36
ENDBRANCH  27  30
ENDBRANCH  25  26
ENDBRANCH  24  25
ENDBRANCH   1  24
TORSDOF 15
