REMARK SMILES Cc1cscc1-c1nc(C)c(C(=O)NCCCCNC(=O)c2ccc(-c3c4nc(c(-c5ccccc5)c5ccc([nH]5)c(-c5ccccc5)c5nc(c(-c6ccccc6)c6ccc3[nH]6)C=C5)C=C4)cc2)c(C)n1
REMARK SMILES IDX 17 1 16 2 15 3 14 4 12 5 13 6 11 8 7 9 8 10 72 11 9 12 70 13
REMARK SMILES IDX 10 14 71 15 6 16 1 17 2 18 3 19 4 20 5 21 18 22 19 23 20 24
REMARK SMILES IDX 21 26 22 27 23 28 69 29 24 30 68 31 25 32 26 33 27 34 62 35
REMARK SMILES IDX 28 36 67 37 61 38 63 39 29 40 66 41 60 42 59 43 30 45 52 46
REMARK SMILES IDX 37 47 51 48 38 49 41 50 50 51 64 52 39 53 40 54 49 56 65 57
REMARK SMILES IDX 42 58 31 59 32 60 36 61 33 62 35 63 34 64 53 65 54 66 58 67
REMARK SMILES IDX 55 68 57 69 56 70 43 71 44 72 48 73 45 74 47 75 46 76
REMARK H PARENT 14 7 19 25 63 44 41 55
REMARK Flexibility Score: inf
ROOT
ATOM      1  C   UNL     1       5.192   7.438  -3.923  1.00  0.00     0.023 C 
ENDROOT
BRANCH   1   2
ATOM      2  C   UNL     1       4.577   6.201  -3.275  1.00  0.00     0.023 C 
BRANCH   2   3
ATOM      3  C   UNL     1       5.191   5.801  -1.929  1.00  0.00     0.116 C 
BRANCH   3   4
ATOM      4  N   UNL     1       4.369   6.267  -0.836  1.00  0.00    -0.352 N 
ATOM      5  C   UNL     1       3.314   5.845  -0.079  1.00  0.00     0.254 C 
ATOM      6  O   UNL     1       2.946   6.745   0.686  1.00  0.00    -0.269 OA
ATOM      7  H   UNL     1       4.657   7.163  -0.550  1.00  0.00     0.163 HD
BRANCH   5   8
ATOM      8  C   UNL     1       2.596   4.519  -0.040  1.00  0.00     0.082 A 
ATOM      9  C   UNL     1       1.097   2.215   0.267  1.00  0.00     0.160 A 
ATOM     10  N   UNL     1       1.899   2.323  -0.787  1.00  0.00    -0.232 NA
ATOM     11  N   UNL     1       0.960   3.151   1.197  1.00  0.00    -0.232 NA
ATOM     12  C   UNL     1       2.606   3.469  -0.961  1.00  0.00     0.054 A 
ATOM     13  C   UNL     1       1.720   4.276   1.052  1.00  0.00     0.054 A 
ATOM     14  C   UNL     1       3.310   3.383  -2.265  1.00  0.00     0.068 C 
ATOM     15  C   UNL     1       1.512   5.224   2.206  1.00  0.00     0.068 C 
BRANCH   9  16
ATOM     16  C   UNL     1       0.359   0.972   0.372  1.00  0.00     0.033 A 
ATOM     17  C   UNL     1       2.355  -0.669   0.094  1.00  0.00     0.046 C 
ATOM     18  C   UNL     1       0.900  -0.361   0.248  1.00  0.00    -0.029 A 
ATOM     19  C   UNL     1      -0.105  -1.309   0.289  1.00  0.00     0.069 A 
ATOM     20  S   UNL     1      -1.657  -0.621   0.487  1.00  0.00    -0.151 S 
ATOM     21  C   UNL     1      -1.014   0.962   0.517  1.00  0.00     0.077 A 
ENDBRANCH   9  16
ENDBRANCH   5   8
ENDBRANCH   3   4
ENDBRANCH   2   3
ENDBRANCH   1   2
BRANCH   1  22
ATOM     22  C   UNL     1       6.663   7.292  -4.286  1.00  0.00     0.116 C 
BRANCH  22  23
ATOM     23  N   UNL     1       6.953   6.151  -5.144  1.00  0.00    -0.352 N 
ATOM     24  C   UNL     1       8.020   6.000  -5.998  1.00  0.00     0.251 C 
ATOM     25  H   UNL     1       6.313   5.403  -5.108  1.00  0.00     0.163 HD
ATOM     26  O   UNL     1       8.124   5.015  -6.719  1.00  0.00    -0.269 OA
BRANCH  24  27
ATOM     27  C   UNL     1       9.010   7.089  -6.066  1.00  0.00     0.039 A 
ATOM     28  C   UNL     1       9.234   7.717  -7.292  1.00  0.00     0.014 A 
ATOM     29  C   UNL     1       9.611   7.560  -4.896  1.00  0.00     0.014 A 
ATOM     30  C   UNL     1      10.007   8.876  -7.331  1.00  0.00     0.010 A 
ATOM     31  C   UNL     1      10.314   8.756  -4.926  1.00  0.00     0.010 A 
ATOM     32  C   UNL     1      10.515   9.427  -6.142  1.00  0.00    -0.014 A 
BRANCH  32  33
ATOM     33  C   UNL     1      11.257  10.709  -6.146  1.00  0.00     0.031 A 
ATOM     34  C   UNL     1      12.702  10.737  -5.737  1.00  0.00     0.074 A 
ATOM     35  C   UNL     1      10.614  11.853  -6.449  1.00  0.00     0.049 A 
ATOM     36  N   UNL     1      13.505  11.763  -5.617  1.00  0.00    -0.248 NA
ATOM     37  C   UNL     1      13.316   9.446  -5.386  1.00  0.00     0.031 C 
ATOM     38  C   UNL     1       9.200  11.964  -6.814  1.00  0.00     0.029 A 
ATOM     39  N   UNL     1      11.070  13.146  -6.491  1.00  0.00    -0.354 N 
ATOM     40  C   UNL     1      14.709  11.244  -5.159  1.00  0.00     0.074 A 
ATOM     41  C   UNL     1      14.516   9.823  -4.972  1.00  0.00     0.031 C 
ATOM     42  C   UNL     1       8.914  13.250  -7.076  1.00  0.00     0.029 A 
ATOM     43  C   UNL     1      10.111  14.056  -6.863  1.00  0.00     0.049 A 
ATOM     44  H   UNL     1      11.997  13.398  -6.275  1.00  0.00     0.167 HD
ATOM     45  C   UNL     1      15.879  11.887  -4.937  1.00  0.00     0.031 A 
ATOM     46  C   UNL     1      10.190  15.391  -7.017  1.00  0.00     0.031 A 
ATOM     47  C   UNL     1      16.077  13.295  -5.141  1.00  0.00     0.049 A 
ATOM     48  C   UNL     1      11.500  16.082  -6.767  1.00  0.00     0.074 A 
ATOM     49  C   UNL     1      17.239  14.032  -5.003  1.00  0.00     0.029 A 
ATOM     50  N   UNL     1      15.084  14.180  -5.532  1.00  0.00    -0.354 N 
ATOM     51  N   UNL     1      12.648  15.567  -6.400  1.00  0.00    -0.248 NA
ATOM     52  C   UNL     1      11.527  17.538  -6.965  1.00  0.00     0.031 C 
ATOM     53  C   UNL     1      16.940  15.372  -5.272  1.00  0.00     0.029 A 
ATOM     54  C   UNL     1      15.602  15.460  -5.623  1.00  0.00     0.049 A 
ATOM     55  H   UNL     1      14.149  13.934  -5.718  1.00  0.00     0.167 HD
ATOM     56  C   UNL     1      13.540  16.630  -6.346  1.00  0.00     0.074 A 
ATOM     57  C   UNL     1      12.803  17.816  -6.733  1.00  0.00     0.031 C 
ATOM     58  C   UNL     1      14.852  16.626  -6.009  1.00  0.00     0.031 A 
BRANCH  45  59
ATOM     59  C   UNL     1      17.032  11.060  -4.445  1.00  0.00    -0.014 A 
ATOM     60  C   UNL     1      17.671  10.134  -5.285  1.00  0.00     0.009 A 
ATOM     61  C   UNL     1      17.494  11.216  -3.130  1.00  0.00     0.009 A 
ATOM     62  C   UNL     1      18.722   9.351  -4.806  1.00  0.00     0.001 A 
ATOM     63  C   UNL     1      18.565  10.452  -2.661  1.00  0.00     0.001 A 
ATOM     64  C   UNL     1      19.170   9.513  -3.495  1.00  0.00     0.000 A 
ENDBRANCH  45  59
BRANCH  46  65
ATOM     65  C   UNL     1       8.999  16.162  -7.459  1.00  0.00    -0.014 A 
ATOM     66  C   UNL     1       8.941  16.691  -8.758  1.00  0.00     0.009 A 
ATOM     67  C   UNL     1       7.921  16.380  -6.588  1.00  0.00     0.009 A 
ATOM     68  C   UNL     1       7.838  17.443  -9.168  1.00  0.00     0.001 A 
ATOM     69  C   UNL     1       6.808  17.111  -7.010  1.00  0.00     0.001 A 
ATOM     70  C   UNL     1       6.772  17.649  -8.295  1.00  0.00     0.000 A 
ENDBRANCH  46  65
BRANCH  58  71
ATOM     71  C   UNL     1      15.580  17.937  -6.073  1.00  0.00    -0.014 A 
ATOM     72  C   UNL     1      15.376  18.929  -5.102  1.00  0.00     0.009 A 
ATOM     73  C   UNL     1      16.512  18.164  -7.097  1.00  0.00     0.009 A 
ATOM     74  C   UNL     1      16.073  20.137  -5.173  1.00  0.00     0.001 A 
ATOM     75  C   UNL     1      17.225  19.362  -7.151  1.00  0.00     0.001 A 
ATOM     76  C   UNL     1      16.999  20.350  -6.194  1.00  0.00     0.000 A 
ENDBRANCH  58  71
ENDBRANCH  32  33
ENDBRANCH  24  27
ENDBRANCH  22  23
ENDBRANCH   1  22
TORSDOF 12
