REMARK SMILES Cc1ccccc1-n1nc(Cl)c(C(=O)NCCCCNC(=O)c2ccc(-c3c4nc(c(-c5ccccc5)c5ccc([nH]5)c(-c5ccccc5)c5nc(c(-c6ccccc6)c6ccc3[nH]6)C=C5)C=C4)cc2)n1
REMARK SMILES IDX 18 1 17 2 16 3 15 4 13 5 14 6 12 8 8 9 9 10 71 11 10 12
REMARK SMILES IDX 11 13 7 14 1 15 2 16 3 17 4 18 6 19 5 20 19 21 20 22 21 23
REMARK SMILES IDX 22 25 23 26 24 27 70 28 25 29 69 30 26 31 27 32 28 33 63 34
REMARK SMILES IDX 29 35 68 36 62 37 64 38 30 39 67 40 61 41 60 42 31 44 53 45
REMARK SMILES IDX 38 46 52 47 39 48 42 49 51 50 65 51 40 52 41 53 50 55 66 56
REMARK SMILES IDX 43 57 32 58 33 59 37 60 34 61 36 62 35 63 54 64 55 65 59 66
REMARK SMILES IDX 56 67 58 68 57 69 44 70 45 71 49 72 46 73 48 74 47 75
REMARK H PARENT 15 7 20 24 64 43 42 54
REMARK Flexibility Score: inf
ROOT
ATOM      1  C   UNL     1       2.681   3.456  -5.601  1.00  0.00     0.023 C 
ENDROOT
BRANCH   1   2
ATOM      2  C   UNL     1       2.281   2.765  -4.295  1.00  0.00     0.023 C 
BRANCH   2   3
ATOM      3  C   UNL     1       3.407   2.676  -3.255  1.00  0.00     0.116 C 
BRANCH   3   4
ATOM      4  N   UNL     1       3.759   3.967  -2.675  1.00  0.00    -0.351 N 
ATOM      5  C   UNL     1       3.301   4.622  -1.541  1.00  0.00     0.275 C 
ATOM      6  O   UNL     1       3.760   5.734  -1.314  1.00  0.00    -0.267 OA
ATOM      7  H   UNL     1       4.443   4.463  -3.179  1.00  0.00     0.163 HD
BRANCH   5   8
ATOM      8  C   UNL     1       2.296   4.000  -0.679  1.00  0.00     0.189 A 
ATOM      9  N   UNL     1       0.993   2.571   0.168  1.00  0.00    -0.149 N 
ATOM     10  N   UNL     1       0.623   3.699   0.814  1.00  0.00    -0.135 NA
ATOM     11  N   UNL     1       1.973   2.703  -0.745  1.00  0.00    -0.141 NA
ATOM     12  C   UNL     1       1.517   4.579   0.347  1.00  0.00     0.184 A 
ATOM     13  Cl  UNL     1       1.565   6.156   0.959  1.00  0.00    -0.058 Cl
BRANCH   9  14
ATOM     14  C   UNL     1       0.303   1.340   0.274  1.00  0.00     0.089 A 
ATOM     15  C   UNL     1       2.477  -0.050   0.088  1.00  0.00     0.047 C 
ATOM     16  C   UNL     1       0.977   0.107   0.117  1.00  0.00    -0.023 A 
ATOM     17  C   UNL     1       0.209  -1.064   0.024  1.00  0.00     0.006 A 
ATOM     18  C   UNL     1      -1.183  -1.016   0.108  1.00  0.00     0.000 A 
ATOM     19  C   UNL     1      -1.092   1.378   0.423  1.00  0.00     0.030 A 
ATOM     20  C   UNL     1      -1.831   0.199   0.320  1.00  0.00     0.002 A 
ENDBRANCH   9  14
ENDBRANCH   5   8
ENDBRANCH   3   4
ENDBRANCH   2   3
ENDBRANCH   1   2
BRANCH   1  21
ATOM     21  C   UNL     1       3.757   2.734  -6.404  1.00  0.00     0.116 C 
BRANCH  21  22
ATOM     22  N   UNL     1       3.291   1.699  -7.323  1.00  0.00    -0.352 N 
ATOM     23  C   UNL     1       4.029   0.877  -8.167  1.00  0.00     0.251 C 
ATOM     24  H   UNL     1       2.316   1.563  -7.347  1.00  0.00     0.163 HD
ATOM     25  O   UNL     1       3.459   0.072  -8.899  1.00  0.00    -0.269 OA
BRANCH  23  26
ATOM     26  C   UNL     1       5.512   0.845  -8.058  1.00  0.00     0.039 A 
ATOM     27  C   UNL     1       6.104  -0.417  -7.913  1.00  0.00     0.014 A 
ATOM     28  C   UNL     1       6.206   1.989  -7.692  1.00  0.00     0.014 A 
ATOM     29  C   UNL     1       7.186  -0.552  -7.058  1.00  0.00     0.010 A 
ATOM     30  C   UNL     1       7.173   1.853  -6.729  1.00  0.00     0.010 A 
ATOM     31  C   UNL     1       7.589   0.574  -6.354  1.00  0.00    -0.014 A 
BRANCH  31  32
ATOM     32  C   UNL     1       8.444   0.542  -5.187  1.00  0.00     0.031 A 
ATOM     33  C   UNL     1       9.867   0.818  -5.393  1.00  0.00     0.074 A 
ATOM     34  C   UNL     1       7.864   0.427  -3.973  1.00  0.00     0.049 A 
ATOM     35  N   UNL     1      10.800   0.497  -4.573  1.00  0.00    -0.248 NA
ATOM     36  C   UNL     1      10.363   1.440  -6.621  1.00  0.00     0.031 C 
ATOM     37  C   UNL     1       8.435   0.667  -2.652  1.00  0.00     0.029 A 
ATOM     38  N   UNL     1       6.626  -0.155  -3.704  1.00  0.00    -0.354 N 
ATOM     39  C   UNL     1      11.932   1.165  -4.983  1.00  0.00     0.074 A 
ATOM     40  C   UNL     1      11.653   1.605  -6.325  1.00  0.00     0.031 C 
ATOM     41  C   UNL     1       7.702   0.006  -1.736  1.00  0.00     0.029 A 
ATOM     42  C   UNL     1       6.733  -0.803  -2.462  1.00  0.00     0.049 A 
ATOM     43  H   UNL     1       5.826  -0.118  -4.278  1.00  0.00     0.167 HD
ATOM     44  C   UNL     1      12.891   1.432  -4.055  1.00  0.00     0.031 A 
ATOM     45  C   UNL     1       6.681  -2.171  -2.420  1.00  0.00     0.031 A 
ATOM     46  C   UNL     1      12.601   0.715  -2.810  1.00  0.00     0.049 A 
ATOM     47  C   UNL     1       8.016  -2.774  -2.030  1.00  0.00     0.074 A 
ATOM     48  C   UNL     1      12.018   1.116  -1.620  1.00  0.00     0.029 A 
ATOM     49  N   UNL     1      12.531  -0.677  -2.834  1.00  0.00    -0.354 N 
ATOM     50  N   UNL     1       9.167  -2.175  -2.195  1.00  0.00    -0.248 NA
ATOM     51  C   UNL     1       8.149  -4.081  -1.395  1.00  0.00     0.031 C 
ATOM     52  C   UNL     1      11.462  -0.040  -1.003  1.00  0.00     0.029 A 
ATOM     53  C   UNL     1      11.753  -1.144  -1.789  1.00  0.00     0.049 A 
ATOM     54  H   UNL     1      12.973  -1.250  -3.503  1.00  0.00     0.167 HD
ATOM     55  C   UNL     1      10.164  -2.953  -1.671  1.00  0.00     0.074 A 
ATOM     56  C   UNL     1       9.477  -4.141  -1.190  1.00  0.00     0.031 C 
ATOM     57  C   UNL     1      11.476  -2.570  -1.646  1.00  0.00     0.031 A 
BRANCH  44  58
ATOM     58  C   UNL     1      13.879   2.573  -4.169  1.00  0.00    -0.014 A 
ATOM     59  C   UNL     1      14.559   3.003  -3.015  1.00  0.00     0.009 A 
ATOM     60  C   UNL     1      14.115   3.334  -5.329  1.00  0.00     0.009 A 
ATOM     61  C   UNL     1      15.375   4.145  -3.010  1.00  0.00     0.001 A 
ATOM     62  C   UNL     1      14.925   4.479  -5.334  1.00  0.00     0.001 A 
ATOM     63  C   UNL     1      15.550   4.891  -4.168  1.00  0.00     0.000 A 
ENDBRANCH  44  58
BRANCH  45  64
ATOM     64  C   UNL     1       5.732  -2.732  -3.435  1.00  0.00    -0.014 A 
ATOM     65  C   UNL     1       4.371  -2.365  -3.323  1.00  0.00     0.009 A 
ATOM     66  C   UNL     1       6.192  -3.200  -4.673  1.00  0.00     0.009 A 
ATOM     67  C   UNL     1       3.553  -2.281  -4.454  1.00  0.00     0.001 A 
ATOM     68  C   UNL     1       5.352  -3.152  -5.797  1.00  0.00     0.001 A 
ATOM     69  C   UNL     1       4.059  -2.636  -5.699  1.00  0.00     0.000 A 
ENDBRANCH  45  64
BRANCH  57  70
ATOM     70  C   UNL     1      12.628  -3.507  -1.384  1.00  0.00    -0.014 A 
ATOM     71  C   UNL     1      12.558  -4.896  -1.559  1.00  0.00     0.009 A 
ATOM     72  C   UNL     1      13.898  -2.971  -1.075  1.00  0.00     0.009 A 
ATOM     73  C   UNL     1      13.675  -5.715  -1.352  1.00  0.00     0.001 A 
ATOM     74  C   UNL     1      15.028  -3.777  -0.931  1.00  0.00     0.001 A 
ATOM     75  C   UNL     1      14.910  -5.155  -1.046  1.00  0.00     0.000 A 
ENDBRANCH  57  70
ENDBRANCH  31  32
ENDBRANCH  23  26
ENDBRANCH  21  22
ENDBRANCH   1  21
TORSDOF 12
