REMARK SMILES CC[C@@H](O)C[NH+]1CC(n2cc(C(=O)NCCCCNC(=O)c3ccc(-c4c5nc(c(-c6ccccc6)c6ccc([nH]6)c(-c6ccccc6)c6nc(c(-c7ccccc7)c7ccc4[nH]7)C=C6)C=C5)cc3)nn2)C1
REMARK SMILES IDX 15 1 14 2 12 3 13 4 11 6 9 7 10 8 71 9 70 10 8 11 6 12 7 13
REMARK SMILES IDX 72 14 5 16 3 17 2 18 1 19 4 20 16 22 17 23 18 24 19 25 20 26
REMARK SMILES IDX 21 28 22 29 23 30 69 31 24 32 68 33 25 34 26 35 27 36 62 37
REMARK SMILES IDX 28 38 67 39 61 40 63 41 29 42 66 43 60 44 59 45 30 47 52 48
REMARK SMILES IDX 37 49 51 50 38 51 41 52 50 53 64 54 39 55 40 56 49 58 65 59
REMARK SMILES IDX 42 60 31 61 32 62 36 63 33 64 35 65 34 66 53 67 54 68 58 69
REMARK SMILES IDX 55 70 57 71 56 72 43 73 44 74 48 75 45 76 47 77 46 78
REMARK H PARENT 14 5 6 15 4 21 19 27 63 46 41 57
REMARK Flexibility Score: inf
ROOT
ATOM      1  C   UNL     1       3.212 -10.259  -3.369  1.00  0.00     0.116 C 
ENDROOT
BRANCH   1   2
ATOM      2  N   UNL     1       4.649 -10.133  -3.219  1.00  0.00    -0.351 N 
ATOM      3  C   UNL     1       5.425  -9.115  -2.708  1.00  0.00     0.273 C 
ATOM      4  O   UNL     1       6.628  -9.346  -2.584  1.00  0.00    -0.267 OA
ATOM      5  H   UNL     1       5.160 -10.911  -3.537  1.00  0.00     0.163 HD
BRANCH   3   6
ATOM      6  C   UNL     1       4.837  -7.844  -2.302  1.00  0.00     0.170 A 
ATOM      7  N   UNL     1       3.607  -6.092  -1.943  1.00  0.00    -0.237 N 
ATOM      8  C   UNL     1       3.703  -7.193  -2.745  1.00  0.00     0.145 A 
ATOM      9  N   UNL     1       4.650  -6.004  -1.109  1.00  0.00    -0.066 NA
ATOM     10  N   UNL     1       5.429  -7.053  -1.338  1.00  0.00    -0.125 NA
BRANCH   7  11
ATOM     11  C   UNL     1       2.521  -5.173  -2.005  1.00  0.00     0.218 C 
ATOM     12  N   UNL     1       1.140  -4.103  -0.882  1.00  0.00    -0.329 N 
ATOM     13  C   UNL     1       2.611  -3.931  -1.091  1.00  0.00     0.296 C 
ATOM     14  C   UNL     1       1.368  -5.571  -1.042  1.00  0.00     0.296 C 
ATOM     15  H   UNL     1       0.454  -3.587  -1.432  1.00  0.00     0.348 HD
BRANCH  12  16
ATOM     16  C   UNL     1       0.730  -3.775   0.488  1.00  0.00     0.294 C 
BRANCH  16  17
ATOM     17  C   UNL     1       0.982  -2.300   0.879  1.00  0.00     0.169 C 
BRANCH  17  18
ATOM     18  C   UNL     1       0.398  -1.297  -0.125  1.00  0.00     0.034 C 
ATOM     19  C   UNL     1       0.905   0.118   0.122  1.00  0.00     0.007 C 
ENDBRANCH  17  18
BRANCH  17  20
ATOM     20  O   UNL     1       0.407  -2.081   2.171  1.00  0.00    -0.387 OA
ATOM     21  H   UNL     1      -0.550  -2.239   2.130  1.00  0.00     0.211 HD
ENDBRANCH  17  20
ENDBRANCH  16  17
ENDBRANCH  12  16
ENDBRANCH   7  11
ENDBRANCH   3   6
ENDBRANCH   1   2
BRANCH   1  22
ATOM     22  C   UNL     1       2.775 -10.093  -4.827  1.00  0.00     0.023 C 
BRANCH  22  23
ATOM     23  C   UNL     1       3.075 -11.293  -5.739  1.00  0.00     0.023 C 
BRANCH  23  24
ATOM     24  C   UNL     1       2.316 -12.572  -5.393  1.00  0.00     0.116 C 
BRANCH  24  25
ATOM     25  N   UNL     1       0.864 -12.413  -5.469  1.00  0.00    -0.352 N 
ATOM     26  C   UNL     1      -0.111 -13.284  -5.028  1.00  0.00     0.251 C 
ATOM     27  H   UNL     1       0.542 -11.582  -5.887  1.00  0.00     0.163 HD
ATOM     28  O   UNL     1      -1.256 -13.233  -5.474  1.00  0.00    -0.269 OA
BRANCH  26  29
ATOM     29  C   UNL     1       0.233 -14.272  -3.995  1.00  0.00     0.039 A 
ATOM     30  C   UNL     1      -0.187 -15.603  -4.085  1.00  0.00     0.014 A 
ATOM     31  C   UNL     1       1.023 -13.842  -2.932  1.00  0.00     0.014 A 
ATOM     32  C   UNL     1       0.272 -16.520  -3.141  1.00  0.00     0.010 A 
ATOM     33  C   UNL     1       1.578 -14.765  -2.083  1.00  0.00     0.010 A 
ATOM     34  C   UNL     1       1.173 -16.097  -2.153  1.00  0.00    -0.014 A 
BRANCH  34  35
ATOM     35  C   UNL     1       1.806 -17.050  -1.247  1.00  0.00     0.031 A 
ATOM     36  C   UNL     1       2.623 -18.106  -1.908  1.00  0.00     0.074 A 
ATOM     37  C   UNL     1       1.883 -16.829   0.084  1.00  0.00     0.049 A 
ATOM     38  N   UNL     1       2.437 -19.384  -1.885  1.00  0.00    -0.248 NA
ATOM     39  C   UNL     1       3.725 -17.681  -2.788  1.00  0.00     0.031 C 
ATOM     40  C   UNL     1       1.409 -15.655   0.829  1.00  0.00     0.029 A 
ATOM     41  N   UNL     1       2.536 -17.545   1.040  1.00  0.00    -0.354 N 
ATOM     42  C   UNL     1       3.506 -19.943  -2.583  1.00  0.00     0.074 A 
ATOM     43  C   UNL     1       4.161 -18.851  -3.258  1.00  0.00     0.031 C 
ATOM     44  C   UNL     1       1.997 -15.622   2.045  1.00  0.00     0.029 A 
ATOM     45  C   UNL     1       2.740 -16.853   2.229  1.00  0.00     0.049 A 
ATOM     46  H   UNL     1       2.838 -18.472   0.901  1.00  0.00     0.167 HD
ATOM     47  C   UNL     1       3.922 -21.219  -2.346  1.00  0.00     0.031 A 
ATOM     48  C   UNL     1       3.485 -17.253   3.287  1.00  0.00     0.031 A 
ATOM     49  C   UNL     1       2.953 -21.955  -1.576  1.00  0.00     0.049 A 
ATOM     50  C   UNL     1       3.669 -18.713   3.170  1.00  0.00     0.074 A 
ATOM     51  C   UNL     1       1.646 -22.356  -1.757  1.00  0.00     0.029 A 
ATOM     52  N   UNL     1       3.203 -22.055  -0.229  1.00  0.00    -0.354 N 
ATOM     53  N   UNL     1       2.698 -19.569   3.299  1.00  0.00    -0.248 NA
ATOM     54  C   UNL     1       4.860 -19.215   2.505  1.00  0.00     0.031 C 
ATOM     55  C   UNL     1       1.045 -22.248  -0.468  1.00  0.00     0.029 A 
ATOM     56  C   UNL     1       2.028 -21.851   0.442  1.00  0.00     0.049 A 
ATOM     57  H   UNL     1       4.077 -22.242   0.183  1.00  0.00     0.167 HD
ATOM     58  C   UNL     1       2.964 -20.543   2.350  1.00  0.00     0.074 A 
ATOM     59  C   UNL     1       4.370 -20.351   2.000  1.00  0.00     0.031 C 
ATOM     60  C   UNL     1       1.943 -21.211   1.736  1.00  0.00     0.031 A 
BRANCH  47  61
ATOM     61  C   UNL     1       5.369 -21.663  -2.405  1.00  0.00    -0.014 A 
ATOM     62  C   UNL     1       5.671 -23.008  -2.117  1.00  0.00     0.009 A 
ATOM     63  C   UNL     1       6.456 -20.770  -2.434  1.00  0.00     0.009 A 
ATOM     64  C   UNL     1       6.970 -23.414  -1.786  1.00  0.00     0.001 A 
ATOM     65  C   UNL     1       7.763 -21.180  -2.147  1.00  0.00     0.001 A 
ATOM     66  C   UNL     1       8.014 -22.496  -1.791  1.00  0.00     0.000 A 
ENDBRANCH  47  61
BRANCH  48  67
ATOM     67  C   UNL     1       4.220 -16.456   4.288  1.00  0.00    -0.014 A 
ATOM     68  C   UNL     1       4.576 -17.015   5.525  1.00  0.00     0.009 A 
ATOM     69  C   UNL     1       4.823 -15.241   3.917  1.00  0.00     0.009 A 
ATOM     70  C   UNL     1       5.541 -16.407   6.338  1.00  0.00     0.001 A 
ATOM     71  C   UNL     1       5.786 -14.633   4.730  1.00  0.00     0.001 A 
ATOM     72  C   UNL     1       6.158 -15.226   5.932  1.00  0.00     0.000 A 
ENDBRANCH  48  67
BRANCH  60  73
ATOM     73  C   UNL     1       0.562 -21.062   2.327  1.00  0.00    -0.014 A 
ATOM     74  C   UNL     1      -0.121 -19.834   2.397  1.00  0.00     0.009 A 
ATOM     75  C   UNL     1      -0.122 -22.225   2.708  1.00  0.00     0.009 A 
ATOM     76  C   UNL     1      -1.436 -19.771   2.870  1.00  0.00     0.001 A 
ATOM     77  C   UNL     1      -1.442 -22.165   3.159  1.00  0.00     0.001 A 
ATOM     78  C   UNL     1      -2.096 -20.938   3.247  1.00  0.00     0.000 A 
ENDBRANCH  60  73
ENDBRANCH  34  35
ENDBRANCH  26  29
ENDBRANCH  24  25
ENDBRANCH  23  24
ENDBRANCH  22  23
ENDBRANCH   1  22
TORSDOF 16
