REMARK SMILES COc1cc(NC(=O)C2CCN(S(=O)(=O)c3cccs3)CC2)c(Cl)cc1C(=O)NCCCCNC(=O)c1ccc(-c2c3nc(c(-c4ccccc4)c4ccc([nH]4)c(-c4ccccc4)c4nc(c(-c5ccccc5)c5ccc2[nH]5)C=C4)C=C3)cc1
REMARK SMILES IDX 30 1 29 2 27 3 28 4 26 6 3 7 4 8 5 9 25 10 23 11 24 12 2 13
REMARK SMILES IDX 1 14 6 15 7 16 8 18 9 19 10 20 22 21 11 22 21 23 12 24 13 25
REMARK SMILES IDX 14 26 15 27 16 28 17 29 20 30 18 31 19 32 31 33 32 34 33 35
REMARK SMILES IDX 34 36 35 37 36 39 37 40 38 41 84 42 39 43 83 44 40 45 41 46
REMARK SMILES IDX 42 47 77 48 43 49 82 50 76 51 78 52 44 53 81 54 75 55 74 56
REMARK SMILES IDX 45 58 67 59 52 60 66 61 53 62 56 63 65 64 79 65 54 66 55 67
REMARK SMILES IDX 64 69 80 70 57 71 46 72 47 73 51 74 48 75 50 76 49 77 68 78
REMARK SMILES IDX 69 79 73 80 70 81 72 82 71 83 58 84 59 85 63 86 60 87 62 88
REMARK SMILES IDX 61 89
REMARK H PARENT 29 5 6 17 34 38 78 57 56 68
REMARK Flexibility Score: inf
ROOT
ATOM      1  C   UNL     1      -1.288  -0.848  -0.405  1.00  0.00     0.116 C 
ENDROOT
BRANCH   1   2
ATOM      2  N   UNL     1      -1.948  -2.099  -0.706  1.00  0.00    -0.352 N 
ATOM      3  C   UNL     1      -1.380  -3.301  -1.068  1.00  0.00     0.255 C 
ATOM      4  O   UNL     1      -2.101  -4.278  -1.260  1.00  0.00    -0.269 OA
ATOM      5  H   UNL     1      -2.931  -2.091  -0.644  1.00  0.00     0.163 HD
BRANCH   3   6
ATOM      6  C   UNL     1       0.069  -3.413  -1.372  1.00  0.00     0.083 A 
ATOM      7  C   UNL     1       1.106  -3.075  -0.489  1.00  0.00     0.133 A 
ATOM      8  C   UNL     1       2.438  -3.139  -0.934  1.00  0.00     0.075 A 
ATOM      9  C   UNL     1       2.723  -3.408  -2.272  1.00  0.00     0.063 A 
ATOM     10  C   UNL     1       0.379  -3.890  -2.656  1.00  0.00     0.040 A 
ATOM     11  C   UNL     1       1.699  -3.892  -3.100  1.00  0.00     0.065 A 
ATOM     12  Cl  UNL     1       2.019  -4.379  -4.728  1.00  0.00    -0.082 Cl
BRANCH   7  13
ATOM     13  O   UNL     1       0.810  -2.709   0.798  1.00  0.00    -0.496 OA
ATOM     14  C   UNL     1       1.519  -1.555   1.265  1.00  0.00     0.278 C 
ENDBRANCH   7  13
BRANCH   9  15
ATOM     15  N   UNL     1       3.986  -3.159  -2.837  1.00  0.00    -0.324 N 
ATOM     16  C   UNL     1       4.883  -2.143  -2.682  1.00  0.00     0.227 C 
ATOM     17  H   UNL     1       4.281  -3.854  -3.468  1.00  0.00     0.169 HD
ATOM     18  O   UNL     1       5.931  -2.246  -3.330  1.00  0.00    -0.274 OA
BRANCH  16  19
ATOM     19  C   UNL     1       4.656  -0.905  -1.787  1.00  0.00     0.081 C 
ATOM     20  C   UNL     1       3.265  -0.273  -1.774  1.00  0.00     0.030 C 
ATOM     21  C   UNL     1       5.612   0.240  -2.218  1.00  0.00     0.030 C 
ATOM     22  C   UNL     1       2.861   0.206  -3.150  1.00  0.00     0.103 C 
ATOM     23  C   UNL     1       5.188   0.903  -3.546  1.00  0.00     0.103 C 
ATOM     24  N   UNL     1       3.753   1.323  -3.505  1.00  0.00    -0.197 NA
BRANCH  24  25
ATOM     25  S   UNL     1       3.184   2.182  -4.877  1.00  0.00     0.252 S 
ATOM     26  O   UNL     1       3.816   1.613  -6.048  1.00  0.00    -0.206 OA
ATOM     27  O   UNL     1       1.743   2.282  -4.774  1.00  0.00    -0.206 OA
BRANCH  25  28
ATOM     28  C   UNL     1       3.821   3.839  -4.757  1.00  0.00     0.135 A 
ATOM     29  C   UNL     1       5.091   4.350  -4.950  1.00  0.00     0.033 A 
ATOM     30  S   UNL     1       2.715   5.073  -4.324  1.00  0.00    -0.131 S 
ATOM     31  C   UNL     1       5.149   5.759  -4.751  1.00  0.00     0.013 A 
ATOM     32  C   UNL     1       3.918   6.282  -4.422  1.00  0.00     0.066 A 
ENDBRANCH  25  28
ENDBRANCH  24  25
ENDBRANCH  16  19
ENDBRANCH   9  15
ENDBRANCH   3   6
ENDBRANCH   1   2
BRANCH   1  33
ATOM     33  C   UNL     1      -2.166   0.395  -0.503  1.00  0.00     0.023 C 
BRANCH  33  34
ATOM     34  C   UNL     1      -3.348   0.459   0.465  1.00  0.00     0.023 C 
BRANCH  34  35
ATOM     35  C   UNL     1      -3.059   0.118   1.925  1.00  0.00     0.116 C 
BRANCH  35  36
ATOM     36  N   UNL     1      -2.107   1.012   2.571  1.00  0.00    -0.352 N 
ATOM     37  C   UNL     1      -2.248   1.803   3.690  1.00  0.00     0.251 C 
ATOM     38  H   UNL     1      -1.223   1.057   2.140  1.00  0.00     0.163 HD
ATOM     39  O   UNL     1      -1.325   2.531   4.046  1.00  0.00    -0.269 OA
BRANCH  37  40
ATOM     40  C   UNL     1      -3.526   1.820   4.436  1.00  0.00     0.039 A 
ATOM     41  C   UNL     1      -4.100   3.052   4.763  1.00  0.00     0.014 A 
ATOM     42  C   UNL     1      -4.181   0.635   4.772  1.00  0.00     0.014 A 
ATOM     43  C   UNL     1      -5.382   3.095   5.319  1.00  0.00     0.010 A 
ATOM     44  C   UNL     1      -5.492   0.680   5.237  1.00  0.00     0.010 A 
ATOM     45  C   UNL     1      -6.114   1.911   5.502  1.00  0.00    -0.014 A 
BRANCH  45  46
ATOM     46  C   UNL     1      -7.535   1.932   5.937  1.00  0.00     0.031 A 
ATOM     47  C   UNL     1      -7.952   1.257   7.214  1.00  0.00     0.074 A 
ATOM     48  C   UNL     1      -8.472   2.479   5.136  1.00  0.00     0.049 A 
ATOM     49  N   UNL     1      -9.153   1.099   7.713  1.00  0.00    -0.248 NA
ATOM     50  C   UNL     1      -6.882   0.650   8.020  1.00  0.00     0.031 C 
ATOM     51  C   UNL     1      -8.217   3.125   3.846  1.00  0.00     0.029 A 
ATOM     52  N   UNL     1      -9.834   2.572   5.288  1.00  0.00    -0.354 N 
ATOM     53  C   UNL     1      -8.984   0.351   8.871  1.00  0.00     0.074 A 
ATOM     54  C   UNL     1      -7.574   0.044   8.973  1.00  0.00     0.031 C 
ATOM     55  C   UNL     1      -9.376   3.583   3.347  1.00  0.00     0.029 A 
ATOM     56  C   UNL     1     -10.460   3.225   4.255  1.00  0.00     0.049 A 
ATOM     57  H   UNL     1     -10.315   2.205   6.065  1.00  0.00     0.167 HD
ATOM     58  C   UNL     1      -9.912  -0.031   9.781  1.00  0.00     0.031 A 
ATOM     59  C   UNL     1     -11.762   3.506   4.057  1.00  0.00     0.031 A 
ATOM     60  C   UNL     1     -11.312   0.286   9.694  1.00  0.00     0.049 A 
ATOM     61  C   UNL     1     -12.776   3.067   5.074  1.00  0.00     0.074 A 
ATOM     62  C   UNL     1     -12.319   0.008  10.602  1.00  0.00     0.029 A 
ATOM     63  N   UNL     1     -11.905   0.951   8.632  1.00  0.00    -0.354 N 
ATOM     64  N   UNL     1     -12.591   2.423   6.200  1.00  0.00    -0.248 NA
ATOM     65  C   UNL     1     -14.180   3.403   4.794  1.00  0.00     0.031 C 
ATOM     66  C   UNL     1     -13.529   0.463  10.067  1.00  0.00     0.029 A 
ATOM     67  C   UNL     1     -13.268   1.070   8.849  1.00  0.00     0.049 A 
ATOM     68  H   UNL     1     -11.428   1.289   7.839  1.00  0.00     0.167 HD
ATOM     69  C   UNL     1     -13.848   2.299   6.777  1.00  0.00     0.074 A 
ATOM     70  C   UNL     1     -14.786   2.944   5.881  1.00  0.00     0.031 C 
ATOM     71  C   UNL     1     -14.192   1.708   7.947  1.00  0.00     0.031 A 
BRANCH  58  72
ATOM     72  C   UNL     1      -9.429  -0.852  10.945  1.00  0.00    -0.014 A 
ATOM     73  C   UNL     1      -8.606  -0.295  11.938  1.00  0.00     0.009 A 
ATOM     74  C   UNL     1      -9.796  -2.202  11.047  1.00  0.00     0.009 A 
ATOM     75  C   UNL     1      -8.117  -1.088  12.979  1.00  0.00     0.001 A 
ATOM     76  C   UNL     1      -9.332  -2.984  12.106  1.00  0.00     0.001 A 
ATOM     77  C   UNL     1      -8.481  -2.431  13.062  1.00  0.00     0.000 A 
ENDBRANCH  58  72
BRANCH  59  78
ATOM     78  C   UNL     1     -12.177   4.282   2.860  1.00  0.00    -0.014 A 
ATOM     79  C   UNL     1     -12.569   5.623   2.994  1.00  0.00     0.009 A 
ATOM     80  C   UNL     1     -12.170   3.700   1.583  1.00  0.00     0.009 A 
ATOM     81  C   UNL     1     -12.960   6.362   1.876  1.00  0.00     0.001 A 
ATOM     82  C   UNL     1     -12.539   4.449   0.463  1.00  0.00     0.001 A 
ATOM     83  C   UNL     1     -12.939   5.776   0.611  1.00  0.00     0.000 A 
ENDBRANCH  59  78
BRANCH  71  84
ATOM     84  C   UNL     1     -15.641   1.758   8.342  1.00  0.00    -0.014 A 
ATOM     85  C   UNL     1     -16.601   0.964   7.696  1.00  0.00     0.009 A 
ATOM     86  C   UNL     1     -16.042   2.586   9.402  1.00  0.00     0.009 A 
ATOM     87  C   UNL     1     -17.940   1.020   8.086  1.00  0.00     0.001 A 
ATOM     88  C   UNL     1     -17.377   2.620   9.807  1.00  0.00     0.001 A 
ATOM     89  C   UNL     1     -18.326   1.844   9.144  1.00  0.00     0.000 A 
ENDBRANCH  71  84
ENDBRANCH  45  46
ENDBRANCH  37  40
ENDBRANCH  35  36
ENDBRANCH  34  35
ENDBRANCH  33  34
ENDBRANCH   1  33
TORSDOF 16
