REMARK SMILES CC(=O)O[C@@H]1[C@@H](O)C(C)=C(CC[C@@H](C)CC(=O)NCCCCNC(=O)c2ccc(-c3c4nc(c(-c5ccccc5)c5ccc([nH]5)c(-c5ccccc5)c5nc(c(-c6ccccc6)c6ccc3[nH]6)C=C5)C=C4)cc2)[C@@]2(C)CCCC(C)(C)[C@H]12
REMARK SMILES IDX 16 1 17 2 18 3 15 5 13 6 14 7 12 8 11 9 10 10 5 11 6 12
REMARK SMILES IDX 82 13 8 14 74 15 79 16 9 17 76 18 75 19 78 20 80 21 81 22
REMARK SMILES IDX 77 23 4 24 2 25 1 26 3 27 7 28 19 30 20 31 21 32 22 33 23 34
REMARK SMILES IDX 24 35 25 37 26 38 27 39 73 40 28 41 72 42 29 43 30 44 31 45
REMARK SMILES IDX 66 46 32 47 71 48 65 49 67 50 33 51 70 52 64 53 63 54 34 56
REMARK SMILES IDX 56 57 41 58 55 59 42 60 45 61 54 62 68 63 43 64 44 65 53 67
REMARK SMILES IDX 69 68 46 69 35 70 36 71 40 72 37 73 39 74 38 75 57 76 58 77
REMARK SMILES IDX 62 78 59 79 61 80 60 81 47 82 48 83 52 84 49 85 51 86 50 87
REMARK H PARENT 18 4 7 29 23 36 67 55 45 66
REMARK Flexibility Score: inf
ROOT
ATOM      1  C   UNL     1       2.528   0.587  -9.137  1.00  0.00     0.220 C 
ATOM      2  O   UNL     1       2.232  -0.358  -9.872  1.00  0.00    -0.275 OA
ATOM      3  N   UNL     1       3.819   1.029  -9.161  1.00  0.00    -0.356 N 
ATOM      4  H   UNL     1       4.354   0.707  -9.922  1.00  0.00     0.163 HD
ENDROOT
BRANCH   1   5
ATOM      5  C   UNL     1       1.473   1.258  -8.268  1.00  0.00     0.103 C 
BRANCH   5   6
ATOM      6  C   UNL     1       1.142   0.490  -6.967  1.00  0.00    -0.005 C 
ATOM      7  C   UNL     1      -0.270   0.846  -6.489  1.00  0.00     0.008 C 
BRANCH   6   8
ATOM      8  C   UNL     1       2.162   0.828  -5.872  1.00  0.00     0.008 C 
BRANCH   8   9
ATOM      9  C   UNL     1       2.109   0.013  -4.584  1.00  0.00     0.032 C 
BRANCH   9  10
ATOM     10  C   UNL     1       2.350  -1.493  -4.786  1.00  0.00    -0.062 C 
ATOM     11  C   UNL     1       2.487  -3.188  -2.382  1.00  0.00     0.213 C 
ATOM     12  C   UNL     1       1.156  -2.622  -2.949  1.00  0.00     0.181 C 
ATOM     13  C   UNL     1       3.698  -2.280  -2.800  1.00  0.00     0.049 C 
ATOM     14  C   UNL     1       1.285  -2.257  -4.418  1.00  0.00    -0.042 C 
ATOM     15  C   UNL     1       3.771  -2.044  -4.358  1.00  0.00    -0.004 C 
ATOM     16  C   UNL     1       5.071  -2.585  -2.100  1.00  0.00    -0.028 C 
ATOM     17  C   UNL     1       0.726  -3.312  -5.343  1.00  0.00     0.042 C 
ATOM     18  C   UNL     1       4.952  -1.089  -4.702  1.00  0.00     0.011 C 
ATOM     19  C   UNL     1       4.046  -3.313  -5.219  1.00  0.00     0.016 C 
ATOM     20  C   UNL     1       6.072  -1.464  -2.476  1.00  0.00     0.007 C 
ATOM     21  C   UNL     1       4.907  -2.480  -0.561  1.00  0.00     0.011 C 
ATOM     22  C   UNL     1       5.695  -3.951  -2.457  1.00  0.00     0.011 C 
ATOM     23  C   UNL     1       6.270  -1.319  -3.972  1.00  0.00     0.001 C 
BRANCH  11  24
ATOM     24  O   UNL     1       2.628  -4.534  -2.886  1.00  0.00    -0.459 OA
BRANCH  24  25
ATOM     25  C   UNL     1       2.376  -5.617  -2.119  1.00  0.00     0.303 C 
ATOM     26  C   UNL     1       3.013  -5.635  -0.764  1.00  0.00     0.139 C 
ATOM     27  O   UNL     1       1.736  -6.569  -2.551  1.00  0.00    -0.253 OA
ENDBRANCH  24  25
ENDBRANCH  11  24
BRANCH  12  28
ATOM     28  O   UNL     1       0.777  -1.452  -2.217  1.00  0.00    -0.385 OA
ATOM     29  H   UNL     1       1.462  -0.772  -2.318  1.00  0.00     0.211 HD
ENDBRANCH  12  28
ENDBRANCH   9  10
ENDBRANCH   8   9
ENDBRANCH   6   8
ENDBRANCH   5   6
ENDBRANCH   1   5
BRANCH   3  30
ATOM     30  C   UNL     1       4.528   1.901  -8.239  1.00  0.00     0.116 C 
BRANCH  30  31
ATOM     31  C   UNL     1       5.271   1.054  -7.211  1.00  0.00     0.023 C 
BRANCH  31  32
ATOM     32  C   UNL     1       6.685   0.626  -7.543  1.00  0.00     0.023 C 
BRANCH  32  33
ATOM     33  C   UNL     1       7.699   1.741  -7.455  1.00  0.00     0.116 C 
BRANCH  33  34
ATOM     34  N   UNL     1       7.901   2.269  -6.111  1.00  0.00    -0.352 N 
ATOM     35  C   UNL     1       9.087   2.590  -5.472  1.00  0.00     0.251 C 
ATOM     36  H   UNL     1       7.082   2.417  -5.585  1.00  0.00     0.163 HD
ATOM     37  O   UNL     1       9.091   2.966  -4.319  1.00  0.00    -0.269 OA
BRANCH  35  38
ATOM     38  C   UNL     1      10.361   2.405  -6.210  1.00  0.00     0.039 A 
ATOM     39  C   UNL     1      11.432   1.775  -5.574  1.00  0.00     0.014 A 
ATOM     40  C   UNL     1      10.453   2.753  -7.556  1.00  0.00     0.014 A 
ATOM     41  C   UNL     1      12.551   1.401  -6.323  1.00  0.00     0.010 A 
ATOM     42  C   UNL     1      11.487   2.243  -8.324  1.00  0.00     0.010 A 
ATOM     43  C   UNL     1      12.560   1.578  -7.716  1.00  0.00    -0.014 A 
BRANCH  43  44
ATOM     44  C   UNL     1      13.686   1.114  -8.566  1.00  0.00     0.031 A 
ATOM     45  C   UNL     1      14.415   2.104  -9.437  1.00  0.00     0.074 A 
ATOM     46  C   UNL     1      13.996  -0.197  -8.625  1.00  0.00     0.049 A 
ATOM     47  N   UNL     1      15.356   1.893 -10.321  1.00  0.00    -0.248 NA
ATOM     48  C   UNL     1      14.000   3.515  -9.334  1.00  0.00     0.031 C 
ATOM     49  C   UNL     1      13.327  -1.268  -7.883  1.00  0.00     0.029 A 
ATOM     50  N   UNL     1      14.959  -0.852  -9.352  1.00  0.00    -0.354 N 
ATOM     51  C   UNL     1      15.613   3.131 -10.897  1.00  0.00     0.074 A 
ATOM     52  C   UNL     1      14.683   4.072 -10.320  1.00  0.00     0.031 C 
ATOM     53  C   UNL     1      13.928  -2.437  -8.158  1.00  0.00     0.029 A 
ATOM     54  C   UNL     1      14.992  -2.208  -9.129  1.00  0.00     0.049 A 
ATOM     55  H   UNL     1      15.569  -0.394  -9.974  1.00  0.00     0.167 HD
ATOM     56  C   UNL     1      16.562   3.468 -11.801  1.00  0.00     0.031 A 
ATOM     57  C   UNL     1      15.791  -3.159  -9.650  1.00  0.00     0.031 A 
ATOM     58  C   UNL     1      17.513   2.539 -12.345  1.00  0.00     0.049 A 
ATOM     59  C   UNL     1      16.849  -2.759 -10.641  1.00  0.00     0.074 A 
ATOM     60  C   UNL     1      18.564   2.789 -13.209  1.00  0.00     0.029 A 
ATOM     61  N   UNL     1      17.530   1.181 -12.071  1.00  0.00    -0.354 N 
ATOM     62  N   UNL     1      17.131  -1.570 -11.116  1.00  0.00    -0.248 NA
ATOM     63  C   UNL     1      17.709  -3.834 -11.158  1.00  0.00     0.031 C 
ATOM     64  C   UNL     1      19.187   1.571 -13.497  1.00  0.00     0.029 A 
ATOM     65  C   UNL     1      18.560   0.574 -12.766  1.00  0.00     0.049 A 
ATOM     66  H   UNL     1      16.902   0.717 -11.471  1.00  0.00     0.167 HD
ATOM     67  C   UNL     1      18.217  -1.748 -11.963  1.00  0.00     0.074 A 
ATOM     68  C   UNL     1      18.553  -3.156 -11.923  1.00  0.00     0.031 C 
ATOM     69  C   UNL     1      18.878  -0.829 -12.709  1.00  0.00     0.031 A 
BRANCH  56  70
ATOM     70  C   UNL     1      16.615   4.904 -12.246  1.00  0.00    -0.014 A 
ATOM     71  C   UNL     1      17.000   5.928 -11.364  1.00  0.00     0.009 A 
ATOM     72  C   UNL     1      16.291   5.237 -13.569  1.00  0.00     0.009 A 
ATOM     73  C   UNL     1      17.014   7.258 -11.785  1.00  0.00     0.001 A 
ATOM     74  C   UNL     1      16.340   6.565 -13.998  1.00  0.00     0.001 A 
ATOM     75  C   UNL     1      16.690   7.575 -13.103  1.00  0.00     0.000 A 
ENDBRANCH  56  70
BRANCH  57  76
ATOM     76  C   UNL     1      15.643  -4.577  -9.226  1.00  0.00    -0.014 A 
ATOM     77  C   UNL     1      16.629  -5.190  -8.437  1.00  0.00     0.009 A 
ATOM     78  C   UNL     1      14.522  -5.328  -9.611  1.00  0.00     0.009 A 
ATOM     79  C   UNL     1      16.511  -6.532  -8.069  1.00  0.00     0.001 A 
ATOM     80  C   UNL     1      14.391  -6.662  -9.216  1.00  0.00     0.001 A 
ATOM     81  C   UNL     1      15.390  -7.265  -8.454  1.00  0.00     0.000 A 
ENDBRANCH  57  76
BRANCH  69  82
ATOM     82  C   UNL     1      20.054  -1.310 -13.510  1.00  0.00    -0.014 A 
ATOM     83  C   UNL     1      19.883  -2.103 -14.655  1.00  0.00     0.009 A 
ATOM     84  C   UNL     1      21.351  -0.921 -13.138  1.00  0.00     0.009 A 
ATOM     85  C   UNL     1      20.991  -2.525 -15.391  1.00  0.00     0.001 A 
ATOM     86  C   UNL     1      22.453  -1.318 -13.894  1.00  0.00     0.001 A 
ATOM     87  C   UNL     1      22.273  -2.128 -15.014  1.00  0.00     0.000 A 
ENDBRANCH  69  82
ENDBRANCH  43  44
ENDBRANCH  35  38
ENDBRANCH  33  34
ENDBRANCH  32  33
ENDBRANCH  31  32
ENDBRANCH  30  31
ENDBRANCH   3  30
TORSDOF 18
