REMARK SMILES CCn1cc(CC(=O)NCCCCNC(=O)c2ccc(-c3c4nc(c(-c5ccccc5)c5ccc([nH]5)c(-c5ccccc5)c5nc(c(-c6ccccc6)c6ccc3[nH]6)C=C5)C=C4)cc2)c2ccccc21
REMARK SMILES IDX 11 1 10 2 9 3 7 4 8 5 6 7 5 8 3 9 4 10 70 11 65 12 69 13
REMARK SMILES IDX 66 14 68 15 67 16 2 17 1 18 12 19 13 20 14 21 15 22 16 24
REMARK SMILES IDX 17 25 18 26 64 27 19 28 63 29 20 30 21 31 22 32 57 33 23 34
REMARK SMILES IDX 62 35 56 36 58 37 24 38 61 39 55 40 54 41 25 43 47 44 32 45
REMARK SMILES IDX 46 46 33 47 36 48 45 49 59 50 34 51 35 52 44 54 60 55 37 56
REMARK SMILES IDX 26 57 27 58 31 59 28 60 30 61 29 62 48 63 49 64 53 65 50 66
REMARK SMILES IDX 52 67 51 68 38 69 39 70 43 71 40 72 42 73 41 74
REMARK H PARENT 9 6 14 23 58 42 36 53
REMARK Flexibility Score: inf
ROOT
ATOM      1  C   UNL     1      -2.287   2.464   4.050  1.00  0.00     0.023 C 
ENDROOT
BRANCH   1   2
ATOM      2  C   UNL     1      -2.023   3.784   3.324  1.00  0.00     0.116 C 
BRANCH   2   3
ATOM      3  N   UNL     1      -1.235   4.696   4.129  1.00  0.00    -0.356 N 
ATOM      4  C   UNL     1       0.054   5.108   3.939  1.00  0.00     0.224 C 
ATOM      5  O   UNL     1       0.542   5.884   4.765  1.00  0.00    -0.275 OA
ATOM      6  H   UNL     1      -1.690   5.069   4.918  1.00  0.00     0.163 HD
BRANCH   4   7
ATOM      7  C   UNL     1       0.829   4.669   2.706  1.00  0.00     0.137 C 
BRANCH   7   8
ATOM      8  C   UNL     1       1.112   3.201   2.684  1.00  0.00    -0.013 A 
ATOM      9  N   UNL     1       1.055   1.041   2.109  1.00  0.00    -0.347 N 
ATOM     10  C   UNL     1       0.696   2.305   1.719  1.00  0.00     0.091 A 
ATOM     11  C   UNL     1       1.782   1.100   3.281  1.00  0.00     0.048 A 
ATOM     12  C   UNL     1       1.835   2.447   3.660  1.00  0.00     0.003 A 
ATOM     13  C   UNL     1       2.380   0.093   4.057  1.00  0.00     0.027 A 
ATOM     14  C   UNL     1       2.507   2.795   4.851  1.00  0.00     0.010 A 
ATOM     15  C   UNL     1       3.042   0.466   5.231  1.00  0.00     0.002 A 
ATOM     16  C   UNL     1       3.106   1.798   5.625  1.00  0.00     0.001 A 
BRANCH   9  17
ATOM     17  C   UNL     1       0.614  -0.163   1.424  1.00  0.00     0.119 C 
ATOM     18  C   UNL     1       1.105  -0.255  -0.011  1.00  0.00     0.027 C 
ENDBRANCH   9  17
ENDBRANCH   7   8
ENDBRANCH   4   7
ENDBRANCH   2   3
ENDBRANCH   1   2
BRANCH   1  19
ATOM     19  C   UNL     1      -3.199   2.583   5.280  1.00  0.00     0.023 C 
BRANCH  19  20
ATOM     20  C   UNL     1      -4.502   3.346   5.036  1.00  0.00     0.116 C 
BRANCH  20  21
ATOM     21  N   UNL     1      -5.294   2.800   3.952  1.00  0.00    -0.352 N 
ATOM     22  C   UNL     1      -6.202   1.786   3.840  1.00  0.00     0.251 C 
ATOM     23  H   UNL     1      -5.144   3.269   3.100  1.00  0.00     0.163 HD
ATOM     24  O   UNL     1      -6.721   1.646   2.728  1.00  0.00    -0.269 OA
BRANCH  22  25
ATOM     25  C   UNL     1      -6.574   0.837   4.925  1.00  0.00     0.039 A 
ATOM     26  C   UNL     1      -6.153   0.909   6.254  1.00  0.00     0.014 A 
ATOM     27  C   UNL     1      -7.413  -0.229   4.550  1.00  0.00     0.014 A 
ATOM     28  C   UNL     1      -6.501  -0.082   7.168  1.00  0.00     0.010 A 
ATOM     29  C   UNL     1      -7.779  -1.214   5.462  1.00  0.00     0.010 A 
ATOM     30  C   UNL     1      -7.291  -1.157   6.766  1.00  0.00    -0.014 A 
BRANCH  30  31
ATOM     31  C   UNL     1      -7.634  -2.169   7.764  1.00  0.00     0.031 A 
ATOM     32  C   UNL     1      -8.507  -1.735   8.898  1.00  0.00     0.074 A 
ATOM     33  C   UNL     1      -7.319  -3.469   7.603  1.00  0.00     0.049 A 
ATOM     34  N   UNL     1      -8.356  -1.958  10.166  1.00  0.00    -0.248 NA
ATOM     35  C   UNL     1      -9.693  -0.926   8.572  1.00  0.00     0.031 C 
ATOM     36  C   UNL     1      -6.737  -4.104   6.418  1.00  0.00     0.029 A 
ATOM     37  N   UNL     1      -7.595  -4.525   8.423  1.00  0.00    -0.354 N 
ATOM     38  C   UNL     1      -9.484  -1.429  10.794  1.00  0.00     0.074 A 
ATOM     39  C   UNL     1     -10.238  -0.744   9.774  1.00  0.00     0.031 C 
ATOM     40  C   UNL     1      -6.942  -5.436   6.490  1.00  0.00     0.029 A 
ATOM     41  C   UNL     1      -7.546  -5.749   7.774  1.00  0.00     0.049 A 
ATOM     42  H   UNL     1      -7.807  -4.427   9.379  1.00  0.00     0.167 HD
ATOM     43  C   UNL     1      -9.808  -1.691  12.091  1.00  0.00     0.031 A 
ATOM     44  C   UNL     1      -8.053  -6.923   8.217  1.00  0.00     0.031 A 
ATOM     45  C   UNL     1      -8.693  -2.179  12.849  1.00  0.00     0.049 A 
ATOM     46  C   UNL     1      -8.256  -6.823   9.678  1.00  0.00     0.074 A 
ATOM     47  C   UNL     1      -7.475  -1.655  13.228  1.00  0.00     0.029 A 
ATOM     48  N   UNL     1      -8.622  -3.525  13.106  1.00  0.00    -0.354 N 
ATOM     49  N   UNL     1      -7.288  -6.762  10.545  1.00  0.00    -0.248 NA
ATOM     50  C   UNL     1      -9.565  -6.433  10.177  1.00  0.00     0.031 C 
ATOM     51  C   UNL     1      -6.584  -2.765  13.245  1.00  0.00     0.029 A 
ATOM     52  C   UNL     1      -7.320  -3.901  12.900  1.00  0.00     0.049 A 
ATOM     53  H   UNL     1      -9.364  -4.109  13.386  1.00  0.00     0.167 HD
ATOM     54  C   UNL     1      -7.766  -5.935  11.550  1.00  0.00     0.074 A 
ATOM     55  C   UNL     1      -9.209  -5.884  11.341  1.00  0.00     0.031 C 
ATOM     56  C   UNL     1      -6.920  -5.144  12.275  1.00  0.00     0.031 A 
BRANCH  43  57
ATOM     57  C   UNL     1     -11.220  -1.749  12.617  1.00  0.00    -0.014 A 
ATOM     58  C   UNL     1     -12.340  -1.907  11.780  1.00  0.00     0.009 A 
ATOM     59  C   UNL     1     -11.437  -1.907  13.999  1.00  0.00     0.009 A 
ATOM     60  C   UNL     1     -13.610  -2.200  12.289  1.00  0.00     0.001 A 
ATOM     61  C   UNL     1     -12.698  -2.243  14.508  1.00  0.00     0.001 A 
ATOM     62  C   UNL     1     -13.784  -2.391  13.652  1.00  0.00     0.000 A 
ENDBRANCH  43  57
BRANCH  44  63
ATOM     63  C   UNL     1      -8.642  -8.012   7.411  1.00  0.00    -0.014 A 
ATOM     64  C   UNL     1      -9.257  -7.731   6.176  1.00  0.00     0.009 A 
ATOM     65  C   UNL     1      -8.831  -9.289   7.960  1.00  0.00     0.009 A 
ATOM     66  C   UNL     1     -10.050  -8.678   5.525  1.00  0.00     0.001 A 
ATOM     67  C   UNL     1      -9.634 -10.236   7.312  1.00  0.00     0.001 A 
ATOM     68  C   UNL     1     -10.252  -9.926   6.102  1.00  0.00     0.000 A 
ENDBRANCH  44  63
BRANCH  56  69
ATOM     69  C   UNL     1      -5.431  -5.372  12.141  1.00  0.00    -0.014 A 
ATOM     70  C   UNL     1      -4.655  -5.479  13.306  1.00  0.00     0.009 A 
ATOM     71  C   UNL     1      -4.763  -5.293  10.906  1.00  0.00     0.009 A 
ATOM     72  C   UNL     1      -3.259  -5.500  13.239  1.00  0.00     0.001 A 
ATOM     73  C   UNL     1      -3.368  -5.343  10.837  1.00  0.00     0.001 A 
ATOM     74  C   UNL     1      -2.616  -5.437  12.005  1.00  0.00     0.000 A 
ENDBRANCH  56  69
ENDBRANCH  30  31
ENDBRANCH  22  25
ENDBRANCH  20  21
ENDBRANCH  19  20
ENDBRANCH   1  19
TORSDOF 13
