REMARK SMILES O=C(NCCCCNC(=O)c1nnn(-c2cccc(OC(F)(F)F)c2)c1-c1ccncc1)c1ccc(-c2c3nc(c(-c4ccccc4)c4ccc([nH]4)c(-c4ccccc4)c4nc(c(-c5ccccc5)c5ccc2[nH]5)C=C4)C=C3)cc1
REMARK SMILES IDX 6 1 5 2 4 3 3 4 1 5 2 6 33 8 34 9 80 10 35 11 79 12 36 13
REMARK SMILES IDX 37 14 38 15 73 16 39 17 78 18 72 19 74 20 40 21 77 22 71 23
REMARK SMILES IDX 70 24 41 26 63 27 48 28 62 29 49 30 52 31 61 32 75 33 50 34
REMARK SMILES IDX 51 35 60 37 76 38 53 39 42 40 43 41 47 42 44 43 46 44 45 45
REMARK SMILES IDX 64 46 65 47 69 48 66 49 68 50 67 51 54 52 55 53 59 54 56 55
REMARK SMILES IDX 58 56 57 57 7 58 8 59 9 60 10 62 11 63 12 64 26 65 13 66
REMARK SMILES IDX 14 67 27 68 28 69 32 70 29 71 31 72 30 73 15 74 16 75 25 76
REMARK SMILES IDX 17 77 19 78 18 79 20 80 21 81 22 82 23 83 24 84
REMARK H PARENT 3 7 74 25 52 36 8 61
REMARK Flexibility Score: inf
ROOT
ATOM      1  C   UNL     1       4.635  -3.436  -1.026  1.00  0.00     0.023 C 
ENDROOT
BRANCH   1   2
ATOM      2  C   UNL     1       5.153  -2.259  -0.203  1.00  0.00     0.023 C 
BRANCH   2   3
ATOM      3  C   UNL     1       4.829  -0.859  -0.737  1.00  0.00     0.116 C 
BRANCH   3   4
ATOM      4  N   UNL     1       3.436  -0.605  -1.052  1.00  0.00    -0.352 N 
ATOM      5  O   UNL     1       1.344   0.107  -0.975  1.00  0.00    -0.269 OA
ATOM      6  C   UNL     1       2.339  -0.227  -0.327  1.00  0.00     0.251 C 
ATOM      7  H   UNL     1       3.234  -0.735  -2.007  1.00  0.00     0.163 HD
BRANCH   6   8
ATOM      8  C   UNL     1       2.237  -0.261   1.159  1.00  0.00     0.039 A 
ATOM      9  C   UNL     1       3.288  -0.516   2.038  1.00  0.00     0.014 A 
ATOM     10  C   UNL     1       0.949  -0.072   1.698  1.00  0.00     0.014 A 
ATOM     11  C   UNL     1       3.047  -0.711   3.395  1.00  0.00     0.010 A 
ATOM     12  C   UNL     1       0.707  -0.225   3.060  1.00  0.00     0.010 A 
ATOM     13  C   UNL     1       1.753  -0.593   3.902  1.00  0.00    -0.014 A 
BRANCH  13  14
ATOM     14  C   UNL     1       1.569  -0.760   5.341  1.00  0.00     0.031 A 
ATOM     15  C   UNL     1       2.216   0.267   6.206  1.00  0.00     0.074 A 
ATOM     16  C   UNL     1       0.752  -1.680   5.889  1.00  0.00     0.049 A 
ATOM     17  N   UNL     1       3.075   0.093   7.159  1.00  0.00    -0.248 NA
ATOM     18  C   UNL     1       1.896   1.677   5.935  1.00  0.00     0.031 C 
ATOM     19  C   UNL     1      -0.200  -2.555   5.203  1.00  0.00     0.029 A 
ATOM     20  N   UNL     1       0.520  -1.936   7.210  1.00  0.00    -0.354 N 
ATOM     21  C   UNL     1       3.288   1.351   7.721  1.00  0.00     0.074 A 
ATOM     22  C   UNL     1       2.623   2.299   6.862  1.00  0.00     0.031 C 
ATOM     23  C   UNL     1      -1.061  -3.066   6.112  1.00  0.00     0.029 A 
ATOM     24  C   UNL     1      -0.639  -2.660   7.442  1.00  0.00     0.049 A 
ATOM     25  H   UNL     1       1.120  -1.635   7.931  1.00  0.00     0.167 HD
ATOM     26  C   UNL     1       3.829   1.516   8.960  1.00  0.00     0.031 A 
ATOM     27  C   UNL     1      -1.254  -2.853   8.633  1.00  0.00     0.031 A 
ATOM     28  C   UNL     1       4.527   0.344   9.415  1.00  0.00     0.049 A 
ATOM     29  C   UNL     1      -0.284  -2.567   9.713  1.00  0.00     0.074 A 
ATOM     30  C   UNL     1       5.597  -0.403   8.965  1.00  0.00     0.029 A 
ATOM     31  N   UNL     1       3.925  -0.419  10.385  1.00  0.00    -0.354 N 
ATOM     32  N   UNL     1       0.736  -3.323   9.993  1.00  0.00    -0.248 NA
ATOM     33  C   UNL     1      -0.240  -1.226  10.273  1.00  0.00     0.031 C 
ATOM     34  C   UNL     1       5.295  -1.746   9.339  1.00  0.00     0.029 A 
ATOM     35  C   UNL     1       4.074  -1.727  10.015  1.00  0.00     0.049 A 
ATOM     36  H   UNL     1       3.472  -0.087  11.194  1.00  0.00     0.167 HD
ATOM     37  C   UNL     1       1.730  -2.442  10.390  1.00  0.00     0.074 A 
ATOM     38  C   UNL     1       1.034  -1.189  10.669  1.00  0.00     0.031 C 
ATOM     39  C   UNL     1       3.049  -2.730  10.183  1.00  0.00     0.031 A 
BRANCH  26  40
ATOM     40  C   UNL     1       3.389   2.596   9.924  1.00  0.00    -0.014 A 
ATOM     41  C   UNL     1       4.010   2.670  11.186  1.00  0.00     0.009 A 
ATOM     42  C   UNL     1       2.200   3.332   9.764  1.00  0.00     0.009 A 
ATOM     43  C   UNL     1       3.417   3.355  12.254  1.00  0.00     0.001 A 
ATOM     44  C   UNL     1       1.631   4.057  10.815  1.00  0.00     0.001 A 
ATOM     45  C   UNL     1       2.220   4.039  12.070  1.00  0.00     0.000 A 
ENDBRANCH  26  40
BRANCH  27  46
ATOM     46  C   UNL     1      -2.693  -3.042   8.905  1.00  0.00    -0.014 A 
ATOM     47  C   UNL     1      -3.132  -3.588  10.120  1.00  0.00     0.009 A 
ATOM     48  C   UNL     1      -3.655  -2.449   8.066  1.00  0.00     0.009 A 
ATOM     49  C   UNL     1      -4.480  -3.516  10.494  1.00  0.00     0.001 A 
ATOM     50  C   UNL     1      -5.001  -2.383   8.435  1.00  0.00     0.001 A 
ATOM     51  C   UNL     1      -5.411  -2.905   9.657  1.00  0.00     0.000 A 
ENDBRANCH  27  46
BRANCH  39  52
ATOM     52  C   UNL     1       3.415  -4.136   9.788  1.00  0.00    -0.014 A 
ATOM     53  C   UNL     1       2.927  -4.747   8.620  1.00  0.00     0.009 A 
ATOM     54  C   UNL     1       4.397  -4.808  10.531  1.00  0.00     0.009 A 
ATOM     55  C   UNL     1       3.381  -6.011   8.230  1.00  0.00     0.001 A 
ATOM     56  C   UNL     1       4.867  -6.059  10.129  1.00  0.00     0.001 A 
ATOM     57  C   UNL     1       4.354  -6.663   8.982  1.00  0.00     0.000 A 
ENDBRANCH  39  52
ENDBRANCH  13  14
ENDBRANCH   6   8
ENDBRANCH   3   4
ENDBRANCH   2   3
ENDBRANCH   1   2
BRANCH   1  58
ATOM     58  C   UNL     1       4.998  -3.412  -2.500  1.00  0.00     0.116 C 
BRANCH  58  59
ATOM     59  N   UNL     1       6.421  -3.498  -2.752  1.00  0.00    -0.351 N 
ATOM     60  C   UNL     1       7.079  -4.194  -3.747  1.00  0.00     0.274 C 
ATOM     61  H   UNL     1       6.997  -2.993  -2.132  1.00  0.00     0.163 HD
ATOM     62  O   UNL     1       8.300  -4.163  -3.772  1.00  0.00    -0.267 OA
BRANCH  60  63
ATOM     63  C   UNL     1       6.300  -4.938  -4.730  1.00  0.00     0.178 A 
ATOM     64  N   UNL     1       6.452  -6.294  -4.890  1.00  0.00    -0.124 NA
ATOM     65  C   UNL     1       5.302  -4.486  -5.584  1.00  0.00     0.108 A 
ATOM     66  N   UNL     1       5.542  -6.717  -5.755  1.00  0.00    -0.061 NA
ATOM     67  N   UNL     1       4.939  -5.632  -6.284  1.00  0.00    -0.212 N 
BRANCH  65  68
ATOM     68  C   UNL     1       4.596  -3.206  -5.659  1.00  0.00     0.006 A 
ATOM     69  C   UNL     1       5.273  -2.017  -5.919  1.00  0.00     0.030 A 
ATOM     70  C   UNL     1       3.218  -3.159  -5.403  1.00  0.00     0.030 A 
ATOM     71  C   UNL     1       4.544  -0.839  -5.906  1.00  0.00     0.111 A 
ATOM     72  C   UNL     1       2.582  -1.932  -5.403  1.00  0.00     0.111 A 
ATOM     73  N   UNL     1       3.221  -0.771  -5.640  1.00  0.00    -0.265 NA
ENDBRANCH  65  68
BRANCH  67  74
ATOM     74  C   UNL     1       4.018  -5.731  -7.351  1.00  0.00     0.071 A 
ATOM     75  C   UNL     1       3.102  -6.784  -7.384  1.00  0.00     0.029 A 
ATOM     76  C   UNL     1       3.982  -4.715  -8.320  1.00  0.00     0.075 A 
ATOM     77  C   UNL     1       2.085  -6.758  -8.337  1.00  0.00     0.006 A 
ATOM     78  C   UNL     1       2.984  -4.706  -9.290  1.00  0.00     0.131 A 
ATOM     79  C   UNL     1       2.022  -5.720  -9.274  1.00  0.00     0.047 A 
BRANCH  78  80
ATOM     80  O   UNL     1       2.830  -3.772 -10.274  1.00  0.00    -0.406 OA
BRANCH  80  81
ATOM     81  C   UNL     1       3.844  -2.787 -10.412  1.00  0.00     0.573 C 
ATOM     82  F   UNL     1       3.929  -2.015  -9.306  1.00  0.00    -0.132 F 
ATOM     83  F   UNL     1       5.046  -3.357 -10.648  1.00  0.00    -0.132 F 
ATOM     84  F   UNL     1       3.543  -1.990 -11.459  1.00  0.00    -0.132 F 
ENDBRANCH  80  81
ENDBRANCH  78  80
ENDBRANCH  67  74
ENDBRANCH  60  63
ENDBRANCH  58  59
ENDBRANCH   1  58
TORSDOF 15
