REMARK SMILES CC1=C(C)C[C@@H](C(=O)N[C@H](C)C(C)(C)C)[C@@H](C(=O)NCCCCNC(=O)c2ccc(-c3c4nc(c(-c5ccccc5)c5ccc([nH]5)c(-c5ccccc5)c5nc(c(-c6ccccc6)c6ccc3[nH]6)C=C5)C=C4)cc2)C1
REMARK SMILES IDX 21 1 20 2 19 3 17 4 18 5 16 7 1 8 2 9 3 10 75 11 4 12 5 13
REMARK SMILES IDX 6 14 7 15 8 16 9 17 10 19 11 20 12 21 13 22 14 23 15 24
REMARK SMILES IDX 22 25 23 26 24 27 25 28 26 30 27 31 28 32 74 33 29 34 73 35
REMARK SMILES IDX 30 36 31 37 32 38 67 39 33 40 72 41 66 42 68 43 34 44 71 45
REMARK SMILES IDX 65 46 64 47 35 49 57 50 42 51 56 52 43 53 46 54 55 55 69 56
REMARK SMILES IDX 44 57 45 58 54 60 70 61 47 62 36 63 37 64 41 65 38 66 40 67
REMARK SMILES IDX 39 68 58 69 59 70 63 71 60 72 62 73 61 74 48 75 49 76 53 77
REMARK SMILES IDX 50 78 52 79 51 80
REMARK H PARENT 19 6 9 18 24 29 68 48 46 59
REMARK Flexibility Score: inf
ROOT
ATOM      1  C   UNL     1      -3.781  -0.604   1.756  1.00  0.00     0.023 C 
ENDROOT
BRANCH   1   2
ATOM      2  C   UNL     1      -4.037  -0.328   0.274  1.00  0.00     0.116 C 
BRANCH   2   3
ATOM      3  N   UNL     1      -2.836  -0.415  -0.546  1.00  0.00    -0.356 N 
ATOM      4  C   UNL     1      -2.321  -1.332  -1.402  1.00  0.00     0.224 C 
ATOM      5  O   UNL     1      -1.363  -0.924  -2.073  1.00  0.00    -0.275 OA
ATOM      6  H   UNL     1      -2.261   0.380  -0.457  1.00  0.00     0.163 HD
BRANCH   4   7
ATOM      7  C   UNL     1      -2.800  -2.788  -1.590  1.00  0.00     0.095 C 
ATOM      8  C   UNL     1      -0.222  -5.815  -1.554  1.00  0.00     0.039 C 
ATOM      9  C   UNL     1      -1.565  -5.134  -1.471  1.00  0.00    -0.074 C 
ATOM     10  C   UNL     1      -2.685  -5.711  -0.984  1.00  0.00    -0.074 C 
ATOM     11  C   UNL     1      -1.547  -3.677  -1.921  1.00  0.00     0.045 C 
ATOM     12  C   UNL     1      -2.776  -7.090  -0.382  1.00  0.00     0.039 C 
ATOM     13  C   UNL     1      -3.957  -4.901  -0.892  1.00  0.00     0.045 C 
ATOM     14  C   UNL     1      -3.664  -3.437  -0.507  1.00  0.00     0.095 C 
BRANCH  14  15
ATOM     15  C   UNL     1      -3.090  -3.472   0.914  1.00  0.00     0.224 C 
ATOM     16  O   UNL     1      -3.783  -3.842   1.861  1.00  0.00    -0.275 OA
ATOM     17  N   UNL     1      -1.764  -3.135   1.028  1.00  0.00    -0.353 N 
ATOM     18  H   UNL     1      -1.447  -2.407   0.446  1.00  0.00     0.163 HD
BRANCH  17  19
ATOM     19  C   UNL     1      -0.776  -3.732   1.908  1.00  0.00     0.084 C 
ATOM     20  C   UNL     1      -1.090  -5.188   2.284  1.00  0.00     0.031 C 
BRANCH  19  21
ATOM     21  C   UNL     1      -0.262  -2.815   3.062  1.00  0.00    -0.018 C 
ATOM     22  C   UNL     1       1.109  -3.369   3.519  1.00  0.00     0.013 C 
ATOM     23  C   UNL     1       0.008  -1.367   2.589  1.00  0.00     0.013 C 
ATOM     24  C   UNL     1      -1.236  -2.775   4.248  1.00  0.00     0.013 C 
ENDBRANCH  19  21
ENDBRANCH  17  19
ENDBRANCH  14  15
ENDBRANCH   4   7
ENDBRANCH   2   3
ENDBRANCH   1   2
BRANCH   1  25
ATOM     25  C   UNL     1      -3.396   0.595   2.608  1.00  0.00     0.023 C 
BRANCH  25  26
ATOM     26  C   UNL     1      -4.581   1.422   3.054  1.00  0.00     0.116 C 
BRANCH  26  27
ATOM     27  N   UNL     1      -5.541   0.693   3.881  1.00  0.00    -0.352 N 
ATOM     28  C   UNL     1      -6.275   1.160   4.953  1.00  0.00     0.251 C 
ATOM     29  H   UNL     1      -5.682  -0.252   3.642  1.00  0.00     0.163 HD
ATOM     30  O   UNL     1      -7.014   0.436   5.590  1.00  0.00    -0.269 OA
BRANCH  28  31
ATOM     31  C   UNL     1      -6.078   2.570   5.343  1.00  0.00     0.039 A 
ATOM     32  C   UNL     1      -5.696   2.864   6.652  1.00  0.00     0.014 A 
ATOM     33  C   UNL     1      -6.101   3.557   4.359  1.00  0.00     0.014 A 
ATOM     34  C   UNL     1      -5.239   4.146   6.951  1.00  0.00     0.010 A 
ATOM     35  C   UNL     1      -5.512   4.780   4.625  1.00  0.00     0.010 A 
ATOM     36  C   UNL     1      -5.094   5.096   5.927  1.00  0.00    -0.014 A 
BRANCH  36  37
ATOM     37  C   UNL     1      -4.562   6.454   6.187  1.00  0.00     0.031 A 
ATOM     38  C   UNL     1      -5.419   7.645   5.852  1.00  0.00     0.074 A 
ATOM     39  C   UNL     1      -3.302   6.620   6.635  1.00  0.00     0.049 A 
ATOM     40  N   UNL     1      -5.116   8.917   5.880  1.00  0.00    -0.248 NA
ATOM     41  C   UNL     1      -6.782   7.365   5.364  1.00  0.00     0.031 C 
ATOM     42  C   UNL     1      -2.350   5.546   6.933  1.00  0.00     0.029 A 
ATOM     43  N   UNL     1      -2.605   7.767   6.919  1.00  0.00    -0.354 N 
ATOM     44  C   UNL     1      -6.231   9.573   5.375  1.00  0.00     0.074 A 
ATOM     45  C   UNL     1      -7.179   8.563   4.970  1.00  0.00     0.031 C 
ATOM     46  C   UNL     1      -1.213   6.085   7.405  1.00  0.00     0.029 A 
ATOM     47  C   UNL     1      -1.341   7.537   7.407  1.00  0.00     0.049 A 
ATOM     48  H   UNL     1      -2.976   8.669   6.786  1.00  0.00     0.167 HD
ATOM     49  C   UNL     1      -6.469  10.902   5.296  1.00  0.00     0.031 A 
ATOM     50  C   UNL     1      -0.399   8.407   7.817  1.00  0.00     0.031 A 
ATOM     51  C   UNL     1      -5.550  11.902   5.758  1.00  0.00     0.049 A 
ATOM     52  C   UNL     1      -0.701   9.879   7.768  1.00  0.00     0.074 A 
ATOM     53  C   UNL     1      -5.711  13.274   5.793  1.00  0.00     0.029 A 
ATOM     54  N   UNL     1      -4.298  11.626   6.288  1.00  0.00    -0.354 N 
ATOM     55  N   UNL     1      -1.782  10.486   7.340  1.00  0.00    -0.248 NA
ATOM     56  C   UNL     1       0.339  10.785   8.273  1.00  0.00     0.031 C 
ATOM     57  C   UNL     1      -4.541  13.832   6.319  1.00  0.00     0.029 A 
ATOM     58  C   UNL     1      -3.673  12.803   6.652  1.00  0.00     0.049 A 
ATOM     59  H   UNL     1      -3.913  10.725   6.390  1.00  0.00     0.167 HD
ATOM     60  C   UNL     1      -1.563  11.842   7.546  1.00  0.00     0.074 A 
ATOM     61  C   UNL     1      -0.253  11.965   8.153  1.00  0.00     0.031 C 
ATOM     62  C   UNL     1      -2.371  12.892   7.259  1.00  0.00     0.031 A 
BRANCH  49  63
ATOM     63  C   UNL     1      -7.786  11.328   4.711  1.00  0.00    -0.014 A 
ATOM     64  C   UNL     1      -8.994  11.077   5.383  1.00  0.00     0.009 A 
ATOM     65  C   UNL     1      -7.825  11.974   3.467  1.00  0.00     0.009 A 
ATOM     66  C   UNL     1     -10.216  11.415   4.798  1.00  0.00     0.001 A 
ATOM     67  C   UNL     1      -9.046  12.343   2.900  1.00  0.00     0.001 A 
ATOM     68  C   UNL     1     -10.240  12.052   3.559  1.00  0.00     0.000 A 
ENDBRANCH  49  63
BRANCH  50  69
ATOM     69  C   UNL     1       0.894   7.910   8.356  1.00  0.00    -0.014 A 
ATOM     70  C   UNL     1       1.168   7.995   9.730  1.00  0.00     0.009 A 
ATOM     71  C   UNL     1       1.858   7.343   7.508  1.00  0.00     0.009 A 
ATOM     72  C   UNL     1       2.390   7.548  10.240  1.00  0.00     0.001 A 
ATOM     73  C   UNL     1       3.069   6.873   8.024  1.00  0.00     0.001 A 
ATOM     74  C   UNL     1       3.337   6.984   9.388  1.00  0.00     0.000 A 
ENDBRANCH  50  69
BRANCH  62  75
ATOM     75  C   UNL     1      -1.874  14.259   7.628  1.00  0.00    -0.014 A 
ATOM     76  C   UNL     1      -0.864  14.888   6.885  1.00  0.00     0.009 A 
ATOM     77  C   UNL     1      -2.470  14.947   8.695  1.00  0.00     0.009 A 
ATOM     78  C   UNL     1      -0.441  16.174   7.224  1.00  0.00     0.001 A 
ATOM     79  C   UNL     1      -2.064  16.243   9.014  1.00  0.00     0.001 A 
ATOM     80  C   UNL     1      -1.045  16.852   8.283  1.00  0.00     0.000 A 
ENDBRANCH  62  75
ENDBRANCH  36  37
ENDBRANCH  28  31
ENDBRANCH  26  27
ENDBRANCH  25  26
ENDBRANCH   1  25
TORSDOF 14
