REMARK SMILES CC[C@](C)(NS(=O)(=O)c1ccc(OC)c(F)c1)C(=O)NCCCCNC(=O)c1ccc(-c2c3nc(c(-c4ccccc4)c4ccc([nH]4)c(-c4ccccc4)c4nc(c(-c5ccccc5)c5ccc2[nH]5)C=C4)C=C3)cc1
REMARK SMILES IDX 21 1 20 2 18 3 19 4 3 6 4 7 2 8 1 9 5 10 6 12 7 13 8 14 9 15
REMARK SMILES IDX 10 16 17 17 11 18 15 19 12 20 16 21 13 22 14 23 22 24 23 25
REMARK SMILES IDX 24 26 25 27 26 28 27 30 28 31 29 32 75 33 30 34 74 35 31 36
REMARK SMILES IDX 32 37 33 38 68 39 34 40 73 41 67 42 69 43 35 44 72 45 66 46
REMARK SMILES IDX 65 47 36 49 58 50 43 51 57 52 44 53 47 54 56 55 70 56 45 57
REMARK SMILES IDX 46 58 55 60 71 61 48 62 37 63 38 64 42 65 39 66 41 67 40 68
REMARK SMILES IDX 59 69 60 70 64 71 61 72 63 73 62 74 49 75 50 76 54 77 51 78
REMARK SMILES IDX 53 79 52 80
REMARK H PARENT 20 5 5 11 25 29 69 48 47 59
REMARK Flexibility Score: inf
ROOT
ATOM      1  C   UNL     1       1.599   3.477   4.248  1.00  0.00     0.116 C 
ENDROOT
BRANCH   1   2
ATOM      2  N   UNL     1       2.377   2.666   3.315  1.00  0.00    -0.354 N 
ATOM      3  C   UNL     1       2.190   1.593   2.486  1.00  0.00     0.241 C 
ATOM      4  O   UNL     1       3.151   1.390   1.726  1.00  0.00    -0.273 OA
ATOM      5  H   UNL     1       3.308   2.984   3.269  1.00  0.00     0.163 HD
BRANCH   3   6
ATOM      6  C   UNL     1       0.980   0.625   2.455  1.00  0.00     0.108 C 
ATOM      7  C   UNL     1       1.131  -0.279   1.184  1.00  0.00     0.040 C 
BRANCH   6   8
ATOM      8  C   UNL     1      -0.353   1.430   2.369  1.00  0.00     0.030 C 
ATOM      9  C   UNL     1      -1.133   1.403   1.051  1.00  0.00     0.006 C 
ENDBRANCH   6   8
BRANCH   6  10
ATOM     10  N   UNL     1       0.911  -0.420   3.509  1.00  0.00    -0.196 NA
ATOM     11  H   UNL     1       1.061  -1.287   2.993  1.00  0.00     0.142 HD
BRANCH  10  12
ATOM     12  S   UNL     1       1.760  -0.655   4.912  1.00  0.00     0.241 S 
ATOM     13  O   UNL     1       1.491   0.479   5.772  1.00  0.00    -0.207 OA
ATOM     14  O   UNL     1       1.368  -1.975   5.341  1.00  0.00    -0.207 OA
BRANCH  12  15
ATOM     15  C   UNL     1       3.522  -0.715   4.625  1.00  0.00     0.085 A 
ATOM     16  C   UNL     1       4.224   0.473   4.470  1.00  0.00     0.026 A 
ATOM     17  C   UNL     1       4.267  -1.872   4.843  1.00  0.00     0.065 A 
ATOM     18  C   UNL     1       5.609   0.548   4.441  1.00  0.00     0.051 A 
ATOM     19  C   UNL     1       5.675  -1.799   4.864  1.00  0.00     0.166 A 
ATOM     20  C   UNL     1       6.356  -0.593   4.657  1.00  0.00     0.154 A 
ATOM     21  F   UNL     1       6.351  -2.925   5.134  1.00  0.00    -0.203 F 
BRANCH  20  22
ATOM     22  O   UNL     1       7.695  -0.338   4.665  1.00  0.00    -0.494 OA
ATOM     23  C   UNL     1       8.560  -1.392   5.042  1.00  0.00     0.278 C 
ENDBRANCH  20  22
ENDBRANCH  12  15
ENDBRANCH  10  12
ENDBRANCH   6  10
ENDBRANCH   3   6
ENDBRANCH   1   2
BRANCH   1  24
ATOM     24  C   UNL     1       1.770   3.389   5.782  1.00  0.00     0.023 C 
BRANCH  24  25
ATOM     25  C   UNL     1       3.075   3.030   6.505  1.00  0.00     0.023 C 
BRANCH  25  26
ATOM     26  C   UNL     1       4.251   3.975   6.318  1.00  0.00     0.116 C 
BRANCH  26  27
ATOM     27  N   UNL     1       4.048   5.186   7.096  1.00  0.00    -0.352 N 
ATOM     28  C   UNL     1       4.906   5.812   7.964  1.00  0.00     0.251 C 
ATOM     29  H   UNL     1       3.171   5.618   6.984  1.00  0.00     0.163 HD
ATOM     30  O   UNL     1       4.462   6.620   8.776  1.00  0.00    -0.269 OA
BRANCH  28  31
ATOM     31  C   UNL     1       6.362   5.547   7.920  1.00  0.00     0.039 A 
ATOM     32  C   UNL     1       7.085   5.553   9.119  1.00  0.00     0.014 A 
ATOM     33  C   UNL     1       7.035   5.401   6.703  1.00  0.00     0.014 A 
ATOM     34  C   UNL     1       8.475   5.417   9.098  1.00  0.00     0.010 A 
ATOM     35  C   UNL     1       8.416   5.209   6.686  1.00  0.00     0.010 A 
ATOM     36  C   UNL     1       9.151   5.247   7.880  1.00  0.00    -0.014 A 
BRANCH  36  37
ATOM     37  C   UNL     1      10.633   5.167   7.842  1.00  0.00     0.031 A 
ATOM     38  C   UNL     1      11.431   6.280   7.217  1.00  0.00     0.074 A 
ATOM     39  C   UNL     1      11.257   4.090   8.354  1.00  0.00     0.049 A 
ATOM     40  N   UNL     1      12.729   6.401   7.098  1.00  0.00    -0.248 NA
ATOM     41  C   UNL     1      10.671   7.397   6.633  1.00  0.00     0.031 C 
ATOM     42  C   UNL     1      10.592   2.937   8.962  1.00  0.00     0.029 A 
ATOM     43  N   UNL     1      12.593   3.794   8.449  1.00  0.00    -0.354 N 
ATOM     44  C   UNL     1      12.938   7.593   6.416  1.00  0.00     0.074 A 
ATOM     45  C   UNL     1      11.635   8.135   6.103  1.00  0.00     0.031 C 
ATOM     46  C   UNL     1      11.524   2.074   9.399  1.00  0.00     0.029 A 
ATOM     47  C   UNL     1      12.847   2.595   9.070  1.00  0.00     0.049 A 
ATOM     48  H   UNL     1      13.303   4.383   8.105  1.00  0.00     0.167 HD
ATOM     49  C   UNL     1      14.109   8.194   6.096  1.00  0.00     0.031 A 
ATOM     50  C   UNL     1      14.016   1.987   9.346  1.00  0.00     0.031 A 
ATOM     51  C   UNL     1      15.404   7.657   6.416  1.00  0.00     0.049 A 
ATOM     52  C   UNL     1      15.302   2.666   8.962  1.00  0.00     0.074 A 
ATOM     53  C   UNL     1      16.650   8.212   6.186  1.00  0.00     0.029 A 
ATOM     54  N   UNL     1      15.617   6.434   7.034  1.00  0.00    -0.354 N 
ATOM     55  N   UNL     1      15.482   3.828   8.382  1.00  0.00    -0.248 NA
ATOM     56  C   UNL     1      16.546   1.953   9.283  1.00  0.00     0.031 C 
ATOM     57  C   UNL     1      17.619   7.299   6.613  1.00  0.00     0.029 A 
ATOM     58  C   UNL     1      16.976   6.204   7.166  1.00  0.00     0.049 A 
ATOM     59  H   UNL     1      14.908   5.821   7.335  1.00  0.00     0.167 HD
ATOM     60  C   UNL     1      16.858   3.999   8.296  1.00  0.00     0.074 A 
ATOM     61  C   UNL     1      17.463   2.829   8.899  1.00  0.00     0.031 C 
ATOM     62  C   UNL     1      17.558   5.032   7.767  1.00  0.00     0.031 A 
BRANCH  49  63
ATOM     63  C   UNL     1      14.040   9.498   5.347  1.00  0.00    -0.014 A 
ATOM     64  C   UNL     1      13.571  10.670   5.962  1.00  0.00     0.009 A 
ATOM     65  C   UNL     1      14.483   9.563   4.016  1.00  0.00     0.009 A 
ATOM     66  C   UNL     1      13.510  11.870   5.248  1.00  0.00     0.001 A 
ATOM     67  C   UNL     1      14.450  10.770   3.315  1.00  0.00     0.001 A 
ATOM     68  C   UNL     1      13.954  11.919   3.928  1.00  0.00     0.000 A 
ENDBRANCH  49  63
BRANCH  50  69
ATOM     69  C   UNL     1      14.028   0.672  10.040  1.00  0.00    -0.014 A 
ATOM     70  C   UNL     1      14.502   0.565  11.357  1.00  0.00     0.009 A 
ATOM     71  C   UNL     1      13.575  -0.485   9.387  1.00  0.00     0.009 A 
ATOM     72  C   UNL     1      14.548  -0.677  11.994  1.00  0.00     0.001 A 
ATOM     73  C   UNL     1      13.593  -1.721  10.038  1.00  0.00     0.001 A 
ATOM     74  C   UNL     1      14.089  -1.818  11.337  1.00  0.00     0.000 A 
ENDBRANCH  50  69
BRANCH  62  75
ATOM     75  C   UNL     1      19.057   4.958   7.848  1.00  0.00    -0.014 A 
ATOM     76  C   UNL     1      19.788   4.060   7.055  1.00  0.00     0.009 A 
ATOM     77  C   UNL     1      19.750   5.832   8.701  1.00  0.00     0.009 A 
ATOM     78  C   UNL     1      21.181   4.015   7.141  1.00  0.00     0.001 A 
ATOM     79  C   UNL     1      21.143   5.806   8.762  1.00  0.00     0.001 A 
ATOM     80  C   UNL     1      21.857   4.891   7.990  1.00  0.00     0.000 A 
ENDBRANCH  62  75
ENDBRANCH  36  37
ENDBRANCH  28  31
ENDBRANCH  26  27
ENDBRANCH  25  26
ENDBRANCH  24  25
ENDBRANCH   1  24
TORSDOF 16
