REMARK SMILES O=C(NCCCCNC(=O)c1ccccc1/N=C/c1coc2ccccc2c1=O)c1ccc(-c2c3nc(c(-c4ccccc4)c4ccc([nH]4)c(-c4ccccc4)c4nc(c(-c5ccccc5)c5ccc2[nH]5)C=C4)C=C3)cc1
REMARK SMILES IDX 5 1 4 2 3 3 1 4 2 5 30 7 31 8 77 9 32 10 76 11 33 12 34 13
REMARK SMILES IDX 35 14 70 15 36 16 75 17 69 18 71 19 37 20 74 21 68 22 67 23
REMARK SMILES IDX 38 25 60 26 45 27 59 28 46 29 49 30 58 31 72 32 47 33 48 34
REMARK SMILES IDX 57 36 73 37 50 38 39 39 40 40 44 41 41 42 43 43 42 44 61 45
REMARK SMILES IDX 62 46 66 47 63 48 65 49 64 50 51 51 52 52 56 53 53 54 55 55
REMARK SMILES IDX 54 56 6 57 7 58 8 59 9 60 10 62 11 63 12 64 16 65 13 66
REMARK SMILES IDX 15 67 14 68 17 69 18 70 19 71 20 72 28 73 21 74 27 75 29 76
REMARK SMILES IDX 22 77 26 78 23 79 25 80 24 81
REMARK H PARENT 3 6 71 24 49 35 8 61
REMARK Flexibility Score: inf
ROOT
ATOM      1  C   UNL     1       5.103   0.503   3.020  1.00  0.00     0.023 C 
ENDROOT
BRANCH   1   2
ATOM      2  C   UNL     1       4.963  -0.118   1.629  1.00  0.00     0.116 C 
BRANCH   2   3
ATOM      3  N   UNL     1       3.599  -0.483   1.299  1.00  0.00    -0.352 N 
ATOM      4  O   UNL     1       1.560  -0.269   0.342  1.00  0.00    -0.269 OA
ATOM      5  C   UNL     1       2.752   0.027   0.346  1.00  0.00     0.251 C 
ATOM      6  H   UNL     1       3.220  -1.210   1.844  1.00  0.00     0.163 HD
BRANCH   5   7
ATOM      7  C   UNL     1       3.263   0.939  -0.705  1.00  0.00     0.039 A 
ATOM      8  C   UNL     1       4.416   0.628  -1.435  1.00  0.00     0.014 A 
ATOM      9  C   UNL     1       2.525   2.083  -1.025  1.00  0.00     0.014 A 
ATOM     10  C   UNL     1       4.884   1.509  -2.412  1.00  0.00     0.010 A 
ATOM     11  C   UNL     1       2.976   2.949  -2.026  1.00  0.00     0.010 A 
ATOM     12  C   UNL     1       4.175   2.683  -2.706  1.00  0.00    -0.014 A 
BRANCH  12  13
ATOM     13  C   UNL     1       4.698   3.641  -3.708  1.00  0.00     0.031 A 
ATOM     14  C   UNL     1       5.338   4.925  -3.261  1.00  0.00     0.074 A 
ATOM     15  C   UNL     1       4.604   3.365  -5.022  1.00  0.00     0.049 A 
ATOM     16  N   UNL     1       5.837   5.894  -3.986  1.00  0.00    -0.248 NA
ATOM     17  C   UNL     1       5.425   5.150  -1.810  1.00  0.00     0.031 C 
ATOM     18  C   UNL     1       4.005   2.161  -5.596  1.00  0.00     0.029 A 
ATOM     19  N   UNL     1       5.016   4.090  -6.113  1.00  0.00    -0.354 N 
ATOM     20  C   UNL     1       6.279   6.851  -3.083  1.00  0.00     0.074 A 
ATOM     21  C   UNL     1       5.986   6.350  -1.757  1.00  0.00     0.031 C 
ATOM     22  C   UNL     1       4.095   2.225  -6.935  1.00  0.00     0.029 A 
ATOM     23  C   UNL     1       4.739   3.481  -7.311  1.00  0.00     0.049 A 
ATOM     24  H   UNL     1       5.466   4.963  -6.042  1.00  0.00     0.167 HD
ATOM     25  C   UNL     1       6.878   8.040  -3.331  1.00  0.00     0.031 A 
ATOM     26  C   UNL     1       4.967   3.893  -8.571  1.00  0.00     0.031 A 
ATOM     27  C   UNL     1       7.196   8.544  -4.637  1.00  0.00     0.049 A 
ATOM     28  C   UNL     1       5.624   5.218  -8.821  1.00  0.00     0.074 A 
ATOM     29  C   UNL     1       7.846   9.719  -4.975  1.00  0.00     0.029 A 
ATOM     30  N   UNL     1       6.885   7.902  -5.823  1.00  0.00    -0.354 N 
ATOM     31  N   UNL     1       6.059   6.098  -7.954  1.00  0.00    -0.248 NA
ATOM     32  C   UNL     1       5.815   5.608 -10.226  1.00  0.00     0.031 C 
ATOM     33  C   UNL     1       7.913   9.796  -6.372  1.00  0.00     0.029 A 
ATOM     34  C   UNL     1       7.314   8.663  -6.897  1.00  0.00     0.049 A 
ATOM     35  H   UNL     1       6.427   7.034  -5.893  1.00  0.00     0.167 HD
ATOM     36  C   UNL     1       6.574   7.144  -8.705  1.00  0.00     0.074 A 
ATOM     37  C   UNL     1       6.407   6.788 -10.099  1.00  0.00     0.031 C 
ATOM     38  C   UNL     1       7.136   8.299  -8.276  1.00  0.00     0.031 A 
BRANCH  25  39
ATOM     39  C   UNL     1       7.217   8.886  -2.143  1.00  0.00    -0.014 A 
ATOM     40  C   UNL     1       8.404   8.673  -1.427  1.00  0.00     0.009 A 
ATOM     41  C   UNL     1       6.347   9.911  -1.744  1.00  0.00     0.009 A 
ATOM     42  C   UNL     1       8.705   9.463  -0.317  1.00  0.00     0.001 A 
ATOM     43  C   UNL     1       6.655  10.704  -0.638  1.00  0.00     0.001 A 
ATOM     44  C   UNL     1       7.831  10.477   0.077  1.00  0.00     0.000 A 
ENDBRANCH  25  39
BRANCH  26  45
ATOM     45  C   UNL     1       4.552   3.038  -9.707  1.00  0.00    -0.014 A 
ATOM     46  C   UNL     1       5.482   2.204 -10.343  1.00  0.00     0.009 A 
ATOM     47  C   UNL     1       3.223   3.052 -10.153  1.00  0.00     0.009 A 
ATOM     48  C   UNL     1       5.088   1.403 -11.416  1.00  0.00     0.001 A 
ATOM     49  C   UNL     1       2.831   2.243 -11.220  1.00  0.00     0.001 A 
ATOM     50  C   UNL     1       3.764   1.422 -11.853  1.00  0.00     0.000 A 
ENDBRANCH  26  45
BRANCH  38  51
ATOM     51  C   UNL     1       7.607   9.258  -9.325  1.00  0.00    -0.014 A 
ATOM     52  C   UNL     1       6.716  10.174  -9.902  1.00  0.00     0.009 A 
ATOM     53  C   UNL     1       8.954   9.268  -9.716  1.00  0.00     0.009 A 
ATOM     54  C   UNL     1       7.164  11.078 -10.866  1.00  0.00     0.001 A 
ATOM     55  C   UNL     1       9.400  10.178 -10.675  1.00  0.00     0.001 A 
ATOM     56  C   UNL     1       8.505  11.079 -11.251  1.00  0.00     0.000 A 
ENDBRANCH  38  51
ENDBRANCH  12  13
ENDBRANCH   5   7
ENDBRANCH   2   3
ENDBRANCH   1   2
BRANCH   1  57
ATOM     57  C   UNL     1       4.814  -0.408   4.219  1.00  0.00     0.023 C 
BRANCH  57  58
ATOM     58  C   UNL     1       5.474  -1.786   4.204  1.00  0.00     0.116 C 
BRANCH  58  59
ATOM     59  N   UNL     1       6.897  -1.753   3.917  1.00  0.00    -0.352 N 
ATOM     60  C   UNL     1       7.857  -2.688   4.202  1.00  0.00     0.253 C 
ATOM     61  H   UNL     1       7.217  -0.946   3.453  1.00  0.00     0.163 HD
ATOM     62  O   UNL     1       8.999  -2.528   3.776  1.00  0.00    -0.269 OA
BRANCH  60  63
ATOM     63  C   UNL     1       7.581  -3.857   5.057  1.00  0.00     0.065 A 
ATOM     64  C   UNL     1       8.368  -3.978   6.216  1.00  0.00     0.016 A 
ATOM     65  C   UNL     1       6.652  -4.853   4.741  1.00  0.00     0.076 A 
ATOM     66  C   UNL     1       8.204  -5.064   7.079  1.00  0.00     0.001 A 
ATOM     67  C   UNL     1       6.503  -5.939   5.621  1.00  0.00     0.029 A 
ATOM     68  C   UNL     1       7.269  -6.048   6.780  1.00  0.00     0.002 A 
BRANCH  65  69
ATOM     69  N   UNL     1       5.734  -4.818   3.696  1.00  0.00    -0.255 NA
ATOM     70  C   UNL     1       6.090  -4.862   2.453  1.00  0.00     0.127 C 
BRANCH  70  71
ATOM     71  C   UNL     1       4.988  -5.071   1.492  1.00  0.00     0.076 A 
ATOM     72  C   UNL     1       5.015  -6.293   0.935  1.00  0.00     0.209 A 
ATOM     73  C   UNL     1       3.641  -4.526   1.797  1.00  0.00     0.201 A 
ATOM     74  O   UNL     1       3.881  -7.069   0.736  1.00  0.00    -0.463 OA
ATOM     75  C   UNL     1       2.682  -5.564   2.193  1.00  0.00     0.065 A 
ATOM     76  O   UNL     1       3.389  -3.329   1.839  1.00  0.00    -0.288 OA
ATOM     77  C   UNL     1       2.882  -6.841   1.663  1.00  0.00     0.137 A 
ATOM     78  C   UNL     1       1.740  -5.329   3.191  1.00  0.00     0.016 A 
ATOM     79  C   UNL     1       2.133  -7.910   2.138  1.00  0.00     0.048 A 
ATOM     80  C   UNL     1       1.011  -6.408   3.689  1.00  0.00     0.001 A 
ATOM     81  C   UNL     1       1.211  -7.692   3.168  1.00  0.00     0.004 A 
ENDBRANCH  70  71
ENDBRANCH  65  69
ENDBRANCH  60  63
ENDBRANCH  58  59
ENDBRANCH  57  58
ENDBRANCH   1  57
TORSDOF 13
