REMARK SMILES NS(=O)(=O)c1ccc(C(=O)N2CC[C@H](c3ccccc3C(=O)NCCCCNC(=O)c3ccc(-c4c5nc(c(-c6ccccc6)c6ccc([nH]6)c(-c6ccccc6)c6nc(c(-c7ccccc7)c7ccc4[nH]7)C=C6)C=C5)cc3)C2)cc1
REMARK SMILES IDX 24 1 23 2 21 3 22 4 20 6 15 7 16 8 17 9 19 10 18 11 14 12
REMARK SMILES IDX 11 13 12 14 79 15 13 16 9 17 10 18 8 19 5 20 6 21 81 22 7 23
REMARK SMILES IDX 80 24 2 25 3 26 4 27 1 28 25 31 26 32 27 33 28 34 29 35
REMARK SMILES IDX 30 37 31 38 32 39 78 40 33 41 77 42 34 43 35 44 36 45 71 46
REMARK SMILES IDX 37 47 76 48 70 49 72 50 38 51 75 52 69 53 68 54 39 56 61 57
REMARK SMILES IDX 46 58 60 59 47 60 50 61 59 62 73 63 48 64 49 65 58 67 74 68
REMARK SMILES IDX 51 69 40 70 41 71 45 72 42 73 44 74 43 75 62 76 63 77 67 78
REMARK SMILES IDX 64 79 66 80 65 81 52 82 53 83 57 84 54 85 56 86 55 87
REMARK H PARENT 23 5 1 29 1 30 28 36 72 55 50 66
REMARK Flexibility Score: inf
ROOT
ATOM      1  C   UNL     1       6.769  -6.238  -6.042  1.00  0.00     0.116 C 
ENDROOT
BRANCH   1   2
ATOM      2  N   UNL     1       6.495  -5.691  -7.357  1.00  0.00    -0.352 N 
ATOM      3  C   UNL     1       5.839  -4.504  -7.588  1.00  0.00     0.251 C 
ATOM      4  O   UNL     1       6.519  -3.505  -7.824  1.00  0.00    -0.269 OA
ATOM      5  H   UNL     1       6.800  -6.206  -8.139  1.00  0.00     0.163 HD
BRANCH   3   6
ATOM      6  C   UNL     1       4.366  -4.487  -7.890  1.00  0.00     0.043 A 
ATOM      7  C   UNL     1       3.298  -5.015  -7.118  1.00  0.00    -0.030 A 
ATOM      8  C   UNL     1       1.985  -4.849  -7.613  1.00  0.00     0.005 A 
ATOM      9  C   UNL     1       1.719  -4.146  -8.789  1.00  0.00     0.000 A 
ATOM     10  C   UNL     1       4.069  -3.783  -9.079  1.00  0.00     0.014 A 
ATOM     11  C   UNL     1       2.761  -3.605  -9.521  1.00  0.00     0.001 A 
BRANCH   7  12
ATOM     12  C   UNL     1       3.499  -5.668  -5.771  1.00  0.00     0.041 C 
ATOM     13  N   UNL     1       2.663  -6.088  -3.569  1.00  0.00    -0.338 N 
ATOM     14  C   UNL     1       3.979  -5.494  -3.461  1.00  0.00     0.120 C 
ATOM     15  C   UNL     1       2.318  -6.298  -4.975  1.00  0.00     0.128 C 
ATOM     16  C   UNL     1       4.039  -4.664  -4.732  1.00  0.00     0.032 C 
BRANCH  13  17
ATOM     17  C   UNL     1       1.657  -6.152  -2.618  1.00  0.00     0.253 C 
ATOM     18  O   UNL     1       0.792  -7.025  -2.664  1.00  0.00    -0.269 OA
BRANCH  17  19
ATOM     19  C   UNL     1       1.496  -5.034  -1.633  1.00  0.00     0.040 A 
ATOM     20  C   UNL     1       0.863  -2.856   0.025  1.00  0.00     0.082 A 
ATOM     21  C   UNL     1       0.307  -4.113   0.282  1.00  0.00     0.022 A 
ATOM     22  C   UNL     1       1.733  -2.678  -1.043  1.00  0.00     0.022 A 
ATOM     23  C   UNL     1       0.635  -5.202  -0.540  1.00  0.00     0.015 A 
ATOM     24  C   UNL     1       2.011  -3.753  -1.879  1.00  0.00     0.015 A 
BRANCH  20  25
ATOM     25  S   UNL     1       0.376  -1.469   1.005  1.00  0.00     0.238 S 
ATOM     26  O   UNL     1       1.078  -1.536   2.266  1.00  0.00    -0.207 OA
ATOM     27  O   UNL     1      -1.053  -1.315   0.900  1.00  0.00    -0.207 OA
BRANCH  25  28
ATOM     28  N   UNL     1       1.026  -0.142   0.195  1.00  0.00    -0.225 NA
ATOM     29  H   UNL     1       0.790   0.713   0.699  1.00  0.00     0.137 HD
ATOM     30  H   UNL     1       0.642  -0.098  -0.749  1.00  0.00     0.137 HD
ENDBRANCH  25  28
ENDBRANCH  20  25
ENDBRANCH  17  19
ENDBRANCH  13  17
ENDBRANCH   7  12
ENDBRANCH   3   6
ENDBRANCH   1   2
BRANCH   1  31
ATOM     31  C   UNL     1       6.737  -7.761  -6.027  1.00  0.00     0.023 C 
BRANCH  31  32
ATOM     32  C   UNL     1       7.804  -8.349  -5.112  1.00  0.00     0.023 C 
BRANCH  32  33
ATOM     33  C   UNL     1       7.788  -7.838  -3.678  1.00  0.00     0.116 C 
BRANCH  33  34
ATOM     34  N   UNL     1       6.726  -8.382  -2.849  1.00  0.00    -0.352 N 
ATOM     35  C   UNL     1       6.826  -8.810  -1.540  1.00  0.00     0.251 C 
ATOM     36  H   UNL     1       5.837  -8.453  -3.266  1.00  0.00     0.163 HD
ATOM     37  O   UNL     1       5.861  -9.271  -0.944  1.00  0.00    -0.269 OA
BRANCH  35  38
ATOM     38  C   UNL     1       8.153  -8.769  -0.888  1.00  0.00     0.039 A 
ATOM     39  C   UNL     1       8.708  -9.966  -0.431  1.00  0.00     0.014 A 
ATOM     40  C   UNL     1       8.898  -7.587  -0.874  1.00  0.00     0.014 A 
ATOM     41  C   UNL     1      10.050  -9.996  -0.050  1.00  0.00     0.010 A 
ATOM     42  C   UNL     1      10.257  -7.642  -0.584  1.00  0.00     0.010 A 
ATOM     43  C   UNL     1      10.850  -8.848  -0.177  1.00  0.00    -0.014 A 
BRANCH  43  44
ATOM     44  C   UNL     1      12.310  -8.900   0.097  1.00  0.00     0.031 A 
ATOM     45  C   UNL     1      12.899  -8.070   1.203  1.00  0.00     0.074 A 
ATOM     46  C   UNL     1      13.114  -9.651  -0.682  1.00  0.00     0.049 A 
ATOM     47  N   UNL     1      14.147  -7.973   1.588  1.00  0.00    -0.248 NA
ATOM     48  C   UNL     1      11.969  -7.217   1.958  1.00  0.00     0.031 C 
ATOM     49  C   UNL     1      12.677 -10.472  -1.813  1.00  0.00     0.029 A 
ATOM     50  N   UNL     1      14.473  -9.851  -0.635  1.00  0.00    -0.354 N 
ATOM     51  C   UNL     1      14.151  -7.037   2.614  1.00  0.00     0.074 A 
ATOM     52  C   UNL     1      12.796  -6.551   2.748  1.00  0.00     0.031 C 
ATOM     53  C   UNL     1      13.736 -11.126  -2.318  1.00  0.00     0.029 A 
ATOM     54  C   UNL     1      14.933 -10.736  -1.580  1.00  0.00     0.049 A 
ATOM     55  H   UNL     1      15.061  -9.402   0.014  1.00  0.00     0.167 HD
ATOM     56  C   UNL     1      15.184  -6.630   3.389  1.00  0.00     0.031 A 
ATOM     57  C   UNL     1      16.179 -11.189  -1.822  1.00  0.00     0.031 A 
ATOM     58  C   UNL     1      16.532  -7.116   3.256  1.00  0.00     0.049 A 
ATOM     59  C   UNL     1      17.316 -10.700  -0.968  1.00  0.00     0.074 A 
ATOM     60  C   UNL     1      17.636  -6.817   4.035  1.00  0.00     0.029 A 
ATOM     61  N   UNL     1      16.960  -7.993   2.272  1.00  0.00    -0.354 N 
ATOM     62  N   UNL     1      17.290  -9.877   0.053  1.00  0.00    -0.248 NA
ATOM     63  C   UNL     1      18.655 -11.210  -1.297  1.00  0.00     0.031 C 
ATOM     64  C   UNL     1      18.747  -7.458   3.478  1.00  0.00     0.029 A 
ATOM     65  C   UNL     1      18.322  -8.215   2.397  1.00  0.00     0.049 A 
ATOM     66  H   UNL     1      16.383  -8.398   1.585  1.00  0.00     0.167 HD
ATOM     67  C   UNL     1      18.600  -9.797   0.509  1.00  0.00     0.074 A 
ATOM     68  C   UNL     1      19.392 -10.665  -0.339  1.00  0.00     0.031 C 
ATOM     69  C   UNL     1      19.100  -9.075   1.541  1.00  0.00     0.031 A 
BRANCH  56  70
ATOM     70  C   UNL     1      14.891  -5.585   4.432  1.00  0.00    -0.014 A 
ATOM     71  C   UNL     1      14.065  -5.857   5.535  1.00  0.00     0.009 A 
ATOM     72  C   UNL     1      15.452  -4.304   4.307  1.00  0.00     0.009 A 
ATOM     73  C   UNL     1      13.762  -4.854   6.459  1.00  0.00     0.001 A 
ATOM     74  C   UNL     1      15.178  -3.314   5.253  1.00  0.00     0.001 A 
ATOM     75  C   UNL     1      14.322  -3.584   6.318  1.00  0.00     0.000 A 
ENDBRANCH  56  70
BRANCH  57  76
ATOM     76  C   UNL     1      16.414 -12.188  -2.899  1.00  0.00    -0.014 A 
ATOM     77  C   UNL     1      16.772 -13.506  -2.576  1.00  0.00     0.009 A 
ATOM     78  C   UNL     1      16.284 -11.834  -4.251  1.00  0.00     0.009 A 
ATOM     79  C   UNL     1      17.015 -14.443  -3.584  1.00  0.00     0.001 A 
ATOM     80  C   UNL     1      16.498 -12.781  -5.256  1.00  0.00     0.001 A 
ATOM     81  C   UNL     1      16.872 -14.082  -4.922  1.00  0.00     0.000 A 
ENDBRANCH  57  76
BRANCH  69  82
ATOM     82  C   UNL     1      20.568  -9.217   1.836  1.00  0.00    -0.014 A 
ATOM     83  C   UNL     1      21.545  -8.691   0.977  1.00  0.00     0.009 A 
ATOM     84  C   UNL     1      20.977  -9.853   3.020  1.00  0.00     0.009 A 
ATOM     85  C   UNL     1      22.901  -8.831   1.279  1.00  0.00     0.001 A 
ATOM     86  C   UNL     1      22.332  -9.961   3.336  1.00  0.00     0.001 A 
ATOM     87  C   UNL     1      23.293  -9.459   2.461  1.00  0.00     0.000 A 
ENDBRANCH  69  82
ENDBRANCH  43  44
ENDBRANCH  35  38
ENDBRANCH  33  34
ENDBRANCH  32  33
ENDBRANCH  31  32
ENDBRANCH   1  31
TORSDOF 16
