REMARK SMILES O=C(NCCCCNC(=O)[C@@H]1CC[C@@H](CS(=O)(=O)c2cccc(F)c2)O1)c1ccc(-c2c3nc(c(-c4ccccc4)c4ccc([nH]4)c(-c4ccccc4)c4nc(c(-c5ccccc5)c5ccc2[nH]5)C=C4)C=C3)cc1
REMARK SMILES IDX 6 1 5 2 4 3 3 4 1 5 2 6 27 8 28 9 74 10 29 11 73 12 30 13
REMARK SMILES IDX 31 14 32 15 67 16 33 17 72 18 66 19 68 20 34 21 71 22 65 23
REMARK SMILES IDX 64 24 35 26 57 27 42 28 56 29 43 30 46 31 55 32 69 33 44 34
REMARK SMILES IDX 45 35 54 37 70 38 47 39 36 40 37 41 41 42 38 43 40 44 39 45
REMARK SMILES IDX 58 46 59 47 63 48 60 49 62 50 61 51 48 52 49 53 53 54 50 55
REMARK SMILES IDX 52 56 51 57 7 58 8 59 9 60 10 62 11 63 12 64 26 65 13 66
REMARK SMILES IDX 14 67 15 68 16 69 17 70 18 71 19 72 20 73 25 74 21 75 23 76
REMARK SMILES IDX 22 77 24 78
REMARK H PARENT 3 7 68 25 46 36 8 61
REMARK Flexibility Score: inf
ROOT
ATOM      1  C   UNL     1       4.327   3.595   0.966  1.00  0.00     0.023 C 
ENDROOT
BRANCH   1   2
ATOM      2  C   UNL     1       4.789   2.702  -0.184  1.00  0.00     0.023 C 
BRANCH   2   3
ATOM      3  C   UNL     1       4.443   1.234  -0.010  1.00  0.00     0.116 C 
BRANCH   3   4
ATOM      4  N   UNL     1       3.018   1.005   0.173  1.00  0.00    -0.352 N 
ATOM      5  O   UNL     1       1.070  -0.113  -0.092  1.00  0.00    -0.269 OA
ATOM      6  C   UNL     1       2.291  -0.092  -0.212  1.00  0.00     0.251 C 
ATOM      7  H   UNL     1       2.518   1.721   0.626  1.00  0.00     0.163 HD
BRANCH   6   8
ATOM      8  C   UNL     1       3.006  -1.234  -0.806  1.00  0.00     0.039 A 
ATOM      9  C   UNL     1       4.125  -1.769  -0.162  1.00  0.00     0.014 A 
ATOM     10  C   UNL     1       2.572  -1.743  -2.031  1.00  0.00     0.014 A 
ATOM     11  C   UNL     1       4.873  -2.750  -0.794  1.00  0.00     0.010 A 
ATOM     12  C   UNL     1       3.282  -2.782  -2.630  1.00  0.00     0.010 A 
ATOM     13  C   UNL     1       4.442  -3.284  -2.019  1.00  0.00    -0.014 A 
BRANCH  13  14
ATOM     14  C   UNL     1       5.148  -4.457  -2.576  1.00  0.00     0.031 A 
ATOM     15  C   UNL     1       5.933  -4.368  -3.850  1.00  0.00     0.074 A 
ATOM     16  C   UNL     1       5.066  -5.615  -1.895  1.00  0.00     0.049 A 
ATOM     17  N   UNL     1       6.599  -5.311  -4.464  1.00  0.00    -0.248 NA
ATOM     18  C   UNL     1       5.973  -3.062  -4.527  1.00  0.00     0.031 C 
ATOM     19  C   UNL     1       4.315  -5.809  -0.649  1.00  0.00     0.029 A 
ATOM     20  N   UNL     1       5.624  -6.841  -2.139  1.00  0.00    -0.354 N 
ATOM     21  C   UNL     1       7.120  -4.724  -5.609  1.00  0.00     0.074 A 
ATOM     22  C   UNL     1       6.686  -3.343  -5.611  1.00  0.00     0.031 C 
ATOM     23  C   UNL     1       4.491  -7.066  -0.221  1.00  0.00     0.029 A 
ATOM     24  C   UNL     1       5.310  -7.782  -1.190  1.00  0.00     0.049 A 
ATOM     25  H   UNL     1       6.195  -7.029  -2.919  1.00  0.00     0.167 HD
ATOM     26  C   UNL     1       7.886  -5.294  -6.569  1.00  0.00     0.031 A 
ATOM     27  C   UNL     1       5.623  -9.086  -1.119  1.00  0.00     0.031 A 
ATOM     28  C   UNL     1       8.319  -6.667  -6.551  1.00  0.00     0.049 A 
ATOM     29  C   UNL     1       6.451  -9.689  -2.212  1.00  0.00     0.074 A 
ATOM     30  C   UNL     1       9.145  -7.322  -7.448  1.00  0.00     0.029 A 
ATOM     31  N   UNL     1       7.952  -7.598  -5.592  1.00  0.00    -0.354 N 
ATOM     32  N   UNL     1       6.975  -9.107  -3.263  1.00  0.00    -0.248 NA
ATOM     33  C   UNL     1       6.724 -11.128  -2.113  1.00  0.00     0.031 C 
ATOM     34  C   UNL     1       9.238  -8.662  -7.059  1.00  0.00     0.029 A 
ATOM     35  C   UNL     1       8.506  -8.830  -5.895  1.00  0.00     0.049 A 
ATOM     36  H   UNL     1       7.383  -7.410  -4.811  1.00  0.00     0.167 HD
ATOM     37  C   UNL     1       7.640 -10.109  -3.953  1.00  0.00     0.074 A 
ATOM     38  C   UNL     1       7.479 -11.327  -3.184  1.00  0.00     0.031 C 
ATOM     39  C   UNL     1       8.315 -10.030  -5.124  1.00  0.00     0.031 A 
BRANCH  26  40
ATOM     40  C   UNL     1       8.293  -4.447  -7.741  1.00  0.00    -0.014 A 
ATOM     41  C   UNL     1       9.317  -3.495  -7.632  1.00  0.00     0.009 A 
ATOM     42  C   UNL     1       7.698  -4.669  -8.993  1.00  0.00     0.009 A 
ATOM     43  C   UNL     1       9.729  -2.772  -8.754  1.00  0.00     0.001 A 
ATOM     44  C   UNL     1       8.125  -3.957 -10.116  1.00  0.00     0.001 A 
ATOM     45  C   UNL     1       9.138  -3.007  -9.995  1.00  0.00     0.000 A 
ENDBRANCH  26  40
BRANCH  27  46
ATOM     46  C   UNL     1       5.111  -9.909   0.004  1.00  0.00    -0.014 A 
ATOM     47  C   UNL     1       5.978 -10.385   0.997  1.00  0.00     0.009 A 
ATOM     48  C   UNL     1       3.741 -10.206   0.095  1.00  0.00     0.009 A 
ATOM     49  C   UNL     1       5.486 -11.161   2.048  1.00  0.00     0.001 A 
ATOM     50  C   UNL     1       3.248 -10.957   1.162  1.00  0.00     0.001 A 
ATOM     51  C   UNL     1       4.122 -11.442   2.133  1.00  0.00     0.000 A 
ENDBRANCH  27  46
BRANCH  39  52
ATOM     52  C   UNL     1       8.923 -11.303  -5.634  1.00  0.00    -0.014 A 
ATOM     53  C   UNL     1       8.121 -12.299  -6.212  1.00  0.00     0.009 A 
ATOM     54  C   UNL     1      10.308 -11.501  -5.547  1.00  0.00     0.009 A 
ATOM     55  C   UNL     1       8.695 -13.487  -6.666  1.00  0.00     0.001 A 
ATOM     56  C   UNL     1      10.881 -12.680  -6.024  1.00  0.00     0.001 A 
ATOM     57  C   UNL     1      10.074 -13.675  -6.574  1.00  0.00     0.000 A 
ENDBRANCH  39  52
ENDBRANCH  13  14
ENDBRANCH   6   8
ENDBRANCH   3   4
ENDBRANCH   2   3
ENDBRANCH   1   2
BRANCH   1  58
ATOM     58  C   UNL     1       4.966   3.271   2.317  1.00  0.00     0.116 C 
BRANCH  58  59
ATOM     59  N   UNL     1       6.344   3.708   2.351  1.00  0.00    -0.354 N 
ATOM     60  C   UNL     1       6.846   4.910   2.768  1.00  0.00     0.249 C 
ATOM     61  H   UNL     1       7.008   3.055   2.032  1.00  0.00     0.163 HD
ATOM     62  O   UNL     1       8.049   5.113   2.601  1.00  0.00    -0.272 OA
BRANCH  60  63
ATOM     63  C   UNL     1       5.916   5.919   3.479  1.00  0.00     0.207 C 
ATOM     64  C   UNL     1       4.773   6.455   2.629  1.00  0.00     0.045 C 
ATOM     65  O   UNL     1       6.639   7.081   3.921  1.00  0.00    -0.364 OA
ATOM     66  C   UNL     1       4.667   7.898   3.052  1.00  0.00     0.036 C 
ATOM     67  C   UNL     1       6.129   8.241   3.255  1.00  0.00     0.134 C 
BRANCH  67  68
ATOM     68  C   UNL     1       6.312   9.472   4.111  1.00  0.00     0.174 C 
BRANCH  68  69
ATOM     69  S   UNL     1       8.002   9.988   4.251  1.00  0.00     0.181 S 
ATOM     70  O   UNL     1       8.521  10.129   2.902  1.00  0.00    -0.224 OA
ATOM     71  O   UNL     1       8.027  11.117   5.162  1.00  0.00    -0.224 OA
BRANCH  69  72
ATOM     72  C   UNL     1       8.921   8.699   5.055  1.00  0.00     0.070 A 
ATOM     73  C   UNL     1       8.341   7.927   6.070  1.00  0.00     0.020 A 
ATOM     74  C   UNL     1      10.232   8.454   4.641  1.00  0.00     0.059 A 
ATOM     75  C   UNL     1       9.058   6.868   6.631  1.00  0.00     0.004 A 
ATOM     76  C   UNL     1      10.941   7.417   5.233  1.00  0.00     0.124 A 
ATOM     77  C   UNL     1      10.363   6.615   6.212  1.00  0.00     0.039 A 
ATOM     78  F   UNL     1      12.204   7.183   4.856  1.00  0.00    -0.207 F 
ENDBRANCH  69  72
ENDBRANCH  68  69
ENDBRANCH  67  68
ENDBRANCH  60  63
ENDBRANCH  58  59
ENDBRANCH   1  58
TORSDOF 14
