REMARK SMILES C[N@@H+]1CC[N@H+](Cc2ccc(C#CC(C)(C)O)s2)C[C@H]1C(=O)NCCCCNC(=O)c1ccc(-c2c3nc(c(-c4ccccc4)c4ccc([nH]4)c(-c4ccccc4)c4nc(c(-c5ccccc5)c5ccc2[nH]5)C=C4)C=C3)cc1
REMARK SMILES IDX 23 1 22 2 20 3 21 4 19 6 1 7 2 8 3 9 4 11 18 12 5 13 6 15
REMARK SMILES IDX 7 16 8 17 17 18 9 19 10 20 11 21 12 22 13 23 14 24 15 25
REMARK SMILES IDX 16 26 24 28 25 29 26 30 27 31 28 32 29 34 30 35 31 36 77 37
REMARK SMILES IDX 32 38 76 39 33 40 34 41 35 42 70 43 36 44 75 45 69 46 71 47
REMARK SMILES IDX 37 48 74 49 68 50 67 51 38 53 60 54 45 55 59 56 46 57 49 58
REMARK SMILES IDX 58 59 72 60 47 61 48 62 57 64 73 65 50 66 39 67 40 68 44 69
REMARK SMILES IDX 41 70 43 71 42 72 61 73 62 74 66 75 63 76 65 77 64 78 51 79
REMARK SMILES IDX 52 80 56 81 53 82 55 83 54 84
REMARK H PARENT 22 5 2 10 5 14 16 27 27 33 71 52 49 63
REMARK Flexibility Score: inf
ROOT
ATOM      1  C   UNL     1       0.598  -1.700  -2.949  1.00  0.00     0.116 C 
ENDROOT
BRANCH   1   2
ATOM      2  N   UNL     1       0.959  -2.639  -1.903  1.00  0.00    -0.351 N 
ATOM      3  C   UNL     1       0.938  -2.460  -0.547  1.00  0.00     0.284 C 
ATOM      4  O   UNL     1       1.313  -3.401   0.160  1.00  0.00    -0.268 OA
ATOM      5  H   UNL     1       1.259  -3.525  -2.211  1.00  0.00     0.163 HD
BRANCH   3   6
ATOM      6  C   UNL     1       0.421  -1.147   0.077  1.00  0.00     0.329 C 
ATOM      7  C   UNL     1       2.513   0.085  -0.079  1.00  0.00     0.333 C 
ATOM      8  N   UNL     1       1.114   0.028  -0.523  1.00  0.00    -0.318 N 
ATOM      9  C   UNL     1       0.430   1.288  -0.205  1.00  0.00     0.325 C 
ATOM     10  H   UNL     1       1.090  -0.092  -1.536  1.00  0.00     0.348 HD
ATOM     11  C   UNL     1      -1.110   1.259  -0.347  1.00  0.00     0.324 C 
ATOM     12  C   UNL     1      -1.134  -1.145  -0.015  1.00  0.00     0.339 C 
ATOM     13  N   UNL     1      -1.819   0.129   0.262  1.00  0.00    -0.320 N 
ATOM     14  H   UNL     1      -2.720   0.081  -0.213  1.00  0.00     0.348 HD
BRANCH  13  15
ATOM     15  C   UNL     1      -2.260   0.320   1.652  1.00  0.00     0.310 C 
BRANCH  15  16
ATOM     16  C   UNL     1      -1.159   0.316   2.662  1.00  0.00     0.060 A 
ATOM     17  C   UNL     1      -0.344   1.355   3.071  1.00  0.00     0.022 A 
ATOM     18  S   UNL     1      -0.766  -1.129   3.498  1.00  0.00    -0.126 S 
ATOM     19  C   UNL     1       0.800   0.875   3.772  1.00  0.00     0.029 A 
ATOM     20  C   UNL     1       0.738  -0.484   3.974  1.00  0.00     0.077 A 
BRANCH  20  21
ATOM     21  C   UNL     1       1.729  -1.265   4.614  1.00  0.00    -0.053 C 
ATOM     22  C   UNL     1       2.456  -1.930   5.468  1.00  0.00    -0.063 C 
BRANCH  22  23
ATOM     23  C   UNL     1       3.304  -2.705   6.463  1.00  0.00     0.120 C 
ATOM     24  C   UNL     1       3.833  -3.979   5.809  1.00  0.00     0.056 C 
ATOM     25  C   UNL     1       4.445  -1.824   6.966  1.00  0.00     0.056 C 
BRANCH  23  26
ATOM     26  O   UNL     1       2.476  -3.058   7.568  1.00  0.00    -0.378 OA
ATOM     27  H   UNL     1       1.747  -3.619   7.260  1.00  0.00     0.212 HD
ENDBRANCH  23  26
ENDBRANCH  22  23
ENDBRANCH  20  21
ENDBRANCH  15  16
ENDBRANCH  13  15
ENDBRANCH   3   6
ENDBRANCH   1   2
BRANCH   1  28
ATOM     28  C   UNL     1       1.813  -1.082  -3.641  1.00  0.00     0.023 C 
BRANCH  28  29
ATOM     29  C   UNL     1       2.716  -2.062  -4.397  1.00  0.00     0.023 C 
BRANCH  29  30
ATOM     30  C   UNL     1       2.000  -2.889  -5.454  1.00  0.00     0.116 C 
BRANCH  30  31
ATOM     31  N   UNL     1       1.379  -2.071  -6.491  1.00  0.00    -0.352 N 
ATOM     32  C   UNL     1       0.590  -2.491  -7.545  1.00  0.00     0.251 C 
ATOM     33  H   UNL     1       1.541  -1.101  -6.432  1.00  0.00     0.163 HD
ATOM     34  O   UNL     1       0.420  -1.795  -8.530  1.00  0.00    -0.269 OA
BRANCH  32  35
ATOM     35  C   UNL     1      -0.054  -3.813  -7.447  1.00  0.00     0.039 A 
ATOM     36  C   UNL     1      -0.034  -4.709  -8.518  1.00  0.00     0.014 A 
ATOM     37  C   UNL     1      -0.651  -4.155  -6.237  1.00  0.00     0.014 A 
ATOM     38  C   UNL     1      -0.546  -5.992  -8.332  1.00  0.00     0.010 A 
ATOM     39  C   UNL     1      -1.031  -5.453  -6.013  1.00  0.00     0.010 A 
ATOM     40  C   UNL     1      -1.026  -6.363  -7.068  1.00  0.00    -0.014 A 
BRANCH  40  41
ATOM     41  C   UNL     1      -1.418  -7.742  -6.788  1.00  0.00     0.031 A 
ATOM     42  C   UNL     1      -0.345  -8.759  -6.987  1.00  0.00     0.074 A 
ATOM     43  C   UNL     1      -2.561  -8.037  -6.131  1.00  0.00     0.049 A 
ATOM     44  N   UNL     1      -0.348  -9.776  -7.784  1.00  0.00    -0.248 NA
ATOM     45  C   UNL     1       0.933  -8.563  -6.279  1.00  0.00     0.031 C 
ATOM     46  C   UNL     1      -3.545  -7.098  -5.575  1.00  0.00     0.029 A 
ATOM     47  N   UNL     1      -3.008  -9.239  -5.676  1.00  0.00    -0.354 N 
ATOM     48  C   UNL     1       0.842 -10.463  -7.541  1.00  0.00     0.074 A 
ATOM     49  C   UNL     1       1.657  -9.584  -6.743  1.00  0.00     0.031 C 
ATOM     50  C   UNL     1      -4.300  -7.730  -4.651  1.00  0.00     0.029 A 
ATOM     51  C   UNL     1      -3.974  -9.143  -4.679  1.00  0.00     0.049 A 
ATOM     52  H   UNL     1      -2.678 -10.099  -6.021  1.00  0.00     0.167 HD
ATOM     53  C   UNL     1       0.956 -11.798  -7.794  1.00  0.00     0.031 A 
ATOM     54  C   UNL     1      -4.445 -10.146  -3.898  1.00  0.00     0.031 A 
ATOM     55  C   UNL     1      -0.108 -12.268  -8.645  1.00  0.00     0.049 A 
ATOM     56  C   UNL     1      -4.101 -11.422  -4.560  1.00  0.00     0.074 A 
ATOM     57  C   UNL     1      -0.562 -11.961  -9.912  1.00  0.00     0.029 A 
ATOM     58  N   UNL     1      -1.133 -12.953  -8.036  1.00  0.00    -0.354 N 
ATOM     59  N   UNL     1      -4.622 -11.809  -5.689  1.00  0.00    -0.248 NA
ATOM     60  C   UNL     1      -2.850 -12.067  -4.195  1.00  0.00     0.031 C 
ATOM     61  C   UNL     1      -1.984 -12.042  -9.820  1.00  0.00     0.029 A 
ATOM     62  C   UNL     1      -2.310 -12.462  -8.529  1.00  0.00     0.049 A 
ATOM     63  H   UNL     1      -1.036 -13.667  -7.365  1.00  0.00     0.167 HD
ATOM     64  C   UNL     1      -3.567 -12.384  -6.381  1.00  0.00     0.074 A 
ATOM     65  C   UNL     1      -2.537 -12.621  -5.370  1.00  0.00     0.031 C 
ATOM     66  C   UNL     1      -3.518 -12.342  -7.746  1.00  0.00     0.031 A 
BRANCH  53  67
ATOM     67  C   UNL     1       1.733 -12.757  -6.911  1.00  0.00    -0.014 A 
ATOM     68  C   UNL     1       1.685 -14.132  -7.217  1.00  0.00     0.009 A 
ATOM     69  C   UNL     1       2.233 -12.418  -5.640  1.00  0.00     0.009 A 
ATOM     70  C   UNL     1       1.990 -15.107  -6.260  1.00  0.00     0.001 A 
ATOM     71  C   UNL     1       2.583 -13.390  -4.697  1.00  0.00     0.001 A 
ATOM     72  C   UNL     1       2.423 -14.734  -4.993  1.00  0.00     0.000 A 
ENDBRANCH  53  67
BRANCH  54  73
ATOM     73  C   UNL     1      -4.946 -10.089  -2.509  1.00  0.00    -0.014 A 
ATOM     74  C   UNL     1      -5.721 -11.135  -1.983  1.00  0.00     0.009 A 
ATOM     75  C   UNL     1      -4.437  -9.135  -1.609  1.00  0.00     0.009 A 
ATOM     76  C   UNL     1      -5.944 -11.243  -0.603  1.00  0.00     0.001 A 
ATOM     77  C   UNL     1      -4.662  -9.240  -0.232  1.00  0.00     0.001 A 
ATOM     78  C   UNL     1      -5.402 -10.304   0.272  1.00  0.00     0.000 A 
ENDBRANCH  54  73
BRANCH  66  79
ATOM     79  C   UNL     1      -4.750 -11.882  -8.486  1.00  0.00    -0.014 A 
ATOM     80  C   UNL     1      -5.302 -10.597  -8.338  1.00  0.00     0.009 A 
ATOM     81  C   UNL     1      -5.272 -12.720  -9.481  1.00  0.00     0.009 A 
ATOM     82  C   UNL     1      -6.365 -10.178  -9.144  1.00  0.00     0.001 A 
ATOM     83  C   UNL     1      -6.319 -12.293 -10.300  1.00  0.00     0.001 A 
ATOM     84  C   UNL     1      -6.869 -11.025 -10.128  1.00  0.00     0.000 A 
ENDBRANCH  66  79
ENDBRANCH  40  41
ENDBRANCH  32  35
ENDBRANCH  30  31
ENDBRANCH  29  30
ENDBRANCH  28  29
ENDBRANCH   1  28
TORSDOF 16
