REMARK SMILES CCOc1ccccc1[C@@H](O)[C@@H](C)[C@@H](C)C(=O)NCCCCNC(=O)c1ccc(-c2c3nc(c(-c4ccccc4)c4ccc([nH]4)c(-c4ccccc4)c4nc(c(-c5ccccc5)c5ccc2[nH]5)C=C4)C=C3)cc1
REMARK SMILES IDX 19 1 18 2 16 3 17 4 14 6 15 7 12 8 13 9 10 10 9 11 4 12 5 13
REMARK SMILES IDX 6 14 8 15 7 16 3 17 2 18 1 19 11 20 20 22 21 23 22 24 23 25
REMARK SMILES IDX 24 26 25 28 26 29 27 30 73 31 28 32 72 33 29 34 30 35 31 36
REMARK SMILES IDX 66 37 32 38 71 39 65 40 67 41 33 42 70 43 64 44 63 45 34 47
REMARK SMILES IDX 56 48 41 49 55 50 42 51 45 52 54 53 68 54 43 55 44 56 53 58
REMARK SMILES IDX 69 59 46 60 35 61 36 62 40 63 37 64 39 65 38 66 57 67 58 68
REMARK SMILES IDX 62 69 59 70 61 71 60 72 47 73 48 74 52 75 49 76 51 77 50 78
REMARK H PARENT 18 5 11 21 23 27 67 46 45 57
REMARK Flexibility Score: inf
ROOT
ATOM      1  C   UNL     1       5.945   1.505  -2.389  1.00  0.00     0.116 C 
ENDROOT
BRANCH   1   2
ATOM      2  N   UNL     1       5.029   1.032  -3.408  1.00  0.00    -0.356 N 
ATOM      3  C   UNL     1       3.700   0.746  -3.340  1.00  0.00     0.223 C 
ATOM      4  O   UNL     1       3.160   0.298  -4.355  1.00  0.00    -0.275 OA
ATOM      5  H   UNL     1       5.434   0.896  -4.295  1.00  0.00     0.163 HD
BRANCH   3   6
ATOM      6  C   UNL     1       2.881   0.986  -2.070  1.00  0.00     0.081 C 
ATOM      7  C   UNL     1       2.684   2.490  -1.875  1.00  0.00     0.018 C 
BRANCH   6   8
ATOM      8  C   UNL     1       3.396   0.151  -0.862  1.00  0.00     0.031 C 
ATOM      9  C   UNL     1       3.154  -1.342  -1.162  1.00  0.00     0.011 C 
BRANCH   8  10
ATOM     10  C   UNL     1       2.864   0.627   0.512  1.00  0.00     0.152 C 
BRANCH  10  11
ATOM     11  C   UNL     1       3.188  -0.328   1.641  1.00  0.00     0.023 A 
ATOM     12  C   UNL     1       2.180  -1.056   2.287  1.00  0.00     0.125 A 
ATOM     13  C   UNL     1       2.494  -1.986   3.279  1.00  0.00     0.047 A 
ATOM     14  C   UNL     1       3.827  -2.202   3.635  1.00  0.00     0.004 A 
ATOM     15  C   UNL     1       4.524  -0.544   2.027  1.00  0.00     0.010 A 
ATOM     16  C   UNL     1       4.841  -1.474   3.016  1.00  0.00     0.001 A 
BRANCH  12  17
ATOM     17  O   UNL     1       0.868  -0.763   2.036  1.00  0.00    -0.493 OA
BRANCH  17  18
ATOM     18  C   UNL     1       0.258  -1.676   1.117  1.00  0.00     0.226 C 
ATOM     19  C   UNL     1      -0.486  -0.862   0.070  1.00  0.00     0.049 C 
ENDBRANCH  17  18
ENDBRANCH  12  17
ENDBRANCH  10  11
BRANCH  10  20
ATOM     20  O   UNL     1       3.477   1.884   0.830  1.00  0.00    -0.388 OA
ATOM     21  H   UNL     1       4.438   1.768   0.896  1.00  0.00     0.211 HD
ENDBRANCH  10  20
ENDBRANCH   8  10
ENDBRANCH   6   8
ENDBRANCH   3   6
ENDBRANCH   1   2
BRANCH   1  22
ATOM     22  C   UNL     1       6.828   0.374  -1.853  1.00  0.00     0.023 C 
BRANCH  22  23
ATOM     23  C   UNL     1       7.871  -0.144  -2.838  1.00  0.00     0.023 C 
BRANCH  23  24
ATOM     24  C   UNL     1       8.777   0.924  -3.425  1.00  0.00     0.116 C 
BRANCH  24  25
ATOM     25  N   UNL     1       9.448   1.730  -2.415  1.00  0.00    -0.352 N 
ATOM     26  C   UNL     1      10.724   2.235  -2.444  1.00  0.00     0.251 C 
ATOM     27  H   UNL     1       8.920   1.939  -1.610  1.00  0.00     0.163 HD
ATOM     28  O   UNL     1      11.197   2.817  -1.474  1.00  0.00    -0.269 OA
BRANCH  26  29
ATOM     29  C   UNL     1      11.535   2.022  -3.657  1.00  0.00     0.039 A 
ATOM     30  C   UNL     1      12.789   1.422  -3.532  1.00  0.00     0.014 A 
ATOM     31  C   UNL     1      11.012   2.335  -4.914  1.00  0.00     0.014 A 
ATOM     32  C   UNL     1      13.491   1.062  -4.681  1.00  0.00     0.010 A 
ATOM     33  C   UNL     1      11.678   1.909  -6.055  1.00  0.00     0.010 A 
ATOM     34  C   UNL     1      12.921   1.264  -5.949  1.00  0.00    -0.014 A 
BRANCH  34  35
ATOM     35  C   UNL     1      13.597   0.798  -7.182  1.00  0.00     0.031 A 
ATOM     36  C   UNL     1      14.051   1.797  -8.208  1.00  0.00     0.074 A 
ATOM     37  C   UNL     1      13.723  -0.523  -7.415  1.00  0.00     0.049 A 
ATOM     38  N   UNL     1      14.580   1.586  -9.386  1.00  0.00    -0.248 NA
ATOM     39  C   UNL     1      13.860   3.220  -7.880  1.00  0.00     0.031 C 
ATOM     40  C   UNL     1      13.282  -1.592  -6.516  1.00  0.00     0.029 A 
ATOM     41  N   UNL     1      14.250  -1.192  -8.491  1.00  0.00    -0.354 N 
ATOM     42  C   UNL     1      14.758   2.843  -9.948  1.00  0.00     0.074 A 
ATOM     43  C   UNL     1      14.246   3.809  -9.002  1.00  0.00     0.031 C 
ATOM     44  C   UNL     1      13.580  -2.780  -7.066  1.00  0.00     0.029 A 
ATOM     45  C   UNL     1      14.191  -2.559  -8.372  1.00  0.00     0.049 A 
ATOM     46  H   UNL     1      14.633  -0.735  -9.274  1.00  0.00     0.167 HD
ATOM     47  C   UNL     1      15.312   3.164 -11.140  1.00  0.00     0.031 A 
ATOM     48  C   UNL     1      14.579  -3.526  -9.225  1.00  0.00     0.031 A 
ATOM     49  C   UNL     1      15.846   2.205 -12.067  1.00  0.00     0.049 A 
ATOM     50  C   UNL     1      15.184  -3.139 -10.546  1.00  0.00     0.074 A 
ATOM     51  C   UNL     1      16.506   2.437 -13.261  1.00  0.00     0.029 A 
ATOM     52  N   UNL     1      15.777   0.831 -11.905  1.00  0.00    -0.354 N 
ATOM     53  N   UNL     1      15.423  -1.943 -11.026  1.00  0.00    -0.248 NA
ATOM     54  C   UNL     1      15.577  -4.238 -11.440  1.00  0.00     0.031 C 
ATOM     55  C   UNL     1      16.792   1.200 -13.847  1.00  0.00     0.029 A 
ATOM     56  C   UNL     1      16.354   0.200 -12.993  1.00  0.00     0.049 A 
ATOM     57  H   UNL     1      15.376   0.371 -11.132  1.00  0.00     0.167 HD
ATOM     58  C   UNL     1      16.018  -2.145 -12.264  1.00  0.00     0.074 A 
ATOM     59  C   UNL     1      16.115  -3.577 -12.456  1.00  0.00     0.031 C 
ATOM     60  C   UNL     1      16.445  -1.226 -13.163  1.00  0.00     0.031 A 
BRANCH  47  61
ATOM     61  C   UNL     1      15.364   4.619 -11.511  1.00  0.00    -0.014 A 
ATOM     62  C   UNL     1      16.241   5.505 -10.867  1.00  0.00     0.009 A 
ATOM     63  C   UNL     1      14.553   5.099 -12.551  1.00  0.00     0.009 A 
ATOM     64  C   UNL     1      16.281   6.851 -11.234  1.00  0.00     0.001 A 
ATOM     65  C   UNL     1      14.614   6.440 -12.934  1.00  0.00     0.001 A 
ATOM     66  C   UNL     1      15.472   7.316 -12.271  1.00  0.00     0.000 A 
ENDBRANCH  47  61
BRANCH  48  67
ATOM     67  C   UNL     1      14.418  -4.957  -8.860  1.00  0.00    -0.014 A 
ATOM     68  C   UNL     1      15.542  -5.745  -8.569  1.00  0.00     0.009 A 
ATOM     69  C   UNL     1      13.146  -5.548  -8.820  1.00  0.00     0.009 A 
ATOM     70  C   UNL     1      15.399  -7.102  -8.274  1.00  0.00     0.001 A 
ATOM     71  C   UNL     1      13.003  -6.900  -8.497  1.00  0.00     0.001 A 
ATOM     72  C   UNL     1      14.130  -7.678  -8.235  1.00  0.00     0.000 A 
ENDBRANCH  48  67
BRANCH  60  73
ATOM     73  C   UNL     1      17.086  -1.741 -14.420  1.00  0.00    -0.014 A 
ATOM     74  C   UNL     1      16.318  -2.317 -15.443  1.00  0.00     0.009 A 
ATOM     75  C   UNL     1      18.471  -1.600 -14.601  1.00  0.00     0.009 A 
ATOM     76  C   UNL     1      16.930  -2.766 -16.614  1.00  0.00     0.001 A 
ATOM     77  C   UNL     1      19.075  -2.025 -15.784  1.00  0.00     0.001 A 
ATOM     78  C   UNL     1      18.306  -2.614 -16.786  1.00  0.00     0.000 A 
ENDBRANCH  60  73
ENDBRANCH  34  35
ENDBRANCH  26  29
ENDBRANCH  24  25
ENDBRANCH  23  24
ENDBRANCH  22  23
ENDBRANCH   1  22
TORSDOF 17
