REMARK SMILES C[C@@]([NH2+]Cc1ccccc1Br)(C(=O)NCCCCNC(=O)c1ccc(-c2c3nc(c(-c4ccccc4)c4ccc([nH]4)c(-c4ccccc4)c4nc(c(-c5ccccc5)c5ccc2[nH]5)C=C4)C=C3)cc1)C(F)(F)F
REMARK SMILES IDX 16 1 15 2 14 3 12 4 13 5 2 7 1 8 3 9 4 12 5 13 6 14 10 15
REMARK SMILES IDX 7 16 9 17 11 18 8 19 70 20 71 21 72 22 73 23 17 24 18 25
REMARK SMILES IDX 19 26 20 27 21 29 22 30 23 31 69 32 24 33 68 34 25 35 26 36
REMARK SMILES IDX 27 37 62 38 28 39 67 40 61 41 63 42 29 43 66 44 60 45 59 46
REMARK SMILES IDX 30 48 52 49 37 50 51 51 38 52 41 53 50 54 64 55 39 56 40 57
REMARK SMILES IDX 49 59 65 60 42 61 31 62 32 63 36 64 33 65 35 66 34 67 53 68
REMARK SMILES IDX 54 69 58 70 55 71 57 72 56 73 43 74 44 75 48 76 45 77 47 78
REMARK SMILES IDX 46 79
REMARK H PARENT 14 6 3 10 3 11 19 28 63 47 41 58
REMARK Flexibility Score: inf
ROOT
ATOM      1  C   UNL     1      -1.328  -2.517   0.724  1.00  0.00     0.023 C 
ENDROOT
BRANCH   1   2
ATOM      2  C   UNL     1      -1.182  -2.091  -0.736  1.00  0.00     0.116 C 
BRANCH   2   3
ATOM      3  N   UNL     1      -1.590  -0.710  -0.908  1.00  0.00    -0.350 N 
ATOM      4  C   UNL     1      -0.851   0.435  -1.031  1.00  0.00     0.290 C 
ATOM      5  O   UNL     1      -1.508   1.475  -1.128  1.00  0.00    -0.267 OA
ATOM      6  H   UNL     1      -2.564  -0.573  -0.941  1.00  0.00     0.163 HD
BRANCH   4   7
ATOM      7  C   UNL     1       0.692   0.416  -1.119  1.00  0.00     0.268 C 
ATOM      8  C   UNL     1       1.305  -0.217   0.154  1.00  0.00     0.101 C 
BRANCH   7   9
ATOM      9  N   UNL     1       1.171  -0.449  -2.262  1.00  0.00    -0.322 N 
ATOM     10  H   UNL     1       1.093  -1.421  -1.961  1.00  0.00     0.347 HD
ATOM     11  H   UNL     1       2.118  -0.122  -2.453  1.00  0.00     0.347 HD
BRANCH   9  12
ATOM     12  C   UNL     1       0.473  -0.332  -3.547  1.00  0.00     0.299 C 
BRANCH  12  13
ATOM     13  C   UNL     1       0.846   0.878  -4.362  1.00  0.00     0.020 A 
ATOM     14  C   UNL     1      -0.077   1.936  -4.455  1.00  0.00     0.011 A 
ATOM     15  C   UNL     1       2.079   1.016  -5.020  1.00  0.00     0.026 A 
ATOM     16  C   UNL     1       0.249   3.120  -5.117  1.00  0.00     0.001 A 
ATOM     17  C   UNL     1       2.397   2.197  -5.699  1.00  0.00     0.016 A 
ATOM     18  Br  UNL     1       3.384  -0.366  -5.031  1.00  0.00    -0.050 Br
ATOM     19  C   UNL     1       1.489   3.254  -5.731  1.00  0.00     0.001 A 
ENDBRANCH  12  13
ENDBRANCH   9  12
ENDBRANCH   7   9
BRANCH   7  20
ATOM     20  C   UNL     1       1.182   1.897  -1.081  1.00  0.00     0.453 C 
ATOM     21  F   UNL     1       0.944   2.472   0.125  1.00  0.00    -0.164 F 
ATOM     22  F   UNL     1       2.534   1.929  -1.255  1.00  0.00    -0.164 F 
ATOM     23  F   UNL     1       0.659   2.704  -2.017  1.00  0.00    -0.164 F 
ENDBRANCH   7  20
ENDBRANCH   4   7
ENDBRANCH   2   3
ENDBRANCH   1   2
BRANCH   1  24
ATOM     24  C   UNL     1      -2.777  -2.743   1.163  1.00  0.00     0.023 C 
BRANCH  24  25
ATOM     25  C   UNL     1      -3.500  -3.870   0.434  1.00  0.00     0.116 C 
BRANCH  25  26
ATOM     26  N   UNL     1      -2.850  -5.161   0.594  1.00  0.00    -0.352 N 
ATOM     27  C   UNL     1      -3.421  -6.397   0.787  1.00  0.00     0.251 C 
ATOM     28  H   UNL     1      -1.866  -5.148   0.560  1.00  0.00     0.163 HD
ATOM     29  O   UNL     1      -2.723  -7.371   1.029  1.00  0.00    -0.269 OA
BRANCH  27  30
ATOM     30  C   UNL     1      -4.892  -6.532   0.736  1.00  0.00     0.039 A 
ATOM     31  C   UNL     1      -5.537  -7.231   1.759  1.00  0.00     0.014 A 
ATOM     32  C   UNL     1      -5.629  -5.954  -0.300  1.00  0.00     0.014 A 
ATOM     33  C   UNL     1      -6.932  -7.293   1.778  1.00  0.00     0.010 A 
ATOM     34  C   UNL     1      -7.019  -5.957  -0.243  1.00  0.00     0.010 A 
ATOM     35  C   UNL     1      -7.684  -6.625   0.797  1.00  0.00    -0.014 A 
BRANCH  35  36
ATOM     36  C   UNL     1      -9.167  -6.606   0.847  1.00  0.00     0.031 A 
ATOM     37  C   UNL     1      -9.968  -7.261  -0.243  1.00  0.00     0.074 A 
ATOM     38  C   UNL     1      -9.791  -5.939   1.837  1.00  0.00     0.049 A 
ATOM     39  N   UNL     1     -11.267  -7.295  -0.405  1.00  0.00    -0.248 NA
ATOM     40  C   UNL     1      -9.212  -7.946  -1.304  1.00  0.00     0.031 C 
ATOM     41  C   UNL     1      -9.128  -5.228   2.933  1.00  0.00     0.029 A 
ATOM     42  N   UNL     1     -11.128  -5.745   2.077  1.00  0.00    -0.354 N 
ATOM     43  C   UNL     1     -11.480  -7.983  -1.592  1.00  0.00     0.074 A 
ATOM     44  C   UNL     1     -10.179  -8.310  -2.132  1.00  0.00     0.031 C 
ATOM     45  C   UNL     1     -10.061  -4.701   3.742  1.00  0.00     0.029 A 
ATOM     46  C   UNL     1     -11.384  -5.002   3.203  1.00  0.00     0.049 A 
ATOM     47  H   UNL     1     -11.838  -6.105   1.497  1.00  0.00     0.167 HD
ATOM     48  C   UNL     1     -12.654  -8.328  -2.173  1.00  0.00     0.031 A 
ATOM     49  C   UNL     1     -12.552  -4.602   3.740  1.00  0.00     0.031 A 
ATOM     50  C   UNL     1     -13.949  -8.018  -1.628  1.00  0.00     0.049 A 
ATOM     51  C   UNL     1     -13.840  -4.990   3.070  1.00  0.00     0.074 A 
ATOM     52  C   UNL     1     -15.195  -8.382  -2.109  1.00  0.00     0.029 A 
ATOM     53  N   UNL     1     -14.164  -7.270  -0.482  1.00  0.00    -0.354 N 
ATOM     54  N   UNL     1     -14.025  -5.703   1.986  1.00  0.00    -0.248 NA
ATOM     55  C   UNL     1     -15.081  -4.526   3.707  1.00  0.00     0.031 C 
ATOM     56  C   UNL     1     -16.166  -7.812  -1.279  1.00  0.00     0.029 A 
ATOM     57  C   UNL     1     -15.523  -7.139  -0.253  1.00  0.00     0.049 A 
ATOM     58  H   UNL     1     -13.455  -6.888   0.085  1.00  0.00     0.167 HD
ATOM     59  C   UNL     1     -15.402  -5.798   1.827  1.00  0.00     0.074 A 
ATOM     60  C   UNL     1     -16.003  -5.081   2.933  1.00  0.00     0.031 C 
ATOM     61  C   UNL     1     -16.105  -6.424   0.853  1.00  0.00     0.031 A 
BRANCH  48  62
ATOM     62  C   UNL     1     -12.589  -9.077  -3.474  1.00  0.00    -0.014 A 
ATOM     63  C   UNL     1     -12.154 -10.411  -3.526  1.00  0.00     0.009 A 
ATOM     64  C   UNL     1     -13.001  -8.450  -4.661  1.00  0.00     0.009 A 
ATOM     65  C   UNL     1     -12.100 -11.091  -4.745  1.00  0.00     0.001 A 
ATOM     66  C   UNL     1     -12.973  -9.142  -5.873  1.00  0.00     0.001 A 
ATOM     67  C   UNL     1     -12.514 -10.457  -5.916  1.00  0.00     0.000 A 
ENDBRANCH  48  62
BRANCH  49  68
ATOM     68  C   UNL     1     -12.563  -3.802   4.992  1.00  0.00    -0.014 A 
ATOM     69  C   UNL     1     -13.010  -4.373   6.194  1.00  0.00     0.009 A 
ATOM     70  C   UNL     1     -12.140  -2.464   4.992  1.00  0.00     0.009 A 
ATOM     71  C   UNL     1     -13.059  -3.612   7.364  1.00  0.00     0.001 A 
ATOM     72  C   UNL     1     -12.165  -1.714   6.170  1.00  0.00     0.001 A 
ATOM     73  C   UNL     1     -12.633  -2.285   7.352  1.00  0.00     0.000 A 
ENDBRANCH  49  68
BRANCH  61  74
ATOM     74  C   UNL     1     -17.603  -6.394   0.960  1.00  0.00    -0.014 A 
ATOM     75  C   UNL     1     -18.330  -5.223   0.696  1.00  0.00     0.009 A 
ATOM     76  C   UNL     1     -18.298  -7.568   1.291  1.00  0.00     0.009 A 
ATOM     77  C   UNL     1     -19.723  -5.221   0.794  1.00  0.00     0.001 A 
ATOM     78  C   UNL     1     -19.691  -7.570   1.360  1.00  0.00     0.001 A 
ATOM     79  C   UNL     1     -20.402  -6.395   1.121  1.00  0.00     0.000 A 
ENDBRANCH  61  74
ENDBRANCH  35  36
ENDBRANCH  27  30
ENDBRANCH  25  26
ENDBRANCH  24  25
ENDBRANCH   1  24
TORSDOF 15
