REMARK SMILES CC[C@@H]1CCCN1C(=O)N(CC(=O)NCCCCNC(=O)c1ccc(-c2c3nc(c(-c4ccccc4)c4ccc([nH]4)c(-c4ccccc4)c4nc(c(-c5ccccc5)c5ccc2[nH]5)C=C4)C=C3)cc1)CC(F)(F)F
REMARK SMILES IDX 15 1 14 2 12 3 13 4 11 6 10 7 8 8 9 9 7 10 3 11 4 12 5 13
REMARK SMILES IDX 6 14 2 15 1 16 70 17 71 18 72 19 73 20 74 21 16 22 17 23
REMARK SMILES IDX 18 24 19 25 20 26 21 28 22 29 23 30 69 31 24 32 68 33 25 34
REMARK SMILES IDX 26 35 27 36 62 37 28 38 67 39 61 40 63 41 29 42 66 43 60 44
REMARK SMILES IDX 59 45 30 47 52 48 37 49 51 50 38 51 41 52 50 53 64 54 39 55
REMARK SMILES IDX 40 56 49 58 65 59 42 60 31 61 32 62 36 63 33 64 35 65 34 66
REMARK SMILES IDX 53 67 54 68 58 69 55 70 57 71 56 72 43 73 44 74 48 75 45 76
REMARK SMILES IDX 47 77 46 78
REMARK H PARENT 14 5 19 27 63 46 41 57
REMARK Flexibility Score: inf
ROOT
ATOM      1  C   UNL     1       1.744  -0.156   1.650  1.00  0.00     0.116 C 
ENDROOT
BRANCH   1   2
ATOM      2  N   UNL     1       1.346   1.204   1.341  1.00  0.00    -0.355 N 
ATOM      3  C   UNL     1       1.412   1.926   0.191  1.00  0.00     0.239 C 
ATOM      4  O   UNL     1       0.803   3.003   0.182  1.00  0.00    -0.273 OA
ATOM      5  H   UNL     1       0.958   1.694   2.102  1.00  0.00     0.163 HD
BRANCH   3   6
ATOM      6  C   UNL     1       2.022   1.403  -1.120  1.00  0.00     0.221 C 
BRANCH   6   7
ATOM      7  N   UNL     1       3.187   0.546  -1.147  1.00  0.00    -0.306 N 
BRANCH   7   8
ATOM      8  C   UNL     1       3.278  -0.810  -1.314  1.00  0.00     0.321 C 
ATOM      9  O   UNL     1       4.401  -1.299  -1.102  1.00  0.00    -0.248 OA
BRANCH   8  10
ATOM     10  N   UNL     1       2.231  -1.673  -1.579  1.00  0.00    -0.322 N 
ATOM     11  C   UNL     1       0.952  -1.713  -2.362  1.00  0.00     0.086 C 
ATOM     12  C   UNL     1       0.380  -3.100  -1.987  1.00  0.00     0.027 C 
ATOM     13  C   UNL     1       1.594  -3.986  -1.985  1.00  0.00     0.024 C 
ATOM     14  C   UNL     1       2.659  -3.082  -1.402  1.00  0.00     0.122 C 
BRANCH  11  15
ATOM     15  C   UNL     1      -0.228  -0.727  -2.324  1.00  0.00     0.022 C 
ATOM     16  C   UNL     1      -0.873  -0.494  -0.970  1.00  0.00     0.006 C 
ENDBRANCH  11  15
ENDBRANCH   8  10
ENDBRANCH   7   8
BRANCH   7  17
ATOM     17  C   UNL     1       4.461   1.243  -0.789  1.00  0.00     0.237 C 
BRANCH  17  18
ATOM     18  C   UNL     1       4.867   1.248   0.693  1.00  0.00     0.406 C 
ATOM     19  F   UNL     1       4.864   0.028   1.264  1.00  0.00    -0.169 F 
ATOM     20  F   UNL     1       6.113   1.762   0.841  1.00  0.00    -0.169 F 
ATOM     21  F   UNL     1       4.041   2.041   1.417  1.00  0.00    -0.169 F 
ENDBRANCH  17  18
ENDBRANCH   7  17
ENDBRANCH   6   7
ENDBRANCH   3   6
ENDBRANCH   1   2
BRANCH   1  22
ATOM     22  C   UNL     1       2.350  -0.300   3.039  1.00  0.00     0.023 C 
BRANCH  22  23
ATOM     23  C   UNL     1       1.398   0.022   4.186  1.00  0.00     0.023 C 
BRANCH  23  24
ATOM     24  C   UNL     1       0.070  -0.724   4.146  1.00  0.00     0.116 C 
BRANCH  24  25
ATOM     25  N   UNL     1       0.233  -2.170   4.176  1.00  0.00    -0.352 N 
ATOM     26  C   UNL     1      -0.158  -3.080   5.130  1.00  0.00     0.251 C 
ATOM     27  H   UNL     1       0.693  -2.555   3.395  1.00  0.00     0.163 HD
ATOM     28  O   UNL     1       0.213  -4.243   5.066  1.00  0.00    -0.269 OA
BRANCH  26  29
ATOM     29  C   UNL     1      -1.009  -2.635   6.254  1.00  0.00     0.039 A 
ATOM     30  C   UNL     1      -0.672  -3.025   7.551  1.00  0.00     0.014 A 
ATOM     31  C   UNL     1      -2.119  -1.819   6.029  1.00  0.00     0.014 A 
ATOM     32  C   UNL     1      -1.409  -2.532   8.629  1.00  0.00     0.010 A 
ATOM     33  C   UNL     1      -2.788  -1.250   7.107  1.00  0.00     0.010 A 
ATOM     34  C   UNL     1      -2.446  -1.606   8.419  1.00  0.00    -0.014 A 
BRANCH  34  35
ATOM     35  C   UNL     1      -3.173  -1.004   9.565  1.00  0.00     0.031 A 
ATOM     36  C   UNL     1      -4.651  -1.232   9.734  1.00  0.00     0.074 A 
ATOM     37  C   UNL     1      -2.508  -0.216  10.433  1.00  0.00     0.049 A 
ATOM     38  N   UNL     1      -5.449  -0.799  10.678  1.00  0.00    -0.248 NA
ATOM     39  C   UNL     1      -5.328  -2.027   8.696  1.00  0.00     0.031 C 
ATOM     40  C   UNL     1      -1.088   0.134  10.346  1.00  0.00     0.029 A 
ATOM     41  N   UNL     1      -2.939   0.431  11.564  1.00  0.00    -0.354 N 
ATOM     42  C   UNL     1      -6.716  -1.257  10.340  1.00  0.00     0.074 A 
ATOM     43  C   UNL     1      -6.595  -1.948   9.076  1.00  0.00     0.031 C 
ATOM     44  C   UNL     1      -0.756   0.891  11.403  1.00  0.00     0.029 A 
ATOM     45  C   UNL     1      -1.944   1.115  12.220  1.00  0.00     0.049 A 
ATOM     46  H   UNL     1      -3.872   0.407  11.877  1.00  0.00     0.167 HD
ATOM     47  C   UNL     1      -7.874  -1.137  11.032  1.00  0.00     0.031 A 
ATOM     48  C   UNL     1      -1.982   1.839  13.354  1.00  0.00     0.031 A 
ATOM     49  C   UNL     1      -7.994  -0.457  12.293  1.00  0.00     0.049 A 
ATOM     50  C   UNL     1      -3.280   1.956  14.103  1.00  0.00     0.074 A 
ATOM     51  C   UNL     1      -9.110  -0.332  13.103  1.00  0.00     0.029 A 
ATOM     52  N   UNL     1      -6.963   0.220  12.925  1.00  0.00    -0.354 N 
ATOM     53  N   UNL     1      -4.451   1.441  13.815  1.00  0.00    -0.248 NA
ATOM     54  C   UNL     1      -3.256   2.742  15.344  1.00  0.00     0.031 C 
ATOM     55  C   UNL     1      -8.768   0.471  14.196  1.00  0.00     0.029 A 
ATOM     56  C   UNL     1      -7.423   0.789  14.101  1.00  0.00     0.049 A 
ATOM     57  H   UNL     1      -6.040   0.287  12.588  1.00  0.00     0.167 HD
ATOM     58  C   UNL     1      -5.295   1.817  14.851  1.00  0.00     0.074 A 
ATOM     59  C   UNL     1      -4.495   2.581  15.786  1.00  0.00     0.031 C 
ATOM     60  C   UNL     1      -6.615   1.555  15.016  1.00  0.00     0.031 A 
BRANCH  47  61
ATOM     61  C   UNL     1      -9.108  -1.755  10.431  1.00  0.00    -0.014 A 
ATOM     62  C   UNL     1      -9.253  -3.149  10.332  1.00  0.00     0.009 A 
ATOM     63  C   UNL     1     -10.156  -0.933   9.989  1.00  0.00     0.009 A 
ATOM     64  C   UNL     1     -10.405  -3.704   9.770  1.00  0.00     0.001 A 
ATOM     65  C   UNL     1     -11.320  -1.491   9.457  1.00  0.00     0.001 A 
ATOM     66  C   UNL     1     -11.440  -2.875   9.339  1.00  0.00     0.000 A 
ENDBRANCH  47  61
BRANCH  48  67
ATOM     67  C   UNL     1      -0.748   2.493  13.866  1.00  0.00    -0.014 A 
ATOM     68  C   UNL     1      -0.139   2.045  15.049  1.00  0.00     0.009 A 
ATOM     69  C   UNL     1      -0.179   3.579  13.182  1.00  0.00     0.009 A 
ATOM     70  C   UNL     1       0.992   2.692  15.553  1.00  0.00     0.001 A 
ATOM     71  C   UNL     1       0.971   4.202  13.670  1.00  0.00     0.001 A 
ATOM     72  C   UNL     1       1.549   3.766  14.861  1.00  0.00     0.000 A 
ENDBRANCH  48  67
BRANCH  60  73
ATOM     73  C   UNL     1      -7.264   2.074  16.269  1.00  0.00    -0.014 A 
ATOM     74  C   UNL     1      -7.477   3.447  16.470  1.00  0.00     0.009 A 
ATOM     75  C   UNL     1      -7.687   1.170  17.257  1.00  0.00     0.009 A 
ATOM     76  C   UNL     1      -8.056   3.906  17.655  1.00  0.00     0.001 A 
ATOM     77  C   UNL     1      -8.297   1.629  18.424  1.00  0.00     0.001 A 
ATOM     78  C   UNL     1      -8.469   2.997  18.628  1.00  0.00     0.000 A 
ENDBRANCH  60  73
ENDBRANCH  34  35
ENDBRANCH  26  29
ENDBRANCH  24  25
ENDBRANCH  23  24
ENDBRANCH  22  23
ENDBRANCH   1  22
TORSDOF 17
