REMARK SMILES Cc1cccc(C(=O)Nc2cc(C(=O)NCCCCNC(=O)c3ccc(-c4c5nc(c(-c6ccccc6)c6ccc([nH]6)c(-c6ccccc6)c6nc(c(-c7ccccc7)c7ccc4[nH]7)C=C6)C=C5)cc3)ccc2N2CC[NH+](CC(=O)NC(C)(C)C)CC2)c1
REMARK SMILES IDX 16 1 15 2 13 3 14 4 12 6 10 7 11 8 73 9 72 10 71 11 9 12
REMARK SMILES IDX 7 13 8 14 6 16 1 17 2 18 3 19 88 20 4 21 5 22 74 23 75 24
REMARK SMILES IDX 87 25 76 26 86 27 77 28 78 30 79 31 80 32 81 33 82 35 83 36
REMARK SMILES IDX 84 37 85 38 17 39 18 40 19 41 20 42 21 43 22 45 23 46 24 47
REMARK SMILES IDX 70 48 25 49 69 50 26 51 27 52 28 53 63 54 29 55 68 56 62 57
REMARK SMILES IDX 64 58 30 59 67 60 61 61 60 62 31 64 53 65 38 66 52 67 39 68
REMARK SMILES IDX 42 69 51 70 65 71 40 72 41 73 50 75 66 76 43 77 32 78 33 79
REMARK SMILES IDX 37 80 34 81 36 82 35 83 54 84 55 85 59 86 56 87 58 88 57 89
REMARK SMILES IDX 44 90 45 91 49 92 46 93 48 94 47 95
REMARK H PARENT 15 5 9 15 77 29 81 34 20 44 64 63 42 74
REMARK Flexibility Score: inf
ROOT
ATOM      1  C   UNL     1       1.537   0.926  -3.231  1.00  0.00     0.116 C 
ENDROOT
BRANCH   1   2
ATOM      2  N   UNL     1       2.888   1.448  -3.068  1.00  0.00    -0.352 N 
ATOM      3  C   UNL     1       3.433   2.488  -2.346  1.00  0.00     0.251 C 
ATOM      4  O   UNL     1       4.663   2.558  -2.318  1.00  0.00    -0.269 OA
ATOM      5  H   UNL     1       3.558   0.949  -3.589  1.00  0.00     0.163 HD
BRANCH   3   6
ATOM      6  C   UNL     1       2.647   3.508  -1.587  1.00  0.00     0.042 A 
ATOM      7  C   UNL     1       0.574   4.437  -0.764  1.00  0.00     0.065 A 
ATOM      8  C   UNL     1       1.267   3.578  -1.608  1.00  0.00     0.042 A 
ATOM      9  C   UNL     1       1.225   5.394   0.045  1.00  0.00     0.061 A 
ATOM     10  C   UNL     1       2.620   5.385   0.007  1.00  0.00     0.029 A 
ATOM     11  C   UNL     1       3.320   4.433  -0.768  1.00  0.00     0.016 A 
BRANCH   7  12
ATOM     12  N   UNL     1      -0.820   4.282  -0.658  1.00  0.00    -0.320 N 
ATOM     13  C   UNL     1      -1.509   3.146  -0.269  1.00  0.00     0.255 C 
ATOM     14  O   UNL     1      -2.720   3.221  -0.054  1.00  0.00    -0.269 OA
ATOM     15  H   UNL     1      -1.366   5.069  -0.886  1.00  0.00     0.170 HD
BRANCH  13  16
ATOM     16  C   UNL     1      -0.833   1.832  -0.054  1.00  0.00     0.040 A 
ATOM     17  C   UNL     1       2.493   0.248   0.977  1.00  0.00     0.044 C 
ATOM     18  C   UNL     1       1.067   0.410   0.534  1.00  0.00    -0.050 A 
ATOM     19  C   UNL     1       0.391  -0.685  -0.004  1.00  0.00     0.003 A 
ATOM     20  C   UNL     1       0.420   1.657   0.565  1.00  0.00     0.017 A 
ATOM     21  C   UNL     1      -0.890  -0.527  -0.528  1.00  0.00     0.001 A 
ATOM     22  C   UNL     1      -1.503   0.719  -0.557  1.00  0.00     0.014 A 
ENDBRANCH  13  16
ENDBRANCH   7  12
BRANCH   9  23
ATOM     23  N   UNL     1       0.491   6.181   0.915  1.00  0.00    -0.359 N 
ATOM     24  C   UNL     1       0.862   7.526   1.379  1.00  0.00     0.178 C 
ATOM     25  C   UNL     1      -0.329   5.474   1.900  1.00  0.00     0.178 C 
ATOM     26  C   UNL     1      -0.414   8.304   1.870  1.00  0.00     0.284 C 
ATOM     27  C   UNL     1      -1.661   6.229   2.036  1.00  0.00     0.284 C 
ATOM     28  N   UNL     1      -1.494   7.576   2.583  1.00  0.00    -0.324 N 
ATOM     29  H   UNL     1      -2.333   8.122   2.389  1.00  0.00     0.348 HD
BRANCH  28  30
ATOM     30  C   UNL     1      -1.470   7.605   4.057  1.00  0.00     0.363 C 
BRANCH  30  31
ATOM     31  C   UNL     1      -0.359   6.797   4.717  1.00  0.00     0.275 C 
ATOM     32  O   UNL     1       0.787   7.264   4.771  1.00  0.00    -0.268 OA
ATOM     33  N   UNL     1      -0.521   5.557   5.259  1.00  0.00    -0.347 N 
ATOM     34  H   UNL     1       0.299   5.287   5.732  1.00  0.00     0.164 HD
BRANCH  33  35
ATOM     35  C   UNL     1      -1.549   4.481   5.362  1.00  0.00     0.032 C 
ATOM     36  C   UNL     1      -1.401   3.445   4.229  1.00  0.00     0.034 C 
ATOM     37  C   UNL     1      -1.245   3.722   6.674  1.00  0.00     0.034 C 
ATOM     38  C   UNL     1      -2.998   4.969   5.439  1.00  0.00     0.034 C 
ENDBRANCH  33  35
ENDBRANCH  30  31
ENDBRANCH  28  30
ENDBRANCH   9  23
ENDBRANCH   3   6
ENDBRANCH   1   2
BRANCH   1  39
ATOM     39  C   UNL     1       0.722   1.639  -4.324  1.00  0.00     0.023 C 
BRANCH  39  40
ATOM     40  C   UNL     1       1.105   1.247  -5.747  1.00  0.00     0.023 C 
BRANCH  40  41
ATOM     41  C   UNL     1       0.629  -0.144  -6.133  1.00  0.00     0.116 C 
BRANCH  41  42
ATOM     42  N   UNL     1      -0.694  -0.201  -6.739  1.00  0.00    -0.352 N 
ATOM     43  C   UNL     1      -1.468  -1.305  -7.067  1.00  0.00     0.251 C 
ATOM     44  H   UNL     1      -1.099   0.672  -6.947  1.00  0.00     0.163 HD
ATOM     45  O   UNL     1      -2.534  -1.155  -7.639  1.00  0.00    -0.269 OA
BRANCH  43  46
ATOM     46  C   UNL     1      -1.074  -2.659  -6.586  1.00  0.00     0.039 A 
ATOM     47  C   UNL     1      -2.084  -3.486  -6.075  1.00  0.00     0.014 A 
ATOM     48  C   UNL     1       0.259  -3.016  -6.420  1.00  0.00     0.014 A 
ATOM     49  C   UNL     1      -1.754  -4.491  -5.170  1.00  0.00     0.010 A 
ATOM     50  C   UNL     1       0.584  -3.916  -5.429  1.00  0.00     0.010 A 
ATOM     51  C   UNL     1      -0.430  -4.595  -4.751  1.00  0.00    -0.014 A 
BRANCH  51  52
ATOM     52  C   UNL     1      -0.029  -5.252  -3.516  1.00  0.00     0.031 A 
ATOM     53  C   UNL     1       0.705  -6.526  -3.544  1.00  0.00     0.074 A 
ATOM     54  C   UNL     1      -0.233  -4.614  -2.342  1.00  0.00     0.049 A 
ATOM     55  N   UNL     1       0.748  -7.358  -2.559  1.00  0.00    -0.248 NA
ATOM     56  C   UNL     1       1.408  -6.995  -4.731  1.00  0.00     0.031 C 
ATOM     57  C   UNL     1       0.361  -4.922  -1.044  1.00  0.00     0.029 A 
ATOM     58  N   UNL     1      -1.221  -3.677  -2.047  1.00  0.00    -0.354 N 
ATOM     59  C   UNL     1       1.720  -8.284  -2.853  1.00  0.00     0.074 A 
ATOM     60  C   UNL     1       2.022  -8.080  -4.252  1.00  0.00     0.031 C 
ATOM     61  C   UNL     1      -0.448  -4.448  -0.083  1.00  0.00     0.029 A 
ATOM     62  C   UNL     1      -1.644  -3.946  -0.739  1.00  0.00     0.049 A 
ATOM     63  H   UNL     1      -1.556  -2.967  -2.641  1.00  0.00     0.167 HD
ATOM     64  C   UNL     1       2.282  -9.009  -1.845  1.00  0.00     0.031 A 
ATOM     65  C   UNL     1      -2.930  -4.234  -0.394  1.00  0.00     0.031 A 
ATOM     66  C   UNL     1       1.633  -8.744  -0.559  1.00  0.00     0.049 A 
ATOM     67  C   UNL     1      -3.014  -5.560   0.318  1.00  0.00     0.074 A 
ATOM     68  C   UNL     1       1.991  -7.971   0.535  1.00  0.00     0.029 A 
ATOM     69  N   UNL     1       0.287  -9.063  -0.389  1.00  0.00    -0.354 N 
ATOM     70  N   UNL     1      -2.095  -6.481   0.217  1.00  0.00    -0.248 NA
ATOM     71  C   UNL     1      -4.121  -5.963   1.177  1.00  0.00     0.031 C 
ATOM     72  C   UNL     1       0.830  -7.766   1.326  1.00  0.00     0.029 A 
ATOM     73  C   UNL     1      -0.224  -8.441   0.734  1.00  0.00     0.049 A 
ATOM     74  H   UNL     1      -0.228  -9.651  -0.987  1.00  0.00     0.167 HD
ATOM     75  C   UNL     1      -2.430  -7.546   1.004  1.00  0.00     0.074 A 
ATOM     76  C   UNL     1      -3.719  -7.185   1.570  1.00  0.00     0.031 C 
ATOM     77  C   UNL     1      -1.614  -8.631   1.131  1.00  0.00     0.031 A 
BRANCH  64  78
ATOM     78  C   UNL     1       3.622  -9.698  -1.987  1.00  0.00    -0.014 A 
ATOM     79  C   UNL     1       4.447  -9.865  -0.859  1.00  0.00     0.009 A 
ATOM     80  C   UNL     1       4.163 -10.143  -3.205  1.00  0.00     0.009 A 
ATOM     81  C   UNL     1       5.763 -10.340  -0.960  1.00  0.00     0.001 A 
ATOM     82  C   UNL     1       5.491 -10.577  -3.324  1.00  0.00     0.001 A 
ATOM     83  C   UNL     1       6.297 -10.665  -2.199  1.00  0.00     0.000 A 
ENDBRANCH  64  78
BRANCH  65  84
ATOM     84  C   UNL     1      -3.958  -3.674  -1.312  1.00  0.00    -0.014 A 
ATOM     85  C   UNL     1      -4.155  -2.278  -1.302  1.00  0.00     0.009 A 
ATOM     86  C   UNL     1      -4.398  -4.402  -2.426  1.00  0.00     0.009 A 
ATOM     87  C   UNL     1      -4.641  -1.613  -2.432  1.00  0.00     0.001 A 
ATOM     88  C   UNL     1      -4.902  -3.732  -3.550  1.00  0.00     0.001 A 
ATOM     89  C   UNL     1      -4.983  -2.339  -3.569  1.00  0.00     0.000 A 
ENDBRANCH  65  84
BRANCH  77  90
ATOM     90  C   UNL     1      -2.017  -9.955   1.724  1.00  0.00    -0.014 A 
ATOM     91  C   UNL     1      -3.342 -10.401   1.812  1.00  0.00     0.009 A 
ATOM     92  C   UNL     1      -1.009 -10.882   2.073  1.00  0.00     0.009 A 
ATOM     93  C   UNL     1      -3.648 -11.690   2.268  1.00  0.00     0.001 A 
ATOM     94  C   UNL     1      -1.308 -12.183   2.482  1.00  0.00     0.001 A 
ATOM     95  C   UNL     1      -2.631 -12.583   2.590  1.00  0.00     0.000 A 
ENDBRANCH  77  90
ENDBRANCH  51  52
ENDBRANCH  43  46
ENDBRANCH  41  42
ENDBRANCH  40  41
ENDBRANCH  39  40
ENDBRANCH   1  39
TORSDOF 17
