REMARK SMILES C[C@H](C(=O)NCCCCNC(=O)c1ccc(-c2c3nc(c(-c4ccccc4)c4ccc([nH]4)c(-c4ccccc4)c4nc(c(-c5ccccc5)c5ccc2[nH]5)C=C4)C=C3)cc1)c1ccc2c(c1)OCCO2
REMARK SMILES IDX 8 1 7 2 6 3 5 4 3 5 4 6 2 8 1 9 61 10 62 11 66 12 63 13
REMARK SMILES IDX 65 14 64 15 67 16 70 17 68 18 69 19 9 20 10 21 11 22 12 24
REMARK SMILES IDX 13 25 14 26 60 27 15 28 59 29 16 30 17 31 18 32 53 33 19 34
REMARK SMILES IDX 58 35 52 36 54 37 20 38 57 39 51 40 50 41 21 43 43 44 28 45
REMARK SMILES IDX 42 46 29 47 32 48 41 49 55 50 30 51 31 52 40 54 56 55 33 56
REMARK SMILES IDX 22 57 23 58 27 59 24 60 26 61 25 62 44 63 45 64 49 65 46 66
REMARK SMILES IDX 48 67 47 68 34 69 35 70 39 71 36 72 38 73 37 74
REMARK H PARENT 5 7 10 23 54 42 32 53
REMARK Flexibility Score: inf
ROOT
ATOM      1  C   UNL     1      -1.694  -0.953   3.233  1.00  0.00     0.023 C 
ENDROOT
BRANCH   1   2
ATOM      2  C   UNL     1      -1.766  -0.205   1.907  1.00  0.00     0.023 C 
BRANCH   2   3
ATOM      3  C   UNL     1      -0.737   0.914   1.731  1.00  0.00     0.116 C 
BRANCH   3   4
ATOM      4  N   UNL     1       0.581   0.393   1.420  1.00  0.00    -0.356 N 
ATOM      5  C   UNL     1       1.218   0.282   0.216  1.00  0.00     0.227 C 
ATOM      6  O   UNL     1       2.339  -0.234   0.232  1.00  0.00    -0.274 OA
ATOM      7  H   UNL     1       1.094   0.070   2.195  1.00  0.00     0.163 HD
BRANCH   5   8
ATOM      8  C   UNL     1       0.606   0.857  -1.072  1.00  0.00     0.105 C 
ATOM      9  C   UNL     1       1.500   0.533  -2.278  1.00  0.00     0.023 C 
BRANCH   8  10
ATOM     10  C   UNL     1      -0.794   0.369  -1.408  1.00  0.00    -0.032 A 
ATOM     11  C   UNL     1      -1.766   1.276  -1.865  1.00  0.00     0.008 A 
ATOM     12  C   UNL     1      -1.114  -0.994  -1.338  1.00  0.00     0.055 A 
ATOM     13  C   UNL     1      -3.032   0.827  -2.246  1.00  0.00     0.051 A 
ATOM     14  C   UNL     1      -2.381  -1.439  -1.700  1.00  0.00     0.161 A 
ATOM     15  C   UNL     1      -3.325  -0.532  -2.189  1.00  0.00     0.161 A 
ATOM     16  O   UNL     1      -2.610  -2.784  -1.577  1.00  0.00    -0.486 OA
ATOM     17  O   UNL     1      -4.547  -0.930  -2.670  1.00  0.00    -0.486 OA
ATOM     18  C   UNL     1      -3.954  -3.146  -1.916  1.00  0.00     0.271 C 
ATOM     19  C   UNL     1      -4.471  -2.304  -3.071  1.00  0.00     0.271 C 
ENDBRANCH   8  10
ENDBRANCH   5   8
ENDBRANCH   3   4
ENDBRANCH   2   3
ENDBRANCH   1   2
BRANCH   1  20
ATOM     20  C   UNL     1      -1.974  -0.110   4.466  1.00  0.00     0.116 C 
BRANCH  20  21
ATOM     21  N   UNL     1      -3.279   0.541   4.452  1.00  0.00    -0.352 N 
ATOM     22  C   UNL     1      -4.214   0.621   5.459  1.00  0.00     0.251 C 
ATOM     23  H   UNL     1      -3.524   0.984   3.608  1.00  0.00     0.163 HD
ATOM     24  O   UNL     1      -5.304   1.148   5.267  1.00  0.00    -0.269 OA
BRANCH  22  25
ATOM     25  C   UNL     1      -3.904   0.004   6.764  1.00  0.00     0.039 A 
ATOM     26  C   UNL     1      -4.794  -0.929   7.299  1.00  0.00     0.014 A 
ATOM     27  C   UNL     1      -2.678   0.256   7.383  1.00  0.00     0.014 A 
ATOM     28  C   UNL     1      -4.399  -1.703   8.392  1.00  0.00     0.010 A 
ATOM     29  C   UNL     1      -2.252  -0.580   8.406  1.00  0.00     0.010 A 
ATOM     30  C   UNL     1      -3.098  -1.582   8.907  1.00  0.00    -0.014 A 
BRANCH  30  31
ATOM     31  C   UNL     1      -2.572  -2.513   9.938  1.00  0.00     0.031 A 
ATOM     32  C   UNL     1      -2.083  -1.973  11.252  1.00  0.00     0.074 A 
ATOM     33  C   UNL     1      -2.413  -3.820   9.642  1.00  0.00     0.049 A 
ATOM     34  N   UNL     1      -1.441  -2.590  12.210  1.00  0.00    -0.248 NA
ATOM     35  C   UNL     1      -2.311  -0.540  11.507  1.00  0.00     0.031 C 
ATOM     36  C   UNL     1      -2.787  -4.462   8.378  1.00  0.00     0.029 A 
ATOM     37  N   UNL     1      -1.867  -4.842  10.379  1.00  0.00    -0.354 N 
ATOM     38  C   UNL     1      -1.151  -1.615  13.155  1.00  0.00     0.074 A 
ATOM     39  C   UNL     1      -1.655  -0.361  12.644  1.00  0.00     0.031 C 
ATOM     40  C   UNL     1      -2.473  -5.767   8.435  1.00  0.00     0.029 A 
ATOM     41  C   UNL     1      -1.834  -6.046   9.715  1.00  0.00     0.049 A 
ATOM     42  H   UNL     1      -1.530  -4.724  11.296  1.00  0.00     0.167 HD
ATOM     43  C   UNL     1      -0.531  -1.756  14.350  1.00  0.00     0.031 A 
ATOM     44  C   UNL     1      -1.326  -7.237  10.086  1.00  0.00     0.031 A 
ATOM     45  C   UNL     1      -0.076  -3.010  14.882  1.00  0.00     0.049 A 
ATOM     46  C   UNL     1      -0.663  -7.367  11.429  1.00  0.00     0.074 A 
ATOM     47  C   UNL     1       0.458  -3.270  16.131  1.00  0.00     0.029 A 
ATOM     48  N   UNL     1      -0.102  -4.212  14.195  1.00  0.00    -0.354 N 
ATOM     49  N   UNL     1      -0.484  -6.454  12.352  1.00  0.00    -0.248 NA
ATOM     50  C   UNL     1      -0.133  -8.693  11.782  1.00  0.00     0.031 C 
ATOM     51  C   UNL     1       0.799  -4.625  16.184  1.00  0.00     0.029 A 
ATOM     52  C   UNL     1       0.438  -5.213  14.983  1.00  0.00     0.049 A 
ATOM     53  H   UNL     1      -0.452  -4.336  13.284  1.00  0.00     0.167 HD
ATOM     54  C   UNL     1       0.163  -7.097  13.399  1.00  0.00     0.074 A 
ATOM     55  C   UNL     1       0.326  -8.481  13.007  1.00  0.00     0.031 C 
ATOM     56  C   UNL     1       0.589  -6.585  14.578  1.00  0.00     0.031 A 
BRANCH  43  57
ATOM     57  C   UNL     1      -0.308  -0.518  15.170  1.00  0.00    -0.014 A 
ATOM     58  C   UNL     1      -1.371   0.124  15.823  1.00  0.00     0.009 A 
ATOM     59  C   UNL     1       0.994  -0.022  15.338  1.00  0.00     0.009 A 
ATOM     60  C   UNL     1      -1.138   1.256  16.606  1.00  0.00     0.001 A 
ATOM     61  C   UNL     1       1.228   1.094  16.141  1.00  0.00     0.001 A 
ATOM     62  C   UNL     1       0.161   1.736  16.770  1.00  0.00     0.000 A 
ENDBRANCH  43  57
BRANCH  44  63
ATOM     63  C   UNL     1      -1.402  -8.406   9.171  1.00  0.00    -0.014 A 
ATOM     64  C   UNL     1      -2.250  -9.485   9.464  1.00  0.00     0.009 A 
ATOM     65  C   UNL     1      -0.605  -8.464   8.017  1.00  0.00     0.009 A 
ATOM     66  C   UNL     1      -2.274 -10.612   8.638  1.00  0.00     0.001 A 
ATOM     67  C   UNL     1      -0.652  -9.580   7.178  1.00  0.00     0.001 A 
ATOM     68  C   UNL     1      -1.478 -10.657   7.495  1.00  0.00     0.000 A 
ENDBRANCH  44  63
BRANCH  56  69
ATOM     69  C   UNL     1       1.255  -7.527  15.537  1.00  0.00    -0.014 A 
ATOM     70  C   UNL     1       2.570  -7.966  15.321  1.00  0.00     0.009 A 
ATOM     71  C   UNL     1       0.579  -7.933  16.698  1.00  0.00     0.009 A 
ATOM     72  C   UNL     1       3.188  -8.812  16.242  1.00  0.00     0.001 A 
ATOM     73  C   UNL     1       1.209  -8.759  17.628  1.00  0.00     0.001 A 
ATOM     74  C   UNL     1       2.511  -9.202  17.397  1.00  0.00     0.000 A 
ENDBRANCH  56  69
ENDBRANCH  30  31
ENDBRANCH  22  25
ENDBRANCH  20  21
ENDBRANCH   1  20
TORSDOF 12
