REMARK SMILES NS(=O)(=O)c1ccc(-n2nc(C(=O)NCCCC(=O)NCCCCNC(=O)c3ccc(-c4c5nc(c(-c6ccccc6)c6ccc([nH]6)c(-c6ccccc6)c6nc(c(-c7ccccc7)c7ccc4[nH]7)C=C6)C=C5)cc3)cc2-c2ccccc2)cc1
REMARK SMILES IDX 18 1 19 2 20 3 17 5 16 6 15 7 14 8 12 9 13 10 11 12 9 13
REMARK SMILES IDX 10 14 77 15 76 16 8 17 5 18 6 19 85 20 7 21 84 22 2 23 3 24
REMARK SMILES IDX 4 25 1 26 78 29 79 30 83 31 80 32 82 33 81 34 21 35 22 36
REMARK SMILES IDX 23 37 24 38 25 39 26 40 27 42 28 43 29 44 75 45 30 46 74 47
REMARK SMILES IDX 31 48 32 49 33 50 68 51 34 52 73 53 67 54 69 55 35 56 72 57
REMARK SMILES IDX 66 58 65 59 36 61 58 62 43 63 57 64 44 65 47 66 56 67 70 68
REMARK SMILES IDX 45 69 46 70 55 72 71 73 48 74 37 75 38 76 42 77 39 78 41 79
REMARK SMILES IDX 40 80 59 81 60 82 64 83 61 84 63 85 62 86 49 87 50 88 54 89
REMARK SMILES IDX 51 90 53 91 52 92
REMARK H PARENT 20 4 14 11 1 27 1 28 25 41 69 60 47 71
REMARK Flexibility Score: inf
ROOT
ATOM      1  C   UNL     1       4.608  -0.647 -14.011  1.00  0.00     0.220 C 
ATOM      2  O   UNL     1       4.161  -0.905 -15.130  1.00  0.00    -0.275 OA
ATOM      3  N   UNL     1       5.387  -1.585 -13.406  1.00  0.00    -0.356 N 
ATOM      4  H   UNL     1       5.586  -2.373 -13.961  1.00  0.00     0.163 HD
ENDROOT
BRANCH   1   5
ATOM      5  C   UNL     1       4.316   0.686 -13.350  1.00  0.00     0.102 C 
BRANCH   5   6
ATOM      6  C   UNL     1       3.010   0.736 -12.554  1.00  0.00     0.031 C 
BRANCH   6   7
ATOM      7  C   UNL     1       3.066   0.171 -11.139  1.00  0.00     0.116 C 
BRANCH   7   8
ATOM      8  N   UNL     1       4.120   0.726 -10.313  1.00  0.00    -0.351 N 
ATOM      9  C   UNL     1       4.381   0.545  -8.970  1.00  0.00     0.271 C 
ATOM     10  O   UNL     1       5.365   1.126  -8.511  1.00  0.00    -0.267 OA
ATOM     11  H   UNL     1       4.746   1.324 -10.783  1.00  0.00     0.163 HD
BRANCH   9  12
ATOM     12  C   UNL     1       3.492  -0.298  -8.151  1.00  0.00     0.151 A 
ATOM     13  N   UNL     1       2.409  -0.960  -6.422  1.00  0.00    -0.232 N 
ATOM     14  N   UNL     1       3.203   0.037  -6.877  1.00  0.00    -0.162 NA
ATOM     15  C   UNL     1       1.977  -1.781  -7.454  1.00  0.00     0.075 A 
ATOM     16  C   UNL     1       2.801  -1.481  -8.515  1.00  0.00     0.065 A 
BRANCH  13  17
ATOM     17  C   UNL     1       2.058  -1.062  -5.051  1.00  0.00     0.065 A 
ATOM     18  C   UNL     1       1.105  -1.289  -2.451  1.00  0.00     0.082 A 
ATOM     19  C   UNL     1       1.395  -2.445  -3.177  1.00  0.00     0.024 A 
ATOM     20  C   UNL     1       1.336  -0.020  -2.996  1.00  0.00     0.024 A 
ATOM     21  C   UNL     1       1.865  -2.331  -4.481  1.00  0.00     0.030 A 
ATOM     22  C   UNL     1       1.843   0.096  -4.295  1.00  0.00     0.030 A 
BRANCH  18  23
ATOM     23  S   UNL     1       0.478  -1.472  -0.810  1.00  0.00     0.238 S 
ATOM     24  O   UNL     1       1.024  -2.671  -0.230  1.00  0.00    -0.207 OA
ATOM     25  O   UNL     1      -0.942  -1.188  -0.833  1.00  0.00    -0.207 OA
BRANCH  23  26
ATOM     26  N   UNL     1       1.198  -0.209   0.029  1.00  0.00    -0.225 NA
ATOM     27  H   UNL     1       0.893  -0.231   1.002  1.00  0.00     0.137 HD
ATOM     28  H   UNL     1       0.926   0.678  -0.393  1.00  0.00     0.137 HD
ENDBRANCH  23  26
ENDBRANCH  18  23
ENDBRANCH  13  17
BRANCH  15  29
ATOM     29  C   UNL     1       0.795  -2.642  -7.420  1.00  0.00     0.000 A 
ATOM     30  C   UNL     1      -0.421  -2.141  -6.927  1.00  0.00     0.010 A 
ATOM     31  C   UNL     1       0.842  -3.949  -7.912  1.00  0.00     0.010 A 
ATOM     32  C   UNL     1      -1.559  -2.945  -6.888  1.00  0.00     0.001 A 
ATOM     33  C   UNL     1      -0.302  -4.751  -7.879  1.00  0.00     0.001 A 
ATOM     34  C   UNL     1      -1.498  -4.251  -7.363  1.00  0.00     0.000 A 
ENDBRANCH  15  29
ENDBRANCH   9  12
ENDBRANCH   7   8
ENDBRANCH   6   7
ENDBRANCH   5   6
ENDBRANCH   1   5
BRANCH   3  35
ATOM     35  C   UNL     1       5.973  -1.616 -12.079  1.00  0.00     0.116 C 
BRANCH  35  36
ATOM     36  C   UNL     1       5.305  -2.682 -11.201  1.00  0.00     0.023 C 
BRANCH  36  37
ATOM     37  C   UNL     1       5.721  -4.131 -11.468  1.00  0.00     0.023 C 
BRANCH  37  38
ATOM     38  C   UNL     1       7.156  -4.448 -11.081  1.00  0.00     0.116 C 
BRANCH  38  39
ATOM     39  N   UNL     1       7.401  -4.317  -9.646  1.00  0.00    -0.352 N 
ATOM     40  C   UNL     1       8.608  -4.466  -8.993  1.00  0.00     0.251 C 
ATOM     41  H   UNL     1       6.622  -4.100  -9.086  1.00  0.00     0.163 HD
ATOM     42  O   UNL     1       8.661  -4.730  -7.799  1.00  0.00    -0.269 OA
BRANCH  40  43
ATOM     43  C   UNL     1       9.842  -4.300  -9.776  1.00  0.00     0.039 A 
ATOM     44  C   UNL     1      10.883  -5.227  -9.688  1.00  0.00     0.014 A 
ATOM     45  C   UNL     1       9.906  -3.222 -10.659  1.00  0.00     0.014 A 
ATOM     46  C   UNL     1      11.953  -5.114 -10.570  1.00  0.00     0.010 A 
ATOM     47  C   UNL     1      10.898  -3.184 -11.607  1.00  0.00     0.010 A 
ATOM     48  C   UNL     1      11.940  -4.106 -11.547  1.00  0.00    -0.014 A 
BRANCH  48  49
ATOM     49  C   UNL     1      12.944  -4.095 -12.605  1.00  0.00     0.031 A 
ATOM     50  C   UNL     1      13.024  -5.347 -13.412  1.00  0.00     0.074 A 
ATOM     51  C   UNL     1      13.586  -2.971 -12.988  1.00  0.00     0.049 A 
ATOM     52  N   UNL     1      14.033  -6.145 -13.521  1.00  0.00    -0.248 NA
ATOM     53  C   UNL     1      11.811  -5.830 -14.094  1.00  0.00     0.031 C 
ATOM     54  C   UNL     1      13.381  -1.598 -12.513  1.00  0.00     0.029 A 
ATOM     55  N   UNL     1      14.475  -2.802 -14.003  1.00  0.00    -0.354 N 
ATOM     56  C   UNL     1      13.655  -7.140 -14.420  1.00  0.00     0.074 A 
ATOM     57  C   UNL     1      12.237  -6.980 -14.622  1.00  0.00     0.031 C 
ATOM     58  C   UNL     1      13.908  -0.731 -13.405  1.00  0.00     0.029 A 
ATOM     59  C   UNL     1      14.623  -1.484 -14.420  1.00  0.00     0.049 A 
ATOM     60  H   UNL     1      14.970  -3.549 -14.409  1.00  0.00     0.167 HD
ATOM     61  C   UNL     1      14.581  -7.878 -15.095  1.00  0.00     0.031 A 
ATOM     62  C   UNL     1      15.243  -1.053 -15.547  1.00  0.00     0.031 A 
ATOM     63  C   UNL     1      15.894  -7.733 -14.519  1.00  0.00     0.049 A 
ATOM     64  C   UNL     1      16.130  -2.149 -16.007  1.00  0.00     0.074 A 
ATOM     65  C   UNL     1      16.432  -7.966 -13.269  1.00  0.00     0.029 A 
ATOM     66  N   UNL     1      16.771  -6.886 -15.156  1.00  0.00    -0.354 N 
ATOM     67  N   UNL     1      17.188  -2.532 -15.351  1.00  0.00    -0.248 NA
ATOM     68  C   UNL     1      15.579  -3.129 -16.932  1.00  0.00     0.031 C 
ATOM     69  C   UNL     1      17.296  -6.856 -13.039  1.00  0.00     0.029 A 
ATOM     70  C   UNL     1      17.308  -6.071 -14.194  1.00  0.00     0.049 A 
ATOM     71  H   UNL     1      16.975  -6.868 -16.119  1.00  0.00     0.167 HD
ATOM     72  C   UNL     1      17.160  -3.917 -15.422  1.00  0.00     0.074 A 
ATOM     73  C   UNL     1      16.205  -4.224 -16.488  1.00  0.00     0.031 C 
ATOM     74  C   UNL     1      17.676  -4.692 -14.421  1.00  0.00     0.031 A 
BRANCH  61  75
ATOM     75  C   UNL     1      14.394  -8.402 -16.498  1.00  0.00    -0.014 A 
ATOM     76  C   UNL     1      15.434  -9.152 -17.080  1.00  0.00     0.009 A 
ATOM     77  C   UNL     1      13.383  -7.947 -17.364  1.00  0.00     0.009 A 
ATOM     78  C   UNL     1      15.506  -9.350 -18.464  1.00  0.00     0.001 A 
ATOM     79  C   UNL     1      13.430  -8.179 -18.742  1.00  0.00     0.001 A 
ATOM     80  C   UNL     1      14.509  -8.853 -19.296  1.00  0.00     0.000 A 
ENDBRANCH  61  75
BRANCH  62  81
ATOM     81  C   UNL     1      14.928   0.124 -16.389  1.00  0.00    -0.014 A 
ATOM     82  C   UNL     1      15.822   0.561 -17.380  1.00  0.00     0.009 A 
ATOM     83  C   UNL     1      13.630   0.669 -16.401  1.00  0.00     0.009 A 
ATOM     84  C   UNL     1      15.418   1.472 -18.368  1.00  0.00     0.001 A 
ATOM     85  C   UNL     1      13.229   1.583 -17.382  1.00  0.00     0.001 A 
ATOM     86  C   UNL     1      14.119   1.972 -18.377  1.00  0.00     0.000 A 
ENDBRANCH  62  81
BRANCH  74  87
ATOM     87  C   UNL     1      18.466  -4.026 -13.320  1.00  0.00    -0.014 A 
ATOM     88  C   UNL     1      17.944  -3.013 -12.496  1.00  0.00     0.009 A 
ATOM     89  C   UNL     1      19.713  -4.574 -12.982  1.00  0.00     0.009 A 
ATOM     90  C   UNL     1      18.660  -2.548 -11.387  1.00  0.00     0.001 A 
ATOM     91  C   UNL     1      20.417  -4.128 -11.862  1.00  0.00     0.001 A 
ATOM     92  C   UNL     1      19.893  -3.112 -11.067  1.00  0.00     0.000 A 
ENDBRANCH  74  87
ENDBRANCH  48  49
ENDBRANCH  40  43
ENDBRANCH  38  39
ENDBRANCH  37  38
ENDBRANCH  36  37
ENDBRANCH  35  36
ENDBRANCH   3  35
TORSDOF 19
