REMARK SMILES Cc1ccc([C@@H](CC(=O)NCCCCNC(=O)c2ccc(-c3c4nc(c(-c5ccccc5)c5ccc([nH]5)c(-c5ccccc5)c5nc(c(-c6ccccc6)c6ccc3[nH]6)C=C5)C=C4)cc2)NC(=O)c2ccc(OC(F)F)cc2)cc1
REMARK SMILES IDX 11 1 10 2 8 3 9 4 7 6 6 7 5 8 1 9 2 10 3 11 80 12 4 13 79 14
REMARK SMILES IDX 66 15 67 16 68 18 69 19 70 20 78 21 71 22 77 23 72 24 73 25
REMARK SMILES IDX 74 26 75 27 76 28 12 29 13 30 14 31 15 32 16 33 17 35 18 36
REMARK SMILES IDX 19 37 65 38 20 39 64 40 21 41 22 42 23 43 58 44 24 45 63 46
REMARK SMILES IDX 57 47 59 48 25 49 62 50 56 51 55 52 26 54 48 55 33 56 47 57
REMARK SMILES IDX 34 58 37 59 46 60 60 61 35 62 36 63 45 65 61 66 38 67 27 68
REMARK SMILES IDX 28 69 32 70 29 71 31 72 30 73 49 74 50 75 54 76 51 77 53 78
REMARK SMILES IDX 52 79 39 80 40 81 44 82 41 83 43 84 42 85
REMARK H PARENT 10 5 66 17 15 34 59 53 37 64
REMARK Flexibility Score: inf
ROOT
ATOM      1  C   UNL     1      -0.914  -2.658  -0.945  1.00  0.00     0.116 C 
ENDROOT
BRANCH   1   2
ATOM      2  N   UNL     1      -2.344  -2.819  -1.182  1.00  0.00    -0.356 N 
ATOM      3  C   UNL     1      -3.377  -1.933  -1.202  1.00  0.00     0.222 C 
ATOM      4  O   UNL     1      -4.521  -2.397  -1.251  1.00  0.00    -0.275 OA
ATOM      5  H   UNL     1      -2.614  -3.748  -1.362  1.00  0.00     0.163 HD
BRANCH   3   6
ATOM      6  C   UNL     1      -3.168  -0.435  -1.249  1.00  0.00     0.129 C 
BRANCH   6   7
ATOM      7  C   UNL     1      -3.180   0.341   0.089  1.00  0.00     0.122 C 
BRANCH   7   8
ATOM      8  C   UNL     1      -1.758   0.794   0.420  1.00  0.00    -0.025 A 
ATOM      9  C   UNL     1       2.507   1.434   0.483  1.00  0.00     0.044 C 
ATOM     10  C   UNL     1       1.014   1.318   0.563  1.00  0.00    -0.051 A 
ATOM     11  C   UNL     1       0.423   0.381   1.409  1.00  0.00     0.004 A 
ATOM     12  C   UNL     1       0.196   2.080  -0.273  1.00  0.00     0.004 A 
ATOM     13  C   UNL     1      -0.954   0.142   1.359  1.00  0.00     0.006 A 
ATOM     14  C   UNL     1      -1.176   1.824  -0.341  1.00  0.00     0.006 A 
ENDBRANCH   7   8
BRANCH   7  15
ATOM     15  N   UNL     1      -3.824  -0.362   1.196  1.00  0.00    -0.345 N 
ATOM     16  C   UNL     1      -4.939  -0.027   1.921  1.00  0.00     0.251 C 
ATOM     17  H   UNL     1      -3.391  -1.205   1.462  1.00  0.00     0.164 HD
ATOM     18  O   UNL     1      -5.096  -0.507   3.042  1.00  0.00    -0.269 OA
BRANCH  16  19
ATOM     19  C   UNL     1      -5.972   0.876   1.367  1.00  0.00     0.040 A 
ATOM     20  C   UNL     1      -6.596   1.803   2.207  1.00  0.00     0.017 A 
ATOM     21  C   UNL     1      -6.424   0.723   0.054  1.00  0.00     0.017 A 
ATOM     22  C   UNL     1      -7.629   2.606   1.712  1.00  0.00     0.047 A 
ATOM     23  C   UNL     1      -7.446   1.540  -0.441  1.00  0.00     0.047 A 
ATOM     24  C   UNL     1      -8.052   2.490   0.383  1.00  0.00     0.126 A 
BRANCH  24  25
ATOM     25  O   UNL     1      -9.068   3.331   0.029  1.00  0.00    -0.435 OA
BRANCH  25  26
ATOM     26  C   UNL     1      -9.469   3.361  -1.335  1.00  0.00     0.542 C 
ATOM     27  F   UNL     1      -8.410   3.670  -2.123  1.00  0.00    -0.167 F 
ATOM     28  F   UNL     1      -9.939   2.147  -1.711  1.00  0.00    -0.167 F 
ENDBRANCH  25  26
ENDBRANCH  24  25
ENDBRANCH  16  19
ENDBRANCH   7  15
ENDBRANCH   6   7
ENDBRANCH   3   6
ENDBRANCH   1   2
BRANCH   1  29
ATOM     29  C   UNL     1      -0.553  -3.070   0.490  1.00  0.00     0.023 C 
BRANCH  29  30
ATOM     30  C   UNL     1       0.411  -4.237   0.732  1.00  0.00     0.023 C 
BRANCH  30  31
ATOM     31  C   UNL     1       1.819  -4.158   0.146  1.00  0.00     0.116 C 
BRANCH  31  32
ATOM     32  N   UNL     1       2.562  -2.923   0.439  1.00  0.00    -0.352 N 
ATOM     33  C   UNL     1       3.643  -2.391  -0.253  1.00  0.00     0.251 C 
ATOM     34  H   UNL     1       2.255  -2.409   1.221  1.00  0.00     0.163 HD
ATOM     35  O   UNL     1       4.421  -1.598   0.278  1.00  0.00    -0.269 OA
BRANCH  33  36
ATOM     36  C   UNL     1       3.814  -2.747  -1.671  1.00  0.00     0.039 A 
ATOM     37  C   UNL     1       5.047  -2.898  -2.323  1.00  0.00     0.014 A 
ATOM     38  C   UNL     1       2.633  -2.906  -2.373  1.00  0.00     0.014 A 
ATOM     39  C   UNL     1       5.061  -3.238  -3.683  1.00  0.00     0.010 A 
ATOM     40  C   UNL     1       2.647  -3.510  -3.588  1.00  0.00     0.010 A 
ATOM     41  C   UNL     1       3.845  -3.532  -4.302  1.00  0.00    -0.014 A 
BRANCH  41  42
ATOM     42  C   UNL     1       3.573  -3.633  -5.727  1.00  0.00     0.031 A 
ATOM     43  C   UNL     1       3.765  -4.860  -6.493  1.00  0.00     0.074 A 
ATOM     44  C   UNL     1       2.752  -2.655  -6.178  1.00  0.00     0.049 A 
ATOM     45  N   UNL     1       3.649  -4.915  -7.773  1.00  0.00    -0.248 NA
ATOM     46  C   UNL     1       4.087  -6.140  -5.880  1.00  0.00     0.031 C 
ATOM     47  C   UNL     1       1.797  -2.653  -7.274  1.00  0.00     0.029 A 
ATOM     48  N   UNL     1       2.620  -1.383  -5.648  1.00  0.00    -0.354 N 
ATOM     49  C   UNL     1       3.524  -6.241  -8.108  1.00  0.00     0.074 A 
ATOM     50  C   UNL     1       3.935  -6.964  -6.924  1.00  0.00     0.031 C 
ATOM     51  C   UNL     1       1.376  -1.386  -7.472  1.00  0.00     0.029 A 
ATOM     52  C   UNL     1       2.196  -0.513  -6.642  1.00  0.00     0.049 A 
ATOM     53  H   UNL     1       2.800  -1.135  -4.713  1.00  0.00     0.167 HD
ATOM     54  C   UNL     1       2.937  -6.567  -9.296  1.00  0.00     0.031 A 
ATOM     55  C   UNL     1       3.128   0.385  -7.098  1.00  0.00     0.031 A 
ATOM     56  C   UNL     1       2.531  -5.369 -10.046  1.00  0.00     0.049 A 
ATOM     57  C   UNL     1       3.641   0.035  -8.487  1.00  0.00     0.074 A 
ATOM     58  C   UNL     1       1.318  -4.745 -10.296  1.00  0.00     0.029 A 
ATOM     59  N   UNL     1       3.504  -4.444 -10.389  1.00  0.00    -0.354 N 
ATOM     60  N   UNL     1       3.242  -0.994  -9.184  1.00  0.00    -0.248 NA
ATOM     61  C   UNL     1       4.703   0.776  -9.166  1.00  0.00     0.031 C 
ATOM     62  C   UNL     1       1.588  -3.417 -10.756  1.00  0.00     0.029 A 
ATOM     63  C   UNL     1       2.959  -3.249 -10.820  1.00  0.00     0.049 A 
ATOM     64  H   UNL     1       4.471  -4.618 -10.333  1.00  0.00     0.167 HD
ATOM     65  C   UNL     1       3.995  -1.116 -10.313  1.00  0.00     0.074 A 
ATOM     66  C   UNL     1       4.887   0.031 -10.271  1.00  0.00     0.031 C 
ATOM     67  C   UNL     1       3.869  -2.167 -11.176  1.00  0.00     0.031 A 
BRANCH  54  68
ATOM     68  C   UNL     1       2.531  -7.968  -9.690  1.00  0.00    -0.014 A 
ATOM     69  C   UNL     1       1.569  -8.157 -10.700  1.00  0.00     0.009 A 
ATOM     70  C   UNL     1       3.054  -9.140  -9.117  1.00  0.00     0.009 A 
ATOM     71  C   UNL     1       1.110  -9.432 -11.063  1.00  0.00     0.001 A 
ATOM     72  C   UNL     1       2.576 -10.417  -9.449  1.00  0.00     0.001 A 
ATOM     73  C   UNL     1       1.599 -10.562 -10.422  1.00  0.00     0.000 A 
ENDBRANCH  54  68
BRANCH  55  74
ATOM     74  C   UNL     1       3.982   0.902  -5.965  1.00  0.00    -0.014 A 
ATOM     75  C   UNL     1       3.335   1.633  -4.942  1.00  0.00     0.009 A 
ATOM     76  C   UNL     1       5.214   0.295  -5.662  1.00  0.00     0.009 A 
ATOM     77  C   UNL     1       3.820   1.618  -3.628  1.00  0.00     0.001 A 
ATOM     78  C   UNL     1       5.704   0.301  -4.346  1.00  0.00     0.001 A 
ATOM     79  C   UNL     1       4.986   0.923  -3.325  1.00  0.00     0.000 A 
ENDBRANCH  55  74
BRANCH  67  80
ATOM     80  C   UNL     1       4.669  -2.267 -12.442  1.00  0.00    -0.014 A 
ATOM     81  C   UNL     1       4.887  -1.157 -13.268  1.00  0.00     0.009 A 
ATOM     82  C   UNL     1       5.130  -3.515 -12.905  1.00  0.00     0.009 A 
ATOM     83  C   UNL     1       5.607  -1.276 -14.461  1.00  0.00     0.001 A 
ATOM     84  C   UNL     1       5.824  -3.643 -14.108  1.00  0.00     0.001 A 
ATOM     85  C   UNL     1       6.078  -2.518 -14.878  1.00  0.00     0.000 A 
ENDBRANCH  67  80
ENDBRANCH  41  42
ENDBRANCH  33  36
ENDBRANCH  31  32
ENDBRANCH  30  31
ENDBRANCH  29  30
ENDBRANCH   1  29
TORSDOF 17
