REMARK SMILES C[C@@H]1CCCN(C(=O)NC2(CC(=O)NCCCCNC(=O)c3ccc(-c4c5nc(c(-c6ccccc6)c6ccc([nH]6)c(-c6ccccc6)c6nc(c(-c7ccccc7)c7ccc4[nH]7)C=C6)C=C5)cc3)CCC2)[C@@H]1C
REMARK SMILES IDX 16 1 15 2 14 3 12 4 13 5 11 7 10 8 70 9 72 10 71 11 9 12
REMARK SMILES IDX 7 13 8 14 6 16 1 17 2 18 3 19 73 20 4 21 74 22 5 23 17 24
REMARK SMILES IDX 18 25 19 26 20 27 21 29 22 30 23 31 69 32 24 33 68 34 25 35
REMARK SMILES IDX 26 36 27 37 62 38 28 39 67 40 61 41 63 42 29 43 66 44 60 45
REMARK SMILES IDX 59 46 30 48 52 49 37 50 51 51 38 52 41 53 50 54 64 55 39 56
REMARK SMILES IDX 40 57 49 59 65 60 42 61 31 62 32 63 36 64 33 65 35 66 34 67
REMARK SMILES IDX 53 68 54 69 58 70 55 71 57 72 56 73 43 74 44 75 48 76 45 77
REMARK SMILES IDX 47 78 46 79
REMARK H PARENT 14 6 9 15 19 28 63 47 41 58
REMARK Flexibility Score: inf
ROOT
ATOM      1  C   UNL     1       0.976   7.702  -3.018  1.00  0.00     0.023 C 
ENDROOT
BRANCH   1   2
ATOM      2  C   UNL     1       1.035   7.295  -4.493  1.00  0.00     0.116 C 
BRANCH   2   3
ATOM      3  N   UNL     1       2.170   6.430  -4.720  1.00  0.00    -0.356 N 
ATOM      4  C   UNL     1       2.251   5.085  -4.541  1.00  0.00     0.222 C 
ATOM      5  O   UNL     1       3.369   4.572  -4.476  1.00  0.00    -0.275 OA
ATOM      6  H   UNL     1       2.989   6.871  -5.044  1.00  0.00     0.163 HD
BRANCH   4   7
ATOM      7  C   UNL     1       1.007   4.227  -4.442  1.00  0.00     0.128 C 
BRANCH   7   8
ATOM      8  C   UNL     1       0.456   3.904  -3.026  1.00  0.00     0.051 C 
ATOM      9  C   UNL     1      -0.630   2.812  -3.160  1.00  0.00     0.029 C 
ATOM     10  C   UNL     1      -0.633   4.899  -2.564  1.00  0.00     0.029 C 
ATOM     11  C   UNL     1      -1.718   3.862  -2.896  1.00  0.00     0.005 C 
BRANCH   8  12
ATOM     12  N   UNL     1       1.575   3.596  -2.103  1.00  0.00    -0.332 N 
ATOM     13  C   UNL     1       1.897   3.052  -0.911  1.00  0.00     0.318 C 
ATOM     14  O   UNL     1       3.119   2.887  -0.815  1.00  0.00    -0.249 OA
ATOM     15  H   UNL     1       2.408   3.910  -2.525  1.00  0.00     0.165 HD
BRANCH  13  16
ATOM     16  N   UNL     1       1.048   2.712   0.101  1.00  0.00    -0.322 N 
ATOM     17  C   UNL     1       1.293  -0.337   0.268  1.00  0.00     0.010 C 
ATOM     18  C   UNL     1       0.858   0.599   1.402  1.00  0.00     0.008 C 
ATOM     19  C   UNL     1      -0.673   0.767   1.430  1.00  0.00     0.007 C 
ATOM     20  C   UNL     1       1.529   1.996   1.319  1.00  0.00     0.086 C 
ATOM     21  C   UNL     1      -1.178   1.650   0.294  1.00  0.00     0.022 C 
ATOM     22  C   UNL     1       3.029   1.925   1.623  1.00  0.00     0.031 C 
ATOM     23  C   UNL     1      -0.382   2.951   0.192  1.00  0.00     0.121 C 
ENDBRANCH  13  16
ENDBRANCH   8  12
ENDBRANCH   7   8
ENDBRANCH   4   7
ENDBRANCH   2   3
ENDBRANCH   1   2
BRANCH   1  24
ATOM     24  C   UNL     1       1.833   8.913  -2.663  1.00  0.00     0.023 C 
BRANCH  24  25
ATOM     25  C   UNL     1       1.356  10.211  -3.297  1.00  0.00     0.116 C 
BRANCH  25  26
ATOM     26  N   UNL     1      -0.010  10.569  -2.943  1.00  0.00    -0.352 N 
ATOM     27  C   UNL     1      -0.572  11.826  -2.929  1.00  0.00     0.251 C 
ATOM     28  H   UNL     1      -0.602   9.826  -2.684  1.00  0.00     0.163 HD
ATOM     29  O   UNL     1      -1.713  12.008  -2.538  1.00  0.00    -0.269 OA
BRANCH  27  30
ATOM     30  C   UNL     1       0.272  12.961  -3.350  1.00  0.00     0.039 A 
ATOM     31  C   UNL     1       0.463  14.022  -2.464  1.00  0.00     0.014 A 
ATOM     32  C   UNL     1       0.952  12.912  -4.569  1.00  0.00     0.014 A 
ATOM     33  C   UNL     1       1.402  15.006  -2.771  1.00  0.00     0.010 A 
ATOM     34  C   UNL     1       1.944  13.846  -4.832  1.00  0.00     0.010 A 
ATOM     35  C   UNL     1       2.177  14.901  -3.937  1.00  0.00    -0.014 A 
BRANCH  35  36
ATOM     36  C   UNL     1       3.232  15.892  -4.257  1.00  0.00     0.031 A 
ATOM     37  C   UNL     1       3.102  16.737  -5.492  1.00  0.00     0.074 A 
ATOM     38  C   UNL     1       4.335  15.972  -3.489  1.00  0.00     0.049 A 
ATOM     39  N   UNL     1       3.956  17.583  -6.008  1.00  0.00    -0.248 NA
ATOM     40  C   UNL     1       1.860  16.586  -6.270  1.00  0.00     0.031 C 
ATOM     41  C   UNL     1       4.600  15.173  -2.290  1.00  0.00     0.029 A 
ATOM     42  N   UNL     1       5.449  16.762  -3.613  1.00  0.00    -0.354 N 
ATOM     43  C   UNL     1       3.369  18.040  -7.180  1.00  0.00     0.074 A 
ATOM     44  C   UNL     1       2.111  17.344  -7.327  1.00  0.00     0.031 C 
ATOM     45  C   UNL     1       5.786  15.535  -1.774  1.00  0.00     0.029 A 
ATOM     46  C   UNL     1       6.382  16.560  -2.624  1.00  0.00     0.049 A 
ATOM     47  H   UNL     1       5.570  17.414  -4.341  1.00  0.00     0.167 HD
ATOM     48  C   UNL     1       3.825  18.974  -8.046  1.00  0.00     0.031 A 
ATOM     49  C   UNL     1       7.583  17.136  -2.429  1.00  0.00     0.031 A 
ATOM     50  C   UNL     1       5.060  19.689  -7.883  1.00  0.00     0.049 A 
ATOM     51  C   UNL     1       8.059  18.182  -3.398  1.00  0.00     0.074 A 
ATOM     52  C   UNL     1       5.585  20.695  -8.675  1.00  0.00     0.029 A 
ATOM     53  N   UNL     1       5.959  19.478  -6.850  1.00  0.00    -0.354 N 
ATOM     54  N   UNL     1       7.466  18.644  -4.472  1.00  0.00    -0.248 NA
ATOM     55  C   UNL     1       9.367  18.793  -3.120  1.00  0.00     0.031 C 
ATOM     56  C   UNL     1       6.820  21.072  -8.137  1.00  0.00     0.029 A 
ATOM     57  C   UNL     1       7.041  20.329  -6.987  1.00  0.00     0.049 A 
ATOM     58  H   UNL     1       5.845  18.821  -6.126  1.00  0.00     0.167 HD
ATOM     59  C   UNL     1       8.312  19.622  -4.980  1.00  0.00     0.074 A 
ATOM     60  C   UNL     1       9.453  19.693  -4.090  1.00  0.00     0.031 C 
ATOM     61  C   UNL     1       8.158  20.392  -6.083  1.00  0.00     0.031 A 
BRANCH  48  62
ATOM     62  C   UNL     1       2.972  19.276  -9.245  1.00  0.00    -0.014 A 
ATOM     63  C   UNL     1       1.756  19.967  -9.114  1.00  0.00     0.009 A 
ATOM     64  C   UNL     1       3.398  18.884 -10.523  1.00  0.00     0.009 A 
ATOM     65  C   UNL     1       0.967  20.227 -10.236  1.00  0.00     0.001 A 
ATOM     66  C   UNL     1       2.620  19.170 -11.646  1.00  0.00     0.001 A 
ATOM     67  C   UNL     1       1.401  19.832 -11.500  1.00  0.00     0.000 A 
ENDBRANCH  48  62
BRANCH  49  68
ATOM     68  C   UNL     1       8.413  16.758  -1.257  1.00  0.00    -0.014 A 
ATOM     69  C   UNL     1       8.577  17.653  -0.188  1.00  0.00     0.009 A 
ATOM     70  C   UNL     1       9.058  15.514  -1.205  1.00  0.00     0.009 A 
ATOM     71  C   UNL     1       9.395  17.322   0.895  1.00  0.00     0.001 A 
ATOM     72  C   UNL     1       9.854  15.174  -0.108  1.00  0.00     0.001 A 
ATOM     73  C   UNL     1      10.030  16.082   0.935  1.00  0.00     0.000 A 
ENDBRANCH  49  68
BRANCH  61  74
ATOM     74  C   UNL     1       9.224  21.411  -6.363  1.00  0.00    -0.014 A 
ATOM     75  C   UNL     1      10.476  21.033  -6.870  1.00  0.00     0.009 A 
ATOM     76  C   UNL     1       8.949  22.773  -6.163  1.00  0.00     0.009 A 
ATOM     77  C   UNL     1      11.444  22.001  -7.145  1.00  0.00     0.001 A 
ATOM     78  C   UNL     1       9.909  23.739  -6.464  1.00  0.00     0.001 A 
ATOM     79  C   UNL     1      11.158  23.352  -6.947  1.00  0.00     0.000 A 
ENDBRANCH  61  74
ENDBRANCH  35  36
ENDBRANCH  27  30
ENDBRANCH  25  26
ENDBRANCH  24  25
ENDBRANCH   1  24
TORSDOF 14
