REMARK SMILES CCOc1ccc(C(=O)N2CCC(C(=O)NCCCCNC(=O)c3ccc(-c4c5nc(c(-c6ccccc6)c6ccc([nH]6)c(-c6ccccc6)c6nc(c(-c7ccccc7)c7ccc4[nH]7)C=C6)C=C5)cc3)(c3ccccc3)CC2)cc1OC
REMARK SMILES IDX 18 1 17 2 16 3 14 4 15 5 13 7 8 8 9 9 10 10 11 11 79 12
REMARK SMILES IDX 12 13 78 14 7 15 4 16 5 17 81 18 6 19 80 20 3 21 2 22 1 23
REMARK SMILES IDX 82 24 83 25 72 26 73 27 77 28 74 29 76 30 75 31 19 32 20 33
REMARK SMILES IDX 21 34 22 35 23 37 24 38 25 39 71 40 26 41 70 42 27 43 28 44
REMARK SMILES IDX 29 45 64 46 30 47 69 48 63 49 65 50 31 51 68 52 62 53 61 54
REMARK SMILES IDX 32 56 54 57 39 58 53 59 40 60 43 61 52 62 66 63 41 64 42 65
REMARK SMILES IDX 51 67 67 68 44 69 33 70 34 71 38 72 35 73 37 74 36 75 55 76
REMARK SMILES IDX 56 77 60 78 57 79 59 80 58 81 45 82 46 83 50 84 47 85 49 86
REMARK SMILES IDX 48 87
REMARK H PARENT 16 6 21 36 65 55 43 66
REMARK Flexibility Score: inf
ROOT
ATOM      1  C   UNL     1      11.056  -3.617  -3.919  1.00  0.00     0.023 C 
ENDROOT
BRANCH   1   2
ATOM      2  C   UNL     1      10.278  -4.075  -2.688  1.00  0.00     0.116 C 
BRANCH   2   3
ATOM      3  N   UNL     1      11.091  -4.010  -1.481  1.00  0.00    -0.355 N 
ATOM      4  C   UNL     1      10.989  -3.269  -0.332  1.00  0.00     0.230 C 
ATOM      5  O   UNL     1      11.948  -3.411   0.428  1.00  0.00    -0.274 OA
ATOM      6  H   UNL     1      11.866  -4.616  -1.494  1.00  0.00     0.163 HD
BRANCH   4   7
ATOM      7  C   UNL     1       9.753  -2.340  -0.058  1.00  0.00     0.077 C 
ATOM      8  C   UNL     1       6.466  -1.535  -2.800  1.00  0.00     0.253 C 
ATOM      9  O   UNL     1       6.806  -1.268  -3.954  1.00  0.00    -0.269 OA
ATOM     10  N   UNL     1       7.426  -1.760  -1.797  1.00  0.00    -0.339 N 
ATOM     11  C   UNL     1       8.490  -0.773  -1.741  1.00  0.00     0.121 C 
ATOM     12  C   UNL     1       7.240  -2.635  -0.641  1.00  0.00     0.121 C 
ATOM     13  C   UNL     1       9.812  -1.249  -1.164  1.00  0.00     0.043 C 
ATOM     14  C   UNL     1       8.512  -3.278  -0.120  1.00  0.00     0.043 C 
BRANCH   8  15
ATOM     15  C   UNL     1       5.006  -1.456  -2.465  1.00  0.00     0.043 A 
ATOM     16  C   UNL     1       2.273  -1.072  -1.845  1.00  0.00     0.161 A 
ATOM     17  C   UNL     1       2.700  -1.167  -3.180  1.00  0.00     0.051 A 
ATOM     18  C   UNL     1       3.204  -1.200  -0.819  1.00  0.00     0.161 A 
ATOM     19  C   UNL     1       4.055  -1.371  -3.488  1.00  0.00     0.018 A 
ATOM     20  C   UNL     1       4.554  -1.310  -1.155  1.00  0.00     0.064 A 
BRANCH  16  21
ATOM     21  O   UNL     1       0.945  -0.914  -1.573  1.00  0.00    -0.490 OA
BRANCH  21  22
ATOM     22  C   UNL     1       0.441   0.376  -1.942  1.00  0.00     0.226 C 
ATOM     23  C   UNL     1      -0.187   1.020  -0.716  1.00  0.00     0.049 C 
ENDBRANCH  21  22
ENDBRANCH  16  21
BRANCH  18  24
ATOM     24  O   UNL     1       3.042  -1.232   0.534  1.00  0.00    -0.493 OA
ATOM     25  C   UNL     1       1.753  -1.160   1.104  1.00  0.00     0.278 C 
ENDBRANCH  18  24
ENDBRANCH   8  15
BRANCH   7  26
ATOM     26  C   UNL     1       9.712  -1.606   1.333  1.00  0.00    -0.032 A 
ATOM     27  C   UNL     1      10.629  -1.825   2.373  1.00  0.00     0.005 A 
ATOM     28  C   UNL     1       8.690  -0.668   1.614  1.00  0.00     0.005 A 
ATOM     29  C   UNL     1      10.540  -1.149   3.600  1.00  0.00     0.000 A 
ATOM     30  C   UNL     1       8.585  -0.005   2.843  1.00  0.00     0.000 A 
ATOM     31  C   UNL     1       9.516  -0.244   3.839  1.00  0.00     0.000 A 
ENDBRANCH   7  26
ENDBRANCH   4   7
ENDBRANCH   2   3
ENDBRANCH   1   2
BRANCH   1  32
ATOM     32  C   UNL     1      12.268  -4.481  -4.259  1.00  0.00     0.023 C 
BRANCH  32  33
ATOM     33  C   UNL     1      11.973  -5.968  -4.408  1.00  0.00     0.116 C 
BRANCH  33  34
ATOM     34  N   UNL     1      10.973  -6.246  -5.426  1.00  0.00    -0.352 N 
ATOM     35  C   UNL     1      11.018  -7.147  -6.464  1.00  0.00     0.251 C 
ATOM     36  H   UNL     1      10.146  -5.714  -5.363  1.00  0.00     0.163 HD
ATOM     37  O   UNL     1      10.147  -7.158  -7.318  1.00  0.00    -0.269 OA
BRANCH  35  38
ATOM     38  C   UNL     1      12.157  -8.085  -6.554  1.00  0.00     0.039 A 
ATOM     39  C   UNL     1      12.815  -8.228  -7.777  1.00  0.00     0.014 A 
ATOM     40  C   UNL     1      12.589  -8.794  -5.430  1.00  0.00     0.014 A 
ATOM     41  C   UNL     1      13.952  -9.033  -7.856  1.00  0.00     0.010 A 
ATOM     42  C   UNL     1      13.768  -9.528  -5.491  1.00  0.00     0.010 A 
ATOM     43  C   UNL     1      14.460  -9.658  -6.705  1.00  0.00    -0.014 A 
BRANCH  43  44
ATOM     44  C   UNL     1      15.716 -10.446  -6.750  1.00  0.00     0.031 A 
ATOM     45  C   UNL     1      15.696 -11.917  -6.439  1.00  0.00     0.074 A 
ATOM     46  C   UNL     1      16.884  -9.825  -7.003  1.00  0.00     0.049 A 
ATOM     47  N   UNL     1      16.695 -12.760  -6.373  1.00  0.00    -0.248 NA
ATOM     48  C   UNL     1      14.385 -12.514  -6.137  1.00  0.00     0.031 C 
ATOM     49  C   UNL     1      17.045  -8.395  -7.273  1.00  0.00     0.029 A 
ATOM     50  N   UNL     1      18.163 -10.320  -7.065  1.00  0.00    -0.354 N 
ATOM     51  C   UNL     1      16.137 -13.977  -6.003  1.00  0.00     0.074 A 
ATOM     52  C   UNL     1      14.722 -13.753  -5.809  1.00  0.00     0.031 C 
ATOM     53  C   UNL     1      18.342  -8.133  -7.497  1.00  0.00     0.029 A 
ATOM     54  C   UNL     1      19.110  -9.364  -7.346  1.00  0.00     0.049 A 
ATOM     55  H   UNL     1      18.381 -11.269  -6.922  1.00  0.00     0.167 HD
ATOM     56  C   UNL     1      16.744 -15.178  -5.856  1.00  0.00     0.031 A 
ATOM     57  C   UNL     1      20.447  -9.466  -7.460  1.00  0.00     0.031 A 
ATOM     58  C   UNL     1      18.150 -15.403  -6.058  1.00  0.00     0.049 A 
ATOM     59  C   UNL     1      21.099 -10.809  -7.284  1.00  0.00     0.074 A 
ATOM     60  C   UNL     1      18.850 -16.595  -5.997  1.00  0.00     0.029 A 
ATOM     61  N   UNL     1      19.073 -14.411  -6.354  1.00  0.00    -0.354 N 
ATOM     62  N   UNL     1      20.546 -11.966  -7.013  1.00  0.00    -0.248 NA
ATOM     63  C   UNL     1      22.559 -10.861  -7.443  1.00  0.00     0.031 C 
ATOM     64  C   UNL     1      20.205 -16.317  -6.199  1.00  0.00     0.029 A 
ATOM     65  C   UNL     1      20.341 -14.960  -6.450  1.00  0.00     0.049 A 
ATOM     66  H   UNL     1      18.859 -13.458  -6.478  1.00  0.00     0.167 HD
ATOM     67  C   UNL     1      21.585 -12.888  -6.996  1.00  0.00     0.074 A 
ATOM     68  C   UNL     1      22.798 -12.157  -7.301  1.00  0.00     0.031 C 
ATOM     69  C   UNL     1      21.539 -14.220  -6.751  1.00  0.00     0.031 A 
BRANCH  56  70
ATOM     70  C   UNL     1      15.885 -16.342  -5.442  1.00  0.00    -0.014 A 
ATOM     71  C   UNL     1      14.923 -16.885  -6.309  1.00  0.00     0.009 A 
ATOM     72  C   UNL     1      16.062 -16.924  -4.177  1.00  0.00     0.009 A 
ATOM     73  C   UNL     1      14.129 -17.959  -5.902  1.00  0.00     0.001 A 
ATOM     74  C   UNL     1      15.289 -18.018  -3.785  1.00  0.00     0.001 A 
ATOM     75  C   UNL     1      14.316 -18.527  -4.643  1.00  0.00     0.000 A 
ENDBRANCH  56  70
BRANCH  57  76
ATOM     76  C   UNL     1      21.261  -8.260  -7.768  1.00  0.00    -0.014 A 
ATOM     77  C   UNL     1      21.885  -8.119  -9.017  1.00  0.00     0.009 A 
ATOM     78  C   UNL     1      21.419  -7.244  -6.812  1.00  0.00     0.009 A 
ATOM     79  C   UNL     1      22.672  -6.999  -9.293  1.00  0.00     0.001 A 
ATOM     80  C   UNL     1      22.182  -6.110  -7.102  1.00  0.00     0.001 A 
ATOM     81  C   UNL     1      22.816  -5.993  -8.338  1.00  0.00     0.000 A 
ENDBRANCH  57  76
BRANCH  69  82
ATOM     82  C   UNL     1      22.832 -14.982  -6.838  1.00  0.00    -0.014 A 
ATOM     83  C   UNL     1      23.832 -14.840  -5.863  1.00  0.00     0.009 A 
ATOM     84  C   UNL     1      23.032 -15.889  -7.891  1.00  0.00     0.009 A 
ATOM     85  C   UNL     1      25.020 -15.566  -5.961  1.00  0.00     0.001 A 
ATOM     86  C   UNL     1      24.207 -16.637  -7.968  1.00  0.00     0.001 A 
ATOM     87  C   UNL     1      25.204 -16.468  -7.010  1.00  0.00     0.000 A 
ENDBRANCH  69  82
ENDBRANCH  43  44
ENDBRANCH  35  38
ENDBRANCH  33  34
ENDBRANCH  32  33
ENDBRANCH   1  32
TORSDOF 16
