REMARK SMILES C[C@]12C(=O)N(c3ccc(C(=O)NCCCCNC(=O)c4ccc(-c5c6nc(c(-c7ccccc7)c7ccc([nH]7)c(-c7ccccc7)c7nc(c(-c8ccccc8)c8ccc5[nH]8)C=C7)C=C6)cc4)cc3)C(=O)[C@H]1[C@H]1c3ccccc3[C@@H]2c2ccccc21
REMARK SMILES IDX 15 1 14 2 13 3 12 4 10 5 11 6 9 8 6 9 7 10 69 11 8 12 68 13
REMARK SMILES IDX 5 14 1 15 2 16 3 17 72 18 80 19 4 20 70 21 73 22 79 23 81 24
REMARK SMILES IDX 71 25 74 26 86 27 78 28 82 29 75 30 85 31 77 32 83 33 76 34
REMARK SMILES IDX 84 35 16 36 17 37 18 38 19 40 20 41 21 42 67 43 22 44 66 45
REMARK SMILES IDX 23 46 24 47 25 48 60 49 26 50 65 51 59 52 61 53 27 54 64 55
REMARK SMILES IDX 58 56 57 57 28 59 50 60 35 61 49 62 36 63 39 64 48 65 62 66
REMARK SMILES IDX 37 67 38 68 47 70 63 71 40 72 29 73 30 74 34 75 31 76 33 77
REMARK SMILES IDX 32 78 51 79 52 80 56 81 53 82 55 83 54 84 41 85 42 86 46 87
REMARK SMILES IDX 43 88 45 89 44 90
REMARK H PARENT 12 7 17 39 61 58 39 69
REMARK Flexibility Score: inf
ROOT
ATOM      1  C   UNL     1      -0.441  -6.288 -10.368  1.00  0.00     0.023 C 
ENDROOT
BRANCH   1   2
ATOM      2  C   UNL     1      -0.501  -5.225  -9.281  1.00  0.00     0.023 C 
BRANCH   2   3
ATOM      3  C   UNL     1      -0.905  -5.719  -7.900  1.00  0.00     0.116 C 
BRANCH   3   4
ATOM      4  N   UNL     1       0.038  -6.660  -7.324  1.00  0.00    -0.352 N 
ATOM      5  C   UNL     1       0.792  -6.563  -6.181  1.00  0.00     0.251 C 
ATOM      6  O   UNL     1       1.598  -7.449  -5.910  1.00  0.00    -0.269 OA
ATOM      7  H   UNL     1       0.156  -7.496  -7.831  1.00  0.00     0.163 HD
BRANCH   5   8
ATOM      8  C   UNL     1       0.672  -5.385  -5.293  1.00  0.00     0.039 A 
ATOM      9  C   UNL     1       0.543  -3.123  -3.605  1.00  0.00     0.052 A 
ATOM     10  C   UNL     1       1.775  -3.710  -3.944  1.00  0.00     0.027 A 
ATOM     11  C   UNL     1      -0.624  -3.698  -4.128  1.00  0.00     0.027 A 
ATOM     12  C   UNL     1       1.842  -4.825  -4.785  1.00  0.00     0.016 A 
ATOM     13  C   UNL     1      -0.562  -4.849  -4.919  1.00  0.00     0.016 A 
BRANCH   9  14
ATOM     14  N   UNL     1       0.442  -2.144  -2.584  1.00  0.00    -0.250 N 
ATOM     15  C   UNL     1       1.086  -0.106  -0.023  1.00  0.00     0.024 C 
ATOM     16  C   UNL     1       0.706  -1.556  -0.381  1.00  0.00     0.071 C 
ATOM     17  C   UNL     1       1.413  -1.902  -1.663  1.00  0.00     0.241 C 
ATOM     18  C   UNL     1      -0.864  -1.645  -0.667  1.00  0.00     0.107 C 
ATOM     19  C   UNL     1       1.185  -2.613   0.672  1.00  0.00     0.066 C 
ATOM     20  O   UNL     1       2.626  -1.930  -1.780  1.00  0.00    -0.273 OA
ATOM     21  C   UNL     1      -0.711  -1.502  -2.193  1.00  0.00     0.238 C 
ATOM     22  C   UNL     1      -1.434  -2.561   0.509  1.00  0.00     0.063 C 
ATOM     23  C   UNL     1       0.584  -3.962   0.252  1.00  0.00    -0.036 A 
ATOM     24  C   UNL     1       0.514  -2.211   1.973  1.00  0.00    -0.036 A 
ATOM     25  O   UNL     1      -1.531  -0.946  -2.915  1.00  0.00    -0.274 OA
ATOM     26  C   UNL     1      -0.834  -3.961   0.221  1.00  0.00    -0.036 A 
ATOM     27  C   UNL     1      -0.895  -2.131   1.870  1.00  0.00    -0.036 A 
ATOM     28  C   UNL     1       1.291  -5.063  -0.209  1.00  0.00     0.005 A 
ATOM     29  C   UNL     1       1.165  -1.969   3.174  1.00  0.00     0.005 A 
ATOM     30  C   UNL     1      -1.544  -5.054  -0.261  1.00  0.00     0.004 A 
ATOM     31  C   UNL     1      -1.655  -1.810   2.985  1.00  0.00     0.004 A 
ATOM     32  C   UNL     1       0.576  -6.160  -0.701  1.00  0.00     0.000 A 
ATOM     33  C   UNL     1       0.398  -1.645   4.290  1.00  0.00     0.000 A 
ATOM     34  C   UNL     1      -0.827  -6.157  -0.723  1.00  0.00     0.000 A 
ATOM     35  C   UNL     1      -1.000  -1.564   4.196  1.00  0.00     0.000 A 
ENDBRANCH   9  14
ENDBRANCH   5   8
ENDBRANCH   3   4
ENDBRANCH   2   3
ENDBRANCH   1   2
BRANCH   1  36
ATOM     36  C   UNL     1      -1.631  -7.235 -10.435  1.00  0.00     0.116 C 
BRANCH  36  37
ATOM     37  N   UNL     1      -2.924  -6.568 -10.539  1.00  0.00    -0.352 N 
ATOM     38  C   UNL     1      -3.954  -6.779 -11.426  1.00  0.00     0.251 C 
ATOM     39  H   UNL     1      -3.083  -5.860  -9.873  1.00  0.00     0.163 HD
ATOM     40  O   UNL     1      -4.963  -6.083 -11.384  1.00  0.00    -0.269 OA
BRANCH  38  41
ATOM     41  C   UNL     1      -3.807  -7.807 -12.475  1.00  0.00     0.039 A 
ATOM     42  C   UNL     1      -3.334  -9.080 -12.159  1.00  0.00     0.014 A 
ATOM     43  C   UNL     1      -4.057  -7.455 -13.804  1.00  0.00     0.014 A 
ATOM     44  C   UNL     1      -2.896  -9.914 -13.179  1.00  0.00     0.010 A 
ATOM     45  C   UNL     1      -3.712  -8.340 -14.828  1.00  0.00     0.010 A 
ATOM     46  C   UNL     1      -3.060  -9.545 -14.525  1.00  0.00    -0.014 A 
BRANCH  46  47
ATOM     47  C   UNL     1      -2.514 -10.424 -15.591  1.00  0.00     0.031 A 
ATOM     48  C   UNL     1      -1.404  -9.949 -16.492  1.00  0.00     0.074 A 
ATOM     49  C   UNL     1      -2.971 -11.685 -15.697  1.00  0.00     0.049 A 
ATOM     50  N   UNL     1      -0.778 -10.604 -17.438  1.00  0.00    -0.248 NA
ATOM     51  C   UNL     1      -0.935  -8.564 -16.316  1.00  0.00     0.031 C 
ATOM     52  C   UNL     1      -4.028 -12.268 -14.869  1.00  0.00     0.029 A 
ATOM     53  N   UNL     1      -2.582 -12.714 -16.516  1.00  0.00    -0.354 N 
ATOM     54  C   UNL     1       0.133  -9.708 -17.984  1.00  0.00     0.074 A 
ATOM     55  C   UNL     1      -0.034  -8.455 -17.282  1.00  0.00     0.031 C 
ATOM     56  C   UNL     1      -4.154 -13.568 -15.171  1.00  0.00     0.029 A 
ATOM     57  C   UNL     1      -3.239 -13.892 -16.261  1.00  0.00     0.049 A 
ATOM     58  H   UNL     1      -1.898 -12.618 -17.217  1.00  0.00     0.167 HD
ATOM     59  C   UNL     1       1.033  -9.914 -18.976  1.00  0.00     0.031 A 
ATOM     60  C   UNL     1      -3.131 -15.102 -16.841  1.00  0.00     0.031 A 
ATOM     61  C   UNL     1       1.215 -11.167 -19.658  1.00  0.00     0.049 A 
ATOM     62  C   UNL     1      -2.151 -15.296 -17.959  1.00  0.00     0.074 A 
ATOM     63  C   UNL     1       2.128 -11.478 -20.651  1.00  0.00     0.029 A 
ATOM     64  N   UNL     1       0.475 -12.314 -19.419  1.00  0.00    -0.354 N 
ATOM     65  N   UNL     1      -1.295 -14.439 -18.458  1.00  0.00    -0.248 NA
ATOM     66  C   UNL     1      -2.126 -16.619 -18.599  1.00  0.00     0.031 C 
ATOM     67  C   UNL     1       1.902 -12.797 -21.053  1.00  0.00     0.029 A 
ATOM     68  C   UNL     1       0.890 -13.326 -20.268  1.00  0.00     0.049 A 
ATOM     69  H   UNL     1      -0.239 -12.397 -18.746  1.00  0.00     0.167 HD
ATOM     70  C   UNL     1      -0.627 -15.116 -19.469  1.00  0.00     0.074 A 
ATOM     71  C   UNL     1      -1.161 -16.462 -19.496  1.00  0.00     0.031 C 
ATOM     72  C   UNL     1       0.340 -14.657 -20.299  1.00  0.00     0.031 A 
BRANCH  59  73
ATOM     73  C   UNL     1       1.886  -8.752 -19.407  1.00  0.00    -0.014 A 
ATOM     74  C   UNL     1       1.683  -8.176 -20.672  1.00  0.00     0.009 A 
ATOM     75  C   UNL     1       2.939  -8.282 -18.608  1.00  0.00     0.009 A 
ATOM     76  C   UNL     1       2.521  -7.158 -21.131  1.00  0.00     0.001 A 
ATOM     77  C   UNL     1       3.759  -7.245 -19.060  1.00  0.00     0.001 A 
ATOM     78  C   UNL     1       3.555  -6.690 -20.323  1.00  0.00     0.000 A 
ENDBRANCH  59  73
BRANCH  60  79
ATOM     79  C   UNL     1      -3.985 -16.213 -16.350  1.00  0.00    -0.014 A 
ATOM     80  C   UNL     1      -5.373 -16.191 -16.565  1.00  0.00     0.009 A 
ATOM     81  C   UNL     1      -3.431 -17.254 -15.592  1.00  0.00     0.009 A 
ATOM     82  C   UNL     1      -6.194 -17.168 -16.001  1.00  0.00     0.001 A 
ATOM     83  C   UNL     1      -4.252 -18.247 -15.052  1.00  0.00     0.001 A 
ATOM     84  C   UNL     1      -5.633 -18.196 -15.246  1.00  0.00     0.000 A 
ENDBRANCH  60  79
BRANCH  72  85
ATOM     85  C   UNL     1       0.891 -15.609 -21.321  1.00  0.00    -0.014 A 
ATOM     86  C   UNL     1       2.202 -16.096 -21.188  1.00  0.00     0.009 A 
ATOM     87  C   UNL     1       0.151 -15.946 -22.464  1.00  0.00     0.009 A 
ATOM     88  C   UNL     1       2.766 -16.890 -22.186  1.00  0.00     0.001 A 
ATOM     89  C   UNL     1       0.710 -16.763 -23.449  1.00  0.00     0.001 A 
ATOM     90  C   UNL     1       2.019 -17.226 -23.314  1.00  0.00     0.000 A 
ENDBRANCH  72  85
ENDBRANCH  46  47
ENDBRANCH  38  41
ENDBRANCH  36  37
ENDBRANCH   1  36
TORSDOF 12
