REMARK SMILES O=C(NCCCCNC(=O)[C@@H]1C[C@@H]1C(=O)N1CCN(c2ncc(C(F)(F)F)cc2Cl)CC1)c1ccc(-c2c3nc(c(-c4ccccc4)c4ccc([nH]4)c(-c4ccccc4)c4nc(c(-c5ccccc5)c5ccc2[nH]5)C=C4)C=C3)cc1
REMARK SMILES IDX 6 1 5 2 4 3 3 4 1 5 2 6 33 8 34 9 80 10 35 11 79 12 36 13
REMARK SMILES IDX 37 14 38 15 73 16 39 17 78 18 72 19 74 20 40 21 77 22 71 23
REMARK SMILES IDX 70 24 41 26 63 27 48 28 62 29 49 30 52 31 61 32 75 33 50 34
REMARK SMILES IDX 51 35 60 37 76 38 53 39 42 40 43 41 47 42 44 43 46 44 45 45
REMARK SMILES IDX 64 46 65 47 69 48 66 49 68 50 67 51 54 52 55 53 59 54 56 55
REMARK SMILES IDX 58 56 57 57 7 58 8 59 9 60 10 62 11 63 12 64 13 65 14 66
REMARK SMILES IDX 15 67 16 68 17 69 32 70 18 71 31 72 19 73 20 74 21 75 29 76
REMARK SMILES IDX 22 77 28 78 30 79 23 80 24 81 25 82 26 83 27 84
REMARK H PARENT 3 7 74 25 52 36 8 61
REMARK Flexibility Score: inf
ROOT
ATOM      1  C   UNL     1       4.307  -3.734   0.458  1.00  0.00     0.023 C 
ENDROOT
BRANCH   1   2
ATOM      2  C   UNL     1       4.838  -2.396   0.978  1.00  0.00     0.023 C 
BRANCH   2   3
ATOM      3  C   UNL     1       4.500  -1.192   0.107  1.00  0.00     0.116 C 
BRANCH   3   4
ATOM      4  N   UNL     1       3.071  -1.041  -0.132  1.00  0.00    -0.352 N 
ATOM      5  O   UNL     1       1.086   0.035  -0.196  1.00  0.00    -0.269 OA
ATOM      6  C   UNL     1       2.306   0.098  -0.087  1.00  0.00     0.251 C 
ATOM      7  H   UNL     1       2.588  -1.870  -0.355  1.00  0.00     0.163 HD
BRANCH   6   8
ATOM      8  C   UNL     1       2.967   1.400   0.128  1.00  0.00     0.039 A 
ATOM      9  C   UNL     1       4.109   1.740  -0.601  1.00  0.00     0.014 A 
ATOM     10  C   UNL     1       2.456   2.271   1.092  1.00  0.00     0.014 A 
ATOM     11  C   UNL     1       4.824   2.880  -0.261  1.00  0.00     0.010 A 
ATOM     12  C   UNL     1       3.129   3.462   1.371  1.00  0.00     0.010 A 
ATOM     13  C   UNL     1       4.337   3.758   0.721  1.00  0.00    -0.014 A 
BRANCH  13  14
ATOM     14  C   UNL     1       5.084   5.005   1.013  1.00  0.00     0.031 A 
ATOM     15  C   UNL     1       5.719   5.239   2.354  1.00  0.00     0.074 A 
ATOM     16  C   UNL     1       5.209   5.922   0.035  1.00  0.00     0.049 A 
ATOM     17  N   UNL     1       6.430   6.261   2.759  1.00  0.00    -0.248 NA
ATOM     18  C   UNL     1       5.529   4.197   3.375  1.00  0.00     0.031 C 
ATOM     19  C   UNL     1       4.638   5.804  -1.310  1.00  0.00     0.029 A 
ATOM     20  N   UNL     1       5.874   7.119   0.010  1.00  0.00    -0.354 N 
ATOM     21  C   UNL     1       6.752   6.000   4.085  1.00  0.00     0.074 A 
ATOM     22  C   UNL     1       6.139   4.733   4.424  1.00  0.00     0.031 C 
ATOM     23  C   UNL     1       5.024   6.856  -2.043  1.00  0.00     0.029 A 
ATOM     24  C   UNL     1       5.810   7.754  -1.205  1.00  0.00     0.049 A 
ATOM     25  H   UNL     1       6.352   7.489   0.788  1.00  0.00     0.167 HD
ATOM     26  C   UNL     1       7.493   6.746   4.939  1.00  0.00     0.031 A 
ATOM     27  C   UNL     1       6.314   8.935  -1.603  1.00  0.00     0.031 A 
ATOM     28  C   UNL     1       8.097   8.009   4.598  1.00  0.00     0.049 A 
ATOM     29  C   UNL     1       7.095   9.760  -0.625  1.00  0.00     0.074 A 
ATOM     30  C   UNL     1       8.894   8.824   5.384  1.00  0.00     0.029 A 
ATOM     31  N   UNL     1       7.964   8.643   3.372  1.00  0.00    -0.354 N 
ATOM     32  N   UNL     1       7.417   9.484   0.615  1.00  0.00    -0.248 NA
ATOM     33  C   UNL     1       7.580  11.061  -1.102  1.00  0.00     0.031 C 
ATOM     34  C   UNL     1       9.196   9.978   4.652  1.00  0.00     0.029 A 
ATOM     35  C   UNL     1       8.638   9.854   3.389  1.00  0.00     0.049 A 
ATOM     36  H   UNL     1       7.465   8.286   2.603  1.00  0.00     0.167 HD
ATOM     37  C   UNL     1       8.158  10.568   1.063  1.00  0.00     0.074 A 
ATOM     38  C   UNL     1       8.252  11.496  -0.046  1.00  0.00     0.031 C 
ATOM     39  C   UNL     1       8.712  10.773   2.283  1.00  0.00     0.031 A 
BRANCH  26  40
ATOM     40  C   UNL     1       7.657   6.232   6.344  1.00  0.00    -0.014 A 
ATOM     41  C   UNL     1       8.449   5.108   6.627  1.00  0.00     0.009 A 
ATOM     42  C   UNL     1       7.027   6.901   7.406  1.00  0.00     0.009 A 
ATOM     43  C   UNL     1       8.574   4.642   7.939  1.00  0.00     0.001 A 
ATOM     44  C   UNL     1       7.177   6.450   8.719  1.00  0.00     0.001 A 
ATOM     45  C   UNL     1       7.940   5.314   8.983  1.00  0.00     0.000 A 
ENDBRANCH  26  40
BRANCH  27  46
ATOM     46  C   UNL     1       6.088   9.396  -2.995  1.00  0.00    -0.014 A 
ATOM     47  C   UNL     1       7.145   9.425  -3.916  1.00  0.00     0.009 A 
ATOM     48  C   UNL     1       4.804   9.775  -3.419  1.00  0.00     0.009 A 
ATOM     49  C   UNL     1       6.923   9.836  -5.232  1.00  0.00     0.001 A 
ATOM     50  C   UNL     1       4.580  10.157  -4.742  1.00  0.00     0.001 A 
ATOM     51  C   UNL     1       5.640  10.194  -5.646  1.00  0.00     0.000 A 
ENDBRANCH  27  46
BRANCH  39  52
ATOM     52  C   UNL     1       9.493  12.043   2.468  1.00  0.00    -0.014 A 
ATOM     53  C   UNL     1       8.850  13.288   2.561  1.00  0.00     0.009 A 
ATOM     54  C   UNL     1      10.892  11.989   2.572  1.00  0.00     0.009 A 
ATOM     55  C   UNL     1       9.597  14.457   2.719  1.00  0.00     0.001 A 
ATOM     56  C   UNL     1      11.633  13.156   2.759  1.00  0.00     0.001 A 
ATOM     57  C   UNL     1      10.986  14.389   2.822  1.00  0.00     0.000 A 
ENDBRANCH  39  52
ENDBRANCH  13  14
ENDBRANCH   6   8
ENDBRANCH   3   4
ENDBRANCH   2   3
ENDBRANCH   1   2
BRANCH   1  58
ATOM     58  C   UNL     1       4.751  -4.067  -0.965  1.00  0.00     0.116 C 
BRANCH  58  59
ATOM     59  N   UNL     1       6.154  -4.418  -0.988  1.00  0.00    -0.356 N 
ATOM     60  C   UNL     1       6.734  -5.653  -1.052  1.00  0.00     0.223 C 
ATOM     61  H   UNL     1       6.780  -3.659  -0.953  1.00  0.00     0.163 HD
ATOM     62  O   UNL     1       7.932  -5.768  -0.806  1.00  0.00    -0.275 OA
BRANCH  60  63
ATOM     63  C   UNL     1       5.894  -6.841  -1.385  1.00  0.00     0.091 C 
ATOM     64  C   UNL     1       6.269  -8.181  -0.817  1.00  0.00     0.028 C 
ATOM     65  C   UNL     1       6.426  -7.933  -2.303  1.00  0.00     0.092 C 
BRANCH  65  66
ATOM     66  C   UNL     1       7.758  -7.740  -2.933  1.00  0.00     0.226 C 
ATOM     67  O   UNL     1       7.936  -6.771  -3.662  1.00  0.00    -0.275 OA
ATOM     68  N   UNL     1       8.725  -8.663  -2.612  1.00  0.00    -0.339 N 
ATOM     69  C   UNL     1      10.133  -8.251  -2.612  1.00  0.00     0.141 C 
ATOM     70  C   UNL     1       8.466 -10.058  -2.231  1.00  0.00     0.141 C 
ATOM     71  C   UNL     1      10.797  -8.598  -1.259  1.00  0.00     0.139 C 
ATOM     72  C   UNL     1       9.176 -10.442  -0.921  1.00  0.00     0.139 C 
ATOM     73  N   UNL     1      10.577 -10.026  -1.005  1.00  0.00    -0.352 N 
BRANCH  73  74
ATOM     74  C   UNL     1      11.556 -10.779  -0.403  1.00  0.00     0.147 A 
ATOM     75  N   UNL     1      12.219 -10.232   0.644  1.00  0.00    -0.237 NA
ATOM     76  C   UNL     1      11.899 -12.055  -0.884  1.00  0.00     0.084 A 
ATOM     77  C   UNL     1      13.206 -10.952   1.231  1.00  0.00     0.126 A 
ATOM     78  C   UNL     1      12.928 -12.768  -0.273  1.00  0.00     0.039 A 
ATOM     79  Cl  UNL     1      11.163 -12.760  -2.284  1.00  0.00    -0.080 Cl
ATOM     80  C   UNL     1      13.603 -12.212   0.812  1.00  0.00     0.075 A 
BRANCH  80  81
ATOM     81  C   UNL     1      14.719 -12.921   1.509  1.00  0.00     0.417 C 
ATOM     82  F   UNL     1      15.859 -12.181   1.558  1.00  0.00    -0.166 F 
ATOM     83  F   UNL     1      14.414 -13.232   2.797  1.00  0.00    -0.166 F 
ATOM     84  F   UNL     1      15.064 -14.097   0.913  1.00  0.00    -0.166 F 
ENDBRANCH  80  81
ENDBRANCH  73  74
ENDBRANCH  65  66
ENDBRANCH  60  63
ENDBRANCH  58  59
ENDBRANCH   1  58
TORSDOF 14
