REMARK SMILES Cc1c(CCC(=O)N[C@@H](C)C(=O)NCCCCNC(=O)c2ccc(-c3c4nc(c(-c5ccccc5)c5ccc([nH]5)c(-c5ccccc5)c5nc(c(-c6ccccc6)c6ccc3[nH]6)C=C5)C=C4)cc2)c(=O)oc2cc3oc4c(c3cc12)CCCC4
REMARK SMILES IDX 14 1 13 2 11 3 12 4 9 6 10 7 8 8 6 9 7 10 5 12 4 13 3 14
REMARK SMILES IDX 1 15 2 16 80 17 69 18 72 19 79 20 70 21 71 22 73 23 78 24
REMARK SMILES IDX 74 25 77 26 75 27 76 28 81 29 84 30 82 31 83 32 15 33 16 34
REMARK SMILES IDX 17 35 18 36 19 37 20 39 21 40 22 41 68 42 23 43 67 44 24 45
REMARK SMILES IDX 25 46 26 47 61 48 27 49 66 50 60 51 62 52 28 53 65 54 59 55
REMARK SMILES IDX 58 56 29 58 51 59 36 60 50 61 37 62 40 63 49 64 63 65 38 66
REMARK SMILES IDX 39 67 48 69 64 70 41 71 30 72 31 73 35 74 32 75 34 76 33 77
REMARK SMILES IDX 52 78 53 79 57 80 54 81 56 82 55 83 42 84 43 85 47 86 44 87
REMARK SMILES IDX 46 88 45 89
REMARK H PARENT 13 5 8 11 18 38 62 57 40 68
REMARK Flexibility Score: inf
ROOT
ATOM      1  C   UNL     1       3.757  -2.705   1.461  1.00  0.00     0.116 C 
ENDROOT
BRANCH   1   2
ATOM      2  N   UNL     1       4.566  -1.606   1.971  1.00  0.00    -0.354 N 
ATOM      3  C   UNL     1       4.407  -0.260   2.120  1.00  0.00     0.242 C 
ATOM      4  O   UNL     1       5.359   0.334   2.642  1.00  0.00    -0.273 OA
ATOM      5  H   UNL     1       5.447  -1.911   2.287  1.00  0.00     0.163 HD
BRANCH   3   6
ATOM      6  C   UNL     1       3.147   0.540   1.701  1.00  0.00     0.168 C 
ATOM      7  C   UNL     1       2.111  -0.273   0.987  1.00  0.00     0.041 C 
BRANCH   6   8
ATOM      8  N   UNL     1       3.433   1.671   0.816  1.00  0.00    -0.345 N 
ATOM      9  C   UNL     1       2.512   2.629   0.462  1.00  0.00     0.220 C 
ATOM     10  O   UNL     1       2.502   3.043  -0.697  1.00  0.00    -0.275 OA
ATOM     11  H   UNL     1       4.344   1.752   0.451  1.00  0.00     0.164 HD
BRANCH   9  12
ATOM     12  C   UNL     1       1.564   3.188   1.521  1.00  0.00     0.105 C 
BRANCH  12  13
ATOM     13  C   UNL     1       0.052   2.975   1.283  1.00  0.00     0.053 C 
BRANCH  13  14
ATOM     14  C   UNL     1      -0.519   1.708   1.897  1.00  0.00     0.042 A 
ATOM     15  C   UNL     1      -1.297   0.715  -0.306  1.00  0.00     0.046 C 
ATOM     16  C   UNL     1      -1.004   0.681   1.171  1.00  0.00    -0.030 A 
ATOM     17  C   UNL     1      -1.026  -0.622   1.841  1.00  0.00     0.022 A 
ATOM     18  C   UNL     1      -0.532   1.625   3.393  1.00  0.00     0.339 A 
ATOM     19  C   UNL     1      -1.163  -0.694   3.224  1.00  0.00     0.142 A 
ATOM     20  C   UNL     1      -0.702  -1.783   1.133  1.00  0.00     0.024 A 
ATOM     21  O   UNL     1      -0.113   2.546   4.085  1.00  0.00    -0.246 OA
ATOM     22  O   UNL     1      -1.116   0.497   3.970  1.00  0.00    -0.422 OA
ATOM     23  C   UNL     1      -1.263  -1.909   3.922  1.00  0.00     0.095 A 
ATOM     24  C   UNL     1      -0.620  -2.992   1.823  1.00  0.00     0.025 A 
ATOM     25  C   UNL     1      -1.051  -3.045   3.145  1.00  0.00     0.138 A 
ATOM     26  C   UNL     1      -0.279  -4.304   1.459  1.00  0.00     0.001 A 
ATOM     27  O   UNL     1      -1.306  -4.355   3.475  1.00  0.00    -0.461 OA
ATOM     28  C   UNL     1      -0.983  -5.065   2.361  1.00  0.00     0.108 A 
ATOM     29  C   UNL     1       0.143  -4.882   0.168  1.00  0.00     0.040 C 
ATOM     30  C   UNL     1      -1.759  -6.256   1.918  1.00  0.00     0.076 C 
ATOM     31  C   UNL     1      -1.080  -5.500  -0.520  1.00  0.00     0.005 C 
ATOM     32  C   UNL     1      -2.217  -5.936   0.456  1.00  0.00     0.008 C 
ENDBRANCH  13  14
ENDBRANCH  12  13
ENDBRANCH   9  12
ENDBRANCH   6   8
ENDBRANCH   3   6
ENDBRANCH   1   2
BRANCH   1  33
ATOM     33  C   UNL     1       4.421  -3.417   0.280  1.00  0.00     0.023 C 
BRANCH  33  34
ATOM     34  C   UNL     1       5.064  -4.729   0.717  1.00  0.00     0.023 C 
BRANCH  34  35
ATOM     35  C   UNL     1       4.019  -5.731   1.235  1.00  0.00     0.116 C 
BRANCH  35  36
ATOM     36  N   UNL     1       3.671  -6.783   0.294  1.00  0.00    -0.352 N 
ATOM     37  C   UNL     1       4.408  -7.894  -0.066  1.00  0.00     0.251 C 
ATOM     38  H   UNL     1       2.795  -6.691  -0.145  1.00  0.00     0.163 HD
ATOM     39  O   UNL     1       3.981  -8.728  -0.831  1.00  0.00    -0.269 OA
BRANCH  37  40
ATOM     40  C   UNL     1       5.787  -7.957   0.448  1.00  0.00     0.039 A 
ATOM     41  C   UNL     1       6.014  -8.008   1.825  1.00  0.00     0.014 A 
ATOM     42  C   UNL     1       6.817  -7.711  -0.461  1.00  0.00     0.014 A 
ATOM     43  C   UNL     1       7.254  -7.629   2.310  1.00  0.00     0.010 A 
ATOM     44  C   UNL     1       8.072  -7.380   0.028  1.00  0.00     0.010 A 
ATOM     45  C   UNL     1       8.269  -7.279   1.412  1.00  0.00    -0.014 A 
BRANCH  45  46
ATOM     46  C   UNL     1       9.559  -6.899   1.993  1.00  0.00     0.031 A 
ATOM     47  C   UNL     1      10.592  -7.954   1.797  1.00  0.00     0.074 A 
ATOM     48  C   UNL     1       9.974  -5.619   2.071  1.00  0.00     0.049 A 
ATOM     49  N   UNL     1      11.235  -8.090   0.674  1.00  0.00    -0.248 NA
ATOM     50  C   UNL     1      10.715  -9.091   2.706  1.00  0.00     0.031 C 
ATOM     51  C   UNL     1       9.599  -4.558   1.127  1.00  0.00     0.029 A 
ATOM     52  N   UNL     1      10.984  -5.069   2.820  1.00  0.00    -0.354 N 
ATOM     53  C   UNL     1      11.768  -9.363   0.676  1.00  0.00     0.074 A 
ATOM     54  C   UNL     1      11.447  -9.937   1.966  1.00  0.00     0.031 C 
ATOM     55  C   UNL     1      10.517  -3.573   1.207  1.00  0.00     0.029 A 
ATOM     56  C   UNL     1      11.422  -3.849   2.316  1.00  0.00     0.049 A 
ATOM     57  H   UNL     1      11.358  -5.492   3.626  1.00  0.00     0.167 HD
ATOM     58  C   UNL     1      12.401  -9.903  -0.397  1.00  0.00     0.031 A 
ATOM     59  C   UNL     1      12.695  -3.391   2.445  1.00  0.00     0.031 A 
ATOM     60  C   UNL     1      12.523  -9.061  -1.548  1.00  0.00     0.049 A 
ATOM     61  C   UNL     1      13.408  -4.238   1.419  1.00  0.00     0.074 A 
ATOM     62  C   UNL     1      11.857  -8.881  -2.741  1.00  0.00     0.029 A 
ATOM     63  N   UNL     1      13.495  -8.090  -1.541  1.00  0.00    -0.354 N 
ATOM     64  N   UNL     1      13.418  -4.048   0.126  1.00  0.00    -0.248 NA
ATOM     65  C   UNL     1      13.854  -5.570   1.836  1.00  0.00     0.031 C 
ATOM     66  C   UNL     1      12.182  -7.554  -3.166  1.00  0.00     0.029 A 
ATOM     67  C   UNL     1      12.970  -6.986  -2.166  1.00  0.00     0.049 A 
ATOM     68  H   UNL     1      14.398  -8.170  -1.160  1.00  0.00     0.167 HD
ATOM     69  C   UNL     1      13.572  -5.318  -0.437  1.00  0.00     0.074 A 
ATOM     70  C   UNL     1      13.890  -6.198   0.669  1.00  0.00     0.031 C 
ATOM     71  C   UNL     1      13.229  -5.631  -1.722  1.00  0.00     0.031 A 
BRANCH  58  72
ATOM     72  C   UNL     1      13.018 -11.240  -0.375  1.00  0.00    -0.014 A 
ATOM     73  C   UNL     1      12.274 -12.404  -0.598  1.00  0.00     0.009 A 
ATOM     74  C   UNL     1      14.412 -11.325  -0.249  1.00  0.00     0.009 A 
ATOM     75  C   UNL     1      12.927 -13.634  -0.712  1.00  0.00     0.001 A 
ATOM     76  C   UNL     1      15.059 -12.551  -0.368  1.00  0.00     0.001 A 
ATOM     77  C   UNL     1      14.317 -13.705  -0.606  1.00  0.00     0.000 A 
ENDBRANCH  58  72
BRANCH  59  78
ATOM     78  C   UNL     1      13.132  -3.240   3.872  1.00  0.00    -0.014 A 
ATOM     79  C   UNL     1      14.252  -3.845   4.457  1.00  0.00     0.009 A 
ATOM     80  C   UNL     1      12.320  -2.446   4.712  1.00  0.00     0.009 A 
ATOM     81  C   UNL     1      14.465  -3.784   5.842  1.00  0.00     0.001 A 
ATOM     82  C   UNL     1      12.546  -2.360   6.089  1.00  0.00     0.001 A 
ATOM     83  C   UNL     1      13.603  -3.057   6.659  1.00  0.00     0.000 A 
ENDBRANCH  59  78
BRANCH  71  84
ATOM     84  C   UNL     1      12.850  -4.488  -2.611  1.00  0.00    -0.014 A 
ATOM     85  C   UNL     1      11.535  -4.357  -3.090  1.00  0.00     0.009 A 
ATOM     86  C   UNL     1      13.818  -3.573  -3.042  1.00  0.00     0.009 A 
ATOM     87  C   UNL     1      11.211  -3.373  -4.025  1.00  0.00     0.001 A 
ATOM     88  C   UNL     1      13.488  -2.573  -3.960  1.00  0.00     0.001 A 
ATOM     89  C   UNL     1      12.190  -2.485  -4.464  1.00  0.00     0.000 A 
ENDBRANCH  71  84
ENDBRANCH  45  46
ENDBRANCH  37  40
ENDBRANCH  35  36
ENDBRANCH  34  35
ENDBRANCH  33  34
ENDBRANCH   1  33
TORSDOF 15
