REMARK SMILES O=C(NCCCCNC(=O)[C@@H]1C[NH2+]CCN1C(=O)N[C@@H]1CCOC1)c1ccc(-c2c3nc(c(-c4ccccc4)c4ccc([nH]4)c(-c4ccccc4)c4nc(c(-c5ccccc5)c5ccc2[nH]5)C=C4)C=C3)cc1
REMARK SMILES IDX 5 1 4 2 3 3 1 4 2 5 25 7 26 8 72 9 27 10 71 11 28 12 29 13
REMARK SMILES IDX 30 14 65 15 31 16 70 17 64 18 66 19 32 20 69 21 63 22 62 23
REMARK SMILES IDX 33 25 55 26 40 27 54 28 41 29 44 30 53 31 67 32 42 33 43 34
REMARK SMILES IDX 52 36 68 37 45 38 34 39 35 40 39 41 36 42 38 43 37 44 56 45
REMARK SMILES IDX 57 46 61 47 58 48 60 49 59 50 46 51 47 52 51 53 48 54 50 55
REMARK SMILES IDX 49 56 6 57 7 58 8 59 9 60 10 62 11 63 12 64 16 65 13 66
REMARK SMILES IDX 15 67 14 68 17 71 18 72 19 73 20 75 21 76 24 77 22 78 23 79
REMARK H PARENT 3 6 66 24 44 35 8 61 13 69 13 70 19 74
REMARK Flexibility Score: inf
ROOT
ATOM      1  C   UNL     1       4.294  -2.425  -1.168  1.00  0.00     0.023 C 
ENDROOT
BRANCH   1   2
ATOM      2  C   UNL     1       4.249  -0.900  -1.216  1.00  0.00     0.116 C 
BRANCH   2   3
ATOM      3  N   UNL     1       2.889  -0.385  -1.136  1.00  0.00    -0.352 N 
ATOM      4  O   UNL     1       1.025   0.412  -0.153  1.00  0.00    -0.269 OA
ATOM      5  C   UNL     1       2.238   0.254  -0.105  1.00  0.00     0.251 C 
ATOM      6  H   UNL     1       2.348  -0.515  -1.949  1.00  0.00     0.163 HD
BRANCH   5   7
ATOM      7  C   UNL     1       2.995   0.747   1.069  1.00  0.00     0.039 A 
ATOM      8  C   UNL     1       4.201   1.429   0.905  1.00  0.00     0.014 A 
ATOM      9  C   UNL     1       2.465   0.567   2.352  1.00  0.00     0.014 A 
ATOM     10  C   UNL     1       4.946   1.798   2.020  1.00  0.00     0.010 A 
ATOM     11  C   UNL     1       3.177   1.014   3.471  1.00  0.00     0.010 A 
ATOM     12  C   UNL     1       4.441   1.603   3.317  1.00  0.00    -0.014 A 
BRANCH  12  13
ATOM     13  C   UNL     1       5.238   2.068   4.481  1.00  0.00     0.031 A 
ATOM     14  C   UNL     1       5.802   1.094   5.480  1.00  0.00     0.074 A 
ATOM     15  C   UNL     1       5.495   3.384   4.608  1.00  0.00     0.049 A 
ATOM     16  N   UNL     1       6.580   1.329   6.508  1.00  0.00    -0.248 NA
ATOM     17  C   UNL     1       5.444  -0.322   5.312  1.00  0.00     0.031 C 
ATOM     18  C   UNL     1       5.000   4.430   3.709  1.00  0.00     0.029 A 
ATOM     19  N   UNL     1       6.262   4.065   5.519  1.00  0.00    -0.354 N 
ATOM     20  C   UNL     1       6.785   0.099   7.121  1.00  0.00     0.074 A 
ATOM     21  C   UNL     1       6.032  -0.878   6.363  1.00  0.00     0.031 C 
ATOM     22  C   UNL     1       5.529   5.608   4.072  1.00  0.00     0.029 A 
ATOM     23  C   UNL     1       6.350   5.412   5.261  1.00  0.00     0.049 A 
ATOM     24  H   UNL     1       6.706   3.632   6.283  1.00  0.00     0.167 HD
ATOM     25  C   UNL     1       7.533  -0.192   8.213  1.00  0.00     0.031 A 
ATOM     26  C   UNL     1       7.014   6.386   5.909  1.00  0.00     0.031 A 
ATOM     27  C   UNL     1       8.289   0.778   8.963  1.00  0.00     0.049 A 
ATOM     28  C   UNL     1       7.820   6.038   7.126  1.00  0.00     0.074 A 
ATOM     29  C   UNL     1       9.111   0.572  10.058  1.00  0.00     0.029 A 
ATOM     30  N   UNL     1       8.312   2.139   8.699  1.00  0.00    -0.354 N 
ATOM     31  N   UNL     1       8.034   4.863   7.666  1.00  0.00    -0.248 NA
ATOM     32  C   UNL     1       8.475   7.154   7.822  1.00  0.00     0.031 C 
ATOM     33  C   UNL     1       9.591   1.815  10.487  1.00  0.00     0.029 A 
ATOM     34  C   UNL     1       9.111   2.788   9.626  1.00  0.00     0.049 A 
ATOM     35  H   UNL     1       7.831   2.579   7.961  1.00  0.00     0.167 HD
ATOM     36  C   UNL     1       8.863   5.095   8.754  1.00  0.00     0.074 A 
ATOM     37  C   UNL     1       9.129   6.519   8.784  1.00  0.00     0.031 C 
ATOM     38  C   UNL     1       9.359   4.206   9.649  1.00  0.00     0.031 A 
BRANCH  25  39
ATOM     39  C   UNL     1       7.545  -1.619   8.687  1.00  0.00    -0.014 A 
ATOM     40  C   UNL     1       8.226  -2.622   7.979  1.00  0.00     0.009 A 
ATOM     41  C   UNL     1       6.895  -1.958   9.885  1.00  0.00     0.009 A 
ATOM     42  C   UNL     1       8.226  -3.940   8.444  1.00  0.00     0.001 A 
ATOM     43  C   UNL     1       6.919  -3.270  10.360  1.00  0.00     0.001 A 
ATOM     44  C   UNL     1       7.577  -4.262   9.635  1.00  0.00     0.000 A 
ENDBRANCH  25  39
BRANCH  26  45
ATOM     45  C   UNL     1       6.948   7.784   5.412  1.00  0.00    -0.014 A 
ATOM     46  C   UNL     1       8.073   8.387   4.830  1.00  0.00     0.009 A 
ATOM     47  C   UNL     1       5.755   8.518   5.506  1.00  0.00     0.009 A 
ATOM     48  C   UNL     1       8.008   9.703   4.367  1.00  0.00     0.001 A 
ATOM     49  C   UNL     1       5.685   9.823   5.016  1.00  0.00     0.001 A 
ATOM     50  C   UNL     1       6.814  10.417   4.455  1.00  0.00     0.000 A 
ENDBRANCH  26  45
BRANCH  38  51
ATOM     51  C   UNL     1      10.263   4.752  10.717  1.00  0.00    -0.014 A 
ATOM     52  C   UNL     1       9.756   5.518  11.779  1.00  0.00     0.009 A 
ATOM     53  C   UNL     1      11.639   4.485  10.666  1.00  0.00     0.009 A 
ATOM     54  C   UNL     1      10.617   6.038  12.747  1.00  0.00     0.001 A 
ATOM     55  C   UNL     1      12.494   4.982  11.650  1.00  0.00     0.001 A 
ATOM     56  C   UNL     1      11.984   5.767  12.683  1.00  0.00     0.000 A 
ENDBRANCH  38  51
ENDBRANCH  12  13
ENDBRANCH   5   7
ENDBRANCH   2   3
ENDBRANCH   1   2
BRANCH   1  57
ATOM     57  C   UNL     1       3.734  -3.125  -2.413  1.00  0.00     0.023 C 
BRANCH  57  58
ATOM     58  C   UNL     1       4.566  -2.958  -3.690  1.00  0.00     0.116 C 
BRANCH  58  59
ATOM     59  N   UNL     1       5.871  -3.599  -3.591  1.00  0.00    -0.354 N 
ATOM     60  C   UNL     1       6.745  -4.011  -4.569  1.00  0.00     0.248 C 
ATOM     61  H   UNL     1       6.178  -3.766  -2.671  1.00  0.00     0.163 HD
ATOM     62  O   UNL     1       7.794  -4.551  -4.211  1.00  0.00    -0.272 OA
BRANCH  60  63
ATOM     63  C   UNL     1       6.367  -3.894  -6.057  1.00  0.00     0.231 C 
ATOM     64  C   UNL     1       6.920  -5.160  -6.781  1.00  0.00     0.296 C 
ATOM     65  N   UNL     1       6.494  -2.697  -6.954  1.00  0.00    -0.302 N 
ATOM     66  N   UNL     1       6.192  -5.458  -8.038  1.00  0.00    -0.343 N 
ATOM     67  C   UNL     1       5.686  -2.969  -8.169  1.00  0.00     0.183 C 
ATOM     68  C   UNL     1       6.175  -4.261  -8.901  1.00  0.00     0.282 C 
ATOM     69  H   UNL     1       5.234  -5.732  -7.819  1.00  0.00     0.346 HD
ATOM     70  H   UNL     1       6.663  -6.220  -8.528  1.00  0.00     0.346 HD
BRANCH  65  71
ATOM     71  C   UNL     1       7.679  -2.109  -7.314  1.00  0.00     0.318 C 
ATOM     72  O   UNL     1       8.121  -2.177  -8.470  1.00  0.00    -0.249 OA
ATOM     73  N   UNL     1       8.403  -1.279  -6.575  1.00  0.00    -0.333 N 
ATOM     74  H   UNL     1       9.235  -1.100  -7.070  1.00  0.00     0.165 HD
BRANCH  73  75
ATOM     75  C   UNL     1       8.472  -0.519  -5.324  1.00  0.00     0.112 C 
ATOM     76  C   UNL     1       9.901  -0.648  -4.816  1.00  0.00     0.056 C 
ATOM     77  C   UNL     1       7.712  -1.015  -4.123  1.00  0.00     0.185 C 
ATOM     78  C   UNL     1       9.816  -1.992  -4.126  1.00  0.00     0.162 C 
ATOM     79  O   UNL     1       8.552  -1.961  -3.441  1.00  0.00    -0.379 OA
ENDBRANCH  73  75
ENDBRANCH  65  71
ENDBRANCH  60  63
ENDBRANCH  58  59
ENDBRANCH  57  58
ENDBRANCH   1  57
TORSDOF 13
