REMARK SMILES Cc1cc(Cl)cc2c1O[C@H](C(F)(F)F)C(C(=O)NCCCCNC(=O)c1ccc(-c3c4nc(c(-c5ccccc5)c5ccc([nH]5)c(-c5ccccc5)c5nc(c(-c6ccccc6)c6ccc3[nH]6)C=C5)C=C4)cc1)=C2
REMARK SMILES IDX 21 1 20 2 19 3 18 4 16 5 17 6 15 8 1 9 2 10 3 11 8 12 4 13
REMARK SMILES IDX 7 14 9 15 5 16 6 17 74 18 10 19 11 20 12 21 13 22 14 23
REMARK SMILES IDX 22 24 23 25 24 26 25 28 26 29 27 30 73 31 28 32 72 33 29 34
REMARK SMILES IDX 30 35 31 36 66 37 32 38 71 39 65 40 67 41 33 42 70 43 64 44
REMARK SMILES IDX 63 45 34 47 56 48 41 49 55 50 42 51 45 52 54 53 68 54 43 55
REMARK SMILES IDX 44 56 53 58 69 59 46 60 35 61 36 62 40 63 37 64 39 65 38 66
REMARK SMILES IDX 57 67 58 68 62 69 59 70 61 71 60 72 47 73 48 74 52 75 49 76
REMARK SMILES IDX 51 77 50 78
REMARK H PARENT 18 7 23 27 67 46 45 57
REMARK Flexibility Score: inf
ROOT
ATOM      1  C   UNL     1      -0.677  -6.339   5.766  1.00  0.00     0.023 C 
ENDROOT
BRANCH   1   2
ATOM      2  C   UNL     1      -0.492  -5.264   4.694  1.00  0.00     0.023 C 
BRANCH   2   3
ATOM      3  C   UNL     1      -1.722  -4.388   4.475  1.00  0.00     0.116 C 
BRANCH   3   4
ATOM      4  N   UNL     1      -1.782  -3.292   5.424  1.00  0.00    -0.352 N 
ATOM      5  C   UNL     1      -1.506  -1.967   5.417  1.00  0.00     0.251 C 
ATOM      6  O   UNL     1      -1.696  -1.388   6.492  1.00  0.00    -0.270 OA
ATOM      7  H   UNL     1      -2.109  -3.591   6.303  1.00  0.00     0.163 HD
BRANCH   5   8
ATOM      8  C   UNL     1      -1.007  -1.196   4.241  1.00  0.00     0.067 C 
ATOM      9  C   UNL     1       1.033   0.430  -0.208  1.00  0.00     0.048 C 
ATOM     10  C   UNL     1       0.608   1.071   1.082  1.00  0.00    -0.007 A 
ATOM     11  C   UNL     1       0.738   2.457   1.242  1.00  0.00     0.027 A 
ATOM     12  C   UNL     1       0.128   0.312   2.159  1.00  0.00     0.131 A 
ATOM     13  C   UNL     1       0.380   3.063   2.447  1.00  0.00     0.042 A 
ATOM     14  C   UNL     1      -0.227   0.919   3.370  1.00  0.00     0.019 A 
ATOM     15  O   UNL     1       0.066  -1.045   2.000  1.00  0.00    -0.475 OA
ATOM     16  Cl  UNL     1       0.545   4.767   2.623  1.00  0.00    -0.084 Cl
ATOM     17  C   UNL     1      -0.100   2.303   3.512  1.00  0.00     0.032 A 
ATOM     18  C   UNL     1      -0.688   0.090   4.479  1.00  0.00     0.025 C 
ATOM     19  C   UNL     1      -0.885  -1.745   2.848  1.00  0.00     0.314 C 
BRANCH  19  20
ATOM     20  C   UNL     1      -2.243  -1.846   2.126  1.00  0.00     0.429 C 
ATOM     21  F   UNL     1      -2.136  -2.633   1.026  1.00  0.00    -0.167 F 
ATOM     22  F   UNL     1      -3.201  -2.404   2.903  1.00  0.00    -0.167 F 
ATOM     23  F   UNL     1      -2.713  -0.645   1.722  1.00  0.00    -0.167 F 
ENDBRANCH  19  20
ENDBRANCH   5   8
ENDBRANCH   3   4
ENDBRANCH   2   3
ENDBRANCH   1   2
BRANCH   1  24
ATOM     24  C   UNL     1      -1.872  -7.267   5.561  1.00  0.00     0.116 C 
BRANCH  24  25
ATOM     25  N   UNL     1      -1.939  -7.860   4.232  1.00  0.00    -0.352 N 
ATOM     26  C   UNL     1      -2.405  -9.106   3.886  1.00  0.00     0.251 C 
ATOM     27  H   UNL     1      -1.611  -7.301   3.491  1.00  0.00     0.163 HD
ATOM     28  O   UNL     1      -2.347  -9.508   2.731  1.00  0.00    -0.269 OA
BRANCH  26  29
ATOM     29  C   UNL     1      -2.933  -9.972   4.955  1.00  0.00     0.039 A 
ATOM     30  C   UNL     1      -2.326 -11.208   5.175  1.00  0.00     0.014 A 
ATOM     31  C   UNL     1      -3.949  -9.507   5.794  1.00  0.00     0.014 A 
ATOM     32  C   UNL     1      -2.689 -11.953   6.295  1.00  0.00     0.010 A 
ATOM     33  C   UNL     1      -4.263 -10.221   6.944  1.00  0.00     0.010 A 
ATOM     34  C   UNL     1      -3.631 -11.446   7.206  1.00  0.00    -0.014 A 
BRANCH  34  35
ATOM     35  C   UNL     1      -3.957 -12.191   8.443  1.00  0.00     0.031 A 
ATOM     36  C   UNL     1      -5.319 -12.794   8.618  1.00  0.00     0.074 A 
ATOM     37  C   UNL     1      -3.034 -12.296   9.418  1.00  0.00     0.049 A 
ATOM     38  N   UNL     1      -5.779 -13.507   9.614  1.00  0.00    -0.248 NA
ATOM     39  C   UNL     1      -6.298 -12.550   7.547  1.00  0.00     0.031 C 
ATOM     40  C   UNL     1      -1.691 -11.711   9.383  1.00  0.00     0.029 A 
ATOM     41  N   UNL     1      -3.083 -12.945  10.626  1.00  0.00    -0.354 N 
ATOM     42  C   UNL     1      -7.097 -13.792   9.291  1.00  0.00     0.074 A 
ATOM     43  C   UNL     1      -7.384 -13.130   8.038  1.00  0.00     0.031 C 
ATOM     44  C   UNL     1      -1.028 -12.068  10.496  1.00  0.00     0.029 A 
ATOM     45  C   UNL     1      -1.905 -12.883  11.331  1.00  0.00     0.049 A 
ATOM     46  H   UNL     1      -3.885 -13.410  10.956  1.00  0.00     0.167 HD
ATOM     47  C   UNL     1      -7.983 -14.563   9.962  1.00  0.00     0.031 A 
ATOM     48  C   UNL     1      -1.566 -13.438  12.509  1.00  0.00     0.031 A 
ATOM     49  C   UNL     1      -7.694 -15.239  11.194  1.00  0.00     0.049 A 
ATOM     50  C   UNL     1      -2.572 -14.277  13.244  1.00  0.00     0.074 A 
ATOM     51  C   UNL     1      -8.501 -16.101  11.914  1.00  0.00     0.029 A 
ATOM     52  N   UNL     1      -6.500 -15.127  11.889  1.00  0.00    -0.354 N 
ATOM     53  N   UNL     1      -3.791 -14.601  12.886  1.00  0.00    -0.248 NA
ATOM     54  C   UNL     1      -2.156 -14.828  14.542  1.00  0.00     0.031 C 
ATOM     55  C   UNL     1      -7.807 -16.484  13.066  1.00  0.00     0.029 A 
ATOM     56  C   UNL     1      -6.557 -15.886  13.044  1.00  0.00     0.049 A 
ATOM     57  H   UNL     1      -5.727 -14.589  11.603  1.00  0.00     0.167 HD
ATOM     58  C   UNL     1      -4.282 -15.405  13.905  1.00  0.00     0.074 A 
ATOM     59  C   UNL     1      -3.227 -15.529  14.891  1.00  0.00     0.031 C 
ATOM     60  C   UNL     1      -5.499 -15.989  14.013  1.00  0.00     0.031 A 
BRANCH  47  61
ATOM     61  C   UNL     1      -9.346 -14.726   9.356  1.00  0.00    -0.014 A 
ATOM     62  C   UNL     1      -9.534 -15.529   8.220  1.00  0.00     0.009 A 
ATOM     63  C   UNL     1     -10.454 -14.094   9.938  1.00  0.00     0.009 A 
ATOM     64  C   UNL     1     -10.804 -15.669   7.658  1.00  0.00     0.001 A 
ATOM     65  C   UNL     1     -11.726 -14.255   9.386  1.00  0.00     0.001 A 
ATOM     66  C   UNL     1     -11.899 -15.035   8.243  1.00  0.00     0.000 A 
ENDBRANCH  47  61
BRANCH  48  67
ATOM     67  C   UNL     1      -0.194 -13.256  13.044  1.00  0.00    -0.014 A 
ATOM     68  C   UNL     1       0.732 -14.308  12.978  1.00  0.00     0.009 A 
ATOM     69  C   UNL     1       0.203 -12.034  13.607  1.00  0.00     0.009 A 
ATOM     70  C   UNL     1       2.026 -14.143  13.477  1.00  0.00     0.001 A 
ATOM     71  C   UNL     1       1.503 -11.867  14.089  1.00  0.00     0.001 A 
ATOM     72  C   UNL     1       2.412 -12.923  14.028  1.00  0.00     0.000 A 
ENDBRANCH  48  67
BRANCH  60  73
ATOM     73  C   UNL     1      -5.764 -16.817  15.234  1.00  0.00    -0.014 A 
ATOM     74  C   UNL     1      -6.088 -16.206  16.455  1.00  0.00     0.009 A 
ATOM     75  C   UNL     1      -5.783 -18.217  15.140  1.00  0.00     0.009 A 
ATOM     76  C   UNL     1      -6.420 -16.986  17.563  1.00  0.00     0.001 A 
ATOM     77  C   UNL     1      -6.133 -18.992  16.245  1.00  0.00     0.001 A 
ATOM     78  C   UNL     1      -6.450 -18.377  17.456  1.00  0.00     0.000 A 
ENDBRANCH  60  73
ENDBRANCH  34  35
ENDBRANCH  26  29
ENDBRANCH  24  25
ENDBRANCH   1  24
TORSDOF 12
