REMARK SMILES [NH3+][C@@H](CC1=C[C@H](S)c2ccccc2C1)C(=O)NCCCCNC(=O)c1ccc(-c2c3nc(c(-c4ccccc4)c4ccc([nH]4)c(-c4ccccc4)c4nc(c(-c5ccccc5)c5ccc2[nH]5)C=C4)C=C3)cc1
REMARK SMILES IDX 19 1 18 2 17 3 15 4 16 5 2 7 1 8 3 12 4 13 5 14 14 15 6 16
REMARK SMILES IDX 13 17 8 18 12 19 9 20 11 21 10 22 7 23 20 25 21 26 22 27
REMARK SMILES IDX 23 28 24 30 25 31 26 32 72 33 27 34 71 35 28 36 29 37 30 38
REMARK SMILES IDX 65 39 31 40 70 41 64 42 66 43 32 44 69 45 63 46 62 47 33 49
REMARK SMILES IDX 55 50 40 51 54 52 41 53 44 54 53 55 67 56 42 57 43 58 52 60
REMARK SMILES IDX 68 61 45 62 34 63 35 64 39 65 36 66 38 67 37 68 56 69 57 70
REMARK SMILES IDX 61 71 58 72 60 73 59 74 46 75 47 76 51 77 48 78 50 79 49 80
REMARK H PARENT 17 6 1 9 1 10 1 11 7 24 22 29 66 48 44 59
REMARK Flexibility Score: inf
ROOT
ATOM      1  C   UNL     1      -1.980  -1.179  -1.972  1.00  0.00     0.023 C 
ENDROOT
BRANCH   1   2
ATOM      2  C   UNL     1      -1.452   0.221  -1.702  1.00  0.00     0.116 C 
BRANCH   2   3
ATOM      3  N   UNL     1      -1.859   0.790  -0.441  1.00  0.00    -0.351 N 
ATOM      4  C   UNL     1      -1.109   1.451   0.494  1.00  0.00     0.278 C 
ATOM      5  O   UNL     1      -1.729   2.081   1.358  1.00  0.00    -0.268 OA
ATOM      6  H   UNL     1      -2.813   0.688  -0.220  1.00  0.00     0.163 HD
BRANCH   4   7
ATOM      7  C   UNL     1       0.441   1.431   0.500  1.00  0.00     0.275 C 
BRANCH   7   8
ATOM      8  N   UNL     1       0.980   0.056   0.536  1.00  0.00    -0.347 N 
ATOM      9  H   UNL     1       2.000   0.091   0.539  1.00  0.00     0.345 HD
ATOM     10  H   UNL     1       0.660  -0.456  -0.285  1.00  0.00     0.345 HD
ATOM     11  H   UNL     1       0.653  -0.415   1.380  1.00  0.00     0.345 HD
ENDBRANCH   7   8
BRANCH   7  12
ATOM     12  C   UNL     1       1.136   2.434  -0.459  1.00  0.00     0.106 C 
BRANCH  12  13
ATOM     13  C   UNL     1       1.033   2.273  -1.963  1.00  0.00    -0.062 C 
ATOM     14  C   UNL     1       0.344   3.154  -2.718  1.00  0.00    -0.009 C 
ATOM     15  C   UNL     1       1.794   1.148  -2.628  1.00  0.00     0.066 C 
ATOM     16  C   UNL     1       0.176   3.035  -4.220  1.00  0.00     0.096 C 
ATOM     17  C   UNL     1       1.199   0.720  -3.955  1.00  0.00    -0.039 A 
ATOM     18  C   UNL     1       0.457   1.629  -4.740  1.00  0.00    -0.028 A 
ATOM     19  C   UNL     1       1.420  -0.590  -4.415  1.00  0.00     0.004 A 
ATOM     20  C   UNL     1       0.026   1.213  -6.012  1.00  0.00     0.005 A 
ATOM     21  C   UNL     1       0.930  -0.998  -5.653  1.00  0.00     0.000 A 
ATOM     22  C   UNL     1       0.252  -0.091  -6.457  1.00  0.00     0.000 A 
BRANCH  16  23
ATOM     23  S   UNL     1      -1.537   3.598  -4.589  1.00  0.00    -0.167 SA
ATOM     24  H   UNL     1      -2.426   2.808  -3.931  1.00  0.00     0.103 HD
ENDBRANCH  16  23
ENDBRANCH  12  13
ENDBRANCH   7  12
ENDBRANCH   4   7
ENDBRANCH   2   3
ENDBRANCH   1   2
BRANCH   1  25
ATOM     25  C   UNL     1      -3.445  -1.260  -2.377  1.00  0.00     0.023 C 
BRANCH  25  26
ATOM     26  C   UNL     1      -3.884  -0.330  -3.504  1.00  0.00     0.116 C 
BRANCH  26  27
ATOM     27  N   UNL     1      -3.111  -0.431  -4.737  1.00  0.00    -0.352 N 
ATOM     28  C   UNL     1      -3.569  -0.357  -6.040  1.00  0.00     0.251 C 
ATOM     29  H   UNL     1      -2.143  -0.569  -4.628  1.00  0.00     0.163 HD
ATOM     30  O   UNL     1      -2.820  -0.509  -6.994  1.00  0.00    -0.269 OA
BRANCH  28  31
ATOM     31  C   UNL     1      -5.015  -0.175  -6.274  1.00  0.00     0.039 A 
ATOM     32  C   UNL     1      -5.723   0.817  -5.596  1.00  0.00     0.014 A 
ATOM     33  C   UNL     1      -5.680  -1.107  -7.076  1.00  0.00     0.014 A 
ATOM     34  C   UNL     1      -7.106   0.726  -5.525  1.00  0.00     0.010 A 
ATOM     35  C   UNL     1      -7.074  -1.138  -7.076  1.00  0.00     0.010 A 
ATOM     36  C   UNL     1      -7.790  -0.280  -6.230  1.00  0.00    -0.014 A 
BRANCH  36  37
ATOM     37  C   UNL     1      -9.242  -0.468  -5.997  1.00  0.00     0.031 A 
ATOM     38  C   UNL     1      -9.746  -1.710  -5.308  1.00  0.00     0.074 A 
ATOM     39  C   UNL     1     -10.094   0.522  -6.316  1.00  0.00     0.049 A 
ATOM     40  N   UNL     1     -10.975  -2.030  -4.984  1.00  0.00    -0.248 NA
ATOM     41  C   UNL     1      -8.747  -2.724  -4.929  1.00  0.00     0.031 C 
ATOM     42  C   UNL     1      -9.713   1.787  -6.946  1.00  0.00     0.029 A 
ATOM     43  N   UNL     1     -11.444   0.638  -6.113  1.00  0.00    -0.354 N 
ATOM     44  C   UNL     1     -10.897  -3.284  -4.390  1.00  0.00     0.074 A 
ATOM     45  C   UNL     1      -9.507  -3.680  -4.415  1.00  0.00     0.031 C 
ATOM     46  C   UNL     1     -10.791   2.581  -7.012  1.00  0.00     0.029 A 
ATOM     47  C   UNL     1     -11.947   1.859  -6.489  1.00  0.00     0.049 A 
ATOM     48  H   UNL     1     -11.998  -0.082  -5.735  1.00  0.00     0.167 HD
ATOM     49  C   UNL     1     -11.894  -4.034  -3.863  1.00  0.00     0.031 A 
ATOM     50  C   UNL     1     -13.199   2.346  -6.422  1.00  0.00     0.031 A 
ATOM     51  C   UNL     1     -13.275  -3.634  -3.828  1.00  0.00     0.049 A 
ATOM     52  C   UNL     1     -14.292   1.485  -5.867  1.00  0.00     0.074 A 
ATOM     53  C   UNL     1     -14.363  -4.333  -3.336  1.00  0.00     0.029 A 
ATOM     54  N   UNL     1     -13.754  -2.419  -4.293  1.00  0.00    -0.354 N 
ATOM     55  N   UNL     1     -14.209   0.280  -5.358  1.00  0.00    -0.248 NA
ATOM     56  C   UNL     1     -15.651   2.042  -5.889  1.00  0.00     0.031 C 
ATOM     57  C   UNL     1     -15.507  -3.555  -3.535  1.00  0.00     0.029 A 
ATOM     58  C   UNL     1     -15.124  -2.353  -4.109  1.00  0.00     0.049 A 
ATOM     59  H   UNL     1     -13.202  -1.709  -4.694  1.00  0.00     0.167 HD
ATOM     60  C   UNL     1     -15.504  -0.070  -5.003  1.00  0.00     0.074 A 
ATOM     61  C   UNL     1     -16.350   1.060  -5.332  1.00  0.00     0.031 C 
ATOM     62  C   UNL     1     -15.950  -1.228  -4.460  1.00  0.00     0.031 A 
BRANCH  49  63
ATOM     63  C   UNL     1     -11.532  -5.378  -3.298  1.00  0.00    -0.014 A 
ATOM     64  C   UNL     1     -11.902  -6.546  -3.983  1.00  0.00     0.009 A 
ATOM     65  C   UNL     1     -10.876  -5.494  -2.062  1.00  0.00     0.009 A 
ATOM     66  C   UNL     1     -11.626  -7.803  -3.442  1.00  0.00     0.001 A 
ATOM     67  C   UNL     1     -10.580  -6.753  -1.535  1.00  0.00     0.001 A 
ATOM     68  C   UNL     1     -10.960  -7.906  -2.222  1.00  0.00     0.000 A 
ENDBRANCH  49  63
BRANCH  50  69
ATOM     69  C   UNL     1     -13.457   3.728  -6.896  1.00  0.00    -0.014 A 
ATOM     70  C   UNL     1     -13.404   4.030  -8.267  1.00  0.00     0.009 A 
ATOM     71  C   UNL     1     -13.663   4.765  -5.976  1.00  0.00     0.009 A 
ATOM     72  C   UNL     1     -13.522   5.350  -8.704  1.00  0.00     0.001 A 
ATOM     73  C   UNL     1     -13.804   6.082  -6.420  1.00  0.00     0.001 A 
ATOM     74  C   UNL     1     -13.722   6.375  -7.781  1.00  0.00     0.000 A 
ENDBRANCH  50  69
BRANCH  62  75
ATOM     75  C   UNL     1     -17.422  -1.344  -4.196  1.00  0.00    -0.014 A 
ATOM     76  C   UNL     1     -17.904  -1.280  -2.879  1.00  0.00     0.009 A 
ATOM     77  C   UNL     1     -18.320  -1.601  -5.243  1.00  0.00     0.009 A 
ATOM     78  C   UNL     1     -19.259  -1.477  -2.615  1.00  0.00     0.001 A 
ATOM     79  C   UNL     1     -19.678  -1.778  -4.976  1.00  0.00     0.001 A 
ATOM     80  C   UNL     1     -20.145  -1.723  -3.663  1.00  0.00     0.000 A 
ENDBRANCH  62  75
ENDBRANCH  36  37
ENDBRANCH  28  31
ENDBRANCH  26  27
ENDBRANCH  25  26
ENDBRANCH   1  25
TORSDOF 15
