REMARK SMILES CS(=O)(=O)c1ccc(-c2cc(Cl)cnc2-c2ccc(C(=O)NCCCCNC(=O)c3ccc(-c4c5nc(c(-c6ccccc6)c6ccc([nH]6)c(-c6ccccc6)c6nc(c(-c7ccccc7)c7ccc4[nH]7)C=C6)C=C5)cc3)nc2)cc1
REMARK SMILES IDX 24 1 23 2 22 3 20 4 21 5 19 7 16 8 17 9 79 10 18 11 78 12
REMARK SMILES IDX 15 13 9 14 10 15 11 16 14 17 12 18 13 19 8 20 5 21 6 22
REMARK SMILES IDX 81 23 7 24 80 25 2 26 1 27 3 28 4 29 25 30 26 31 27 32 28 33
REMARK SMILES IDX 29 35 30 36 31 37 77 38 32 39 76 40 33 41 34 42 35 43 70 44
REMARK SMILES IDX 36 45 75 46 69 47 71 48 37 49 74 50 68 51 67 52 38 54 60 55
REMARK SMILES IDX 45 56 59 57 46 58 49 59 58 60 72 61 47 62 48 63 57 65 73 66
REMARK SMILES IDX 50 67 39 68 40 69 44 70 41 71 43 72 42 73 61 74 62 75 66 76
REMARK SMILES IDX 63 77 65 78 64 79 51 80 52 81 56 82 53 83 55 84 54 85
REMARK H PARENT 22 6 27 34 71 53 49 64
REMARK Flexibility Score: inf
ROOT
ATOM      1  C   UNL     1       7.624  -1.719   1.714  1.00  0.00     0.023 C 
ENDROOT
BRANCH   1   2
ATOM      2  C   UNL     1       6.375  -2.126   0.928  1.00  0.00     0.116 C 
BRANCH   2   3
ATOM      3  N   UNL     1       6.417  -3.529   0.575  1.00  0.00    -0.351 N 
ATOM      4  C   UNL     1       5.872  -4.649   1.169  1.00  0.00     0.269 C 
ATOM      5  O   UNL     1       6.050  -5.718   0.582  1.00  0.00    -0.268 OA
ATOM      6  H   UNL     1       6.931  -3.720  -0.243  1.00  0.00     0.163 HD
BRANCH   4   7
ATOM      7  C   UNL     1       5.067  -4.608   2.442  1.00  0.00     0.128 A 
ATOM      8  C   UNL     1       3.431  -4.659   4.683  1.00  0.00     0.019 A 
ATOM      9  C   UNL     1       4.406  -3.670   4.550  1.00  0.00     0.014 A 
ATOM     10  C   UNL     1       3.382  -5.623   3.684  1.00  0.00     0.122 A 
ATOM     11  C   UNL     1       5.245  -3.658   3.438  1.00  0.00     0.035 A 
ATOM     12  N   UNL     1       4.150  -5.604   2.566  1.00  0.00    -0.250 NA
BRANCH   8  13
ATOM     13  C   UNL     1       2.499  -4.657   5.809  1.00  0.00     0.080 A 
ATOM     14  C   UNL     1       1.468  -3.701   5.940  1.00  0.00     0.010 A 
ATOM     15  C   UNL     1       0.708  -3.741   7.121  1.00  0.00     0.033 A 
ATOM     16  C   UNL     1       0.979  -4.695   8.095  1.00  0.00     0.060 A 
ATOM     17  N   UNL     1       2.760  -5.606   6.746  1.00  0.00    -0.254 NA
ATOM     18  Cl  UNL     1       0.071  -4.739   9.550  1.00  0.00    -0.083 Cl
ATOM     19  C   UNL     1       1.998  -5.601   7.865  1.00  0.00     0.132 A 
BRANCH  14  20
ATOM     20  C   UNL     1       1.173  -2.690   4.910  1.00  0.00    -0.016 A 
ATOM     21  C   UNL     1       0.613  -0.758   2.943  1.00  0.00     0.067 A 
ATOM     22  C   UNL     1       0.420  -2.110   2.658  1.00  0.00     0.021 A 
ATOM     23  C   UNL     1       1.075  -0.358   4.199  1.00  0.00     0.021 A 
ATOM     24  C   UNL     1       0.702  -3.066   3.638  1.00  0.00     0.010 A 
ATOM     25  C   UNL     1       1.349  -1.321   5.175  1.00  0.00     0.010 A 
BRANCH  21  26
ATOM     26  S   UNL     1       0.239   0.475   1.718  1.00  0.00     0.175 S 
ATOM     27  C   UNL     1       1.050  -0.071   0.239  1.00  0.00     0.163 C 
ATOM     28  O   UNL     1       0.889   1.702   2.129  1.00  0.00    -0.224 OA
ATOM     29  O   UNL     1      -1.196   0.419   1.500  1.00  0.00    -0.224 OA
ENDBRANCH  21  26
ENDBRANCH  14  20
ENDBRANCH   8  13
ENDBRANCH   4   7
ENDBRANCH   2   3
ENDBRANCH   1   2
BRANCH   1  30
ATOM     30  C   UNL     1       8.873  -1.493   0.860  1.00  0.00     0.023 C 
BRANCH  30  31
ATOM     31  C   UNL     1       8.765  -0.363  -0.156  1.00  0.00     0.116 C 
BRANCH  31  32
ATOM     32  N   UNL     1       8.413   0.919   0.435  1.00  0.00    -0.352 N 
ATOM     33  C   UNL     1       8.741   2.178  -0.006  1.00  0.00     0.251 C 
ATOM     34  H   UNL     1       7.871   0.879   1.256  1.00  0.00     0.163 HD
ATOM     35  O   UNL     1       8.444   3.167   0.654  1.00  0.00    -0.269 OA
BRANCH  33  36
ATOM     36  C   UNL     1       9.503   2.322  -1.262  1.00  0.00     0.039 A 
ATOM     37  C   UNL     1      10.669   3.090  -1.255  1.00  0.00     0.014 A 
ATOM     38  C   UNL     1       9.093   1.663  -2.424  1.00  0.00     0.014 A 
ATOM     39  C   UNL     1      11.468   3.138  -2.397  1.00  0.00     0.010 A 
ATOM     40  C   UNL     1       9.922   1.660  -3.541  1.00  0.00     0.010 A 
ATOM     41  C   UNL     1      11.119   2.392  -3.535  1.00  0.00    -0.014 A 
BRANCH  41  42
ATOM     42  C   UNL     1      11.998   2.357  -4.728  1.00  0.00     0.031 A 
ATOM     43  C   UNL     1      11.529   2.948  -6.027  1.00  0.00     0.074 A 
ATOM     44  C   UNL     1      13.189   1.732  -4.658  1.00  0.00     0.049 A 
ATOM     45  N   UNL     1      12.122   2.950  -7.193  1.00  0.00    -0.248 NA
ATOM     46  C   UNL     1      10.210   3.601  -6.019  1.00  0.00     0.031 C 
ATOM     47  C   UNL     1      13.742   1.085  -3.465  1.00  0.00     0.029 A 
ATOM     48  N   UNL     1      14.149   1.533  -5.618  1.00  0.00    -0.354 N 
ATOM     49  C   UNL     1      11.244   3.589  -8.059  1.00  0.00     0.074 A 
ATOM     50  C   UNL     1      10.060   3.920  -7.296  1.00  0.00     0.031 C 
ATOM     51  C   UNL     1      14.954   0.586  -3.759  1.00  0.00     0.029 A 
ATOM     52  C   UNL     1      15.247   0.844  -5.165  1.00  0.00     0.049 A 
ATOM     53  H   UNL     1      14.059   1.854  -6.545  1.00  0.00     0.167 HD
ATOM     54  C   UNL     1      11.416   3.891  -9.367  1.00  0.00     0.031 A 
ATOM     55  C   UNL     1      16.363   0.461  -5.811  1.00  0.00     0.031 A 
ATOM     56  C   UNL     1      12.597   3.577 -10.124  1.00  0.00     0.049 A 
ATOM     57  C   UNL     1      16.525   0.802  -7.266  1.00  0.00     0.074 A 
ATOM     58  C   UNL     1      12.882   3.880 -11.444  1.00  0.00     0.029 A 
ATOM     59  N   UNL     1      13.691   2.889  -9.624  1.00  0.00    -0.354 N 
ATOM     60  N   UNL     1      15.707   1.453  -8.056  1.00  0.00    -0.248 NA
ATOM     61  C   UNL     1      17.770   0.364  -7.912  1.00  0.00     0.031 C 
ATOM     62  C   UNL     1      14.138   3.346 -11.753  1.00  0.00     0.029 A 
ATOM     63  C   UNL     1      14.650   2.748 -10.612  1.00  0.00     0.049 A 
ATOM     64  H   UNL     1      13.774   2.552  -8.703  1.00  0.00     0.167 HD
ATOM     65  C   UNL     1      16.350   1.527  -9.285  1.00  0.00     0.074 A 
ATOM     66  C   UNL     1      17.630   0.866  -9.131  1.00  0.00     0.031 C 
ATOM     67  C   UNL     1      15.919   2.093 -10.438  1.00  0.00     0.031 A 
BRANCH  54  68
ATOM     68  C   UNL     1      10.291   4.605 -10.061  1.00  0.00    -0.014 A 
ATOM     69  C   UNL     1      10.012   5.953  -9.786  1.00  0.00     0.009 A 
ATOM     70  C   UNL     1       9.519   3.932 -11.020  1.00  0.00     0.009 A 
ATOM     71  C   UNL     1       8.960   6.604 -10.434  1.00  0.00     0.001 A 
ATOM     72  C   UNL     1       8.484   4.593 -11.685  1.00  0.00     0.001 A 
ATOM     73  C   UNL     1       8.200   5.924 -11.385  1.00  0.00     0.000 A 
ENDBRANCH  54  68
BRANCH  55  74
ATOM     74  C   UNL     1      17.433  -0.272  -5.086  1.00  0.00    -0.014 A 
ATOM     75  C   UNL     1      18.645   0.366  -4.782  1.00  0.00     0.009 A 
ATOM     76  C   UNL     1      17.256  -1.612  -4.710  1.00  0.00     0.009 A 
ATOM     77  C   UNL     1      19.671  -0.333  -4.141  1.00  0.00     0.001 A 
ATOM     78  C   UNL     1      18.274  -2.300  -4.047  1.00  0.00     0.001 A 
ATOM     79  C   UNL     1      19.484  -1.664  -3.772  1.00  0.00     0.000 A 
ENDBRANCH  55  74
BRANCH  67  80
ATOM     80  C   UNL     1      16.857   2.056 -11.610  1.00  0.00    -0.014 A 
ATOM     81  C   UNL     1      17.072   0.872 -12.331  1.00  0.00     0.009 A 
ATOM     82  C   UNL     1      17.503   3.233 -12.018  1.00  0.00     0.009 A 
ATOM     83  C   UNL     1      17.942   0.863 -13.423  1.00  0.00     0.001 A 
ATOM     84  C   UNL     1      18.353   3.225 -13.124  1.00  0.00     0.001 A 
ATOM     85  C   UNL     1      18.578   2.039 -13.820  1.00  0.00     0.000 A 
ENDBRANCH  67  80
ENDBRANCH  41  42
ENDBRANCH  33  36
ENDBRANCH  31  32
ENDBRANCH  30  31
ENDBRANCH   1  30
TORSDOF 14
