REMARK SMILES CS(=O)(=O)c1ccc(/C=C(/C(=O)NCCCCNC(=O)c2ccc(-c3c4nc(c(-c5ccccc5)c5ccc([nH]5)c(-c5ccccc5)c5nc(c(-c6ccccc6)c6ccc3[nH]6)C=C5)C=C4)cc2)c2ccc(O)cc2)cc1
REMARK SMILES IDX 15 1 14 2 13 3 11 4 12 5 10 7 9 8 8 9 5 10 6 11 77 12 7 13
REMARK SMILES IDX 76 14 2 15 1 16 3 17 4 18 69 19 70 20 75 21 71 22 74 23
REMARK SMILES IDX 72 24 73 25 16 27 17 28 18 29 19 30 20 32 21 33 22 34 68 35
REMARK SMILES IDX 23 36 67 37 24 38 25 39 26 40 61 41 27 42 66 43 60 44 62 45
REMARK SMILES IDX 28 46 65 47 59 48 58 49 29 51 51 52 36 53 50 54 37 55 40 56
REMARK SMILES IDX 49 57 63 58 38 59 39 60 48 62 64 63 41 64 30 65 31 66 35 67
REMARK SMILES IDX 32 68 34 69 33 70 52 71 53 72 57 73 54 74 56 75 55 76 42 77
REMARK SMILES IDX 43 78 47 79 44 80 46 81 45 82
REMARK H PARENT 13 6 73 26 18 31 62 50 40 61
REMARK Flexibility Score: inf
ROOT
ATOM      1  C   UNL     1       1.818   8.198  -4.425  1.00  0.00     0.023 C 
ENDROOT
BRANCH   1   2
ATOM      2  C   UNL     1       1.419   7.307  -5.604  1.00  0.00     0.116 C 
BRANCH   2   3
ATOM      3  N   UNL     1       2.581   7.010  -6.416  1.00  0.00    -0.352 N 
ATOM      4  C   UNL     1       3.426   5.948  -6.502  1.00  0.00     0.251 C 
ATOM      5  O   UNL     1       4.368   6.079  -7.287  1.00  0.00    -0.269 OA
ATOM      6  H   UNL     1       2.809   7.734  -7.042  1.00  0.00     0.163 HD
BRANCH   4   7
ATOM      7  C   UNL     1       3.211   4.639  -5.770  1.00  0.00     0.047 C 
ATOM      8  C   UNL     1       2.611   4.580  -4.558  1.00  0.00     0.022 C 
BRANCH   8   9
ATOM      9  C   UNL     1       2.162   3.412  -3.765  1.00  0.00    -0.025 A 
ATOM     10  C   UNL     1       1.062   1.224  -2.396  1.00  0.00     0.067 A 
ATOM     11  C   UNL     1       2.335   1.124  -2.956  1.00  0.00     0.021 A 
ATOM     12  C   UNL     1       0.340   2.413  -2.480  1.00  0.00     0.021 A 
ATOM     13  C   UNL     1       2.894   2.231  -3.602  1.00  0.00     0.009 A 
ATOM     14  C   UNL     1       0.894   3.500  -3.162  1.00  0.00     0.009 A 
BRANCH  10  15
ATOM     15  S   UNL     1       0.344  -0.194  -1.605  1.00  0.00     0.175 S 
ATOM     16  C   UNL     1       0.990  -0.095   0.043  1.00  0.00     0.163 C 
ATOM     17  O   UNL     1       0.892  -1.373  -2.243  1.00  0.00    -0.224 OA
ATOM     18  O   UNL     1      -1.092   0.019  -1.540  1.00  0.00    -0.224 OA
ENDBRANCH  10  15
ENDBRANCH   8   9
BRANCH   7  19
ATOM     19  C   UNL     1       3.866   3.436  -6.344  1.00  0.00    -0.013 A 
ATOM     20  C   UNL     1       5.272   3.388  -6.341  1.00  0.00     0.013 A 
ATOM     21  C   UNL     1       3.151   2.306  -6.766  1.00  0.00     0.013 A 
ATOM     22  C   UNL     1       5.949   2.220  -6.683  1.00  0.00     0.047 A 
ATOM     23  C   UNL     1       3.831   1.123  -7.083  1.00  0.00     0.047 A 
ATOM     24  C   UNL     1       5.222   1.087  -7.017  1.00  0.00     0.115 A 
BRANCH  24  25
ATOM     25  O   UNL     1       5.919  -0.061  -7.247  1.00  0.00    -0.508 OA
ATOM     26  H   UNL     1       6.855  -0.059  -7.196  1.00  0.00     0.293 HD
ENDBRANCH  24  25
ENDBRANCH   7  19
ENDBRANCH   4   7
ENDBRANCH   2   3
ENDBRANCH   1   2
BRANCH   1  27
ATOM     27  C   UNL     1       2.136   9.644  -4.820  1.00  0.00     0.023 C 
BRANCH  27  28
ATOM     28  C   UNL     1       0.982  10.392  -5.473  1.00  0.00     0.116 C 
BRANCH  28  29
ATOM     29  N   UNL     1      -0.204  10.464  -4.630  1.00  0.00    -0.352 N 
ATOM     30  C   UNL     1      -1.088  11.509  -4.508  1.00  0.00     0.251 C 
ATOM     31  H   UNL     1      -0.394   9.669  -4.080  1.00  0.00     0.163 HD
ATOM     32  O   UNL     1      -1.983  11.491  -3.672  1.00  0.00    -0.269 OA
BRANCH  30  33
ATOM     33  C   UNL     1      -0.910  12.676  -5.392  1.00  0.00     0.039 A 
ATOM     34  C   UNL     1      -0.761  13.944  -4.829  1.00  0.00     0.014 A 
ATOM     35  C   UNL     1      -0.791  12.483  -6.770  1.00  0.00     0.014 A 
ATOM     36  C   UNL     1      -0.415  15.020  -5.649  1.00  0.00     0.010 A 
ATOM     37  C   UNL     1      -0.371  13.537  -7.569  1.00  0.00     0.010 A 
ATOM     38  C   UNL     1      -0.178  14.815  -7.017  1.00  0.00    -0.014 A 
BRANCH  38  39
ATOM     39  C   UNL     1       0.253  15.911  -7.918  1.00  0.00     0.031 A 
ATOM     40  C   UNL     1      -0.630  16.302  -9.069  1.00  0.00     0.074 A 
ATOM     41  C   UNL     1       1.470  16.471  -7.774  1.00  0.00     0.049 A 
ATOM     42  N   UNL     1      -0.374  17.095 -10.077  1.00  0.00    -0.248 NA
ATOM     43  C   UNL     1      -1.970  15.690  -9.108  1.00  0.00     0.031 C 
ATOM     44  C   UNL     1       2.427  16.169  -6.708  1.00  0.00     0.029 A 
ATOM     45  N   UNL     1       2.119  17.401  -8.549  1.00  0.00    -0.354 N 
ATOM     46  C   UNL     1      -1.504  17.051 -10.883  1.00  0.00     0.074 A 
ATOM     47  C   UNL     1      -2.427  16.119 -10.274  1.00  0.00     0.031 C 
ATOM     48  C   UNL     1       3.534  16.907  -6.890  1.00  0.00     0.029 A 
ATOM     49  C   UNL     1       3.390  17.691  -8.113  1.00  0.00     0.049 A 
ATOM     50  H   UNL     1       1.712  17.820  -9.341  1.00  0.00     0.167 HD
ATOM     51  C   UNL     1      -1.757  17.736 -12.022  1.00  0.00     0.031 A 
ATOM     52  C   UNL     1       4.340  18.480  -8.652  1.00  0.00     0.031 A 
ATOM     53  C   UNL     1      -0.842  18.671 -12.617  1.00  0.00     0.049 A 
ATOM     54  C   UNL     1       4.050  19.202  -9.941  1.00  0.00     0.074 A 
ATOM     55  C   UNL     1      -1.022  19.453 -13.743  1.00  0.00     0.029 A 
ATOM     56  N   UNL     1       0.428  18.946 -12.133  1.00  0.00    -0.354 N 
ATOM     57  N   UNL     1       2.958  19.190 -10.667  1.00  0.00    -0.248 NA
ATOM     58  C   UNL     1       5.121  20.052 -10.482  1.00  0.00     0.031 C 
ATOM     59  C   UNL     1       0.161  20.159 -13.975  1.00  0.00     0.029 A 
ATOM     60  C   UNL     1       1.050  19.871 -12.952  1.00  0.00     0.049 A 
ATOM     61  H   UNL     1       0.826  18.544 -11.327  1.00  0.00     0.167 HD
ATOM     62  C   UNL     1       3.195  20.061 -11.723  1.00  0.00     0.074 A 
ATOM     63  C   UNL     1       4.532  20.585 -11.544  1.00  0.00     0.031 C 
ATOM     64  C   UNL     1       2.373  20.401 -12.745  1.00  0.00     0.031 A 
BRANCH  51  65
ATOM     65  C   UNL     1      -3.073  17.487 -12.705  1.00  0.00    -0.014 A 
ATOM     66  C   UNL     1      -4.286  17.895 -12.128  1.00  0.00     0.009 A 
ATOM     67  C   UNL     1      -3.096  16.861 -13.962  1.00  0.00     0.009 A 
ATOM     68  C   UNL     1      -5.497  17.644 -12.775  1.00  0.00     0.001 A 
ATOM     69  C   UNL     1      -4.306  16.643 -14.623  1.00  0.00     0.001 A 
ATOM     70  C   UNL     1      -5.506  17.025 -14.024  1.00  0.00     0.000 A 
ENDBRANCH  51  65
BRANCH  52  71
ATOM     71  C   UNL     1       5.658  18.631  -7.979  1.00  0.00    -0.014 A 
ATOM     72  C   UNL     1       6.024  19.856  -7.398  1.00  0.00     0.009 A 
ATOM     73  C   UNL     1       6.564  17.561  -7.926  1.00  0.00     0.009 A 
ATOM     74  C   UNL     1       7.280  20.014  -6.806  1.00  0.00     0.001 A 
ATOM     75  C   UNL     1       7.807  17.712  -7.305  1.00  0.00     0.001 A 
ATOM     76  C   UNL     1       8.168  18.941  -6.756  1.00  0.00     0.000 A 
ENDBRANCH  52  71
BRANCH  64  77
ATOM     77  C   UNL     1       2.855  21.440 -13.719  1.00  0.00    -0.014 A 
ATOM     78  C   UNL     1       3.832  21.150 -14.681  1.00  0.00     0.009 A 
ATOM     79  C   UNL     1       2.240  22.703 -13.730  1.00  0.00     0.009 A 
ATOM     80  C   UNL     1       4.194  22.112 -15.627  1.00  0.00     0.001 A 
ATOM     81  C   UNL     1       2.581  23.650 -14.695  1.00  0.00     0.001 A 
ATOM     82  C   UNL     1       3.561  23.355 -15.640  1.00  0.00     0.000 A 
ENDBRANCH  64  77
ENDBRANCH  38  39
ENDBRANCH  30  33
ENDBRANCH  28  29
ENDBRANCH  27  28
ENDBRANCH   1  27
TORSDOF 15
