REMARK SMILES O=C(NCCCCNC(=O)c1cccc2cccc([S@](=O)c3ccccc3CO)c12)c1ccc(-c2c3nc(c(-c4ccccc4)c4ccc([nH]4)c(-c4ccccc4)c4nc(c(-c5ccccc5)c5ccc2[nH]5)C=C4)C=C3)cc1
REMARK SMILES IDX 6 1 5 2 4 3 3 4 1 5 2 6 31 8 32 9 78 10 33 11 77 12 34 13
REMARK SMILES IDX 35 14 36 15 71 16 37 17 76 18 70 19 72 20 38 21 75 22 69 23
REMARK SMILES IDX 68 24 39 26 61 27 46 28 60 29 47 30 50 31 59 32 73 33 48 34
REMARK SMILES IDX 49 35 58 37 74 38 51 39 40 40 41 41 45 42 42 43 44 44 43 45
REMARK SMILES IDX 62 46 63 47 67 48 64 49 66 50 65 51 52 52 53 53 57 54 54 55
REMARK SMILES IDX 56 56 55 57 7 58 8 59 9 60 10 62 11 63 12 64 30 65 13 66
REMARK SMILES IDX 15 67 19 68 14 69 16 70 18 71 17 72 20 73 21 74 22 75 23 76
REMARK SMILES IDX 27 77 24 78 26 79 25 80 28 81 29 82
REMARK H PARENT 3 7 72 25 50 36 8 61 29 83
REMARK Flexibility Score: inf
ROOT
ATOM      1  C   UNL     1       8.945   5.535 -10.199  1.00  0.00     0.023 C 
ENDROOT
BRANCH   1   2
ATOM      2  C   UNL     1       7.502   5.411 -10.678  1.00  0.00     0.023 C 
BRANCH   2   3
ATOM      3  C   UNL     1       6.783   6.720 -10.974  1.00  0.00     0.116 C 
BRANCH   3   4
ATOM      4  N   UNL     1       7.346   7.465 -12.091  1.00  0.00    -0.352 N 
ATOM      5  O   UNL     1       7.375   8.505 -14.097  1.00  0.00    -0.269 OA
ATOM      6  C   UNL     1       6.720   7.971 -13.212  1.00  0.00     0.251 C 
ATOM      7  H   UNL     1       8.315   7.631 -12.040  1.00  0.00     0.163 HD
BRANCH   6   8
ATOM      8  C   UNL     1       5.252   7.833 -13.363  1.00  0.00     0.039 A 
ATOM      9  C   UNL     1       4.398   8.088 -12.291  1.00  0.00     0.014 A 
ATOM     10  C   UNL     1       4.724   7.421 -14.592  1.00  0.00     0.014 A 
ATOM     11  C   UNL     1       3.054   7.751 -12.387  1.00  0.00     0.010 A 
ATOM     12  C   UNL     1       3.350   7.182 -14.718  1.00  0.00     0.010 A 
ATOM     13  C   UNL     1       2.509   7.302 -13.603  1.00  0.00    -0.014 A 
BRANCH  13  14
ATOM     14  C   UNL     1       1.050   7.024 -13.666  1.00  0.00     0.031 A 
ATOM     15  C   UNL     1       0.517   5.639 -13.915  1.00  0.00     0.074 A 
ATOM     16  C   UNL     1       0.197   8.035 -13.406  1.00  0.00     0.049 A 
ATOM     17  N   UNL     1      -0.726   5.221 -13.886  1.00  0.00    -0.248 NA
ATOM     18  C   UNL     1       1.492   4.588 -14.245  1.00  0.00     0.031 C 
ATOM     19  C   UNL     1       0.589   9.427 -13.167  1.00  0.00     0.029 A 
ATOM     20  N   UNL     1      -1.166   8.044 -13.252  1.00  0.00    -0.354 N 
ATOM     21  C   UNL     1      -0.683   3.869 -14.204  1.00  0.00     0.074 A 
ATOM     22  C   UNL     1       0.705   3.540 -14.449  1.00  0.00     0.031 C 
ATOM     23  C   UNL     1      -0.494  10.135 -12.819  1.00  0.00     0.029 A 
ATOM     24  C   UNL     1      -1.663   9.266 -12.871  1.00  0.00     0.049 A 
ATOM     25  H   UNL     1      -1.732   7.252 -13.400  1.00  0.00     0.167 HD
ATOM     26  C   UNL     1      -1.705   2.982 -14.277  1.00  0.00     0.031 A 
ATOM     27  C   UNL     1      -2.920   9.653 -12.591  1.00  0.00     0.031 A 
ATOM     28  C   UNL     1      -3.087   3.307 -14.031  1.00  0.00     0.049 A 
ATOM     29  C   UNL     1      -4.029   8.648 -12.674  1.00  0.00     0.074 A 
ATOM     30  C   UNL     1      -4.192   2.472 -14.077  1.00  0.00     0.029 A 
ATOM     31  N   UNL     1      -3.554   4.566 -13.686  1.00  0.00    -0.354 N 
ATOM     32  N   UNL     1      -3.964   7.372 -12.963  1.00  0.00    -0.248 NA
ATOM     33  C   UNL     1      -5.384   9.139 -12.393  1.00  0.00     0.031 C 
ATOM     34  C   UNL     1      -5.331   3.235 -13.797  1.00  0.00     0.029 A 
ATOM     35  C   UNL     1      -4.931   4.534 -13.531  1.00  0.00     0.049 A 
ATOM     36  H   UNL     1      -2.990   5.364 -13.569  1.00  0.00     0.167 HD
ATOM     37  C   UNL     1      -5.269   6.906 -12.901  1.00  0.00     0.074 A 
ATOM     38  C   UNL     1      -6.098   8.027 -12.508  1.00  0.00     0.031 C 
ATOM     39  C   UNL     1      -5.741   5.662 -13.159  1.00  0.00     0.031 A 
BRANCH  26  40
ATOM     40  C   UNL     1      -1.373   1.565 -14.655  1.00  0.00    -0.014 A 
ATOM     41  C   UNL     1      -0.757   0.696 -13.741  1.00  0.00     0.009 A 
ATOM     42  C   UNL     1      -1.741   1.073 -15.917  1.00  0.00     0.009 A 
ATOM     43  C   UNL     1      -0.496  -0.631 -14.092  1.00  0.00     0.001 A 
ATOM     44  C   UNL     1      -1.500  -0.260 -16.258  1.00  0.00     0.001 A 
ATOM     45  C   UNL     1      -0.873  -1.109 -15.347  1.00  0.00     0.000 A 
ENDBRANCH  26  40
BRANCH  27  46
ATOM     46  C   UNL     1      -3.192  11.065 -12.221  1.00  0.00    -0.014 A 
ATOM     47  C   UNL     1      -3.572  11.406 -10.915  1.00  0.00     0.009 A 
ATOM     48  C   UNL     1      -3.059  12.083 -13.179  1.00  0.00     0.009 A 
ATOM     49  C   UNL     1      -3.833  12.737 -10.581  1.00  0.00     0.001 A 
ATOM     50  C   UNL     1      -3.290  13.415 -12.835  1.00  0.00     0.001 A 
ATOM     51  C   UNL     1      -3.686  13.740 -11.539  1.00  0.00     0.000 A 
ENDBRANCH  27  46
BRANCH  39  52
ATOM     52  C   UNL     1      -7.223   5.465 -13.021  1.00  0.00    -0.014 A 
ATOM     53  C   UNL     1      -8.112   5.990 -13.972  1.00  0.00     0.009 A 
ATOM     54  C   UNL     1      -7.734   4.748 -11.929  1.00  0.00     0.009 A 
ATOM     55  C   UNL     1      -9.490   5.836 -13.808  1.00  0.00     0.001 A 
ATOM     56  C   UNL     1      -9.111   4.575 -11.782  1.00  0.00     0.001 A 
ATOM     57  C   UNL     1      -9.988   5.128 -12.715  1.00  0.00     0.000 A 
ENDBRANCH  39  52
ENDBRANCH  13  14
ENDBRANCH   6   8
ENDBRANCH   3   4
ENDBRANCH   2   3
ENDBRANCH   1   2
BRANCH   1  58
ATOM     58  C   UNL     1       9.184   6.507  -9.047  1.00  0.00     0.116 C 
BRANCH  58  59
ATOM     59  N   UNL     1       8.395   6.227  -7.856  1.00  0.00    -0.352 N 
ATOM     60  C   UNL     1       8.823   6.048  -6.557  1.00  0.00     0.251 C 
ATOM     61  H   UNL     1       7.423   6.157  -7.997  1.00  0.00     0.163 HD
ATOM     62  O   UNL     1       8.030   5.934  -5.628  1.00  0.00    -0.269 OA
BRANCH  60  63
ATOM     63  C   UNL     1      10.265   6.127  -6.272  1.00  0.00     0.048 A 
ATOM     64  C   UNL     1      10.777   7.433  -6.453  1.00  0.00     0.014 A 
ATOM     65  C   UNL     1      11.074   5.023  -5.815  1.00  0.00     0.011 A 
ATOM     66  C   UNL     1      12.117   7.697  -6.267  1.00  0.00     0.001 A 
ATOM     67  C   UNL     1      12.446   5.377  -5.592  1.00  0.00    -0.016 A 
ATOM     68  C   UNL     1      10.741   3.633  -5.554  1.00  0.00     0.052 A 
ATOM     69  C   UNL     1      12.940   6.670  -5.839  1.00  0.00     0.009 A 
ATOM     70  C   UNL     1      13.384   4.450  -5.118  1.00  0.00     0.009 A 
ATOM     71  C   UNL     1      11.735   2.735  -5.087  1.00  0.00     0.019 A 
ATOM     72  C   UNL     1      13.035   3.140  -4.852  1.00  0.00     0.002 A 
BRANCH  68  73
ATOM     73  S   UNL     1       9.183   2.756  -5.869  1.00  0.00     0.086 S 
ATOM     74  O   UNL     1       8.432   3.439  -6.960  1.00  0.00    -0.249 OA
BRANCH  73  75
ATOM     75  C   UNL     1       8.311   2.932  -4.271  1.00  0.00     0.049 A 
ATOM     76  C   UNL     1       9.041   3.097  -3.074  1.00  0.00     0.018 A 
ATOM     77  C   UNL     1       6.922   2.678  -4.156  1.00  0.00    -0.006 A 
ATOM     78  C   UNL     1       8.444   2.979  -1.813  1.00  0.00     0.001 A 
ATOM     79  C   UNL     1       6.342   2.543  -2.871  1.00  0.00     0.007 A 
ATOM     80  C   UNL     1       7.095   2.683  -1.711  1.00  0.00     0.000 A 
BRANCH  77  81
ATOM     81  C   UNL     1       5.979   2.482  -5.318  1.00  0.00     0.192 C 
BRANCH  81  82
ATOM     82  O   UNL     1       5.692   1.097  -5.487  1.00  0.00    -0.392 OA
ATOM     83  H   UNL     1       6.514   0.616  -5.665  1.00  0.00     0.211 HD
ENDBRANCH  81  82
ENDBRANCH  77  81
ENDBRANCH  73  75
ENDBRANCH  68  73
ENDBRANCH  60  63
ENDBRANCH  58  59
ENDBRANCH   1  58
TORSDOF 15
