REMARK SMILES CCN(C(=O)N(CCOC)CC(=O)NCCCCNC(=O)c1ccc(-c2c3nc(c(-c4ccccc4)c4ccc([nH]4)c(-c4ccccc4)c4nc(c(-c5ccccc5)c5ccc2[nH]5)C=C4)C=C3)cc1)C1CCCC1
REMARK SMILES IDX 15 1 14 2 12 3 13 4 11 6 6 7 4 8 5 9 3 10 2 11 1 12 70 13
REMARK SMILES IDX 71 14 74 15 72 16 73 17 7 18 8 19 9 20 10 21 16 22 17 23
REMARK SMILES IDX 18 24 19 25 20 26 21 28 22 29 23 30 69 31 24 32 68 33 25 34
REMARK SMILES IDX 26 35 27 36 62 37 28 38 67 39 61 40 63 41 29 42 66 43 60 44
REMARK SMILES IDX 59 45 30 47 52 48 37 49 51 50 38 51 41 52 50 53 64 54 39 55
REMARK SMILES IDX 40 56 49 58 65 59 42 60 31 61 32 62 36 63 33 64 35 65 34 66
REMARK SMILES IDX 53 67 54 68 58 69 55 70 57 71 56 72 43 73 44 74 48 75 45 76
REMARK SMILES IDX 47 77 46 78
REMARK H PARENT 14 5 19 27 63 46 41 57
REMARK Flexibility Score: inf
ROOT
ATOM      1  C   UNL     1      -1.975  -4.519  -2.529  1.00  0.00     0.116 C 
ENDROOT
BRANCH   1   2
ATOM      2  N   UNL     1      -1.624  -5.628  -1.679  1.00  0.00    -0.355 N 
ATOM      3  C   UNL     1      -1.666  -5.704  -0.313  1.00  0.00     0.239 C 
ATOM      4  O   UNL     1      -1.682  -6.842   0.172  1.00  0.00    -0.273 OA
ATOM      5  H   UNL     1      -1.313  -6.439  -2.142  1.00  0.00     0.163 HD
BRANCH   3   6
ATOM      6  C   UNL     1      -1.919  -4.466   0.582  1.00  0.00     0.221 C 
BRANCH   6   7
ATOM      7  N   UNL     1      -1.299  -3.183   0.201  1.00  0.00    -0.313 N 
BRANCH   7   8
ATOM      8  C   UNL     1       0.092  -3.230   0.234  1.00  0.00     0.320 C 
ATOM      9  O   UNL     1       0.634  -4.202   0.774  1.00  0.00    -0.248 OA
BRANCH   8  10
ATOM     10  N   UNL     1       0.879  -2.281  -0.414  1.00  0.00    -0.322 N 
BRANCH  10  11
ATOM     11  C   UNL     1       0.431  -1.029  -1.025  1.00  0.00     0.118 C 
ATOM     12  C   UNL     1       0.636   0.167  -0.097  1.00  0.00     0.027 C 
ENDBRANCH  10  11
BRANCH  10  13
ATOM     13  C   UNL     1       2.337  -2.583  -0.412  1.00  0.00     0.087 C 
ATOM     14  C   UNL     1       2.705  -3.841  -1.223  1.00  0.00     0.025 C 
ATOM     15  C   UNL     1       3.322  -1.571  -1.023  1.00  0.00     0.025 C 
ATOM     16  C   UNL     1       4.229  -3.825  -1.244  1.00  0.00     0.002 C 
ATOM     17  C   UNL     1       4.620  -2.353  -1.236  1.00  0.00     0.002 C 
ENDBRANCH  10  13
ENDBRANCH   8  10
ENDBRANCH   7   8
BRANCH   7  18
ATOM     18  C   UNL     1      -2.130  -1.994   0.476  1.00  0.00     0.150 C 
BRANCH  18  19
ATOM     19  C   UNL     1      -3.213  -1.652  -0.570  1.00  0.00     0.181 C 
BRANCH  19  20
ATOM     20  O   UNL     1      -4.478  -2.217  -0.217  1.00  0.00    -0.383 OA
ATOM     21  C   UNL     1      -4.943  -3.236  -1.087  1.00  0.00     0.194 C 
ENDBRANCH  19  20
ENDBRANCH  18  19
ENDBRANCH   7  18
ENDBRANCH   6   7
ENDBRANCH   3   6
ENDBRANCH   1   2
BRANCH   1  22
ATOM     22  C   UNL     1      -0.970  -4.224  -3.631  1.00  0.00     0.023 C 
BRANCH  22  23
ATOM     23  C   UNL     1      -1.002  -5.199  -4.803  1.00  0.00     0.023 C 
BRANCH  23  24
ATOM     24  C   UNL     1      -2.361  -5.372  -5.479  1.00  0.00     0.116 C 
BRANCH  24  25
ATOM     25  N   UNL     1      -2.897  -4.143  -6.050  1.00  0.00    -0.352 N 
ATOM     26  C   UNL     1      -3.294  -3.876  -7.345  1.00  0.00     0.251 C 
ATOM     27  H   UNL     1      -2.989  -3.393  -5.419  1.00  0.00     0.163 HD
ATOM     28  O   UNL     1      -3.640  -2.755  -7.671  1.00  0.00    -0.269 OA
BRANCH  26  29
ATOM     29  C   UNL     1      -3.240  -4.962  -8.349  1.00  0.00     0.039 A 
ATOM     30  C   UNL     1      -2.530  -4.747  -9.533  1.00  0.00     0.014 A 
ATOM     31  C   UNL     1      -3.810  -6.208  -8.080  1.00  0.00     0.014 A 
ATOM     32  C   UNL     1      -2.281  -5.823 -10.388  1.00  0.00     0.010 A 
ATOM     33  C   UNL     1      -3.495  -7.292  -8.893  1.00  0.00     0.010 A 
ATOM     34  C   UNL     1      -2.700  -7.116 -10.037  1.00  0.00    -0.014 A 
BRANCH  34  35
ATOM     35  C   UNL     1      -2.257  -8.311 -10.800  1.00  0.00     0.031 A 
ATOM     36  C   UNL     1      -3.262  -9.196 -11.479  1.00  0.00     0.074 A 
ATOM     37  C   UNL     1      -0.955  -8.660 -10.786  1.00  0.00     0.049 A 
ATOM     38  N   UNL     1      -3.076 -10.344 -12.080  1.00  0.00    -0.248 NA
ATOM     39  C   UNL     1      -4.662  -8.745 -11.459  1.00  0.00     0.031 C 
ATOM     40  C   UNL     1       0.120  -7.913 -10.127  1.00  0.00     0.029 A 
ATOM     41  N   UNL     1      -0.315  -9.747 -11.329  1.00  0.00    -0.354 N 
ATOM     42  C   UNL     1      -4.335 -10.762 -12.490  1.00  0.00     0.074 A 
ATOM     43  C   UNL     1      -5.281  -9.764 -12.037  1.00  0.00     0.031 C 
ATOM     44  C   UNL     1       1.284  -8.552 -10.320  1.00  0.00     0.029 A 
ATOM     45  C   UNL     1       1.035  -9.778 -11.071  1.00  0.00     0.049 A 
ATOM     46  H   UNL     1      -0.779 -10.439 -11.853  1.00  0.00     0.167 HD
ATOM     47  C   UNL     1      -4.672 -11.869 -13.193  1.00  0.00     0.031 A 
ATOM     48  C   UNL     1       1.967 -10.697 -11.384  1.00  0.00     0.031 A 
ATOM     49  C   UNL     1      -3.734 -12.857 -13.653  1.00  0.00     0.049 A 
ATOM     50  C   UNL     1       1.561 -11.934 -12.134  1.00  0.00     0.074 A 
ATOM     51  C   UNL     1      -3.974 -13.974 -14.435  1.00  0.00     0.029 A 
ATOM     52  N   UNL     1      -2.378 -12.852 -13.368  1.00  0.00    -0.354 N 
ATOM     53  N   UNL     1       0.376 -12.278 -12.576  1.00  0.00    -0.248 NA
ATOM     54  C   UNL     1       2.621 -12.909 -12.426  1.00  0.00     0.031 C 
ATOM     55  C   UNL     1      -2.771 -14.673 -14.580  1.00  0.00     0.029 A 
ATOM     56  C   UNL     1      -1.774 -13.965 -13.928  1.00  0.00     0.049 A 
ATOM     57  H   UNL     1      -1.913 -12.159 -12.844  1.00  0.00     0.167 HD
ATOM     58  C   UNL     1       0.550 -13.502 -13.207  1.00  0.00     0.074 A 
ATOM     59  C   UNL     1       1.957 -13.830 -13.111  1.00  0.00     0.031 C 
ATOM     60  C   UNL     1      -0.376 -14.285 -13.812  1.00  0.00     0.031 A 
BRANCH  47  61
ATOM     61  C   UNL     1      -6.128 -12.074 -13.500  1.00  0.00    -0.014 A 
ATOM     62  C   UNL     1      -6.791 -11.273 -14.443  1.00  0.00     0.009 A 
ATOM     63  C   UNL     1      -6.837 -13.105 -12.865  1.00  0.00     0.009 A 
ATOM     64  C   UNL     1      -8.144 -11.480 -14.719  1.00  0.00     0.001 A 
ATOM     65  C   UNL     1      -8.183 -13.326 -13.162  1.00  0.00     0.001 A 
ATOM     66  C   UNL     1      -8.837 -12.508 -14.082  1.00  0.00     0.000 A 
ENDBRANCH  47  61
BRANCH  48  67
ATOM     67  C   UNL     1       3.381 -10.492 -10.978  1.00  0.00    -0.014 A 
ATOM     68  C   UNL     1       4.358 -10.186 -11.938  1.00  0.00     0.009 A 
ATOM     69  C   UNL     1       3.764 -10.609  -9.632  1.00  0.00     0.009 A 
ATOM     70  C   UNL     1       5.692 -10.021 -11.561  1.00  0.00     0.001 A 
ATOM     71  C   UNL     1       5.095 -10.418  -9.256  1.00  0.00     0.001 A 
ATOM     72  C   UNL     1       6.059 -10.133 -10.221  1.00  0.00     0.000 A 
ENDBRANCH  48  67
BRANCH  60  73
ATOM     73  C   UNL     1       0.107 -15.569 -14.421  1.00  0.00    -0.014 A 
ATOM     74  C   UNL     1       0.448 -16.667 -13.617  1.00  0.00     0.009 A 
ATOM     75  C   UNL     1       0.182 -15.696 -15.817  1.00  0.00     0.009 A 
ATOM     76  C   UNL     1       0.880 -17.861 -14.199  1.00  0.00     0.001 A 
ATOM     77  C   UNL     1       0.590 -16.899 -16.396  1.00  0.00     0.001 A 
ATOM     78  C   UNL     1       0.945 -17.977 -15.587  1.00  0.00     0.000 A 
ENDBRANCH  60  73
ENDBRANCH  34  35
ENDBRANCH  26  29
ENDBRANCH  24  25
ENDBRANCH  23  24
ENDBRANCH  22  23
ENDBRANCH   1  22
TORSDOF 19
