REMARK SMILES O=C(NCCCCNC(=O)[C@@H](Cc1ccc(F)cc1)NC(=O)c1ccn(C2CCCC2)n1)c1ccc(-c2c3nc(c(-c4ccccc4)c4ccc([nH]4)c(-c4ccccc4)c4nc(c(-c5ccccc5)c5ccc2[nH]5)C=C4)C=C3)cc1
REMARK SMILES IDX 6 1 5 2 4 3 3 4 1 5 2 6 33 8 34 9 80 10 35 11 79 12 36 13
REMARK SMILES IDX 37 14 38 15 73 16 39 17 78 18 72 19 74 20 40 21 77 22 71 23
REMARK SMILES IDX 70 24 41 26 63 27 48 28 62 29 49 30 52 31 61 32 75 33 50 34
REMARK SMILES IDX 51 35 60 37 76 38 53 39 42 40 43 41 47 42 44 43 46 44 45 45
REMARK SMILES IDX 64 46 65 47 69 48 66 49 68 50 67 51 54 52 55 53 59 54 56 55
REMARK SMILES IDX 58 56 57 57 7 58 8 59 9 60 10 62 11 63 12 64 13 65 14 66
REMARK SMILES IDX 19 67 15 68 18 69 16 70 17 71 20 72 21 73 22 75 23 76 24 77
REMARK SMILES IDX 32 78 25 79 26 80 27 81 28 82 31 83 29 84 30 85
REMARK H PARENT 3 7 74 25 52 36 8 61 20 74
REMARK Flexibility Score: inf
ROOT
ATOM      1  C   UNL     1       5.786   2.393  -0.801  1.00  0.00     0.023 C 
ENDROOT
BRANCH   1   2
ATOM      2  C   UNL     1       5.692   0.868  -0.726  1.00  0.00     0.023 C 
BRANCH   2   3
ATOM      3  C   UNL     1       4.737   0.251   0.291  1.00  0.00     0.116 C 
BRANCH   3   4
ATOM      4  N   UNL     1       3.357   0.678   0.190  1.00  0.00    -0.352 N 
ATOM      5  O   UNL     1       1.187   0.306   0.431  1.00  0.00    -0.269 OA
ATOM      6  C   UNL     1       2.222  -0.015  -0.157  1.00  0.00     0.251 C 
ATOM      7  H   UNL     1       3.206   1.627   0.407  1.00  0.00     0.163 HD
BRANCH   6   8
ATOM      8  C   UNL     1       2.135  -1.024  -1.252  1.00  0.00     0.039 A 
ATOM      9  C   UNL     1       3.192  -1.427  -2.064  1.00  0.00     0.014 A 
ATOM     10  C   UNL     1       0.843  -1.506  -1.553  1.00  0.00     0.014 A 
ATOM     11  C   UNL     1       2.953  -2.220  -3.189  1.00  0.00     0.010 A 
ATOM     12  C   UNL     1       0.599  -2.302  -2.671  1.00  0.00     0.010 A 
ATOM     13  C   UNL     1       1.653  -2.632  -3.514  1.00  0.00    -0.014 A 
BRANCH  13  14
ATOM     14  C   UNL     1       1.478  -3.543  -4.648  1.00  0.00     0.031 A 
ATOM     15  C   UNL     1       2.202  -4.840  -4.498  1.00  0.00     0.074 A 
ATOM     16  C   UNL     1       0.660  -3.350  -5.704  1.00  0.00     0.049 A 
ATOM     17  N   UNL     1       3.179  -5.290  -5.214  1.00  0.00    -0.248 NA
ATOM     18  C   UNL     1       1.866  -5.684  -3.340  1.00  0.00     0.031 C 
ATOM     19  C   UNL     1      -0.345  -2.304  -5.905  1.00  0.00     0.029 A 
ATOM     20  N   UNL     1       0.505  -4.134  -6.813  1.00  0.00    -0.354 N 
ATOM     21  C   UNL     1       3.490  -6.547  -4.700  1.00  0.00     0.074 A 
ATOM     22  C   UNL     1       2.734  -6.687  -3.480  1.00  0.00     0.031 C 
ATOM     23  C   UNL     1      -1.146  -2.643  -6.944  1.00  0.00     0.029 A 
ATOM     24  C   UNL     1      -0.623  -3.846  -7.572  1.00  0.00     0.049 A 
ATOM     25  H   UNL     1       1.141  -4.846  -7.054  1.00  0.00     0.167 HD
ATOM     26  C   UNL     1       4.205  -7.462  -5.411  1.00  0.00     0.031 A 
ATOM     27  C   UNL     1      -1.109  -4.565  -8.617  1.00  0.00     0.031 A 
ATOM     28  C   UNL     1       4.904  -6.862  -6.514  1.00  0.00     0.049 A 
ATOM     29  C   UNL     1      -0.011  -5.411  -9.131  1.00  0.00     0.074 A 
ATOM     30  C   UNL     1       5.892  -5.907  -6.640  1.00  0.00     0.029 A 
ATOM     31  N   UNL     1       4.339  -6.986  -7.760  1.00  0.00    -0.354 N 
ATOM     32  N   UNL     1       1.038  -4.937  -9.738  1.00  0.00    -0.248 NA
ATOM     33  C   UNL     1       0.124  -6.757  -8.600  1.00  0.00     0.031 C 
ATOM     34  C   UNL     1       5.530  -5.162  -7.800  1.00  0.00     0.029 A 
ATOM     35  C   UNL     1       4.387  -5.749  -8.345  1.00  0.00     0.049 A 
ATOM     36  H   UNL     1       3.969  -7.807  -8.156  1.00  0.00     0.167 HD
ATOM     37  C   UNL     1       2.086  -5.722  -9.285  1.00  0.00     0.074 A 
ATOM     38  C   UNL     1       1.452  -6.884  -8.665  1.00  0.00     0.031 C 
ATOM     39  C   UNL     1       3.355  -5.225  -9.210  1.00  0.00     0.031 A 
BRANCH  26  40
ATOM     40  C   UNL     1       3.961  -8.949  -5.342  1.00  0.00    -0.014 A 
ATOM     41  C   UNL     1       4.780  -9.808  -6.099  1.00  0.00     0.009 A 
ATOM     42  C   UNL     1       2.785  -9.505  -4.805  1.00  0.00     0.009 A 
ATOM     43  C   UNL     1       4.398 -11.127  -6.370  1.00  0.00     0.001 A 
ATOM     44  C   UNL     1       2.421 -10.834  -5.041  1.00  0.00     0.001 A 
ATOM     45  C   UNL     1       3.213 -11.636  -5.849  1.00  0.00     0.000 A 
ENDBRANCH  26  40
BRANCH  27  46
ATOM     46  C   UNL     1      -2.512  -4.797  -9.031  1.00  0.00    -0.014 A 
ATOM     47  C   UNL     1      -2.819  -5.288 -10.312  1.00  0.00     0.009 A 
ATOM     48  C   UNL     1      -3.530  -4.825  -8.061  1.00  0.00     0.009 A 
ATOM     49  C   UNL     1      -4.084  -5.823 -10.598  1.00  0.00     0.001 A 
ATOM     50  C   UNL     1      -4.792  -5.360  -8.346  1.00  0.00     0.001 A 
ATOM     51  C   UNL     1      -5.065  -5.873  -9.610  1.00  0.00     0.000 A 
ENDBRANCH  27  46
BRANCH  39  52
ATOM     52  C   UNL     1       3.639  -3.892  -9.853  1.00  0.00    -0.014 A 
ATOM     53  C   UNL     1       3.018  -2.696  -9.452  1.00  0.00     0.009 A 
ATOM     54  C   UNL     1       4.696  -3.818 -10.773  1.00  0.00     0.009 A 
ATOM     55  C   UNL     1       3.435  -1.465  -9.972  1.00  0.00     0.001 A 
ATOM     56  C   UNL     1       5.126  -2.589 -11.275  1.00  0.00     0.001 A 
ATOM     57  C   UNL     1       4.495  -1.413 -10.876  1.00  0.00     0.000 A 
ENDBRANCH  39  52
ENDBRANCH  13  14
ENDBRANCH   6   8
ENDBRANCH   3   4
ENDBRANCH   2   3
ENDBRANCH   1   2
BRANCH   1  58
ATOM     58  C   UNL     1       5.906   3.231   0.494  1.00  0.00     0.116 C 
BRANCH  58  59
ATOM     59  N   UNL     1       6.980   4.216   0.336  1.00  0.00    -0.354 N 
ATOM     60  C   UNL     1       7.133   5.549   0.176  1.00  0.00     0.242 C 
ATOM     61  H   UNL     1       7.857   3.770   0.352  1.00  0.00     0.163 HD
ATOM     62  O   UNL     1       8.273   5.865  -0.211  1.00  0.00    -0.273 OA
BRANCH  60  63
ATOM     63  C   UNL     1       6.102   6.697   0.380  1.00  0.00     0.176 C 
BRANCH  63  64
ATOM     64  C   UNL     1       5.180   7.121  -0.793  1.00  0.00     0.070 C 
BRANCH  64  65
ATOM     65  C   UNL     1       3.849   6.426  -0.929  1.00  0.00    -0.045 A 
ATOM     66  C   UNL     1       3.836   5.083  -1.284  1.00  0.00     0.007 A 
ATOM     67  C   UNL     1       2.620   7.077  -0.764  1.00  0.00     0.007 A 
ATOM     68  C   UNL     1       2.656   4.341  -1.300  1.00  0.00     0.039 A 
ATOM     69  C   UNL     1       1.421   6.356  -0.851  1.00  0.00     0.039 A 
ATOM     70  C   UNL     1       1.454   4.986  -1.074  1.00  0.00     0.123 A 
ATOM     71  F   UNL     1       0.314   4.284  -1.099  1.00  0.00    -0.207 F 
ENDBRANCH  64  65
ENDBRANCH  63  64
BRANCH  63  72
ATOM     72  N   UNL     1       5.461   6.752   1.689  1.00  0.00    -0.339 N 
ATOM     73  C   UNL     1       5.769   7.562   2.774  1.00  0.00     0.272 C 
ATOM     74  H   UNL     1       4.708   6.131   1.822  1.00  0.00     0.164 HD
ATOM     75  O   UNL     1       5.199   7.312   3.835  1.00  0.00    -0.267 OA
BRANCH  73  76
ATOM     76  C   UNL     1       6.737   8.681   2.636  1.00  0.00     0.150 A 
ATOM     77  C   UNL     1       6.854   9.642   1.589  1.00  0.00     0.056 A 
ATOM     78  N   UNL     1       7.646   8.946   3.599  1.00  0.00    -0.167 NA
ATOM     79  C   UNL     1       7.924  10.437   1.921  1.00  0.00     0.110 A 
ATOM     80  N   UNL     1       8.347  10.002   3.142  1.00  0.00    -0.269 N 
BRANCH  80  81
ATOM     81  C   UNL     1       9.408  10.597   3.928  1.00  0.00     0.107 C 
ATOM     82  C   UNL     1       8.948  11.198   5.255  1.00  0.00     0.027 C 
ATOM     83  C   UNL     1      10.519   9.637   4.352  1.00  0.00     0.027 C 
ATOM     84  C   UNL     1      10.252  11.423   6.010  1.00  0.00     0.002 C 
ATOM     85  C   UNL     1      11.211  10.336   5.522  1.00  0.00     0.002 C 
ENDBRANCH  80  81
ENDBRANCH  73  76
ENDBRANCH  63  72
ENDBRANCH  60  63
ENDBRANCH  58  59
ENDBRANCH   1  58
TORSDOF 16
