REMARK SMILES C[C@@H]1CN(c2cc(C(=O)NCCCCNC(=O)c3ccc(-c4c5nc(c(-c6ccccc6)c6ccc([nH]6)c(-c6ccccc6)c6nc(c(-c7ccccc7)c7ccc4[nH]7)C=C6)C=C5)cc3)c(F)cc2F)S(=O)(=O)C1
REMARK SMILES IDX 13 1 12 2 11 3 10 4 8 5 9 6 7 8 5 9 6 10 69 11 68 12 70 13
REMARK SMILES IDX 66 14 67 15 4 16 1 17 2 18 3 19 74 20 71 21 72 22 73 23
REMARK SMILES IDX 14 24 15 25 16 26 17 28 18 29 19 30 65 31 20 32 64 33 21 34
REMARK SMILES IDX 22 35 23 36 58 37 24 38 63 39 57 40 59 41 25 42 62 43 56 44
REMARK SMILES IDX 55 45 26 47 48 48 33 49 47 50 34 51 37 52 46 53 60 54 35 55
REMARK SMILES IDX 36 56 45 58 61 59 38 60 27 61 28 62 32 63 29 64 31 65 30 66
REMARK SMILES IDX 49 67 50 68 54 69 51 70 53 71 52 72 39 73 40 74 44 75 41 76
REMARK SMILES IDX 43 77 42 78
REMARK H PARENT 10 7 15 27 59 46 37 57
REMARK Flexibility Score: inf
ROOT
ATOM      1  C   UNL     1       0.101  10.667  -5.732  1.00  0.00     0.023 C 
ENDROOT
BRANCH   1   2
ATOM      2  C   UNL     1       1.035   9.868  -4.837  1.00  0.00     0.023 C 
BRANCH   2   3
ATOM      3  C   UNL     1       0.540   9.575  -3.429  1.00  0.00     0.116 C 
BRANCH   3   4
ATOM      4  N   UNL     1      -0.531   8.603  -3.363  1.00  0.00    -0.352 N 
ATOM      5  C   UNL     1      -0.721   7.477  -2.603  1.00  0.00     0.254 C 
ATOM      6  O   UNL     1      -1.786   6.878  -2.783  1.00  0.00    -0.269 OA
ATOM      7  H   UNL     1      -1.269   8.787  -3.988  1.00  0.00     0.163 HD
BRANCH   5   8
ATOM      8  C   UNL     1       0.274   6.876  -1.666  1.00  0.00     0.077 A 
ATOM      9  C   UNL     1       0.935   4.854  -0.470  1.00  0.00     0.088 A 
ATOM     10  C   UNL     1       0.052   5.531  -1.314  1.00  0.00     0.047 A 
ATOM     11  C   UNL     1       2.154   5.444  -0.146  1.00  0.00     0.150 A 
ATOM     12  C   UNL     1       2.352   6.790  -0.399  1.00  0.00     0.081 A 
ATOM     13  F   UNL     1       3.116   4.747   0.473  1.00  0.00    -0.205 F 
ATOM     14  C   UNL     1       1.363   7.513  -1.068  1.00  0.00     0.139 A 
ATOM     15  F   UNL     1       1.466   8.846  -1.009  1.00  0.00    -0.206 F 
BRANCH   9  16
ATOM     16  N   UNL     1       0.504   3.603   0.062  1.00  0.00    -0.267 N 
ATOM     17  C   UNL     1       1.165  -0.105   0.019  1.00  0.00     0.011 C 
ATOM     18  C   UNL     1       0.547   1.224   0.408  1.00  0.00     0.023 C 
ATOM     19  C   UNL     1       0.801   2.334  -0.628  1.00  0.00     0.140 C 
ATOM     20  C   UNL     1       1.092   1.768   1.727  1.00  0.00     0.165 C 
ATOM     21  S   UNL     1       0.449   3.429   1.771  1.00  0.00     0.235 S 
ATOM     22  O   UNL     1       1.390   4.295   2.435  1.00  0.00    -0.206 OA
ATOM     23  O   UNL     1      -0.946   3.372   2.160  1.00  0.00    -0.206 OA
ENDBRANCH   9  16
ENDBRANCH   5   8
ENDBRANCH   3   4
ENDBRANCH   2   3
ENDBRANCH   1   2
BRANCH   1  24
ATOM     24  C   UNL     1      -0.445  11.957  -5.134  1.00  0.00     0.116 C 
BRANCH  24  25
ATOM     25  N   UNL     1       0.583  12.860  -4.629  1.00  0.00    -0.352 N 
ATOM     26  C   UNL     1       0.749  14.205  -4.866  1.00  0.00     0.251 C 
ATOM     27  H   UNL     1       1.253  12.449  -4.035  1.00  0.00     0.163 HD
ATOM     28  O   UNL     1       1.724  14.806  -4.430  1.00  0.00    -0.269 OA
BRANCH  26  29
ATOM     29  C   UNL     1      -0.246  14.910  -5.697  1.00  0.00     0.039 A 
ATOM     30  C   UNL     1       0.192  15.656  -6.793  1.00  0.00     0.014 A 
ATOM     31  C   UNL     1      -1.610  14.750  -5.445  1.00  0.00     0.014 A 
ATOM     32  C   UNL     1      -0.744  16.159  -7.697  1.00  0.00     0.010 A 
ATOM     33  C   UNL     1      -2.533  15.167  -6.395  1.00  0.00     0.010 A 
ATOM     34  C   UNL     1      -2.109  15.869  -7.535  1.00  0.00    -0.014 A 
BRANCH  34  35
ATOM     35  C   UNL     1      -3.111  16.269  -8.553  1.00  0.00     0.031 A 
ATOM     36  C   UNL     1      -4.223  17.211  -8.187  1.00  0.00     0.074 A 
ATOM     37  C   UNL     1      -3.065  15.726  -9.785  1.00  0.00     0.049 A 
ATOM     38  N   UNL     1      -5.220  17.637  -8.921  1.00  0.00    -0.248 NA
ATOM     39  C   UNL     1      -4.230  17.719  -6.806  1.00  0.00     0.031 C 
ATOM     40  C   UNL     1      -2.060  14.771 -10.256  1.00  0.00     0.029 A 
ATOM     41  N   UNL     1      -3.889  15.901 -10.869  1.00  0.00    -0.354 N 
ATOM     42  C   UNL     1      -5.977  18.449  -8.087  1.00  0.00     0.074 A 
ATOM     43  C   UNL     1      -5.364  18.400  -6.778  1.00  0.00     0.031 C 
ATOM     44  C   UNL     1      -2.299  14.482 -11.546  1.00  0.00     0.029 A 
ATOM     45  C   UNL     1      -3.500  15.188 -11.977  1.00  0.00     0.049 A 
ATOM     46  H   UNL     1      -4.683  16.483 -10.854  1.00  0.00     0.167 HD
ATOM     47  C   UNL     1      -7.071  19.190  -8.386  1.00  0.00     0.031 A 
ATOM     48  C   UNL     1      -4.051  15.110 -13.203  1.00  0.00     0.031 A 
ATOM     49  C   UNL     1      -7.688  19.226  -9.685  1.00  0.00     0.049 A 
ATOM     50  C   UNL     1      -5.298  15.895 -13.498  1.00  0.00     0.074 A 
ATOM     51  C   UNL     1      -8.771  19.977 -10.106  1.00  0.00     0.029 A 
ATOM     52  N   UNL     1      -7.282  18.465 -10.772  1.00  0.00    -0.354 N 
ATOM     53  N   UNL     1      -5.962  16.716 -12.722  1.00  0.00    -0.248 NA
ATOM     54  C   UNL     1      -5.867  15.745 -14.845  1.00  0.00     0.031 C 
ATOM     55  C   UNL     1      -9.062  19.620 -11.427  1.00  0.00     0.029 A 
ATOM     56  C   UNL     1      -8.116  18.701 -11.852  1.00  0.00     0.049 A 
ATOM     57  H   UNL     1      -6.514  17.849 -10.775  1.00  0.00     0.167 HD
ATOM     58  C   UNL     1      -7.010  17.203 -13.492  1.00  0.00     0.074 A 
ATOM     59  C   UNL     1      -6.883  16.595 -14.802  1.00  0.00     0.031 C 
ATOM     60  C   UNL     1      -7.986  18.080 -13.147  1.00  0.00     0.031 A 
BRANCH  47  61
ATOM     61  C   UNL     1      -7.674  19.998  -7.269  1.00  0.00    -0.014 A 
ATOM     62  C   UNL     1      -6.980  21.075  -6.688  1.00  0.00     0.009 A 
ATOM     63  C   UNL     1      -8.947  19.673  -6.778  1.00  0.00     0.009 A 
ATOM     64  C   UNL     1      -7.522  21.765  -5.603  1.00  0.00     0.001 A 
ATOM     65  C   UNL     1      -9.504  20.390  -5.717  1.00  0.00     0.001 A 
ATOM     66  C   UNL     1      -8.784  21.424  -5.120  1.00  0.00     0.000 A 
ENDBRANCH  47  61
BRANCH  48  67
ATOM     67  C   UNL     1      -3.404  14.283 -14.255  1.00  0.00    -0.014 A 
ATOM     68  C   UNL     1      -2.768  14.897 -15.345  1.00  0.00     0.009 A 
ATOM     69  C   UNL     1      -3.402  12.881 -14.171  1.00  0.00     0.009 A 
ATOM     70  C   UNL     1      -2.159  14.127 -16.337  1.00  0.00     0.001 A 
ATOM     71  C   UNL     1      -2.767  12.114 -15.151  1.00  0.00     0.001 A 
ATOM     72  C   UNL     1      -2.153  12.736 -16.236  1.00  0.00     0.000 A 
ENDBRANCH  48  67
BRANCH  60  73
ATOM     73  C   UNL     1      -8.979  18.459 -14.211  1.00  0.00    -0.014 A 
ATOM     74  C   UNL     1      -9.946  17.551 -14.668  1.00  0.00     0.009 A 
ATOM     75  C   UNL     1      -8.973  19.764 -14.731  1.00  0.00     0.009 A 
ATOM     76  C   UNL     1     -10.866  17.932 -15.648  1.00  0.00     0.001 A 
ATOM     77  C   UNL     1      -9.915  20.152 -15.685  1.00  0.00     0.001 A 
ATOM     78  C   UNL     1     -10.854  19.233 -16.150  1.00  0.00     0.000 A 
ENDBRANCH  60  73
ENDBRANCH  34  35
ENDBRANCH  26  29
ENDBRANCH  24  25
ENDBRANCH   1  24
TORSDOF 12
