REMARK SMILES CC[C@@](C)(NC(=O)NCCc1cscn1)C(=O)NCCCCNC(=O)c1ccc(-c2c3nc(c(-c4ccccc4)c4ccc([nH]4)c(-c4ccccc4)c4nc(c(-c5ccccc5)c5ccc2[nH]5)C=C4)C=C3)cc1
REMARK SMILES IDX 19 1 18 2 16 3 17 4 3 6 4 7 2 8 1 9 5 10 6 11 7 13 8 14 9 16
REMARK SMILES IDX 10 17 11 18 12 19 15 20 13 21 14 22 20 23 21 24 22 25 23 26
REMARK SMILES IDX 24 27 25 29 26 30 27 31 73 32 28 33 72 34 29 35 30 36 31 37
REMARK SMILES IDX 66 38 32 39 71 40 65 41 67 42 33 43 70 44 64 45 63 46 34 48
REMARK SMILES IDX 56 49 41 50 55 51 42 52 45 53 54 54 68 55 43 56 44 57 53 59
REMARK SMILES IDX 69 60 46 61 35 62 36 63 40 64 37 65 39 66 38 67 57 68 58 69
REMARK SMILES IDX 62 70 59 71 61 72 60 73 47 74 48 75 52 76 49 77 51 78 50 79
REMARK H PARENT 18 5 5 12 8 15 23 28 67 47 45 58
REMARK Flexibility Score: inf
ROOT
ATOM      1  C   UNL     1       1.800  -3.158  -4.504  1.00  0.00     0.116 C 
ENDROOT
BRANCH   1   2
ATOM      2  N   UNL     1       2.506  -2.684  -3.321  1.00  0.00    -0.354 N 
ATOM      3  C   UNL     1       2.239  -1.743  -2.359  1.00  0.00     0.245 C 
ATOM      4  O   UNL     1       2.955  -1.802  -1.352  1.00  0.00    -0.272 OA
ATOM      5  H   UNL     1       3.367  -3.140  -3.181  1.00  0.00     0.163 HD
BRANCH   3   6
ATOM      6  C   UNL     1       1.055  -0.740  -2.451  1.00  0.00     0.117 C 
ATOM      7  C   UNL     1      -0.238  -1.565  -2.214  1.00  0.00     0.045 C 
BRANCH   6   8
ATOM      8  C   UNL     1       1.013   0.427  -1.420  1.00  0.00     0.035 C 
ATOM      9  C   UNL     1       1.111   0.069   0.059  1.00  0.00     0.007 C 
ENDBRANCH   6   8
BRANCH   6  10
ATOM     10  N   UNL     1       1.027  -0.158  -3.804  1.00  0.00    -0.324 N 
ATOM     11  C   UNL     1       1.881   0.532  -4.569  1.00  0.00     0.315 C 
ATOM     12  H   UNL     1       0.168  -0.316  -4.258  1.00  0.00     0.166 HD
ATOM     13  O   UNL     1       1.430   0.954  -5.640  1.00  0.00    -0.249 OA
ATOM     14  N   UNL     1       3.178   0.736  -4.330  1.00  0.00    -0.338 N 
ATOM     15  H   UNL     1       3.651   0.994  -5.154  1.00  0.00     0.165 HD
BRANCH  14  16
ATOM     16  C   UNL     1       4.097   0.687  -3.196  1.00  0.00     0.124 C 
BRANCH  16  17
ATOM     17  C   UNL     1       5.139  -0.433  -3.209  1.00  0.00     0.078 C 
BRANCH  17  18
ATOM     18  C   UNL     1       6.231  -0.371  -4.231  1.00  0.00     0.053 A 
ATOM     19  C   UNL     1       7.138  -1.394  -4.462  1.00  0.00     0.090 A 
ATOM     20  N   UNL     1       6.408   0.746  -5.028  1.00  0.00    -0.250 NA
ATOM     21  S   UNL     1       8.226  -0.961  -5.708  1.00  0.00    -0.130 S 
ATOM     22  C   UNL     1       7.434   0.554  -5.832  1.00  0.00     0.175 A 
ENDBRANCH  17  18
ENDBRANCH  16  17
ENDBRANCH  14  16
ENDBRANCH   6  10
ENDBRANCH   3   6
ENDBRANCH   1   2
BRANCH   1  23
ATOM     23  C   UNL     1       2.187  -2.574  -5.865  1.00  0.00     0.023 C 
BRANCH  23  24
ATOM     24  C   UNL     1       3.668  -2.436  -6.202  1.00  0.00     0.023 C 
BRANCH  24  25
ATOM     25  C   UNL     1       4.524  -3.677  -6.004  1.00  0.00     0.116 C 
BRANCH  25  26
ATOM     26  N   UNL     1       4.094  -4.794  -6.826  1.00  0.00    -0.352 N 
ATOM     27  C   UNL     1       4.836  -5.646  -7.605  1.00  0.00     0.251 C 
ATOM     28  H   UNL     1       3.124  -4.965  -6.824  1.00  0.00     0.163 HD
ATOM     29  O   UNL     1       4.264  -6.444  -8.342  1.00  0.00    -0.269 OA
BRANCH  27  30
ATOM     30  C   UNL     1       6.317  -5.606  -7.583  1.00  0.00     0.039 A 
ATOM     31  C   UNL     1       7.003  -5.735  -8.796  1.00  0.00     0.014 A 
ATOM     32  C   UNL     1       7.035  -5.498  -6.388  1.00  0.00     0.014 A 
ATOM     33  C   UNL     1       8.400  -5.717  -8.816  1.00  0.00     0.010 A 
ATOM     34  C   UNL     1       8.428  -5.422  -6.415  1.00  0.00     0.010 A 
ATOM     35  C   UNL     1       9.125  -5.541  -7.627  1.00  0.00    -0.014 A 
BRANCH  35  36
ATOM     36  C   UNL     1      10.610  -5.496  -7.640  1.00  0.00     0.031 A 
ATOM     37  C   UNL     1      11.412  -6.591  -6.991  1.00  0.00     0.074 A 
ATOM     38  C   UNL     1      11.242  -4.449  -8.204  1.00  0.00     0.049 A 
ATOM     39  N   UNL     1      12.712  -6.707  -6.879  1.00  0.00    -0.248 NA
ATOM     40  C   UNL     1      10.655  -7.689  -6.370  1.00  0.00     0.031 C 
ATOM     41  C   UNL     1      10.586  -3.308  -8.846  1.00  0.00     0.029 A 
ATOM     42  N   UNL     1      12.582  -4.176  -8.327  1.00  0.00    -0.354 N 
ATOM     43  C   UNL     1      12.927  -7.878  -6.163  1.00  0.00     0.074 A 
ATOM     44  C   UNL     1      11.625  -8.415  -5.831  1.00  0.00     0.031 C 
ATOM     45  C   UNL     1      11.525  -2.473  -9.319  1.00  0.00     0.029 A 
ATOM     46  C   UNL     1      12.845  -2.998  -8.983  1.00  0.00     0.049 A 
ATOM     47  H   UNL     1      13.287  -4.768  -7.978  1.00  0.00     0.167 HD
ATOM     48  C   UNL     1      14.101  -8.464  -5.823  1.00  0.00     0.031 A 
ATOM     49  C   UNL     1      14.017  -2.405  -9.278  1.00  0.00     0.031 A 
ATOM     50  C   UNL     1      15.399  -7.943  -6.162  1.00  0.00     0.049 A 
ATOM     51  C   UNL     1      15.306  -3.066  -8.874  1.00  0.00     0.074 A 
ATOM     52  C   UNL     1      16.642  -8.498  -5.913  1.00  0.00     0.029 A 
ATOM     53  N   UNL     1      15.621  -6.744  -6.820  1.00  0.00    -0.354 N 
ATOM     54  N   UNL     1      15.491  -4.205  -8.254  1.00  0.00    -0.248 NA
ATOM     55  C   UNL     1      16.548  -2.359  -9.221  1.00  0.00     0.031 C 
ATOM     56  C   UNL     1      17.619  -7.610  -6.377  1.00  0.00     0.029 A 
ATOM     57  C   UNL     1      16.982  -6.528  -6.961  1.00  0.00     0.049 A 
ATOM     58  H   UNL     1      14.916  -6.135  -7.140  1.00  0.00     0.167 HD
ATOM     59  C   UNL     1      16.867  -4.365  -8.161  1.00  0.00     0.074 A 
ATOM     60  C   UNL     1      17.469  -3.214  -8.800  1.00  0.00     0.031 C 
ATOM     61  C   UNL     1      17.569  -5.379  -7.598  1.00  0.00     0.031 A 
BRANCH  48  62
ATOM     62  C   UNL     1      14.035  -9.738  -5.029  1.00  0.00    -0.014 A 
ATOM     63  C   UNL     1      13.604 -10.940  -5.614  1.00  0.00     0.009 A 
ATOM     64  C   UNL     1      14.448  -9.746  -3.687  1.00  0.00     0.009 A 
ATOM     65  C   UNL     1      13.554 -12.115  -4.860  1.00  0.00     0.001 A 
ATOM     66  C   UNL     1      14.424 -10.928  -2.945  1.00  0.00     0.001 A 
ATOM     67  C   UNL     1      13.968 -12.109  -3.529  1.00  0.00     0.000 A 
ENDBRANCH  48  62
BRANCH  49  68
ATOM     68  C   UNL     1      14.032  -1.113 -10.013  1.00  0.00    -0.014 A 
ATOM     69  C   UNL     1      14.465  -1.060 -11.346  1.00  0.00     0.009 A 
ATOM     70  C   UNL     1      13.623   0.072  -9.383  1.00  0.00     0.009 A 
ATOM     71  C   UNL     1      14.513   0.158 -12.027  1.00  0.00     0.001 A 
ATOM     72  C   UNL     1      13.646   1.285 -10.075  1.00  0.00     0.001 A 
ATOM     73  C   UNL     1      14.100   1.329 -11.392  1.00  0.00     0.000 A 
ENDBRANCH  49  68
BRANCH  61  74
ATOM     74  C   UNL     1      19.068  -5.304  -7.676  1.00  0.00    -0.014 A 
ATOM     75  C   UNL     1      19.795  -4.400  -6.888  1.00  0.00     0.009 A 
ATOM     76  C   UNL     1      19.763  -6.180  -8.525  1.00  0.00     0.009 A 
ATOM     77  C   UNL     1      21.189  -4.353  -6.972  1.00  0.00     0.001 A 
ATOM     78  C   UNL     1      21.157  -6.149  -8.587  1.00  0.00     0.001 A 
ATOM     79  C   UNL     1      21.868  -5.230  -7.817  1.00  0.00     0.000 A 
ENDBRANCH  61  74
ENDBRANCH  35  36
ENDBRANCH  27  30
ENDBRANCH  25  26
ENDBRANCH  24  25
ENDBRANCH  23  24
ENDBRANCH   1  23
TORSDOF 16
