REMARK SMILES Cc1nc2sc3c(c2c2nc(CCC(=O)NCCCCNC(=O)c4ccc(-c5c6nc(c(-c7ccccc7)c7ccc([nH]7)c(-c7ccccc7)c7nc(c(-c8ccccc8)c8ccc5[nH]8)C=C7)C=C6)cc4)nn12)[C@@H](C)CCC3
REMARK SMILES IDX 18 1 17 2 16 3 14 4 15 5 13 7 12 8 11 9 1 10 2 11 3 12 73 13
REMARK SMILES IDX 4 14 9 15 72 16 5 17 8 18 10 19 6 20 7 21 78 22 74 23 77 24
REMARK SMILES IDX 75 25 76 26 19 27 20 28 21 29 22 30 23 32 24 33 25 34 71 35
REMARK SMILES IDX 26 36 70 37 27 38 28 39 29 40 64 41 30 42 69 43 63 44 65 45
REMARK SMILES IDX 31 46 68 47 62 48 61 49 32 51 54 52 39 53 53 54 40 55 43 56
REMARK SMILES IDX 52 57 66 58 41 59 42 60 51 62 67 63 44 64 33 65 34 66 38 67
REMARK SMILES IDX 35 68 37 69 36 70 55 71 56 72 60 73 57 74 59 75 58 76 45 77
REMARK SMILES IDX 46 78 50 79 47 80 49 81 48 82
REMARK H PARENT 16 6 21 31 65 50 43 61
REMARK Flexibility Score: inf
ROOT
ATOM      1  C   UNL     1      -1.919   2.669   2.196  1.00  0.00     0.023 C 
ENDROOT
BRANCH   1   2
ATOM      2  C   UNL     1      -2.541   4.071   2.161  1.00  0.00     0.116 C 
BRANCH   2   3
ATOM      3  N   UNL     1      -1.986   4.978   3.155  1.00  0.00    -0.356 N 
ATOM      4  C   UNL     1      -0.744   5.526   3.249  1.00  0.00     0.220 C 
ATOM      5  O   UNL     1      -0.463   6.169   4.260  1.00  0.00    -0.275 OA
ATOM      6  H   UNL     1      -2.608   5.236   3.873  1.00  0.00     0.163 HD
BRANCH   4   7
ATOM      7  C   UNL     1       0.221   5.396   2.095  1.00  0.00     0.108 C 
BRANCH   7   8
ATOM      8  C   UNL     1       1.608   4.940   2.553  1.00  0.00     0.089 C 
BRANCH   8   9
ATOM      9  C   UNL     1       1.676   3.494   2.917  1.00  0.00     0.152 A 
ATOM     10  C   UNL     1       1.550   0.016   0.711  1.00  0.00     0.090 C 
ATOM     11  C   UNL     1       1.559   0.130   2.205  1.00  0.00     0.131 A 
ATOM     12  N   UNL     1       1.366  -0.904   2.972  1.00  0.00    -0.222 NA
ATOM     13  N   UNL     1       1.699   1.421   2.721  1.00  0.00    -0.199 N 
ATOM     14  C   UNL     1       1.140  -0.641   4.299  1.00  0.00     0.129 A 
ATOM     15  C   UNL     1       1.509   1.717   4.055  1.00  0.00     0.168 A 
ATOM     16  N   UNL     1       1.804   2.543   1.979  1.00  0.00    -0.150 NA
ATOM     17  S   UNL     1       0.728  -1.916   5.342  1.00  0.00    -0.120 S 
ATOM     18  C   UNL     1       1.072   0.592   4.949  1.00  0.00     0.060 A 
ATOM     19  N   UNL     1       1.531   3.023   4.209  1.00  0.00    -0.211 NA
ATOM     20  C   UNL     1       0.150  -0.833   6.517  1.00  0.00     0.011 A 
ATOM     21  C   UNL     1       0.408   0.511   6.237  1.00  0.00    -0.018 A 
ATOM     22  C   UNL     1      -0.620  -1.384   7.679  1.00  0.00     0.047 C 
ATOM     23  C   UNL     1      -0.033   1.578   7.247  1.00  0.00     0.018 C 
ATOM     24  C   UNL     1      -0.710  -0.359   8.801  1.00  0.00     0.006 C 
ATOM     25  C   UNL     1      -0.651   2.863   6.706  1.00  0.00     0.013 C 
ATOM     26  C   UNL     1      -1.095   1.006   8.242  1.00  0.00     0.008 C 
ENDBRANCH   8   9
ENDBRANCH   7   8
ENDBRANCH   4   7
ENDBRANCH   2   3
ENDBRANCH   1   2
BRANCH   1  27
ATOM     27  C   UNL     1      -1.766   2.167   3.624  1.00  0.00     0.023 C 
BRANCH  27  28
ATOM     28  C   UNL     1      -2.337   0.810   3.930  1.00  0.00     0.116 C 
BRANCH  28  29
ATOM     29  N   UNL     1      -1.882  -0.383   3.203  1.00  0.00    -0.352 N 
ATOM     30  C   UNL     1      -2.369  -1.689   3.367  1.00  0.00     0.251 C 
ATOM     31  H   UNL     1      -1.168  -0.255   2.538  1.00  0.00     0.163 HD
ATOM     32  O   UNL     1      -1.770  -2.679   2.926  1.00  0.00    -0.269 OA
BRANCH  30  33
ATOM     33  C   UNL     1      -3.655  -1.863   4.062  1.00  0.00     0.039 A 
ATOM     34  C   UNL     1      -3.992  -2.793   5.048  1.00  0.00     0.014 A 
ATOM     35  C   UNL     1      -4.535  -0.853   3.792  1.00  0.00     0.014 A 
ATOM     36  C   UNL     1      -5.190  -2.582   5.752  1.00  0.00     0.010 A 
ATOM     37  C   UNL     1      -5.161  -0.371   4.887  1.00  0.00     0.010 A 
ATOM     38  C   UNL     1      -5.799  -1.332   5.621  1.00  0.00    -0.014 A 
BRANCH  38  39
ATOM     39  C   UNL     1      -7.092  -0.877   6.112  1.00  0.00     0.031 A 
ATOM     40  C   UNL     1      -7.257  -0.774   7.573  1.00  0.00     0.074 A 
ATOM     41  C   UNL     1      -7.950  -0.218   5.285  1.00  0.00     0.049 A 
ATOM     42  N   UNL     1      -8.132  -1.380   8.299  1.00  0.00    -0.248 NA
ATOM     43  C   UNL     1      -6.319   0.067   8.330  1.00  0.00     0.031 C 
ATOM     44  C   UNL     1      -7.794   0.130   3.856  1.00  0.00     0.029 A 
ATOM     45  N   UNL     1      -9.099   0.434   5.603  1.00  0.00    -0.354 N 
ATOM     46  C   UNL     1      -7.958  -0.908   9.593  1.00  0.00     0.074 A 
ATOM     47  C   UNL     1      -6.746  -0.124   9.580  1.00  0.00     0.031 C 
ATOM     48  C   UNL     1      -8.658   1.111   3.518  1.00  0.00     0.029 A 
ATOM     49  C   UNL     1      -9.561   1.313   4.631  1.00  0.00     0.049 A 
ATOM     50  H   UNL     1      -9.569   0.295   6.457  1.00  0.00     0.167 HD
ATOM     51  C   UNL     1      -8.922  -1.049  10.544  1.00  0.00     0.031 A 
ATOM     52  C   UNL     1     -10.617   2.154   4.726  1.00  0.00     0.031 A 
ATOM     53  C   UNL     1      -9.968  -1.948  10.122  1.00  0.00     0.049 A 
ATOM     54  C   UNL     1     -11.476   1.639   5.817  1.00  0.00     0.074 A 
ATOM     55  C   UNL     1      -9.999  -3.281   9.760  1.00  0.00     0.029 A 
ATOM     56  N   UNL     1     -11.112  -1.395   9.592  1.00  0.00    -0.354 N 
ATOM     57  N   UNL     1     -12.094   0.494   5.757  1.00  0.00    -0.248 NA
ATOM     58  C   UNL     1     -11.269   2.165   7.156  1.00  0.00     0.031 C 
ATOM     59  C   UNL     1     -10.859  -3.329   8.622  1.00  0.00     0.029 A 
ATOM     60  C   UNL     1     -11.362  -2.044   8.405  1.00  0.00     0.049 A 
ATOM     61  H   UNL     1     -11.650  -0.672   9.988  1.00  0.00     0.167 HD
ATOM     62  C   UNL     1     -11.956  -0.052   7.026  1.00  0.00     0.074 A 
ATOM     63  C   UNL     1     -11.541   1.068   7.871  1.00  0.00     0.031 C 
ATOM     64  C   UNL     1     -11.901  -1.406   7.220  1.00  0.00     0.031 A 
BRANCH  51  65
ATOM     65  C   UNL     1      -9.060  -0.151  11.738  1.00  0.00    -0.014 A 
ATOM     66  C   UNL     1      -9.899  -0.532  12.797  1.00  0.00     0.009 A 
ATOM     67  C   UNL     1      -8.554   1.163  11.766  1.00  0.00     0.009 A 
ATOM     68  C   UNL     1     -10.226   0.363  13.823  1.00  0.00     0.001 A 
ATOM     69  C   UNL     1      -8.844   2.046  12.809  1.00  0.00     0.001 A 
ATOM     70  C   UNL     1      -9.696   1.651  13.830  1.00  0.00     0.000 A 
ENDBRANCH  51  65
BRANCH  52  71
ATOM     71  C   UNL     1     -10.783   3.490   4.115  1.00  0.00    -0.014 A 
ATOM     72  C   UNL     1     -12.045   4.093   4.024  1.00  0.00     0.009 A 
ATOM     73  C   UNL     1      -9.654   4.291   3.855  1.00  0.00     0.009 A 
ATOM     74  C   UNL     1     -12.169   5.459   3.730  1.00  0.00     0.001 A 
ATOM     75  C   UNL     1      -9.778   5.652   3.558  1.00  0.00     0.001 A 
ATOM     76  C   UNL     1     -11.036   6.241   3.513  1.00  0.00     0.000 A 
ENDBRANCH  52  71
BRANCH  64  77
ATOM     77  C   UNL     1     -12.152  -2.303   6.019  1.00  0.00    -0.014 A 
ATOM     78  C   UNL     1     -11.362  -2.258   4.854  1.00  0.00     0.009 A 
ATOM     79  C   UNL     1     -13.101  -3.329   6.120  1.00  0.00     0.009 A 
ATOM     80  C   UNL     1     -11.536  -3.181   3.816  1.00  0.00     0.001 A 
ATOM     81  C   UNL     1     -13.264  -4.265   5.092  1.00  0.00     0.001 A 
ATOM     82  C   UNL     1     -12.487  -4.188   3.938  1.00  0.00     0.000 A 
ENDBRANCH  64  77
ENDBRANCH  38  39
ENDBRANCH  30  33
ENDBRANCH  28  29
ENDBRANCH  27  28
ENDBRANCH   1  27
TORSDOF 13
