REMARK SMILES CC[C@@H](C)[C@H](NC(=O)N1CCn2c1nc1ccccc12)C(=O)N[C@H](C)C(=O)NCCCCNC(=O)c1ccc(-c2c3nc(c(-c4ccccc4)c4ccc([nH]4)c(-c4ccccc4)c4nc(c(-c5ccccc5)c5ccc2[nH]5)C=C4)C=C3)cc1
REMARK SMILES IDX 29 1 28 2 26 3 27 4 24 6 25 7 23 8 21 9 22 10 5 12 3 13 4 14
REMARK SMILES IDX 2 15 1 16 6 17 7 18 8 20 9 21 10 22 13 23 11 24 12 25 14 26
REMARK SMILES IDX 20 27 15 28 19 29 16 30 18 31 17 32 30 33 31 34 32 35 33 36
REMARK SMILES IDX 34 37 35 39 36 40 37 41 83 42 38 43 82 44 39 45 40 46 41 47
REMARK SMILES IDX 76 48 42 49 81 50 75 51 77 52 43 53 80 54 74 55 73 56 44 58
REMARK SMILES IDX 66 59 51 60 65 61 52 62 55 63 64 64 78 65 53 66 54 67 63 69
REMARK SMILES IDX 79 70 56 71 45 72 46 73 50 74 47 75 49 76 48 77 67 78 68 79
REMARK SMILES IDX 72 80 69 81 71 82 70 83 57 84 58 85 62 86 59 87 61 88 60 89
REMARK H PARENT 28 5 23 11 6 19 33 38 77 57 55 68
REMARK Flexibility Score: inf
ROOT
ATOM      1  C   UNL     1       3.776   7.383   2.372  1.00  0.00     0.116 C 
ENDROOT
BRANCH   1   2
ATOM      2  N   UNL     1       3.701   6.117   3.057  1.00  0.00    -0.354 N 
ATOM      3  C   UNL     1       3.344   4.882   2.575  1.00  0.00     0.242 C 
ATOM      4  O   UNL     1       3.437   3.951   3.390  1.00  0.00    -0.273 OA
ATOM      5  H   UNL     1       3.940   6.141   4.011  1.00  0.00     0.163 HD
BRANCH   3   6
ATOM      6  C   UNL     1       2.890   4.552   1.084  1.00  0.00     0.168 C 
ATOM      7  C   UNL     1       1.681   5.320   0.553  1.00  0.00     0.041 C 
BRANCH   6   8
ATOM      8  N   UNL     1       3.756   3.979  -0.008  1.00  0.00    -0.343 N 
ATOM      9  C   UNL     1       4.852   4.345  -0.752  1.00  0.00     0.243 C 
ATOM     10  O   UNL     1       5.282   3.534  -1.575  1.00  0.00    -0.273 OA
ATOM     11  H   UNL     1       3.446   3.080  -0.263  1.00  0.00     0.164 HD
BRANCH   9  12
ATOM     12  C   UNL     1       5.603   5.655  -0.470  1.00  0.00     0.176 C 
BRANCH  12  13
ATOM     13  C   UNL     1       6.421   5.394   0.881  1.00  0.00     0.018 C 
ATOM     14  C   UNL     1       7.919   5.648   0.610  1.00  0.00     0.010 C 
BRANCH  13  15
ATOM     15  C   UNL     1       6.365   3.996   1.593  1.00  0.00     0.002 C 
ATOM     16  C   UNL     1       6.783   4.048   3.070  1.00  0.00     0.004 C 
ENDBRANCH  13  15
ENDBRANCH  12  13
BRANCH  12  17
ATOM     17  N   UNL     1       4.468   6.645  -0.629  1.00  0.00    -0.326 N 
ATOM     18  C   UNL     1       3.976   7.877  -0.739  1.00  0.00     0.324 C 
ATOM     19  H   UNL     1       3.668   6.073  -0.675  1.00  0.00     0.166 HD
ATOM     20  O   UNL     1       2.731   7.876  -0.727  1.00  0.00    -0.248 OA
BRANCH  18  21
ATOM     21  N   UNL     1       4.587   9.067  -0.707  1.00  0.00    -0.262 N 
ATOM     22  C   UNL     1       3.813  10.292  -0.342  1.00  0.00     0.152 C 
ATOM     23  C   UNL     1       5.730   9.470  -1.338  1.00  0.00     0.214 A 
ATOM     24  C   UNL     1       4.791  11.458  -0.469  1.00  0.00     0.148 C 
ATOM     25  N   UNL     1       5.845  10.832  -1.233  1.00  0.00    -0.308 N 
ATOM     26  N   UNL     1       6.728   8.963  -2.007  1.00  0.00    -0.212 NA
ATOM     27  C   UNL     1       6.967  11.269  -1.831  1.00  0.00     0.070 A 
ATOM     28  C   UNL     1       7.507  10.082  -2.343  1.00  0.00     0.091 A 
ATOM     29  C   UNL     1       7.574  12.523  -1.944  1.00  0.00     0.028 A 
ATOM     30  C   UNL     1       8.717  10.159  -3.049  1.00  0.00     0.031 A 
ATOM     31  C   UNL     1       8.794  12.563  -2.622  1.00  0.00     0.002 A 
ATOM     32  C   UNL     1       9.352  11.406  -3.174  1.00  0.00     0.002 A 
ENDBRANCH  18  21
ENDBRANCH  12  17
ENDBRANCH   9  12
ENDBRANCH   6   8
ENDBRANCH   3   6
ENDBRANCH   1   2
BRANCH   1  33
ATOM     33  C   UNL     1       4.415   8.601   3.066  1.00  0.00     0.023 C 
BRANCH  33  34
ATOM     34  C   UNL     1       5.957   8.764   3.176  1.00  0.00     0.023 C 
BRANCH  34  35
ATOM     35  C   UNL     1       6.842   8.384   1.978  1.00  0.00     0.116 C 
BRANCH  35  36
ATOM     36  N   UNL     1       7.505   9.291   1.060  1.00  0.00    -0.352 N 
ATOM     37  C   UNL     1       8.499  10.208   1.238  1.00  0.00     0.251 C 
ATOM     38  H   UNL     1       7.176   9.233   0.133  1.00  0.00     0.163 HD
ATOM     39  O   UNL     1       9.247  10.590   0.365  1.00  0.00    -0.269 OA
BRANCH  37  40
ATOM     40  C   UNL     1       8.574  10.794   2.550  1.00  0.00     0.039 A 
ATOM     41  C   UNL     1       9.112  10.028   3.579  1.00  0.00     0.014 A 
ATOM     42  C   UNL     1       7.939  12.023   2.728  1.00  0.00     0.014 A 
ATOM     43  C   UNL     1       8.937  10.482   4.862  1.00  0.00     0.010 A 
ATOM     44  C   UNL     1       7.785  12.484   4.014  1.00  0.00     0.010 A 
ATOM     45  C   UNL     1       8.271  11.698   5.067  1.00  0.00    -0.014 A 
BRANCH  45  46
ATOM     46  C   UNL     1       8.214  12.144   6.448  1.00  0.00     0.031 A 
ATOM     47  C   UNL     1       8.924  13.439   6.655  1.00  0.00     0.074 A 
ATOM     48  C   UNL     1       7.147  11.815   7.193  1.00  0.00     0.049 A 
ATOM     49  N   UNL     1       8.387  14.604   6.444  1.00  0.00    -0.248 NA
ATOM     50  C   UNL     1      10.382  13.465   6.783  1.00  0.00     0.031 C 
ATOM     51  C   UNL     1       5.750  11.849   6.751  1.00  0.00     0.029 A 
ATOM     52  N   UNL     1       7.084  11.600   8.541  1.00  0.00    -0.354 N 
ATOM     53  C   UNL     1       9.426  15.515   6.369  1.00  0.00     0.074 A 
ATOM     54  C   UNL     1      10.643  14.765   6.590  1.00  0.00     0.031 C 
ATOM     55  C   UNL     1       4.962  11.875   7.846  1.00  0.00     0.029 A 
ATOM     56  C   UNL     1       5.793  11.728   9.037  1.00  0.00     0.049 A 
ATOM     57  H   UNL     1       7.866  11.380   9.098  1.00  0.00     0.167 HD
ATOM     58  C   UNL     1       9.245  16.837   6.115  1.00  0.00     0.031 A 
ATOM     59  C   UNL     1       5.553  12.240  10.274  1.00  0.00     0.031 A 
ATOM     60  C   UNL     1       7.888  17.256   5.945  1.00  0.00     0.049 A 
ATOM     61  C   UNL     1       5.675  13.722   9.973  1.00  0.00     0.074 A 
ATOM     62  C   UNL     1       7.043  17.548   4.898  1.00  0.00     0.029 A 
ATOM     63  N   UNL     1       7.107  17.372   7.069  1.00  0.00    -0.354 N 
ATOM     64  N   UNL     1       4.777  14.469   9.381  1.00  0.00    -0.248 NA
ATOM     65  C   UNL     1       7.018  14.309   9.999  1.00  0.00     0.031 C 
ATOM     66  C   UNL     1       5.721  17.381   5.420  1.00  0.00     0.029 A 
ATOM     67  C   UNL     1       5.850  16.938   6.737  1.00  0.00     0.049 A 
ATOM     68  H   UNL     1       7.396  17.706   7.949  1.00  0.00     0.167 HD
ATOM     69  C   UNL     1       5.497  15.460   8.703  1.00  0.00     0.074 A 
ATOM     70  C   UNL     1       6.862  15.332   9.170  1.00  0.00     0.031 C 
ATOM     71  C   UNL     1       5.009  16.190   7.654  1.00  0.00     0.031 A 
BRANCH  58  72
ATOM     72  C   UNL     1      10.335  17.831   6.165  1.00  0.00    -0.014 A 
ATOM     73  C   UNL     1      11.211  18.047   5.097  1.00  0.00     0.009 A 
ATOM     74  C   UNL     1      10.402  18.671   7.288  1.00  0.00     0.009 A 
ATOM     75  C   UNL     1      12.124  19.106   5.149  1.00  0.00     0.001 A 
ATOM     76  C   UNL     1      11.307  19.728   7.335  1.00  0.00     0.001 A 
ATOM     77  C   UNL     1      12.164  19.949   6.261  1.00  0.00     0.000 A 
ENDBRANCH  58  72
BRANCH  59  78
ATOM     78  C   UNL     1       6.316  11.493  11.335  1.00  0.00    -0.014 A 
ATOM     79  C   UNL     1       7.294  12.030  12.181  1.00  0.00     0.009 A 
ATOM     80  C   UNL     1       6.110  10.094  11.401  1.00  0.00     0.009 A 
ATOM     81  C   UNL     1       8.137  11.194  12.929  1.00  0.00     0.001 A 
ATOM     82  C   UNL     1       6.931   9.262  12.167  1.00  0.00     0.001 A 
ATOM     83  C   UNL     1       7.970   9.812  12.905  1.00  0.00     0.000 A 
ENDBRANCH  59  78
BRANCH  71  84
ATOM     84  C   UNL     1       3.563  16.009   7.314  1.00  0.00    -0.014 A 
ATOM     85  C   UNL     1       3.181  15.484   6.066  1.00  0.00     0.009 A 
ATOM     86  C   UNL     1       2.567  16.456   8.188  1.00  0.00     0.009 A 
ATOM     87  C   UNL     1       1.842  15.476   5.674  1.00  0.00     0.001 A 
ATOM     88  C   UNL     1       1.225  16.425   7.806  1.00  0.00     0.001 A 
ATOM     89  C   UNL     1       0.865  15.955   6.543  1.00  0.00     0.000 A 
ENDBRANCH  71  84
ENDBRANCH  45  46
ENDBRANCH  37  40
ENDBRANCH  35  36
ENDBRANCH  34  35
ENDBRANCH  33  34
ENDBRANCH   1  33
TORSDOF 17
