REMARK SMILES NC(=O)c1cc(NC(=O)/C=C\C(=O)NCCCCNC(=O)c2ccc(-c3c4nc(c(-c5ccccc5)c5ccc([nH]5)c(-c5ccccc5)c5nc(c(-c6ccccc6)c6ccc3[nH]6)C=C5)C=C4)cc2)ccc1N1CCOCC1
REMARK SMILES IDX 16 1 15 2 14 3 12 4 13 5 11 7 10 8 8 9 7 10 9 12 6 13 4 14
REMARK SMILES IDX 5 15 72 16 71 17 70 18 2 19 1 20 3 23 73 24 74 25 78 26
REMARK SMILES IDX 75 27 77 28 76 29 17 30 18 31 19 32 20 33 21 35 22 36 23 37
REMARK SMILES IDX 69 38 24 39 68 40 25 41 26 42 27 43 62 44 28 45 67 46 61 47
REMARK SMILES IDX 63 48 29 49 66 50 60 51 59 52 30 54 52 55 37 56 51 57 38 58
REMARK SMILES IDX 41 59 50 60 64 61 39 62 40 63 49 65 65 66 42 67 31 68 32 69
REMARK SMILES IDX 36 70 33 71 35 72 34 73 53 74 54 75 58 76 55 77 57 78 56 79
REMARK SMILES IDX 43 80 44 81 48 82 45 83 47 84 46 85
REMARK H PARENT 14 6 7 11 1 21 1 22 19 34 63 53 41 64
REMARK Flexibility Score: inf
ROOT
ATOM      1  C   UNL     1       0.864  -6.753  -2.344  1.00  0.00     0.023 C 
ENDROOT
BRANCH   1   2
ATOM      2  C   UNL     1       0.614  -5.828  -1.107  1.00  0.00     0.116 C 
BRANCH   2   3
ATOM      3  N   UNL     1       1.393  -4.315  -0.933  1.00  0.00    -0.353 N 
ATOM      4  C   UNL     1       1.507  -2.515  -1.736  1.00  0.00     0.244 C 
ATOM      5  O   UNL     1       2.280  -1.547  -1.489  1.00  0.00    -0.270 OA
ATOM      6  H   UNL     1       1.999  -4.357  -0.159  1.00  0.00     0.163 HD
BRANCH   4   7
ATOM      7  C   UNL     1       0.433  -1.768  -2.905  1.00  0.00     0.077 C 
ATOM      8  C   UNL     1      -0.264  -2.115  -4.013  1.00  0.00     0.077 C 
BRANCH   8   9
ATOM      9  C   UNL     1      -0.196  -3.425  -4.722  1.00  0.00     0.248 C 
ATOM     10  N   UNL     1       0.745  -4.258  -4.216  1.00  0.00    -0.322 N 
ATOM     11  H   UNL     1       1.198  -4.920  -4.786  1.00  0.00     0.170 HD
ATOM     12  O   UNL     1      -0.830  -3.653  -5.740  1.00  0.00    -0.270 OA
BRANCH  10  13
ATOM     13  C   UNL     1       1.044  -4.147  -2.873  1.00  0.00     0.042 A 
ATOM     14  C   UNL     1       0.212  -2.877  -0.083  1.00  0.00     0.064 A 
ATOM     15  C   UNL     1      -0.291  -3.600  -1.684  1.00  0.00     0.042 A 
ATOM     16  C   UNL     1       1.971  -2.787   0.394  1.00  0.00     0.050 A 
ATOM     17  C   UNL     1       3.247  -3.441  -0.754  1.00  0.00     0.029 A 
ATOM     18  C   UNL     1       2.795  -4.075  -2.388  1.00  0.00     0.028 A 
BRANCH  14  19
ATOM     19  C   UNL     1      -0.683  -1.758   0.282  1.00  0.00     0.250 C 
ATOM     20  N   UNL     1      -0.088  -0.535   0.145  1.00  0.00    -0.366 N 
ATOM     21  H   UNL     1      -0.592   0.283   0.361  1.00  0.00     0.159 HD
ATOM     22  H   UNL     1       0.843  -0.472  -0.168  1.00  0.00     0.159 HD
ATOM     23  O   UNL     1      -1.868  -1.911   0.520  1.00  0.00    -0.269 OA
ENDBRANCH  14  19
BRANCH  16  24
ATOM     24  N   UNL     1       2.423  -2.000   1.467  1.00  0.00    -0.366 N 
ATOM     25  C   UNL     1       1.610  -1.490   2.593  1.00  0.00     0.145 C 
ATOM     26  C   UNL     1       3.800  -1.468   1.464  1.00  0.00     0.145 C 
ATOM     27  C   UNL     1       1.746   0.051   2.740  1.00  0.00     0.181 C 
ATOM     28  C   UNL     1       3.783   0.063   1.573  1.00  0.00     0.181 C 
ATOM     29  O   UNL     1       3.117   0.481   2.772  1.00  0.00    -0.378 OA
ENDBRANCH  16  24
ENDBRANCH  10  13
ENDBRANCH   8   9
ENDBRANCH   4   7
ENDBRANCH   2   3
ENDBRANCH   1   2
BRANCH   1  30
ATOM     30  C   UNL     1       2.292  -7.250  -2.553  1.00  0.00     0.023 C 
BRANCH  30  31
ATOM     31  C   UNL     1       2.527  -8.490  -1.733  1.00  0.00     0.116 C 
BRANCH  31  32
ATOM     32  N   UNL     1       1.770  -9.611  -2.278  1.00  0.00    -0.352 N 
ATOM     33  C   UNL     1       2.171 -10.917  -2.345  1.00  0.00     0.251 C 
ATOM     34  H   UNL     1       0.875  -9.406  -2.634  1.00  0.00     0.163 HD
ATOM     35  O   UNL     1       1.595 -11.733  -3.052  1.00  0.00    -0.269 OA
BRANCH  33  36
ATOM     36  C   UNL     1       3.353 -11.283  -1.555  1.00  0.00     0.039 A 
ATOM     37  C   UNL     1       4.390 -11.980  -2.165  1.00  0.00     0.014 A 
ATOM     38  C   UNL     1       3.462 -10.802  -0.246  1.00  0.00     0.014 A 
ATOM     39  C   UNL     1       5.564 -12.179  -1.451  1.00  0.00     0.010 A 
ATOM     40  C   UNL     1       4.679 -10.868   0.398  1.00  0.00     0.010 A 
ATOM     41  C   UNL     1       5.721 -11.602  -0.178  1.00  0.00    -0.014 A 
BRANCH  41  42
ATOM     42  C   UNL     1       6.951 -11.813   0.606  1.00  0.00     0.031 A 
ATOM     43  C   UNL     1       6.860 -12.520   1.929  1.00  0.00     0.074 A 
ATOM     44  C   UNL     1       8.121 -11.344   0.139  1.00  0.00     0.049 A 
ATOM     45  N   UNL     1       7.813 -12.792   2.780  1.00  0.00    -0.248 NA
ATOM     46  C   UNL     1       5.520 -12.950   2.374  1.00  0.00     0.031 C 
ATOM     47  C   UNL     1       8.303 -10.608  -1.115  1.00  0.00     0.029 A 
ATOM     48  N   UNL     1       9.383 -11.428   0.662  1.00  0.00    -0.354 N 
ATOM     49  C   UNL     1       7.186 -13.410   3.854  1.00  0.00     0.074 A 
ATOM     50  C   UNL     1       5.768 -13.404   3.591  1.00  0.00     0.031 C 
ATOM     51  C   UNL     1       9.609 -10.355  -1.289  1.00  0.00     0.029 A 
ATOM     52  C   UNL     1      10.344 -10.857  -0.134  1.00  0.00     0.049 A 
ATOM     53  H   UNL     1       9.581 -11.856   1.526  1.00  0.00     0.167 HD
ATOM     54  C   UNL     1       7.750 -13.963   4.951  1.00  0.00     0.031 A 
ATOM     55  C   UNL     1      11.671 -10.748   0.058  1.00  0.00     0.031 A 
ATOM     56  C   UNL     1       9.164 -13.966   5.196  1.00  0.00     0.049 A 
ATOM     57  C   UNL     1      12.265 -11.335   1.309  1.00  0.00     0.074 A 
ATOM     58  C   UNL     1       9.852 -14.536   6.250  1.00  0.00     0.029 A 
ATOM     59  N   UNL     1      10.106 -13.361   4.377  1.00  0.00    -0.354 N 
ATOM     60  N   UNL     1      11.670 -11.983   2.283  1.00  0.00    -0.248 NA
ATOM     61  C   UNL     1      13.715 -11.186   1.481  1.00  0.00     0.031 C 
ATOM     62  C   UNL     1      11.202 -14.207   6.112  1.00  0.00     0.029 A 
ATOM     63  C   UNL     1      11.367 -13.512   4.924  1.00  0.00     0.049 A 
ATOM     64  H   UNL     1       9.906 -12.895   3.533  1.00  0.00     0.167 HD
ATOM     65  C   UNL     1      12.679 -12.351   3.163  1.00  0.00     0.074 A 
ATOM     66  C   UNL     1      13.922 -11.870   2.596  1.00  0.00     0.031 C 
ATOM     67  C   UNL     1      12.588 -13.026   4.336  1.00  0.00     0.031 A 
BRANCH  54  68
ATOM     68  C   UNL     1       6.836 -14.590   5.966  1.00  0.00    -0.014 A 
ATOM     69  C   UNL     1       6.103 -15.752   5.675  1.00  0.00     0.009 A 
ATOM     70  C   UNL     1       6.738 -14.031   7.249  1.00  0.00     0.009 A 
ATOM     71  C   UNL     1       5.267 -16.322   6.638  1.00  0.00     0.001 A 
ATOM     72  C   UNL     1       5.931 -14.623   8.221  1.00  0.00     0.001 A 
ATOM     73  C   UNL     1       5.190 -15.762   7.912  1.00  0.00     0.000 A 
ENDBRANCH  54  68
BRANCH  55  74
ATOM     74  C   UNL     1      12.521 -10.055  -0.945  1.00  0.00    -0.014 A 
ATOM     75  C   UNL     1      13.503 -10.755  -1.663  1.00  0.00     0.009 A 
ATOM     76  C   UNL     1      12.371  -8.678  -1.173  1.00  0.00     0.009 A 
ATOM     77  C   UNL     1      14.347 -10.082  -2.550  1.00  0.00     0.001 A 
ATOM     78  C   UNL     1      13.188  -8.015  -2.091  1.00  0.00     0.001 A 
ATOM     79  C   UNL     1      14.186  -8.714  -2.765  1.00  0.00     0.000 A 
ENDBRANCH  55  74
BRANCH  67  80
ATOM     80  C   UNL     1      13.873 -13.333   5.054  1.00  0.00    -0.014 A 
ATOM     81  C   UNL     1      14.644 -12.323   5.650  1.00  0.00     0.009 A 
ATOM     82  C   UNL     1      14.289 -14.669   5.175  1.00  0.00     0.009 A 
ATOM     83  C   UNL     1      15.829 -12.643   6.315  1.00  0.00     0.001 A 
ATOM     84  C   UNL     1      15.449 -14.989   5.878  1.00  0.00     0.001 A 
ATOM     85  C   UNL     1      16.225 -13.975   6.435  1.00  0.00     0.000 A 
ENDBRANCH  67  80
ENDBRANCH  41  42
ENDBRANCH  33  36
ENDBRANCH  31  32
ENDBRANCH  30  31
ENDBRANCH   1  30
TORSDOF 15
