REMARK SMILES CSc1nc(C2CC2)nc(C)c1C(=O)NCCCCNC(=O)c1ccc(-c2c3nc(c(-c4ccccc4)c4ccc([nH]4)c(-c4ccccc4)c4nc(c(-c5ccccc5)c5ccc2[nH]5)C=C4)C=C3)cc1
REMARK SMILES IDX 18 1 17 2 16 3 15 4 13 5 14 6 12 8 3 9 4 10 5 11 10 12 9 13
REMARK SMILES IDX 11 14 2 15 1 16 6 17 7 18 8 19 19 20 20 21 21 22 22 24 23 25
REMARK SMILES IDX 24 26 70 27 25 28 69 29 26 30 27 31 28 32 63 33 29 34 68 35
REMARK SMILES IDX 62 36 64 37 30 38 67 39 61 40 60 41 31 43 53 44 38 45 52 46
REMARK SMILES IDX 39 47 42 48 51 49 65 50 40 51 41 52 50 54 66 55 43 56 32 57
REMARK SMILES IDX 33 58 37 59 34 60 36 61 35 62 54 63 55 64 59 65 56 66 58 67
REMARK SMILES IDX 57 68 44 69 45 70 49 71 46 72 48 73 47 74
REMARK H PARENT 15 7 20 23 64 42 42 53
REMARK Flexibility Score: inf
ROOT
ATOM      1  C   UNL     1       4.638   4.058   6.579  1.00  0.00     0.023 C 
ENDROOT
BRANCH   1   2
ATOM      2  C   UNL     1       3.778   2.804   6.433  1.00  0.00     0.023 C 
BRANCH   2   3
ATOM      3  C   UNL     1       2.341   3.050   5.939  1.00  0.00     0.116 C 
BRANCH   3   4
ATOM      4  N   UNL     1       2.306   2.881   4.504  1.00  0.00    -0.352 N 
ATOM      5  C   UNL     1       2.324   1.763   3.708  1.00  0.00     0.255 C 
ATOM      6  O   UNL     1       2.896   1.898   2.622  1.00  0.00    -0.269 OA
ATOM      7  H   UNL     1       2.261   3.728   4.003  1.00  0.00     0.163 HD
BRANCH   5   8
ATOM      8  C   UNL     1       1.666   0.458   3.984  1.00  0.00     0.093 A 
ATOM      9  C   UNL     1       0.856  -0.075   2.971  1.00  0.00     0.113 A 
ATOM     10  N   UNL     1       0.391  -1.351   2.953  1.00  0.00    -0.225 NA
ATOM     11  C   UNL     1       0.728  -2.153   3.964  1.00  0.00     0.133 A 
ATOM     12  C   UNL     1       1.919  -0.436   5.015  1.00  0.00     0.055 A 
ATOM     13  N   UNL     1       1.449  -1.713   5.000  1.00  0.00    -0.237 NA
ATOM     14  C   UNL     1       2.763  -0.226   6.224  1.00  0.00     0.068 C 
BRANCH   9  15
ATOM     15  S   UNL     1       0.212   0.881   1.589  1.00  0.00    -0.109 SA
ATOM     16  C   UNL     1       1.031  -0.015   0.243  1.00  0.00     0.092 C 
ENDBRANCH   9  15
BRANCH  11  17
ATOM     17  C   UNL     1       0.293  -3.595   3.983  1.00  0.00     0.058 C 
ATOM     18  C   UNL     1       0.067  -4.380   2.715  1.00  0.00     0.012 C 
ATOM     19  C   UNL     1       1.270  -4.673   3.561  1.00  0.00     0.012 C 
ENDBRANCH  11  17
ENDBRANCH   5   8
ENDBRANCH   3   4
ENDBRANCH   2   3
ENDBRANCH   1   2
BRANCH   1  20
ATOM     20  C   UNL     1       4.232   4.941   7.750  1.00  0.00     0.116 C 
BRANCH  20  21
ATOM     21  N   UNL     1       4.284   4.264   9.039  1.00  0.00    -0.352 N 
ATOM     22  C   UNL     1       4.469   4.823  10.284  1.00  0.00     0.251 C 
ATOM     23  H   UNL     1       4.172   3.287   9.018  1.00  0.00     0.163 HD
ATOM     24  O   UNL     1       4.559   4.129  11.281  1.00  0.00    -0.269 OA
BRANCH  22  25
ATOM     25  C   UNL     1       4.616   6.289  10.369  1.00  0.00     0.039 A 
ATOM     26  C   UNL     1       5.756   6.813  10.978  1.00  0.00     0.014 A 
ATOM     27  C   UNL     1       3.680   7.124   9.756  1.00  0.00     0.014 A 
ATOM     28  C   UNL     1       5.997   8.184  10.906  1.00  0.00     0.010 A 
ATOM     29  C   UNL     1       3.965   8.475   9.612  1.00  0.00     0.010 A 
ATOM     30  C   UNL     1       5.125   9.017  10.187  1.00  0.00    -0.014 A 
BRANCH  30  31
ATOM     31  C   UNL     1       5.400  10.463  10.027  1.00  0.00     0.031 A 
ATOM     32  C   UNL     1       4.452  11.471  10.613  1.00  0.00     0.074 A 
ATOM     33  C   UNL     1       6.457  10.867   9.297  1.00  0.00     0.049 A 
ATOM     34  N   UNL     1       4.478  12.776  10.527  1.00  0.00    -0.248 NA
ATOM     35  C   UNL     1       3.306  10.940  11.370  1.00  0.00     0.031 C 
ATOM     36  C   UNL     1       7.424   9.986   8.638  1.00  0.00     0.029 A 
ATOM     37  N   UNL     1       6.892  12.130   8.984  1.00  0.00    -0.354 N 
ATOM     38  C   UNL     1       3.346  13.218  11.197  1.00  0.00     0.074 A 
ATOM     39  C   UNL     1       2.625  12.044  11.636  1.00  0.00     0.031 C 
ATOM     40  C   UNL     1       8.355  10.736   8.025  1.00  0.00     0.029 A 
ATOM     41  C   UNL     1       8.030  12.146   8.215  1.00  0.00     0.049 A 
ATOM     42  H   UNL     1       6.432  12.948   9.281  1.00  0.00     0.167 HD
ATOM     43  C   UNL     1       2.952  14.488  11.448  1.00  0.00     0.031 A 
ATOM     44  C   UNL     1       8.731  13.181   7.717  1.00  0.00     0.031 A 
ATOM     45  C   UNL     1       3.679  15.655  11.027  1.00  0.00     0.049 A 
ATOM     46  C   UNL     1       8.271  14.583   8.005  1.00  0.00     0.074 A 
ATOM     47  C   UNL     1       3.397  16.985  11.283  1.00  0.00     0.029 A 
ATOM     48  N   UNL     1       4.833  15.628  10.260  1.00  0.00    -0.354 N 
ATOM     49  N   UNL     1       7.236  14.986   8.703  1.00  0.00    -0.248 NA
ATOM     50  C   UNL     1       9.083  15.673   7.446  1.00  0.00     0.031 C 
ATOM     51  C   UNL     1       4.357  17.766  10.632  1.00  0.00     0.029 A 
ATOM     52  C   UNL     1       5.264  16.920  10.014  1.00  0.00     0.049 A 
ATOM     53  H   UNL     1       5.279  14.812   9.939  1.00  0.00     0.167 HD
ATOM     54  C   UNL     1       7.287  16.374   8.687  1.00  0.00     0.074 A 
ATOM     55  C   UNL     1       8.463  16.742   7.926  1.00  0.00     0.031 C 
ATOM     56  C   UNL     1       6.437  17.265   9.253  1.00  0.00     0.031 A 
BRANCH  43  57
ATOM     57  C   UNL     1       1.671  14.672  12.212  1.00  0.00    -0.014 A 
ATOM     58  C   UNL     1       1.582  14.337  13.573  1.00  0.00     0.009 A 
ATOM     59  C   UNL     1       0.543  15.202  11.567  1.00  0.00     0.009 A 
ATOM     60  C   UNL     1       0.377  14.490  14.262  1.00  0.00     0.001 A 
ATOM     61  C   UNL     1      -0.651  15.383  12.267  1.00  0.00     0.001 A 
ATOM     62  C   UNL     1      -0.737  15.017  13.609  1.00  0.00     0.000 A 
ENDBRANCH  43  57
BRANCH  44  63
ATOM     63  C   UNL     1       9.956  12.936   6.913  1.00  0.00    -0.014 A 
ATOM     64  C   UNL     1      11.222  13.233   7.440  1.00  0.00     0.009 A 
ATOM     65  C   UNL     1       9.867  12.413   5.614  1.00  0.00     0.009 A 
ATOM     66  C   UNL     1      12.373  13.036   6.673  1.00  0.00     0.001 A 
ATOM     67  C   UNL     1      11.021  12.191   4.859  1.00  0.00     0.001 A 
ATOM     68  C   UNL     1      12.272  12.512   5.385  1.00  0.00     0.000 A 
ENDBRANCH  44  63
BRANCH  56  69
ATOM     69  C   UNL     1       6.765  18.722   9.095  1.00  0.00    -0.014 A 
ATOM     70  C   UNL     1       6.597  19.377   7.866  1.00  0.00     0.009 A 
ATOM     71  C   UNL     1       7.210  19.457  10.205  1.00  0.00     0.009 A 
ATOM     72  C   UNL     1       6.897  20.735   7.745  1.00  0.00     0.001 A 
ATOM     73  C   UNL     1       7.481  20.820  10.088  1.00  0.00     0.001 A 
ATOM     74  C   UNL     1       7.333  21.456   8.856  1.00  0.00     0.000 A 
ENDBRANCH  56  69
ENDBRANCH  30  31
ENDBRANCH  22  25
ENDBRANCH  20  21
ENDBRANCH   1  20
TORSDOF 13
