REMARK SMILES O=C(NCCCCNC(=O)C1CCN(S(=O)(=O)c2ccc3nc(O)sc3c2)CC1)c1ccc(-c2c3nc(c(-c4ccccc4)c4ccc([nH]4)c(-c4ccccc4)c4nc(c(-c5ccccc5)c5ccc2[nH]5)C=C4)C=C3)cc1
REMARK SMILES IDX 6 1 5 2 4 3 3 4 1 5 2 6 30 8 31 9 77 10 32 11 76 12 33 13
REMARK SMILES IDX 34 14 35 15 70 16 36 17 75 18 69 19 71 20 37 21 74 22 68 23
REMARK SMILES IDX 67 24 38 26 60 27 45 28 59 29 46 30 49 31 58 32 72 33 47 34
REMARK SMILES IDX 48 35 57 37 73 38 50 39 39 40 40 41 44 42 41 43 43 44 42 45
REMARK SMILES IDX 61 46 62 47 66 48 63 49 65 50 64 51 51 52 52 53 56 54 53 55
REMARK SMILES IDX 55 56 54 57 7 58 8 59 9 60 10 62 11 63 12 64 29 65 13 66
REMARK SMILES IDX 28 67 14 68 15 69 16 70 17 71 18 72 19 73 27 74 20 75 26 76
REMARK SMILES IDX 21 77 25 78 22 79 23 80 24 81
REMARK H PARENT 3 7 71 25 49 36 8 61 24 82
REMARK Flexibility Score: inf
ROOT
ATOM      1  C   UNL     1       4.684  -3.361   0.047  1.00  0.00     0.023 C 
ENDROOT
BRANCH   1   2
ATOM      2  C   UNL     1       5.157  -1.973   0.505  1.00  0.00     0.023 C 
BRANCH   2   3
ATOM      3  C   UNL     1       4.570  -0.791  -0.278  1.00  0.00     0.116 C 
BRANCH   3   4
ATOM      4  N   UNL     1       3.122  -0.787  -0.186  1.00  0.00    -0.352 N 
ATOM      5  O   UNL     1       1.107  -0.078   0.429  1.00  0.00    -0.269 OA
ATOM      6  C   UNL     1       2.236   0.223   0.043  1.00  0.00     0.251 C 
ATOM      7  H   UNL     1       2.706  -1.671  -0.311  1.00  0.00     0.163 HD
BRANCH   6   8
ATOM      8  C   UNL     1       2.556   1.645  -0.202  1.00  0.00     0.039 A 
ATOM      9  C   UNL     1       1.839   2.589   0.544  1.00  0.00     0.014 A 
ATOM     10  C   UNL     1       3.374   2.065  -1.256  1.00  0.00     0.014 A 
ATOM     11  C   UNL     1       1.916   3.940   0.226  1.00  0.00     0.010 A 
ATOM     12  C   UNL     1       3.462   3.425  -1.567  1.00  0.00     0.010 A 
ATOM     13  C   UNL     1       2.723   4.363  -0.836  1.00  0.00    -0.014 A 
BRANCH  13  14
ATOM     14  C   UNL     1       2.791   5.815  -1.076  1.00  0.00     0.031 A 
ATOM     15  C   UNL     1       4.186   6.357  -1.178  1.00  0.00     0.074 A 
ATOM     16  C   UNL     1       1.798   6.430  -1.757  1.00  0.00     0.049 A 
ATOM     17  N   UNL     1       4.925   6.260  -2.246  1.00  0.00    -0.248 NA
ATOM     18  C   UNL     1       4.927   6.789   0.008  1.00  0.00     0.031 C 
ATOM     19  C   UNL     1       1.125   5.861  -2.933  1.00  0.00     0.029 A 
ATOM     20  N   UNL     1       1.333   7.723  -1.697  1.00  0.00    -0.354 N 
ATOM     21  C   UNL     1       6.222   6.597  -1.886  1.00  0.00     0.074 A 
ATOM     22  C   UNL     1       6.174   6.908  -0.475  1.00  0.00     0.031 C 
ATOM     23  C   UNL     1       0.490   6.853  -3.591  1.00  0.00     0.029 A 
ATOM     24  C   UNL     1       0.605   8.092  -2.827  1.00  0.00     0.049 A 
ATOM     25  H   UNL     1       1.498   8.325  -0.936  1.00  0.00     0.167 HD
ATOM     26  C   UNL     1       7.256   6.621  -2.772  1.00  0.00     0.031 A 
ATOM     27  C   UNL     1       0.619   9.351  -3.352  1.00  0.00     0.031 A 
ATOM     28  C   UNL     1       6.904   6.317  -4.126  1.00  0.00     0.049 A 
ATOM     29  C   UNL     1       1.938   9.315  -4.097  1.00  0.00     0.074 A 
ATOM     30  C   UNL     1       6.975   5.250  -4.993  1.00  0.00     0.029 A 
ATOM     31  N   UNL     1       6.293   7.308  -4.854  1.00  0.00    -0.354 N 
ATOM     32  N   UNL     1       2.177   8.713  -5.236  1.00  0.00    -0.248 NA
ATOM     33  C   UNL     1       3.135   9.631  -3.316  1.00  0.00     0.031 C 
ATOM     34  C   UNL     1       5.989   5.515  -5.996  1.00  0.00     0.029 A 
ATOM     35  C   UNL     1       5.355   6.708  -5.650  1.00  0.00     0.049 A 
ATOM     36  H   UNL     1       6.493   8.271  -4.812  1.00  0.00     0.167 HD
ATOM     37  C   UNL     1       3.510   8.295  -5.163  1.00  0.00     0.074 A 
ATOM     38  C   UNL     1       4.039   8.909  -3.961  1.00  0.00     0.031 C 
ATOM     39  C   UNL     1       4.076   7.327  -5.946  1.00  0.00     0.031 A 
BRANCH  26  40
ATOM     40  C   UNL     1       8.622   7.116  -2.480  1.00  0.00    -0.014 A 
ATOM     41  C   UNL     1       9.604   6.327  -1.873  1.00  0.00     0.009 A 
ATOM     42  C   UNL     1       8.992   8.360  -3.024  1.00  0.00     0.009 A 
ATOM     43  C   UNL     1      10.934   6.771  -1.839  1.00  0.00     0.001 A 
ATOM     44  C   UNL     1      10.316   8.793  -3.000  1.00  0.00     0.001 A 
ATOM     45  C   UNL     1      11.289   7.994  -2.412  1.00  0.00     0.000 A 
ENDBRANCH  26  40
BRANCH  27  46
ATOM     46  C   UNL     1       0.215  10.415  -2.370  1.00  0.00    -0.014 A 
ATOM     47  C   UNL     1       1.007  11.485  -1.933  1.00  0.00     0.009 A 
ATOM     48  C   UNL     1      -1.054  10.273  -1.768  1.00  0.00     0.009 A 
ATOM     49  C   UNL     1       0.634  12.254  -0.821  1.00  0.00     0.001 A 
ATOM     50  C   UNL     1      -1.444  11.058  -0.679  1.00  0.00     0.001 A 
ATOM     51  C   UNL     1      -0.578  12.021  -0.177  1.00  0.00     0.000 A 
ENDBRANCH  27  46
BRANCH  39  52
ATOM     52  C   UNL     1       3.253   6.742  -7.049  1.00  0.00    -0.014 A 
ATOM     53  C   UNL     1       2.951   5.367  -7.059  1.00  0.00     0.009 A 
ATOM     54  C   UNL     1       2.912   7.513  -8.165  1.00  0.00     0.009 A 
ATOM     55  C   UNL     1       2.410   4.763  -8.193  1.00  0.00     0.001 A 
ATOM     56  C   UNL     1       2.348   6.911  -9.291  1.00  0.00     0.001 A 
ATOM     57  C   UNL     1       2.121   5.535  -9.315  1.00  0.00     0.000 A 
ENDBRANCH  39  52
ENDBRANCH  13  14
ENDBRANCH   6   8
ENDBRANCH   3   4
ENDBRANCH   2   3
ENDBRANCH   1   2
BRANCH   1  58
ATOM     58  C   UNL     1       5.092  -3.746  -1.374  1.00  0.00     0.116 C 
BRANCH  58  59
ATOM     59  N   UNL     1       6.490  -4.139  -1.453  1.00  0.00    -0.356 N 
ATOM     60  C   UNL     1       7.031  -5.361  -1.746  1.00  0.00     0.223 C 
ATOM     61  H   UNL     1       7.140  -3.423  -1.269  1.00  0.00     0.163 HD
ATOM     62  O   UNL     1       8.255  -5.461  -1.819  1.00  0.00    -0.275 OA
BRANCH  60  63
ATOM     63  C   UNL     1       6.102  -6.556  -1.948  1.00  0.00     0.081 C 
ATOM     64  C   UNL     1       5.534  -7.033  -0.611  1.00  0.00     0.030 C 
ATOM     65  C   UNL     1       6.774  -7.712  -2.700  1.00  0.00     0.030 C 
ATOM     66  C   UNL     1       6.560  -7.823   0.192  1.00  0.00     0.103 C 
ATOM     67  C   UNL     1       7.667  -8.603  -1.836  1.00  0.00     0.103 C 
ATOM     68  N   UNL     1       6.955  -9.027  -0.593  1.00  0.00    -0.198 NA
BRANCH  68  69
ATOM     69  S   UNL     1       7.805 -10.171   0.381  1.00  0.00     0.243 S 
ATOM     70  O   UNL     1       9.198  -9.793   0.413  1.00  0.00    -0.207 OA
ATOM     71  O   UNL     1       7.052 -10.338   1.611  1.00  0.00    -0.207 OA
BRANCH  69  72
ATOM     72  C   UNL     1       7.680 -11.714  -0.508  1.00  0.00     0.084 A 
ATOM     73  C   UNL     1       8.499 -11.939  -1.615  1.00  0.00     0.024 A 
ATOM     74  C   UNL     1       6.857 -12.731   0.001  1.00  0.00     0.043 A 
ATOM     75  C   UNL     1       8.456 -13.166  -2.286  1.00  0.00     0.031 A 
ATOM     76  C   UNL     1       6.865 -13.974  -0.656  1.00  0.00     0.059 A 
ATOM     77  C   UNL     1       7.639 -14.206  -1.799  1.00  0.00     0.085 A 
ATOM     78  S   UNL     1       6.020 -15.426  -0.259  1.00  0.00    -0.077 S 
ATOM     79  N   UNL     1       7.539 -15.477  -2.341  1.00  0.00    -0.203 NA
ATOM     80  C   UNL     1       6.729 -16.185  -1.601  1.00  0.00     0.271 A 
BRANCH  80  81
ATOM     81  O   UNL     1       6.503 -17.444  -1.923  1.00  0.00    -0.486 OA
ATOM     82  H   UNL     1       6.920 -17.817  -2.675  1.00  0.00     0.296 HD
ENDBRANCH  80  81
ENDBRANCH  69  72
ENDBRANCH  68  69
ENDBRANCH  60  63
ENDBRANCH  58  59
ENDBRANCH   1  58
TORSDOF 14
