REMARK SMILES CC[NH+](CC)[C@](C)(C(=O)NCCCCNC(=O)c1ccc(-c2c3nc(c(-c4ccccc4)c4ccc([nH]4)c(-c4ccccc4)c4nc(c(-c5ccccc5)c5ccc2[nH]5)C=C4)C=C3)cc1)c1cc(F)c(C)cc1F
REMARK SMILES IDX 12 1 11 2 10 3 8 4 9 5 6 7 7 8 3 9 2 11 1 12 4 13 5 14 66 15
REMARK SMILES IDX 67 16 73 17 68 18 72 19 74 20 69 21 70 22 71 23 13 24 14 25
REMARK SMILES IDX 15 26 16 27 17 29 18 30 19 31 65 32 20 33 64 34 21 35 22 36
REMARK SMILES IDX 23 37 58 38 24 39 63 40 57 41 59 42 25 43 62 44 56 45 55 46
REMARK SMILES IDX 26 48 48 49 33 50 47 51 34 52 37 53 46 54 60 55 35 56 36 57
REMARK SMILES IDX 45 59 61 60 38 61 27 62 28 63 32 64 29 65 31 66 30 67 49 68
REMARK SMILES IDX 50 69 54 70 51 71 53 72 52 73 39 74 40 75 44 76 41 77 43 78
REMARK SMILES IDX 42 79
REMARK H PARENT 10 6 3 10 15 28 59 47 37 58
REMARK Flexibility Score: inf
ROOT
ATOM      1  C   UNL     1      -0.170  -0.390   1.174  1.00  0.00     0.023 C 
ENDROOT
BRANCH   1   2
ATOM      2  C   UNL     1       0.876   0.437   0.440  1.00  0.00     0.116 C 
BRANCH   2   3
ATOM      3  N   UNL     1       1.853  -0.359  -0.278  1.00  0.00    -0.350 N 
ATOM      4  C   UNL     1       2.645  -0.041  -1.356  1.00  0.00     0.286 C 
ATOM      5  O   UNL     1       3.618  -0.792  -1.509  1.00  0.00    -0.267 OA
ATOM      6  H   UNL     1       1.968  -1.275   0.062  1.00  0.00     0.163 HD
BRANCH   4   7
ATOM      7  C   UNL     1       2.325   1.163  -2.352  1.00  0.00     0.202 C 
ATOM      8  C   UNL     1       0.802   1.044  -2.740  1.00  0.00     0.096 C 
BRANCH   7   9
ATOM      9  N   UNL     1       2.743   2.509  -1.785  1.00  0.00    -0.319 N 
ATOM     10  H   UNL     1       3.705   2.454  -2.117  1.00  0.00     0.349 HD
BRANCH   9  11
ATOM     11  C   UNL     1       2.982   2.730  -0.355  1.00  0.00     0.259 C 
ATOM     12  C   UNL     1       4.121   1.993   0.345  1.00  0.00     0.071 C 
ENDBRANCH   9  11
BRANCH   9  13
ATOM     13  C   UNL     1       1.994   3.653  -2.362  1.00  0.00     0.259 C 
ATOM     14  C   UNL     1       2.718   5.000  -2.276  1.00  0.00     0.071 C 
ENDBRANCH   9  13
ENDBRANCH   7   9
BRANCH   7  15
ATOM     15  C   UNL     1       3.080   0.874  -3.719  1.00  0.00     0.060 A 
ATOM     16  C   UNL     1       2.922  -0.389  -4.344  1.00  0.00     0.053 A 
ATOM     17  C   UNL     1       3.831   1.817  -4.441  1.00  0.00     0.133 A 
ATOM     18  C   UNL     1       3.419  -0.645  -5.626  1.00  0.00     0.126 A 
ATOM     19  C   UNL     1       4.309   1.564  -5.735  1.00  0.00     0.046 A 
ATOM     20  F   UNL     1       4.112   3.032  -3.956  1.00  0.00    -0.206 F 
ATOM     21  F   UNL     1       3.217  -1.854  -6.168  1.00  0.00    -0.207 F 
ATOM     22  C   UNL     1       4.081   0.337  -6.356  1.00  0.00    -0.012 A 
ATOM     23  C   UNL     1       4.556   0.072  -7.750  1.00  0.00     0.047 C 
ENDBRANCH   7  15
ENDBRANCH   4   7
ENDBRANCH   2   3
ENDBRANCH   1   2
BRANCH   1  24
ATOM     24  C   UNL     1       0.376  -1.255   2.314  1.00  0.00     0.023 C 
BRANCH  24  25
ATOM     25  C   UNL     1       1.301  -0.554   3.309  1.00  0.00     0.116 C 
BRANCH  25  26
ATOM     26  N   UNL     1       0.690   0.601   3.946  1.00  0.00    -0.352 N 
ATOM     27  C   UNL     1       0.474   0.875   5.276  1.00  0.00     0.251 C 
ATOM     28  H   UNL     1       0.381   1.300   3.326  1.00  0.00     0.163 HD
ATOM     29  O   UNL     1      -0.186   1.857   5.593  1.00  0.00    -0.269 OA
BRANCH  27  30
ATOM     30  C   UNL     1       1.000  -0.026   6.326  1.00  0.00     0.039 A 
ATOM     31  C   UNL     1       0.169  -0.347   7.402  1.00  0.00     0.014 A 
ATOM     32  C   UNL     1       2.296  -0.544   6.269  1.00  0.00     0.014 A 
ATOM     33  C   UNL     1       0.613  -1.243   8.377  1.00  0.00     0.010 A 
ATOM     34  C   UNL     1       2.705  -1.505   7.194  1.00  0.00     0.010 A 
ATOM     35  C   UNL     1       1.868  -1.865   8.259  1.00  0.00    -0.014 A 
BRANCH  35  36
ATOM     36  C   UNL     1       2.282  -2.908   9.235  1.00  0.00     0.031 A 
ATOM     37  C   UNL     1       3.476  -2.709  10.128  1.00  0.00     0.074 A 
ATOM     38  C   UNL     1       1.581  -4.058   9.303  1.00  0.00     0.049 A 
ATOM     39  N   UNL     1       3.926  -3.483  11.085  1.00  0.00    -0.248 NA
ATOM     40  C   UNL     1       4.284  -1.500   9.907  1.00  0.00     0.031 C 
ATOM     41  C   UNL     1       0.444  -4.408   8.448  1.00  0.00     0.029 A 
ATOM     42  N   UNL     1       1.713  -5.140  10.137  1.00  0.00    -0.354 N 
ATOM     43  C   UNL     1       5.068  -2.860  11.573  1.00  0.00     0.074 A 
ATOM     44  C   UNL     1       5.276  -1.675  10.769  1.00  0.00     0.031 C 
ATOM     45  C   UNL     1      -0.051  -5.593   8.838  1.00  0.00     0.029 A 
ATOM     46  C   UNL     1       0.754  -6.105   9.942  1.00  0.00     0.049 A 
ATOM     47  H   UNL     1       2.426  -5.218  10.811  1.00  0.00     0.167 HD
ATOM     48  C   UNL     1       5.861  -3.225  12.609  1.00  0.00     0.031 A 
ATOM     49  C   UNL     1       0.536  -7.267  10.585  1.00  0.00     0.031 A 
ATOM     50  C   UNL     1       5.659  -4.407  13.407  1.00  0.00     0.049 A 
ATOM     51  C   UNL     1       1.422  -7.645  11.738  1.00  0.00     0.074 A 
ATOM     52  C   UNL     1       6.373  -4.832  14.514  1.00  0.00     0.029 A 
ATOM     53  N   UNL     1       4.677  -5.359  13.176  1.00  0.00    -0.354 N 
ATOM     54  N   UNL     1       2.440  -6.995  12.247  1.00  0.00    -0.248 NA
ATOM     55  C   UNL     1       1.111  -8.909  12.419  1.00  0.00     0.031 C 
ATOM     56  C   UNL     1       5.861  -6.072  14.916  1.00  0.00     0.029 A 
ATOM     57  C   UNL     1       4.783  -6.383  14.104  1.00  0.00     0.049 A 
ATOM     58  H   UNL     1       4.004  -5.313  12.459  1.00  0.00     0.167 HD
ATOM     59  C   UNL     1       2.874  -7.756  13.325  1.00  0.00     0.074 A 
ATOM     60  C   UNL     1       1.991  -8.901  13.410  1.00  0.00     0.031 C 
ATOM     61  C   UNL     1       3.909  -7.526  14.170  1.00  0.00     0.031 A 
BRANCH  48  62
ATOM     62  C   UNL     1       7.032  -2.336  12.933  1.00  0.00    -0.014 A 
ATOM     63  C   UNL     1       6.848  -1.046  13.458  1.00  0.00     0.009 A 
ATOM     64  C   UNL     1       8.341  -2.808  12.746  1.00  0.00     0.009 A 
ATOM     65  C   UNL     1       7.947  -0.234  13.749  1.00  0.00     0.001 A 
ATOM     66  C   UNL     1       9.438  -2.007  13.069  1.00  0.00     0.001 A 
ATOM     67  C   UNL     1       9.241  -0.718  13.560  1.00  0.00     0.000 A 
ENDBRANCH  48  62
BRANCH  49  68
ATOM     68  C   UNL     1      -0.593  -8.144  10.174  1.00  0.00    -0.014 A 
ATOM     69  C   UNL     1      -1.709  -8.315  11.008  1.00  0.00     0.009 A 
ATOM     70  C   UNL     1      -0.557  -8.821   8.944  1.00  0.00     0.009 A 
ATOM     71  C   UNL     1      -2.750  -9.168  10.633  1.00  0.00     0.001 A 
ATOM     72  C   UNL     1      -1.614  -9.646   8.557  1.00  0.00     0.001 A 
ATOM     73  C   UNL     1      -2.704  -9.828   9.406  1.00  0.00     0.000 A 
ENDBRANCH  49  68
BRANCH  61  74
ATOM     74  C   UNL     1       4.115  -8.520  15.282  1.00  0.00    -0.014 A 
ATOM     75  C   UNL     1       4.545  -9.832  15.026  1.00  0.00     0.009 A 
ATOM     76  C   UNL     1       3.875  -8.133  16.610  1.00  0.00     0.009 A 
ATOM     77  C   UNL     1       4.674 -10.751  16.070  1.00  0.00     0.001 A 
ATOM     78  C   UNL     1       4.040  -9.042  17.655  1.00  0.00     0.001 A 
ATOM     79  C   UNL     1       4.424 -10.354  17.384  1.00  0.00     0.000 A 
ENDBRANCH  61  74
ENDBRANCH  35  36
ENDBRANCH  27  30
ENDBRANCH  25  26
ENDBRANCH  24  25
ENDBRANCH   1  24
TORSDOF 15
