REMARK SMILES O=C(NCCCCNC(=O)[C@H]1CC[N@@H+]1CCc1ccccc1)c1ccc(-c2c3nc(c(-c4ccccc4)c4ccc([nH]4)c(-c4ccccc4)c4nc(c(-c5ccccc5)c5ccc2[nH]5)C=C4)C=C3)cc1
REMARK SMILES IDX 6 1 5 2 4 3 3 4 1 5 2 6 23 8 24 9 70 10 25 11 69 12 26 13
REMARK SMILES IDX 27 14 28 15 63 16 29 17 68 18 62 19 64 20 30 21 67 22 61 23
REMARK SMILES IDX 60 24 31 26 53 27 38 28 52 29 39 30 42 31 51 32 65 33 40 34
REMARK SMILES IDX 41 35 50 37 66 38 43 39 32 40 33 41 37 42 34 43 36 44 35 45
REMARK SMILES IDX 54 46 55 47 59 48 56 49 58 50 57 51 44 52 45 53 49 54 46 55
REMARK SMILES IDX 48 56 47 57 7 58 8 59 9 60 10 62 11 63 12 64 14 65 13 66
REMARK SMILES IDX 15 68 16 69 17 70 18 71 22 72 19 73 21 74 20 75
REMARK H PARENT 3 7 64 25 42 36 8 61 14 67
REMARK Flexibility Score: inf
ROOT
ATOM      1  C   UNL     1       3.736   6.760   2.192  1.00  0.00     0.023 C 
ENDROOT
BRANCH   1   2
ATOM      2  C   UNL     1       2.453   6.755   1.373  1.00  0.00     0.023 C 
BRANCH   2   3
ATOM      3  C   UNL     1       1.361   7.675   1.888  1.00  0.00     0.116 C 
BRANCH   3   4
ATOM      4  N   UNL     1       1.712   9.087   1.925  1.00  0.00    -0.352 N 
ATOM      5  O   UNL     1       1.200  11.300   1.870  1.00  0.00    -0.269 OA
ATOM      6  C   UNL     1       0.826  10.149   1.916  1.00  0.00     0.251 C 
ATOM      7  H   UNL     1       2.671   9.308   1.960  1.00  0.00     0.163 HD
BRANCH   6   8
ATOM      8  C   UNL     1      -0.618   9.817   1.921  1.00  0.00     0.039 A 
ATOM      9  C   UNL     1      -1.131   8.983   2.917  1.00  0.00     0.014 A 
ATOM     10  C   UNL     1      -1.423  10.255   0.868  1.00  0.00     0.014 A 
ATOM     11  C   UNL     1      -2.415   8.476   2.789  1.00  0.00     0.010 A 
ATOM     12  C   UNL     1      -2.745   9.812   0.789  1.00  0.00     0.010 A 
ATOM     13  C   UNL     1      -3.242   8.904   1.738  1.00  0.00    -0.014 A 
BRANCH  13  14
ATOM     14  C   UNL     1      -4.663   8.486   1.730  1.00  0.00     0.031 A 
ATOM     15  C   UNL     1      -5.222   7.598   0.658  1.00  0.00     0.074 A 
ATOM     16  C   UNL     1      -5.447   8.930   2.732  1.00  0.00     0.049 A 
ATOM     17  N   UNL     1      -6.449   7.165   0.515  1.00  0.00    -0.248 NA
ATOM     18  C   UNL     1      -4.297   7.139  -0.391  1.00  0.00     0.031 C 
ATOM     19  C   UNL     1      -5.004   9.806   3.822  1.00  0.00     0.029 A 
ATOM     20  N   UNL     1      -6.769   8.702   3.006  1.00  0.00    -0.354 N 
ATOM     21  C   UNL     1      -6.452   6.405  -0.648  1.00  0.00     0.074 A 
ATOM     22  C   UNL     1      -5.106   6.439  -1.178  1.00  0.00     0.031 C 
ATOM     23  C   UNL     1      -6.026  10.013   4.663  1.00  0.00     0.029 A 
ATOM     24  C   UNL     1      -7.208   9.345   4.136  1.00  0.00     0.049 A 
ATOM     25  H   UNL     1      -7.346   8.133   2.448  1.00  0.00     0.167 HD
ATOM     26  C   UNL     1      -7.490   5.747  -1.217  1.00  0.00     0.031 A 
ATOM     27  C   UNL     1      -8.437   9.422   4.676  1.00  0.00     0.031 A 
ATOM     28  C   UNL     1      -8.824   5.711  -0.674  1.00  0.00     0.049 A 
ATOM     29  C   UNL     1      -9.568   8.710   4.000  1.00  0.00     0.074 A 
ATOM     30  C   UNL     1      -9.927   5.018  -1.145  1.00  0.00     0.029 A 
ATOM     31  N   UNL     1      -9.239   6.406   0.451  1.00  0.00    -0.354 N 
ATOM     32  N   UNL     1      -9.541   7.954   2.930  1.00  0.00    -0.248 NA
ATOM     33  C   UNL     1     -10.898   8.872   4.598  1.00  0.00     0.031 C 
ATOM     34  C   UNL     1     -11.022   5.338  -0.336  1.00  0.00     0.029 A 
ATOM     35  C   UNL     1     -10.590   6.193   0.665  1.00  0.00     0.049 A 
ATOM     36  H   UNL     1      -8.659   6.968   1.014  1.00  0.00     0.167 HD
ATOM     37  C   UNL     1     -10.850   7.548   2.725  1.00  0.00     0.074 A 
ATOM     38  C   UNL     1     -11.639   8.116   3.800  1.00  0.00     0.031 C 
ATOM     39  C   UNL     1     -11.357   6.783   1.730  1.00  0.00     0.031 A 
BRANCH  26  40
ATOM     40  C   UNL     1      -7.248   5.026  -2.513  1.00  0.00    -0.014 A 
ATOM     41  C   UNL     1      -6.581   3.793  -2.550  1.00  0.00     0.009 A 
ATOM     42  C   UNL     1      -7.785   5.545  -3.703  1.00  0.00     0.009 A 
ATOM     43  C   UNL     1      -6.447   3.100  -3.757  1.00  0.00     0.001 A 
ATOM     44  C   UNL     1      -7.665   4.842  -4.903  1.00  0.00     0.001 A 
ATOM     45  C   UNL     1      -6.994   3.621  -4.929  1.00  0.00     0.000 A 
ENDBRANCH  26  40
BRANCH  27  46
ATOM     46  C   UNL     1      -8.660  10.249   5.887  1.00  0.00    -0.014 A 
ATOM     47  C   UNL     1      -8.960   9.652   7.119  1.00  0.00     0.009 A 
ATOM     48  C   UNL     1      -8.559  11.648   5.814  1.00  0.00     0.009 A 
ATOM     49  C   UNL     1      -9.176  10.442   8.250  1.00  0.00     0.001 A 
ATOM     50  C   UNL     1      -8.745  12.433   6.952  1.00  0.00     0.001 A 
ATOM     51  C   UNL     1      -9.063  11.830   8.167  1.00  0.00     0.000 A 
ENDBRANCH  27  46
BRANCH  39  52
ATOM     52  C   UNL     1     -12.834   6.525   1.766  1.00  0.00    -0.014 A 
ATOM     53  C   UNL     1     -13.747   7.530   1.411  1.00  0.00     0.009 A 
ATOM     54  C   UNL     1     -13.316   5.264   2.145  1.00  0.00     0.009 A 
ATOM     55  C   UNL     1     -15.119   7.285   1.465  1.00  0.00     0.001 A 
ATOM     56  C   UNL     1     -14.688   5.014   2.173  1.00  0.00     0.001 A 
ATOM     57  C   UNL     1     -15.588   6.027   1.842  1.00  0.00     0.000 A 
ENDBRANCH  39  52
ENDBRANCH  13  14
ENDBRANCH   6   8
ENDBRANCH   3   4
ENDBRANCH   2   3
ENDBRANCH   1   2
BRANCH   1  58
ATOM     58  C   UNL     1       3.587   6.401   3.677  1.00  0.00     0.116 C 
BRANCH  58  59
ATOM     59  N   UNL     1       3.872   5.008   4.000  1.00  0.00    -0.351 N 
ATOM     60  C   UNL     1       5.021   4.308   4.351  1.00  0.00     0.278 C 
ATOM     61  H   UNL     1       3.072   4.434   3.960  1.00  0.00     0.163 HD
ATOM     62  O   UNL     1       4.804   3.143   4.724  1.00  0.00    -0.268 OA
BRANCH  60  63
ATOM     63  C   UNL     1       6.489   4.895   4.198  1.00  0.00     0.279 C 
ATOM     64  C   UNL     1       6.657   6.311   3.673  1.00  0.00     0.137 C 
ATOM     65  N   UNL     1       7.153   5.383   5.483  1.00  0.00    -0.324 N 
ATOM     66  C   UNL     1       6.633   6.720   5.179  1.00  0.00     0.269 C 
ATOM     67  H   UNL     1       6.979   4.869   6.347  1.00  0.00     0.348 HD
BRANCH  65  68
ATOM     68  C   UNL     1       8.645   5.427   5.489  1.00  0.00     0.267 C 
BRANCH  68  69
ATOM     69  C   UNL     1       9.595   6.226   4.509  1.00  0.00     0.097 C 
BRANCH  69  70
ATOM     70  C   UNL     1       9.700   7.757   4.512  1.00  0.00    -0.042 A 
ATOM     71  C   UNL     1      10.793   8.386   5.126  1.00  0.00     0.004 A 
ATOM     72  C   UNL     1       8.806   8.604   3.829  1.00  0.00     0.004 A 
ATOM     73  C   UNL     1      10.949   9.782   5.087  1.00  0.00     0.000 A 
ATOM     74  C   UNL     1       8.918   9.997   3.841  1.00  0.00     0.000 A 
ATOM     75  C   UNL     1       9.999  10.589   4.466  1.00  0.00     0.000 A 
ENDBRANCH  69  70
ENDBRANCH  68  69
ENDBRANCH  65  68
ENDBRANCH  60  63
ENDBRANCH  58  59
ENDBRANCH   1  58
TORSDOF 14
