REMARK SMILES CC[NH2+][C@@]1(C(=O)NCCCCNC(=O)c2ccc(-c3c4nc(c(-c5ccccc5)c5ccc([nH]5)c(-c5ccccc5)c5nc(c(-c6ccccc6)c6ccc3[nH]6)C=C5)C=C4)cc2)CCC[C@@H]([N@@H+](C)C2CCCC2)C1
REMARK SMILES IDX 9 1 8 2 7 3 5 4 6 5 4 7 63 8 74 9 64 10 66 11 65 12 3 13
REMARK SMILES IDX 2 16 1 17 67 18 68 19 69 21 70 22 73 23 71 24 72 25 10 26
REMARK SMILES IDX 11 27 12 28 13 29 14 31 15 32 16 33 62 34 17 35 61 36 18 37
REMARK SMILES IDX 19 38 20 39 55 40 21 41 60 42 54 43 56 44 22 45 59 46 53 47
REMARK SMILES IDX 52 48 23 50 45 51 30 52 44 53 31 54 34 55 43 56 57 57 32 58
REMARK SMILES IDX 33 59 42 61 58 62 35 63 24 64 25 65 29 66 26 67 28 68 27 69
REMARK SMILES IDX 46 70 47 71 51 72 48 73 50 74 49 75 36 76 37 77 41 78 38 79
REMARK SMILES IDX 40 80 39 81
REMARK H PARENT 7 6 3 14 3 15 67 20 12 30 56 49 34 60
REMARK Flexibility Score: inf
ROOT
ATOM      1  C   UNL     1       0.783   5.635  -5.512  1.00  0.00     0.023 C 
ENDROOT
BRANCH   1   2
ATOM      2  C   UNL     1      -0.101   4.386  -5.418  1.00  0.00     0.116 C 
BRANCH   2   3
ATOM      3  N   UNL     1       0.679   3.221  -5.067  1.00  0.00    -0.351 N 
ATOM      4  C   UNL     1       0.954   2.528  -3.942  1.00  0.00     0.281 C 
ATOM      5  O   UNL     1       1.877   1.704  -4.105  1.00  0.00    -0.268 OA
ATOM      6  H   UNL     1       1.126   2.831  -5.853  1.00  0.00     0.163 HD
BRANCH   4   7
ATOM      7  C   UNL     1       0.297   2.658  -2.487  1.00  0.00     0.181 C 
ATOM      8  C   UNL     1      -1.224   2.859  -2.453  1.00  0.00     0.079 C 
ATOM      9  C   UNL     1       1.038   3.724  -1.664  1.00  0.00     0.144 C 
ATOM     10  C   UNL     1      -1.773   4.285  -2.384  1.00  0.00     0.013 C 
ATOM     11  C   UNL     1       0.686   5.158  -2.050  1.00  0.00     0.190 C 
ATOM     12  C   UNL     1      -0.829   5.439  -2.044  1.00  0.00     0.065 C 
BRANCH   7  13
ATOM     13  N   UNL     1       0.560   1.274  -1.935  1.00  0.00    -0.334 N 
ATOM     14  H   UNL     1      -0.114   0.648  -2.374  1.00  0.00     0.347 HD
ATOM     15  H   UNL     1       1.547   1.124  -2.143  1.00  0.00     0.347 HD
BRANCH  13  16
ATOM     16  C   UNL     1       0.483   1.034  -0.501  1.00  0.00     0.257 C 
ATOM     17  C   UNL     1       1.107  -0.323  -0.186  1.00  0.00     0.071 C 
ENDBRANCH  13  16
ENDBRANCH   7  13
BRANCH  11  18
ATOM     18  N   UNL     1       1.522   6.187  -1.383  1.00  0.00    -0.332 N 
ATOM     19  C   UNL     1       1.311   7.524  -1.943  1.00  0.00     0.333 C 
ATOM     20  H   UNL     1       2.447   5.828  -1.620  1.00  0.00     0.348 HD
BRANCH  18  21
ATOM     21  C   UNL     1       1.612   6.232   0.083  1.00  0.00     0.184 C 
ATOM     22  C   UNL     1       0.361   6.023   0.941  1.00  0.00     0.065 C 
ATOM     23  C   UNL     1       2.672   5.290   0.694  1.00  0.00     0.065 C 
ATOM     24  C   UNL     1       0.940   5.772   2.325  1.00  0.00     0.006 C 
ATOM     25  C   UNL     1       2.098   4.828   2.035  1.00  0.00     0.006 C 
ENDBRANCH  18  21
ENDBRANCH  11  18
ENDBRANCH   4   7
ENDBRANCH   2   3
ENDBRANCH   1   2
BRANCH   1  26
ATOM     26  C   UNL     1       0.844   6.281  -6.889  1.00  0.00     0.023 C 
BRANCH  26  27
ATOM     27  C   UNL     1      -0.492   6.792  -7.405  1.00  0.00     0.116 C 
BRANCH  27  28
ATOM     28  N   UNL     1      -1.105   7.827  -6.581  1.00  0.00    -0.352 N 
ATOM     29  C   UNL     1      -1.905   8.866  -7.008  1.00  0.00     0.251 C 
ATOM     30  H   UNL     1      -0.929   7.779  -5.614  1.00  0.00     0.163 HD
ATOM     31  O   UNL     1      -2.336   9.706  -6.226  1.00  0.00    -0.269 OA
BRANCH  29  32
ATOM     32  C   UNL     1      -2.176   8.975  -8.455  1.00  0.00     0.039 A 
ATOM     33  C   UNL     1      -1.756  10.119  -9.136  1.00  0.00     0.014 A 
ATOM     34  C   UNL     1      -2.679   7.871  -9.149  1.00  0.00     0.014 A 
ATOM     35  C   UNL     1      -1.736  10.114 -10.531  1.00  0.00     0.010 A 
ATOM     36  C   UNL     1      -2.576   7.838 -10.533  1.00  0.00     0.010 A 
ATOM     37  C   UNL     1      -2.087   8.950 -11.237  1.00  0.00    -0.014 A 
BRANCH  37  38
ATOM     38  C   UNL     1      -1.926   8.856 -12.709  1.00  0.00     0.031 A 
ATOM     39  C   UNL     1      -3.126   8.609 -13.578  1.00  0.00     0.074 A 
ATOM     40  C   UNL     1      -0.693   8.889 -13.255  1.00  0.00     0.049 A 
ATOM     41  N   UNL     1      -3.180   8.377 -14.865  1.00  0.00    -0.248 NA
ATOM     42  C   UNL     1      -4.434   8.579 -12.904  1.00  0.00     0.031 C 
ATOM     43  C   UNL     1       0.563   9.061 -12.520  1.00  0.00     0.029 A 
ATOM     44  N   UNL     1      -0.295   8.767 -14.563  1.00  0.00    -0.354 N 
ATOM     45  C   UNL     1      -4.518   8.135 -15.145  1.00  0.00     0.074 A 
ATOM     46  C   UNL     1      -5.235   8.207 -13.891  1.00  0.00     0.031 C 
ATOM     47  C   UNL     1       1.586   9.065 -13.390  1.00  0.00     0.029 A 
ATOM     48  C   UNL     1       1.065   8.860 -14.737  1.00  0.00     0.049 A 
ATOM     49  H   UNL     1      -0.925   8.626 -15.306  1.00  0.00     0.167 HD
ATOM     50  C   UNL     1      -5.104   7.894 -16.341  1.00  0.00     0.031 A 
ATOM     51  C   UNL     1       1.808   8.788 -15.857  1.00  0.00     0.031 A 
ATOM     52  C   UNL     1      -4.403   7.867 -17.594  1.00  0.00     0.049 A 
ATOM     53  C   UNL     1       1.130   8.567 -17.179  1.00  0.00     0.074 A 
ATOM     54  C   UNL     1      -4.920   7.708 -18.868  1.00  0.00     0.029 A 
ATOM     55  N   UNL     1      -3.032   8.013 -17.731  1.00  0.00    -0.354 N 
ATOM     56  N   UNL     1      -0.145   8.401 -17.434  1.00  0.00    -0.248 NA
ATOM     57  C   UNL     1       1.994   8.530 -18.368  1.00  0.00     0.031 C 
ATOM     58  C   UNL     1      -3.855   7.733 -19.776  1.00  0.00     0.029 A 
ATOM     59  C   UNL     1      -2.683   7.941 -19.068  1.00  0.00     0.049 A 
ATOM     60  H   UNL     1      -2.401   8.148 -16.988  1.00  0.00     0.167 HD
ATOM     61  C   UNL     1      -0.239   8.264 -18.812  1.00  0.00     0.074 A 
ATOM     62  C   UNL     1       1.105   8.377 -19.340  1.00  0.00     0.031 C 
ATOM     63  C   UNL     1      -1.341   8.062 -19.573  1.00  0.00     0.031 A 
BRANCH  50  64
ATOM     64  C   UNL     1      -6.584   7.646 -16.338  1.00  0.00    -0.014 A 
ATOM     65  C   UNL     1      -7.493   8.690 -16.102  1.00  0.00     0.009 A 
ATOM     66  C   UNL     1      -7.076   6.355 -16.582  1.00  0.00     0.009 A 
ATOM     67  C   UNL     1      -8.865   8.436 -16.067  1.00  0.00     0.001 A 
ATOM     68  C   UNL     1      -8.450   6.110 -16.572  1.00  0.00     0.001 A 
ATOM     69  C   UNL     1      -9.342   7.148 -16.305  1.00  0.00     0.000 A 
ENDBRANCH  50  64
BRANCH  51  70
ATOM     70  C   UNL     1       3.282   8.959 -15.786  1.00  0.00    -0.014 A 
ATOM     71  C   UNL     1       3.874  10.153 -16.223  1.00  0.00     0.009 A 
ATOM     72  C   UNL     1       4.101   7.933 -15.292  1.00  0.00     0.009 A 
ATOM     73  C   UNL     1       5.262  10.309 -16.190  1.00  0.00     0.001 A 
ATOM     74  C   UNL     1       5.487   8.100 -15.240  1.00  0.00     0.001 A 
ATOM     75  C   UNL     1       6.066   9.283 -15.696  1.00  0.00     0.000 A 
ENDBRANCH  51  70
BRANCH  63  76
ATOM     76  C   UNL     1      -1.144   7.983 -21.058  1.00  0.00    -0.014 A 
ATOM     77  C   UNL     1      -0.624   6.827 -21.658  1.00  0.00     0.009 A 
ATOM     78  C   UNL     1      -1.529   9.062 -21.868  1.00  0.00     0.009 A 
ATOM     79  C   UNL     1      -0.472   6.762 -23.044  1.00  0.00     0.001 A 
ATOM     80  C   UNL     1      -1.395   8.986 -23.255  1.00  0.00     0.001 A 
ATOM     81  C   UNL     1      -0.861   7.839 -23.841  1.00  0.00     0.000 A 
ENDBRANCH  63  76
ENDBRANCH  37  38
ENDBRANCH  29  32
ENDBRANCH  27  28
ENDBRANCH  26  27
ENDBRANCH   1  26
TORSDOF 15
