REMARK SMILES Cc1cccc(Cl)c1Nc1ccccc1CC(=O)NCCCCNC(=O)c1ccc(-c2c3nc(c(-c4ccccc4)c4ccc([nH]4)c(-c4ccccc4)c4nc(c(-c5ccccc5)c5ccc2[nH]5)C=C4)C=C3)cc1
REMARK SMILES IDX 21 1 20 2 19 3 17 4 18 5 16 7 15 8 10 9 11 10 12 11 14 12
REMARK SMILES IDX 13 13 9 14 8 16 1 17 2 18 3 19 4 20 6 21 5 22 7 23 22 24
REMARK SMILES IDX 23 25 24 26 25 27 26 29 27 30 28 31 74 32 29 33 73 34 30 35
REMARK SMILES IDX 31 36 32 37 67 38 33 39 72 40 66 41 68 42 34 43 71 44 65 45
REMARK SMILES IDX 64 46 35 48 57 49 42 50 56 51 43 52 46 53 55 54 69 55 44 56
REMARK SMILES IDX 45 57 54 59 70 60 47 61 36 62 37 63 41 64 38 65 40 66 39 67
REMARK SMILES IDX 58 68 59 69 63 70 60 71 62 72 61 73 48 74 49 75 53 76 50 77
REMARK SMILES IDX 52 78 51 79
REMARK H PARENT 19 6 9 15 24 28 68 47 46 58
REMARK Flexibility Score: inf
ROOT
ATOM      1  C   UNL     1       0.647   5.066  -2.133  1.00  0.00     0.023 C 
ENDROOT
BRANCH   1   2
ATOM      2  C   UNL     1       0.076   3.778  -2.726  1.00  0.00     0.116 C 
BRANCH   2   3
ATOM      3  N   UNL     1       1.007   3.149  -3.641  1.00  0.00    -0.356 N 
ATOM      4  C   UNL     1       1.881   2.129  -3.386  1.00  0.00     0.224 C 
ATOM      5  O   UNL     1       2.665   1.795  -4.277  1.00  0.00    -0.275 OA
ATOM      6  H   UNL     1       1.010   3.500  -4.561  1.00  0.00     0.163 HD
BRANCH   4   7
ATOM      7  C   UNL     1       1.839   1.409  -2.046  1.00  0.00     0.137 C 
BRANCH   7   8
ATOM      8  C   UNL     1       2.357   2.233  -0.885  1.00  0.00    -0.015 A 
ATOM      9  C   UNL     1       1.597   2.506   0.274  1.00  0.00     0.042 A 
ATOM     10  C   UNL     1       2.132   3.382   1.238  1.00  0.00     0.026 A 
ATOM     11  C   UNL     1       3.395   3.953   1.086  1.00  0.00     0.002 A 
ATOM     12  C   UNL     1       3.648   2.791  -1.005  1.00  0.00     0.006 A 
ATOM     13  C   UNL     1       4.160   3.646  -0.031  1.00  0.00     0.000 A 
BRANCH   9  14
ATOM     14  N   UNL     1       0.346   1.925   0.567  1.00  0.00    -0.354 N 
ATOM     15  H   UNL     1      -0.312   2.561   0.929  1.00  0.00     0.167 HD
BRANCH  14  16
ATOM     16  C   UNL     1      -0.148   0.603   0.441  1.00  0.00     0.060 A 
ATOM     17  C   UNL     1      -2.465   1.603   0.010  1.00  0.00     0.046 C 
ATOM     18  C   UNL     1      -1.526   0.430   0.141  1.00  0.00    -0.026 A 
ATOM     19  C   UNL     1      -2.043  -0.858  -0.082  1.00  0.00     0.005 A 
ATOM     20  C   UNL     1      -1.225  -1.980  -0.002  1.00  0.00     0.002 A 
ATOM     21  C   UNL     1       0.656  -0.555   0.547  1.00  0.00     0.064 A 
ATOM     22  C   UNL     1       0.119  -1.829   0.320  1.00  0.00     0.023 A 
ATOM     23  Cl  UNL     1       2.309  -0.519   1.065  1.00  0.00    -0.082 Cl
ENDBRANCH  14  16
ENDBRANCH   9  14
ENDBRANCH   7   8
ENDBRANCH   4   7
ENDBRANCH   2   3
ENDBRANCH   1   2
BRANCH   1  24
ATOM     24  C   UNL     1       0.791   6.217  -3.130  1.00  0.00     0.023 C 
BRANCH  24  25
ATOM     25  C   UNL     1      -0.505   6.655  -3.797  1.00  0.00     0.116 C 
BRANCH  25  26
ATOM     26  N   UNL     1      -1.516   7.105  -2.852  1.00  0.00    -0.352 N 
ATOM     27  C   UNL     1      -2.459   8.089  -3.022  1.00  0.00     0.251 C 
ATOM     28  H   UNL     1      -1.525   6.646  -1.981  1.00  0.00     0.163 HD
ATOM     29  O   UNL     1      -3.184   8.432  -2.094  1.00  0.00    -0.269 OA
BRANCH  27  30
ATOM     30  C   UNL     1      -2.561   8.764  -4.332  1.00  0.00     0.039 A 
ATOM     31  C   UNL     1      -2.523  10.159  -4.379  1.00  0.00     0.014 A 
ATOM     32  C   UNL     1      -2.641   8.016  -5.510  1.00  0.00     0.014 A 
ATOM     33  C   UNL     1      -2.491  10.806  -5.615  1.00  0.00     0.010 A 
ATOM     34  C   UNL     1      -2.544   8.659  -6.739  1.00  0.00     0.010 A 
ATOM     35  C   UNL     1      -2.462  10.059  -6.803  1.00  0.00    -0.014 A 
BRANCH  35  36
ATOM     36  C   UNL     1      -2.339  10.713  -8.129  1.00  0.00     0.031 A 
ATOM     37  C   UNL     1      -3.458  10.604  -9.126  1.00  0.00     0.074 A 
ATOM     38  C   UNL     1      -1.189  11.327  -8.467  1.00  0.00     0.049 A 
ATOM     39  N   UNL     1      -3.497  11.010 -10.370  1.00  0.00    -0.248 NA
ATOM     40  C   UNL     1      -4.683   9.927  -8.674  1.00  0.00     0.031 C 
ATOM     41  C   UNL     1      -0.015  11.469  -7.604  1.00  0.00     0.029 A 
ATOM     42  N   UNL     1      -0.814  11.933  -9.640  1.00  0.00    -0.354 N 
ATOM     43  C   UNL     1      -4.737  10.615 -10.854  1.00  0.00     0.074 A 
ATOM     44  C   UNL     1      -5.404   9.904  -9.785  1.00  0.00     0.031 C 
ATOM     45  C   UNL     1       0.942  12.135  -8.270  1.00  0.00     0.029 A 
ATOM     46  C   UNL     1       0.467  12.431  -9.617  1.00  0.00     0.049 A 
ATOM     47  H   UNL     1      -1.406  12.005 -10.423  1.00  0.00     0.167 HD
ATOM     48  C   UNL     1      -5.279  10.837 -12.075  1.00  0.00     0.031 A 
ATOM     49  C   UNL     1       1.182  13.045 -10.578  1.00  0.00     0.031 A 
ATOM     50  C   UNL     1      -4.625  11.559 -13.132  1.00  0.00     0.049 A 
ATOM     51  C   UNL     1       0.560  13.274 -11.927  1.00  0.00     0.074 A 
ATOM     52  C   UNL     1      -5.116  11.886 -14.384  1.00  0.00     0.029 A 
ATOM     53  N   UNL     1      -3.337  12.065 -13.060  1.00  0.00    -0.354 N 
ATOM     54  N   UNL     1      -0.637  12.948 -12.350  1.00  0.00    -0.248 NA
ATOM     55  C   UNL     1       1.386  13.966 -12.928  1.00  0.00     0.031 C 
ATOM     56  C   UNL     1      -4.109  12.556 -15.086  1.00  0.00     0.029 A 
ATOM     57  C   UNL     1      -3.009  12.687 -14.253  1.00  0.00     0.049 A 
ATOM     58  H   UNL     1      -2.744  11.993 -12.278  1.00  0.00     0.167 HD
ATOM     59  C   UNL     1      -0.719  13.419 -13.654  1.00  0.00     0.074 A 
ATOM     60  C   UNL     1       0.545  14.062 -13.949  1.00  0.00     0.031 C 
ATOM     61  C   UNL     1      -1.750  13.329 -14.527  1.00  0.00     0.031 A 
BRANCH  48  62
ATOM     62  C   UNL     1      -6.652  10.282 -12.332  1.00  0.00    -0.014 A 
ATOM     63  C   UNL     1      -7.786  10.837 -11.718  1.00  0.00     0.009 A 
ATOM     64  C   UNL     1      -6.816   9.211 -13.223  1.00  0.00     0.009 A 
ATOM     65  C   UNL     1      -9.053  10.306 -11.965  1.00  0.00     0.001 A 
ATOM     66  C   UNL     1      -8.088   8.700 -13.489  1.00  0.00     0.001 A 
ATOM     67  C   UNL     1      -9.204   9.242 -12.852  1.00  0.00     0.000 A 
ENDBRANCH  48  62
BRANCH  49  68
ATOM     68  C   UNL     1       2.567  13.501 -10.297  1.00  0.00    -0.014 A 
ATOM     69  C   UNL     1       2.850  14.869 -10.161  1.00  0.00     0.009 A 
ATOM     70  C   UNL     1       3.614  12.575 -10.166  1.00  0.00     0.009 A 
ATOM     71  C   UNL     1       4.157  15.302  -9.925  1.00  0.00     0.001 A 
ATOM     72  C   UNL     1       4.915  13.009  -9.903  1.00  0.00     0.001 A 
ATOM     73  C   UNL     1       5.187  14.372  -9.792  1.00  0.00     0.000 A 
ENDBRANCH  49  68
BRANCH  61  74
ATOM     74  C   UNL     1      -1.575  13.977 -15.870  1.00  0.00    -0.014 A 
ATOM     75  C   UNL     1      -0.764  13.399 -16.858  1.00  0.00     0.009 A 
ATOM     76  C   UNL     1      -2.277  15.156 -16.166  1.00  0.00     0.009 A 
ATOM     77  C   UNL     1      -0.641  14.005 -18.110  1.00  0.00     0.001 A 
ATOM     78  C   UNL     1      -2.172  15.745 -17.426  1.00  0.00     0.001 A 
ATOM     79  C   UNL     1      -1.349  15.172 -18.395  1.00  0.00     0.000 A 
ENDBRANCH  61  74
ENDBRANCH  35  36
ENDBRANCH  27  30
ENDBRANCH  25  26
ENDBRANCH  24  25
ENDBRANCH   1  24
TORSDOF 14
