REMARK SMILES Cc1ccc(C)c(/C=C2\SC(=S)N(CC(=O)NCCCCNC(=O)c3ccc(-c4c5nc(c(-c6ccccc6)c6ccc([nH]6)c(-c6ccccc6)c6nc(c(-c7ccccc7)c7ccc4[nH]7)C=C6)C=C5)cc3)C2=O)c1
REMARK SMILES IDX 19 1 18 2 17 3 15 4 16 5 14 7 13 8 8 9 9 10 10 11 73 12
REMARK SMILES IDX 11 13 74 14 12 15 7 16 1 17 2 18 3 19 75 20 4 21 5 22 6 23
REMARK SMILES IDX 20 24 21 25 22 26 23 27 24 29 25 30 26 31 72 32 27 33 71 34
REMARK SMILES IDX 28 35 29 36 30 37 65 38 31 39 70 40 64 41 66 42 32 43 69 44
REMARK SMILES IDX 63 45 62 46 33 48 55 49 40 50 54 51 41 52 44 53 53 54 67 55
REMARK SMILES IDX 42 56 43 57 52 59 68 60 45 61 34 62 35 63 39 64 36 65 38 66
REMARK SMILES IDX 37 67 56 68 57 69 61 70 58 71 60 72 59 73 46 74 47 75 51 76
REMARK SMILES IDX 48 77 50 78 49 79
REMARK H PARENT 17 6 22 28 66 47 44 58
REMARK Flexibility Score: inf
ROOT
ATOM      1  C   UNL     1      -3.635   3.364  -4.085  1.00  0.00     0.023 C 
ENDROOT
BRANCH   1   2
ATOM      2  C   UNL     1      -3.610   4.870  -4.344  1.00  0.00     0.116 C 
BRANCH   2   3
ATOM      3  N   UNL     1      -4.267   5.672  -3.337  1.00  0.00    -0.355 N 
ATOM      4  C   UNL     1      -3.742   6.618  -2.504  1.00  0.00     0.240 C 
ATOM      5  O   UNL     1      -4.525   7.467  -2.066  1.00  0.00    -0.273 OA
ATOM      6  H   UNL     1      -5.234   5.512  -3.237  1.00  0.00     0.163 HD
BRANCH   4   7
ATOM      7  C   UNL     1      -2.231   6.754  -2.262  1.00  0.00     0.227 C 
BRANCH   7   8
ATOM      8  N   UNL     1      -1.533   5.485  -2.080  1.00  0.00    -0.283 N 
ATOM      9  C   UNL     1      -1.303   2.521  -0.026  1.00  0.00     0.029 C 
ATOM     10  C   UNL     1      -1.099   3.458  -0.963  1.00  0.00     0.081 C 
ATOM     11  S   UNL     1      -0.030   3.414  -2.307  1.00  0.00    -0.054 SA
ATOM     12  C   UNL     1      -1.873   4.726  -0.973  1.00  0.00     0.266 C 
ATOM     13  C   UNL     1      -0.480   5.025  -2.841  1.00  0.00     0.148 C 
ATOM     14  O   UNL     1      -2.697   5.026  -0.124  1.00  0.00    -0.268 OA
ATOM     15  S   UNL     1       0.314   5.793  -4.091  1.00  0.00    -0.052 S 
BRANCH   9  16
ATOM     16  C   UNL     1      -0.645   1.206   0.028  1.00  0.00    -0.021 A 
ATOM     17  C   UNL     1       2.940  -0.107   0.085  1.00  0.00     0.044 C 
ATOM     18  C   UNL     1       1.442  -0.069   0.084  1.00  0.00    -0.051 A 
ATOM     19  C   UNL     1       0.706  -1.253   0.055  1.00  0.00     0.004 A 
ATOM     20  C   UNL     1       0.758   1.151   0.095  1.00  0.00     0.011 A 
ATOM     21  C   UNL     1      -0.690  -1.215   0.033  1.00  0.00     0.004 A 
ATOM     22  C   UNL     1      -1.383   0.007   0.018  1.00  0.00    -0.044 A 
ATOM     23  C   UNL     1      -2.887  -0.051  -0.025  1.00  0.00     0.045 C 
ENDBRANCH   9  16
ENDBRANCH   7   8
ENDBRANCH   4   7
ENDBRANCH   2   3
ENDBRANCH   1   2
BRANCH   1  24
ATOM     24  C   UNL     1      -4.993   2.643  -4.088  1.00  0.00     0.023 C 
BRANCH  24  25
ATOM     25  C   UNL     1      -5.775   2.574  -5.403  1.00  0.00     0.116 C 
BRANCH  25  26
ATOM     26  N   UNL     1      -5.021   1.997  -6.530  1.00  0.00    -0.352 N 
ATOM     27  C   UNL     1      -5.030   2.236  -7.905  1.00  0.00     0.251 C 
ATOM     28  H   UNL     1      -4.380   1.301  -6.257  1.00  0.00     0.163 HD
ATOM     29  O   UNL     1      -4.593   1.389  -8.667  1.00  0.00    -0.269 OA
BRANCH  27  30
ATOM     30  C   UNL     1      -5.530   3.521  -8.454  1.00  0.00     0.039 A 
ATOM     31  C   UNL     1      -5.798   3.775  -9.799  1.00  0.00     0.014 A 
ATOM     32  C   UNL     1      -5.667   4.563  -7.568  1.00  0.00     0.014 A 
ATOM     33  C   UNL     1      -6.102   5.092 -10.177  1.00  0.00     0.010 A 
ATOM     34  C   UNL     1      -6.368   5.682  -7.862  1.00  0.00     0.010 A 
ATOM     35  C   UNL     1      -6.327   6.051  -9.178  1.00  0.00    -0.014 A 
BRANCH  35  36
ATOM     36  C   UNL     1      -6.547   7.466  -9.402  1.00  0.00     0.031 A 
ATOM     37  C   UNL     1      -7.864   7.768  -9.975  1.00  0.00     0.074 A 
ATOM     38  C   UNL     1      -5.808   8.454  -8.844  1.00  0.00     0.049 A 
ATOM     39  N   UNL     1      -8.114   8.112 -11.189  1.00  0.00    -0.248 NA
ATOM     40  C   UNL     1      -9.051   7.506  -9.148  1.00  0.00     0.031 C 
ATOM     41  C   UNL     1      -4.706   8.364  -7.875  1.00  0.00     0.029 A 
ATOM     42  N   UNL     1      -5.989   9.799  -8.960  1.00  0.00    -0.354 N 
ATOM     43  C   UNL     1      -9.484   8.309 -11.236  1.00  0.00     0.074 A 
ATOM     44  C   UNL     1     -10.022   7.714 -10.037  1.00  0.00     0.031 C 
ATOM     45  C   UNL     1      -4.459   9.590  -7.354  1.00  0.00     0.029 A 
ATOM     46  C   UNL     1      -5.277  10.569  -8.051  1.00  0.00     0.049 A 
ATOM     47  H   UNL     1      -6.582  10.196  -9.639  1.00  0.00     0.167 HD
ATOM     48  C   UNL     1     -10.039   9.180 -12.119  1.00  0.00     0.031 A 
ATOM     49  C   UNL     1      -5.388  11.909  -7.871  1.00  0.00     0.031 A 
ATOM     50  C   UNL     1      -9.080   9.631 -13.100  1.00  0.00     0.049 A 
ATOM     51  C   UNL     1      -6.032  12.468  -9.085  1.00  0.00     0.074 A 
ATOM     52  C   UNL     1      -8.267   9.005 -14.025  1.00  0.00     0.029 A 
ATOM     53  N   UNL     1      -8.541  10.884 -12.914  1.00  0.00    -0.354 N 
ATOM     54  N   UNL     1      -5.459  12.495 -10.254  1.00  0.00    -0.248 NA
ATOM     55  C   UNL     1      -7.480  12.602  -9.101  1.00  0.00     0.031 C 
ATOM     56  C   UNL     1      -7.034   9.722 -13.976  1.00  0.00     0.029 A 
ATOM     57  C   UNL     1      -7.183  10.778 -13.074  1.00  0.00     0.049 A 
ATOM     58  H   UNL     1      -9.040  11.707 -12.704  1.00  0.00     0.167 HD
ATOM     59  C   UNL     1      -6.474  12.199 -11.154  1.00  0.00     0.074 A 
ATOM     60  C   UNL     1      -7.712  12.394 -10.401  1.00  0.00     0.031 C 
ATOM     61  C   UNL     1      -6.211  11.546 -12.325  1.00  0.00     0.031 A 
BRANCH  48  62
ATOM     62  C   UNL     1     -11.317   9.926 -11.855  1.00  0.00    -0.014 A 
ATOM     63  C   UNL     1     -11.868  10.694 -12.892  1.00  0.00     0.009 A 
ATOM     64  C   UNL     1     -11.862  10.108 -10.569  1.00  0.00     0.009 A 
ATOM     65  C   UNL     1     -12.871  11.637 -12.643  1.00  0.00     0.001 A 
ATOM     66  C   UNL     1     -12.895  11.014 -10.324  1.00  0.00     0.001 A 
ATOM     67  C   UNL     1     -13.381  11.798 -11.358  1.00  0.00     0.000 A 
ENDBRANCH  48  62
BRANCH  49  68
ATOM     68  C   UNL     1      -5.191  12.717  -6.647  1.00  0.00    -0.014 A 
ATOM     69  C   UNL     1      -5.019  14.110  -6.720  1.00  0.00     0.009 A 
ATOM     70  C   UNL     1      -5.444  12.157  -5.382  1.00  0.00     0.009 A 
ATOM     71  C   UNL     1      -5.143  14.914  -5.577  1.00  0.00     0.001 A 
ATOM     72  C   UNL     1      -5.564  12.958  -4.241  1.00  0.00     0.001 A 
ATOM     73  C   UNL     1      -5.430  14.339  -4.341  1.00  0.00     0.000 A 
ENDBRANCH  49  68
BRANCH  61  74
ATOM     74  C   UNL     1      -4.763  11.375 -12.725  1.00  0.00    -0.014 A 
ATOM     75  C   UNL     1      -3.825  10.684 -11.936  1.00  0.00     0.009 A 
ATOM     76  C   UNL     1      -4.367  11.796 -14.004  1.00  0.00     0.009 A 
ATOM     77  C   UNL     1      -2.525  10.454 -12.398  1.00  0.00     0.001 A 
ATOM     78  C   UNL     1      -3.076  11.546 -14.475  1.00  0.00     0.001 A 
ATOM     79  C   UNL     1      -2.153  10.881 -13.670  1.00  0.00     0.000 A 
ENDBRANCH  61  74
ENDBRANCH  35  36
ENDBRANCH  27  30
ENDBRANCH  25  26
ENDBRANCH  24  25
ENDBRANCH   1  24
TORSDOF 13
