REMARK SMILES CS(=O)(=O)CC(=O)N1CCO[C@@H](CC(=O)NCCCCNC(=O)c2ccc(-c3c4nc(c(-c5ccccc5)c5ccc([nH]5)c(-c5ccccc5)c5nc(c(-c6ccccc6)c6ccc3[nH]6)C=C5)C=C4)cc2)C1
REMARK SMILES IDX 17 1 16 2 14 3 15 4 13 6 12 7 8 8 9 9 72 10 10 11 11 12 6 13
REMARK SMILES IDX 7 14 5 15 2 16 1 17 3 18 4 19 18 20 19 21 20 22 21 23 22 24
REMARK SMILES IDX 23 26 24 27 25 28 71 29 26 30 70 31 27 32 28 33 29 34 64 35
REMARK SMILES IDX 30 36 69 37 63 38 65 39 31 40 68 41 62 42 61 43 32 45 54 46
REMARK SMILES IDX 39 47 53 48 40 49 43 50 52 51 66 52 41 53 42 54 51 56 67 57
REMARK SMILES IDX 44 58 33 59 34 60 38 61 35 62 37 63 36 64 55 65 56 66 60 67
REMARK SMILES IDX 57 68 59 69 58 70 45 71 46 72 50 73 47 74 49 75 48 76
REMARK H PARENT 16 5 21 25 65 44 43 55
REMARK Flexibility Score: inf
ROOT
ATOM      1  C   UNL     1      -1.108  -6.365  -2.944  1.00  0.00     0.116 C 
ENDROOT
BRANCH   1   2
ATOM      2  N   UNL     1      -1.452  -7.294  -1.878  1.00  0.00    -0.356 N 
ATOM      3  C   UNL     1      -2.399  -7.210  -0.899  1.00  0.00     0.222 C 
ATOM      4  O   UNL     1      -2.412  -8.078  -0.025  1.00  0.00    -0.275 OA
ATOM      5  H   UNL     1      -0.912  -8.118  -1.860  1.00  0.00     0.163 HD
BRANCH   3   6
ATOM      6  C   UNL     1      -3.388  -6.065  -0.869  1.00  0.00     0.133 C 
BRANCH   6   7
ATOM      7  C   UNL     1      -3.002  -4.963   0.123  1.00  0.00     0.147 C 
ATOM      8  N   UNL     1      -1.282  -3.150   0.470  1.00  0.00    -0.337 N 
ATOM      9  C   UNL     1      -2.365  -2.174   0.390  1.00  0.00     0.148 C 
ATOM     10  C   UNL     1      -1.615  -4.394  -0.202  1.00  0.00     0.152 C 
ATOM     11  C   UNL     1      -3.684  -2.797   0.839  1.00  0.00     0.182 C 
ATOM     12  O   UNL     1      -4.007  -3.931   0.019  1.00  0.00    -0.374 OA
BRANCH   8  13
ATOM     13  C   UNL     1       0.013  -2.687   0.261  1.00  0.00     0.237 C 
ATOM     14  O   UNL     1       0.527  -2.650  -0.856  1.00  0.00    -0.274 OA
BRANCH  13  15
ATOM     15  C   UNL     1       0.793  -2.373   1.495  1.00  0.00     0.236 C 
BRANCH  15  16
ATOM     16  S   UNL     1       0.887  -0.636   1.793  1.00  0.00     0.156 S 
ATOM     17  C   UNL     1       1.205   0.131   0.220  1.00  0.00     0.158 C 
ATOM     18  O   UNL     1       2.056  -0.411   2.626  1.00  0.00    -0.229 OA
ATOM     19  O   UNL     1      -0.415  -0.185   2.249  1.00  0.00    -0.229 OA
ENDBRANCH  15  16
ENDBRANCH  13  15
ENDBRANCH   8  13
ENDBRANCH   6   7
ENDBRANCH   3   6
ENDBRANCH   1   2
BRANCH   1  20
ATOM     20  C   UNL     1       0.191  -5.617  -2.631  1.00  0.00     0.023 C 
BRANCH  20  21
ATOM     21  C   UNL     1       1.468  -6.342  -3.018  1.00  0.00     0.023 C 
BRANCH  21  22
ATOM     22  C   UNL     1       1.703  -6.425  -4.513  1.00  0.00     0.116 C 
BRANCH  22  23
ATOM     23  N   UNL     1       1.823  -5.123  -5.158  1.00  0.00    -0.352 N 
ATOM     24  C   UNL     1       2.748  -4.699  -6.084  1.00  0.00     0.251 C 
ATOM     25  H   UNL     1       1.148  -4.455  -4.896  1.00  0.00     0.163 HD
ATOM     26  O   UNL     1       2.764  -3.539  -6.471  1.00  0.00    -0.269 OA
BRANCH  24  27
ATOM     27  C   UNL     1       3.762  -5.660  -6.564  1.00  0.00     0.039 A 
ATOM     28  C   UNL     1       5.107  -5.288  -6.545  1.00  0.00     0.014 A 
ATOM     29  C   UNL     1       3.386  -6.952  -6.933  1.00  0.00     0.014 A 
ATOM     30  C   UNL     1       6.085  -6.247  -6.809  1.00  0.00     0.010 A 
ATOM     31  C   UNL     1       4.360  -7.928  -7.084  1.00  0.00     0.010 A 
ATOM     32  C   UNL     1       5.720  -7.586  -7.028  1.00  0.00    -0.014 A 
BRANCH  32  33
ATOM     33  C   UNL     1       6.736  -8.650  -7.213  1.00  0.00     0.031 A 
ATOM     34  C   UNL     1       6.763  -9.435  -8.496  1.00  0.00     0.074 A 
ATOM     35  C   UNL     1       7.570  -8.968  -6.204  1.00  0.00     0.049 A 
ATOM     36  N   UNL     1       7.499 -10.468  -8.816  1.00  0.00    -0.248 NA
ATOM     37  C   UNL     1       5.806  -9.032  -9.541  1.00  0.00     0.031 C 
ATOM     38  C   UNL     1       7.603  -8.323  -4.888  1.00  0.00     0.029 A 
ATOM     39  N   UNL     1       8.550  -9.925  -6.127  1.00  0.00    -0.354 N 
ATOM     40  C   UNL     1       7.070 -10.855 -10.079  1.00  0.00     0.074 A 
ATOM     41  C   UNL     1       5.975  -9.985 -10.444  1.00  0.00     0.031 C 
ATOM     42  C   UNL     1       8.578  -8.879  -4.150  1.00  0.00     0.029 A 
ATOM     43  C   UNL     1       9.211  -9.942  -4.923  1.00  0.00     0.049 A 
ATOM     44  H   UNL     1       8.759 -10.542  -6.866  1.00  0.00     0.167 HD
ATOM     45  C   UNL     1       7.560 -11.832 -10.878  1.00  0.00     0.031 A 
ATOM     46  C   UNL     1      10.216 -10.728  -4.492  1.00  0.00     0.031 A 
ATOM     47  C   UNL     1       8.676 -12.666 -10.534  1.00  0.00     0.049 A 
ATOM     48  C   UNL     1      10.766 -11.782  -5.412  1.00  0.00     0.074 A 
ATOM     49  C   UNL     1       9.300 -13.633 -11.303  1.00  0.00     0.029 A 
ATOM     50  N   UNL     1       9.343 -12.625  -9.320  1.00  0.00    -0.354 N 
ATOM     51  N   UNL     1      10.394 -12.090  -6.630  1.00  0.00    -0.248 NA
ATOM     52  C   UNL     1      11.883 -12.588  -4.899  1.00  0.00     0.031 C 
ATOM     53  C   UNL     1      10.325 -14.200 -10.540  1.00  0.00     0.029 A 
ATOM     54  C   UNL     1      10.365 -13.557  -9.313  1.00  0.00     0.049 A 
ATOM     55  H   UNL     1       9.123 -12.021  -8.574  1.00  0.00     0.167 HD
ATOM     56  C   UNL     1      11.246 -13.107  -7.039  1.00  0.00     0.074 A 
ATOM     57  C   UNL     1      12.163 -13.352  -5.945  1.00  0.00     0.031 C 
ATOM     58  C   UNL     1      11.267 -13.780  -8.215  1.00  0.00     0.031 A 
BRANCH  45  59
ATOM     59  C   UNL     1       6.889 -12.036 -12.206  1.00  0.00    -0.014 A 
ATOM     60  C   UNL     1       7.020 -11.093 -13.239  1.00  0.00     0.009 A 
ATOM     61  C   UNL     1       6.130 -13.193 -12.435  1.00  0.00     0.009 A 
ATOM     62  C   UNL     1       6.373 -11.287 -14.460  1.00  0.00     0.001 A 
ATOM     63  C   UNL     1       5.508 -13.398 -13.668  1.00  0.00     0.001 A 
ATOM     64  C   UNL     1       5.621 -12.441 -14.675  1.00  0.00     0.000 A 
ENDBRANCH  45  59
BRANCH  46  65
ATOM     65  C   UNL     1      10.789 -10.533  -3.135  1.00  0.00    -0.014 A 
ATOM     66  C   UNL     1      12.065  -9.969  -2.981  1.00  0.00     0.009 A 
ATOM     67  C   UNL     1      10.073 -10.915  -1.991  1.00  0.00     0.009 A 
ATOM     68  C   UNL     1      12.624  -9.820  -1.710  1.00  0.00     0.001 A 
ATOM     69  C   UNL     1      10.624 -10.740  -0.720  1.00  0.00     0.001 A 
ATOM     70  C   UNL     1      11.902 -10.202  -0.580  1.00  0.00     0.000 A 
ENDBRANCH  46  65
BRANCH  58  71
ATOM     71  C   UNL     1      12.334 -14.820  -8.388  1.00  0.00    -0.014 A 
ATOM     72  C   UNL     1      12.252 -16.060  -7.736  1.00  0.00     0.009 A 
ATOM     73  C   UNL     1      13.412 -14.572  -9.252  1.00  0.00     0.009 A 
ATOM     74  C   UNL     1      13.246 -17.021  -7.925  1.00  0.00     0.001 A 
ATOM     75  C   UNL     1      14.390 -15.544  -9.459  1.00  0.00     0.001 A 
ATOM     76  C   UNL     1      14.311 -16.765  -8.789  1.00  0.00     0.000 A 
ENDBRANCH  58  71
ENDBRANCH  32  33
ENDBRANCH  24  27
ENDBRANCH  22  23
ENDBRANCH  21  22
ENDBRANCH  20  21
ENDBRANCH   1  20
TORSDOF 15
