REMARK SMILES NS(=O)(=O)c1ccc(N2N=C(C(=O)NCCCCNC(=O)c3ccc(-c4c5nc(c(-c6ccccc6)c6ccc([nH]6)c(-c6ccccc6)c6nc(c(-c7ccccc7)c7ccc4[nH]7)C=C6)C=C5)cc3)C[C@H]2c2cccs2)cc1
REMARK SMILES IDX 16 1 15 2 14 3 12 4 13 5 11 7 9 8 10 9 71 10 70 11 8 12 5 13
REMARK SMILES IDX 6 14 78 15 7 16 77 17 2 18 3 19 4 20 1 21 72 24 73 25 76 26
REMARK SMILES IDX 74 27 75 28 17 29 18 30 19 31 20 32 21 34 22 35 23 36 69 37
REMARK SMILES IDX 24 38 68 39 25 40 26 41 27 42 62 43 28 44 67 45 61 46 63 47
REMARK SMILES IDX 29 48 66 49 60 50 59 51 30 53 52 54 37 55 51 56 38 57 41 58
REMARK SMILES IDX 50 59 64 60 39 61 40 62 49 64 65 65 42 66 31 67 32 68 36 69
REMARK SMILES IDX 33 70 35 71 34 72 53 73 54 74 58 75 55 76 57 77 56 78 43 79
REMARK SMILES IDX 44 80 48 81 45 82 47 83 46 84
REMARK H PARENT 14 6 1 22 1 23 19 33 63 52 41 63
REMARK Flexibility Score: inf
ROOT
ATOM      1  C   UNL     1       4.479   7.510  -9.390  1.00  0.00     0.023 C 
ENDROOT
BRANCH   1   2
ATOM      2  C   UNL     1       3.115   7.322  -8.740  1.00  0.00     0.116 C 
BRANCH   2   3
ATOM      3  N   UNL     1       2.445   6.136  -9.237  1.00  0.00    -0.351 N 
ATOM      4  C   UNL     1       2.054   4.946  -8.672  1.00  0.00     0.267 C 
ATOM      5  O   UNL     1       1.573   4.098  -9.419  1.00  0.00    -0.268 OA
ATOM      6  H   UNL     1       2.221   6.197 -10.193  1.00  0.00     0.163 HD
BRANCH   4   7
ATOM      7  C   UNL     1       2.133   4.647  -7.182  1.00  0.00     0.128 C 
ATOM      8  N   UNL     1       1.676   3.710  -5.324  1.00  0.00    -0.256 N 
ATOM      9  N   UNL     1       1.571   3.591  -6.675  1.00  0.00    -0.171 NA
ATOM     10  C   UNL     1       2.493   4.840  -4.880  1.00  0.00     0.154 C 
ATOM     11  C   UNL     1       2.828   5.529  -6.203  1.00  0.00     0.097 C 
BRANCH   8  12
ATOM     12  C   UNL     1       1.405   2.628  -4.498  1.00  0.00     0.060 A 
ATOM     13  C   UNL     1       0.891   0.518  -2.727  1.00  0.00     0.082 A 
ATOM     14  C   UNL     1       1.824   0.347  -3.752  1.00  0.00     0.024 A 
ATOM     15  C   UNL     1       0.185   1.713  -2.599  1.00  0.00     0.024 A 
ATOM     16  C   UNL     1       2.071   1.403  -4.638  1.00  0.00     0.029 A 
ATOM     17  C   UNL     1       0.446   2.756  -3.484  1.00  0.00     0.029 A 
BRANCH  13  18
ATOM     18  S   UNL     1       0.560  -0.787  -1.585  1.00  0.00     0.238 S 
ATOM     19  O   UNL     1       1.346  -1.945  -1.925  1.00  0.00    -0.207 OA
ATOM     20  O   UNL     1      -0.865  -0.851  -1.343  1.00  0.00    -0.207 OA
BRANCH  18  21
ATOM     21  N   UNL     1       1.238  -0.182  -0.168  1.00  0.00    -0.225 NA
ATOM     22  H   UNL     1       1.111  -0.858   0.585  1.00  0.00     0.137 HD
ATOM     23  H   UNL     1       0.781   0.695   0.080  1.00  0.00     0.137 HD
ENDBRANCH  18  21
ENDBRANCH  13  18
ENDBRANCH   8  12
BRANCH  10  24
ATOM     24  C   UNL     1       1.887   5.761  -3.826  1.00  0.00     0.030 A 
ATOM     25  C   UNL     1       1.910   5.572  -2.452  1.00  0.00     0.017 A 
ATOM     26  S   UNL     1       1.024   7.200  -4.210  1.00  0.00    -0.147 S 
ATOM     27  C   UNL     1       1.242   6.606  -1.735  1.00  0.00     0.012 A 
ATOM     28  C   UNL     1       0.757   7.581  -2.573  1.00  0.00     0.065 A 
ENDBRANCH  10  24
ENDBRANCH   4   7
ENDBRANCH   2   3
ENDBRANCH   1   2
BRANCH   1  29
ATOM     29  C   UNL     1       4.420   8.076 -10.803  1.00  0.00     0.023 C 
BRANCH  29  30
ATOM     30  C   UNL     1       3.676   9.401 -10.930  1.00  0.00     0.116 C 
BRANCH  30  31
ATOM     31  N   UNL     1       4.188  10.441 -10.045  1.00  0.00    -0.352 N 
ATOM     32  C   UNL     1       4.502  11.745 -10.347  1.00  0.00     0.251 C 
ATOM     33  H   UNL     1       4.327  10.174  -9.108  1.00  0.00     0.163 HD
ATOM     34  O   UNL     1       5.035  12.472  -9.517  1.00  0.00    -0.269 OA
BRANCH  32  35
ATOM     35  C   UNL     1       4.223  12.242 -11.707  1.00  0.00     0.039 A 
ATOM     36  C   UNL     1       5.255  12.832 -12.438  1.00  0.00     0.014 A 
ATOM     37  C   UNL     1       2.967  12.034 -12.284  1.00  0.00     0.014 A 
ATOM     38  C   UNL     1       5.053  13.132 -13.785  1.00  0.00     0.010 A 
ATOM     39  C   UNL     1       2.797  12.252 -13.644  1.00  0.00     0.010 A 
ATOM     40  C   UNL     1       3.840  12.795 -14.411  1.00  0.00    -0.014 A 
BRANCH  40  41
ATOM     41  C   UNL     1       3.645  12.980 -15.870  1.00  0.00     0.031 A 
ATOM     42  C   UNL     1       2.579  13.912 -16.373  1.00  0.00     0.074 A 
ATOM     43  C   UNL     1       4.372  12.251 -16.739  1.00  0.00     0.049 A 
ATOM     44  N   UNL     1       2.203  14.146 -17.604  1.00  0.00    -0.248 NA
ATOM     45  C   UNL     1       1.818  14.659 -15.358  1.00  0.00     0.031 C 
ATOM     46  C   UNL     1       5.411  11.283 -16.377  1.00  0.00     0.029 A 
ATOM     47  N   UNL     1       4.340  12.204 -18.110  1.00  0.00    -0.354 N 
ATOM     48  C   UNL     1       1.155  15.052 -17.510  1.00  0.00     0.074 A 
ATOM     49  C   UNL     1       0.917  15.282 -16.102  1.00  0.00     0.031 C 
ATOM     50  C   UNL     1       5.937  10.762 -17.498  1.00  0.00     0.029 A 
ATOM     51  C   UNL     1       5.242  11.320 -18.653  1.00  0.00     0.049 A 
ATOM     52  H   UNL     1       3.730  12.753 -18.654  1.00  0.00     0.167 HD
ATOM     53  C   UNL     1       0.464  15.656 -18.506  1.00  0.00     0.031 A 
ATOM     54  C   UNL     1       5.474  10.986 -19.937  1.00  0.00     0.031 A 
ATOM     55  C   UNL     1       0.702  15.428 -19.906  1.00  0.00     0.049 A 
ATOM     56  C   UNL     1       4.668  11.643 -21.023  1.00  0.00     0.074 A 
ATOM     57  C   UNL     1       0.091  16.030 -20.992  1.00  0.00     0.029 A 
ATOM     58  N   UNL     1       1.621  14.522 -20.413  1.00  0.00    -0.354 N 
ATOM     59  N   UNL     1       3.728  12.551 -20.921  1.00  0.00    -0.248 NA
ATOM     60  C   UNL     1       4.962  11.233 -22.404  1.00  0.00     0.031 C 
ATOM     61  C   UNL     1       0.597  15.445 -22.157  1.00  0.00     0.029 A 
ATOM     62  C   UNL     1       1.571  14.527 -21.797  1.00  0.00     0.049 A 
ATOM     63  H   UNL     1       2.219  13.960 -19.871  1.00  0.00     0.167 HD
ATOM     64  C   UNL     1       3.339  12.842 -22.222  1.00  0.00     0.074 A 
ATOM     65  C   UNL     1       4.157  12.027 -23.096  1.00  0.00     0.031 C 
ATOM     66  C   UNL     1       2.391  13.709 -22.654  1.00  0.00     0.031 A 
BRANCH  53  67
ATOM     67  C   UNL     1      -0.624  16.615 -18.110  1.00  0.00    -0.014 A 
ATOM     68  C   UNL     1      -0.325  17.847 -17.505  1.00  0.00     0.009 A 
ATOM     69  C   UNL     1      -1.965  16.296 -18.372  1.00  0.00     0.009 A 
ATOM     70  C   UNL     1      -1.349  18.721 -17.135  1.00  0.00     0.001 A 
ATOM     71  C   UNL     1      -2.985  17.186 -18.030  1.00  0.00     0.001 A 
ATOM     72  C   UNL     1      -2.677  18.392 -17.402  1.00  0.00     0.000 A 
ENDBRANCH  53  67
BRANCH  54  73
ATOM     73  C   UNL     1       6.523   9.986 -20.272  1.00  0.00    -0.014 A 
ATOM     74  C   UNL     1       7.698  10.380 -20.930  1.00  0.00     0.009 A 
ATOM     75  C   UNL     1       6.350   8.631 -19.947  1.00  0.00     0.009 A 
ATOM     76  C   UNL     1       8.664   9.434 -21.282  1.00  0.00     0.001 A 
ATOM     77  C   UNL     1       7.332   7.693 -20.273  1.00  0.00     0.001 A 
ATOM     78  C   UNL     1       8.483   8.093 -20.949  1.00  0.00     0.000 A 
ENDBRANCH  54  73
BRANCH  66  79
ATOM     79  C   UNL     1       2.211  13.851 -24.140  1.00  0.00    -0.014 A 
ATOM     80  C   UNL     1       1.620  12.834 -24.905  1.00  0.00     0.009 A 
ATOM     81  C   UNL     1       2.594  15.044 -24.773  1.00  0.00     0.009 A 
ATOM     82  C   UNL     1       1.446  12.998 -26.281  1.00  0.00     0.001 A 
ATOM     83  C   UNL     1       2.389  15.217 -26.142  1.00  0.00     0.001 A 
ATOM     84  C   UNL     1       1.823  14.191 -26.896  1.00  0.00     0.000 A 
ENDBRANCH  66  79
ENDBRANCH  40  41
ENDBRANCH  32  35
ENDBRANCH  30  31
ENDBRANCH  29  30
ENDBRANCH   1  29
TORSDOF 15
