REMARK SMILES Cc1nc(-c2ccc3c(c2)CCN3S(=O)(=O)c2ccc(F)c(C(=O)NCCCCNC(=O)c3ccc(-c4c5nc(c(-c6ccccc6)c6ccc([nH]6)c(-c6ccccc6)c6nc(c(-c7ccccc7)c7ccc4[nH]7)C=C6)C=C5)cc3)c2)cs1
REMARK SMILES IDX 27 1 26 2 25 3 23 4 24 5 22 7 17 8 18 9 81 10 19 11 20 12
REMARK SMILES IDX 21 13 14 14 15 15 16 16 13 17 5 18 6 19 10 20 7 21 9 22 8 23
REMARK SMILES IDX 11 24 12 25 4 26 1 27 2 28 3 29 83 30 82 31 28 32 29 33
REMARK SMILES IDX 30 34 31 35 32 37 33 38 34 39 80 40 35 41 79 42 36 43 37 44
REMARK SMILES IDX 38 45 73 46 39 47 78 48 72 49 74 50 40 51 77 52 71 53 70 54
REMARK SMILES IDX 41 56 63 57 48 58 62 59 49 60 52 61 61 62 75 63 50 64 51 65
REMARK SMILES IDX 60 67 76 68 53 69 42 70 43 71 47 72 44 73 46 74 45 75 64 76
REMARK SMILES IDX 65 77 69 78 66 79 68 80 67 81 54 82 55 83 59 84 56 85 58 86
REMARK SMILES IDX 57 87
REMARK H PARENT 25 6 30 36 74 55 52 66
REMARK Flexibility Score: inf
ROOT
ATOM      1  C   UNL     1       0.076  -8.716  -7.283  1.00  0.00     0.023 C 
ENDROOT
BRANCH   1   2
ATOM      2  C   UNL     1       0.047  -7.943  -5.975  1.00  0.00     0.116 C 
BRANCH   2   3
ATOM      3  N   UNL     1       0.155  -8.747  -4.771  1.00  0.00    -0.352 N 
ATOM      4  C   UNL     1       0.916  -8.584  -3.633  1.00  0.00     0.254 C 
ATOM      5  O   UNL     1       0.755  -9.397  -2.721  1.00  0.00    -0.269 OA
ATOM      6  H   UNL     1      -0.415  -9.550  -4.767  1.00  0.00     0.163 HD
BRANCH   4   7
ATOM      7  C   UNL     1       1.968  -7.541  -3.476  1.00  0.00     0.076 A 
ATOM      8  C   UNL     1       4.023  -6.824  -2.405  1.00  0.00     0.089 A 
ATOM      9  C   UNL     1       4.130  -5.743  -3.288  1.00  0.00     0.025 A 
ATOM     10  C   UNL     1       3.008  -7.779  -2.554  1.00  0.00     0.039 A 
ATOM     11  C   UNL     1       3.065  -5.464  -4.129  1.00  0.00     0.041 A 
ATOM     12  C   UNL     1       1.955  -6.306  -4.130  1.00  0.00     0.136 A 
ATOM     13  F   UNL     1       0.836  -5.813  -4.679  1.00  0.00    -0.206 F 
BRANCH   8  14
ATOM     14  S   UNL     1       5.140  -6.854  -1.026  1.00  0.00     0.264 S 
ATOM     15  O   UNL     1       6.345  -6.182  -1.471  1.00  0.00    -0.201 OA
ATOM     16  O   UNL     1       5.215  -8.220  -0.544  1.00  0.00    -0.201 OA
BRANCH  14  17
ATOM     17  N   UNL     1       4.425  -5.913   0.222  1.00  0.00    -0.266 N 
ATOM     18  C   UNL     1       2.086  -2.388   0.074  1.00  0.00     0.001 A 
ATOM     19  C   UNL     1       1.758  -3.433  -0.801  1.00  0.00     0.012 A 
ATOM     20  C   UNL     1       3.154  -2.559   0.966  1.00  0.00     0.016 A 
ATOM     21  C   UNL     1       2.491  -4.624  -0.807  1.00  0.00     0.028 A 
ATOM     22  C   UNL     1       3.888  -3.748   0.918  1.00  0.00    -0.021 A 
ATOM     23  C   UNL     1       3.615  -4.748  -0.014  1.00  0.00     0.055 A 
ATOM     24  C   UNL     1       4.887  -4.223   1.924  1.00  0.00     0.060 C 
ATOM     25  C   UNL     1       5.442  -5.494   1.261  1.00  0.00     0.140 C 
BRANCH  18  26
ATOM     26  C   UNL     1       1.223  -1.217   0.105  1.00  0.00     0.081 A 
ATOM     27  C   UNL     1      -2.207   0.031  -0.008  1.00  0.00     0.079 C 
ATOM     28  C   UNL     1      -0.734  -0.179   0.046  1.00  0.00     0.090 A 
ATOM     29  N   UNL     1      -0.153  -1.357  -0.003  1.00  0.00    -0.242 NA
ATOM     30  S   UNL     1       0.332   1.162   0.175  1.00  0.00    -0.127 S 
ATOM     31  C   UNL     1       1.670   0.085   0.195  1.00  0.00     0.095 A 
ENDBRANCH  18  26
ENDBRANCH  14  17
ENDBRANCH   8  14
ENDBRANCH   4   7
ENDBRANCH   2   3
ENDBRANCH   1   2
BRANCH   1  32
ATOM     32  C   UNL     1      -1.114  -9.614  -7.574  1.00  0.00     0.023 C 
BRANCH  32  33
ATOM     33  C   UNL     1      -2.485  -8.968  -7.434  1.00  0.00     0.116 C 
BRANCH  33  34
ATOM     34  N   UNL     1      -2.666  -7.771  -8.246  1.00  0.00    -0.352 N 
ATOM     35  C   UNL     1      -3.657  -7.469  -9.151  1.00  0.00     0.251 C 
ATOM     36  H   UNL     1      -1.978  -7.076  -8.129  1.00  0.00     0.163 HD
ATOM     37  O   UNL     1      -3.603  -6.438  -9.814  1.00  0.00    -0.269 OA
BRANCH  35  38
ATOM     38  C   UNL     1      -4.770  -8.419  -9.354  1.00  0.00     0.039 A 
ATOM     39  C   UNL     1      -5.115  -8.792 -10.655  1.00  0.00     0.014 A 
ATOM     40  C   UNL     1      -5.427  -8.985  -8.260  1.00  0.00     0.014 A 
ATOM     41  C   UNL     1      -6.055  -9.805 -10.854  1.00  0.00     0.010 A 
ATOM     42  C   UNL     1      -6.286 -10.059  -8.457  1.00  0.00     0.010 A 
ATOM     43  C   UNL     1      -6.609 -10.482  -9.755  1.00  0.00    -0.014 A 
BRANCH  43  44
ATOM     44  C   UNL     1      -7.526 -11.636  -9.938  1.00  0.00     0.031 A 
ATOM     45  C   UNL     1      -8.936 -11.568  -9.419  1.00  0.00     0.074 A 
ATOM     46  C   UNL     1      -7.073 -12.770 -10.509  1.00  0.00     0.049 A 
ATOM     47  N   UNL     1      -9.868 -12.488  -9.434  1.00  0.00    -0.248 NA
ATOM     48  C   UNL     1      -9.345 -10.309  -8.775  1.00  0.00     0.031 C 
ATOM     49  C   UNL     1      -5.716 -12.982 -11.019  1.00  0.00     0.029 A 
ATOM     50  N   UNL     1      -7.708 -13.962 -10.755  1.00  0.00    -0.354 N 
ATOM     51  C   UNL     1     -10.962 -11.923  -8.791  1.00  0.00     0.074 A 
ATOM     52  C   UNL     1     -10.559 -10.610  -8.340  1.00  0.00     0.031 C 
ATOM     53  C   UNL     1      -5.634 -14.211 -11.553  1.00  0.00     0.029 A 
ATOM     54  C   UNL     1      -6.913 -14.892 -11.380  1.00  0.00     0.049 A 
ATOM     55  H   UNL     1      -8.645 -14.134 -10.506  1.00  0.00     0.167 HD
ATOM     56  C   UNL     1     -12.202 -12.439  -8.612  1.00  0.00     0.031 A 
ATOM     57  C   UNL     1      -7.182 -16.153 -11.769  1.00  0.00     0.031 A 
ATOM     58  C   UNL     1     -12.604 -13.746  -9.057  1.00  0.00     0.049 A 
ATOM     59  C   UNL     1      -8.554 -16.719 -11.522  1.00  0.00     0.074 A 
ATOM     60  C   UNL     1     -13.848 -14.344  -8.964  1.00  0.00     0.029 A 
ATOM     61  N   UNL     1     -11.764 -14.661  -9.674  1.00  0.00    -0.354 N 
ATOM     62  N   UNL     1      -9.599 -16.148 -10.974  1.00  0.00    -0.248 NA
ATOM     63  C   UNL     1      -8.783 -18.104 -11.958  1.00  0.00     0.031 C 
ATOM     64  C   UNL     1     -13.745 -15.644  -9.470  1.00  0.00     0.029 A 
ATOM     65  C   UNL     1     -12.456 -15.830  -9.941  1.00  0.00     0.049 A 
ATOM     66  H   UNL     1     -10.816 -14.503  -9.890  1.00  0.00     0.167 HD
ATOM     67  C   UNL     1     -10.618 -17.090 -11.030  1.00  0.00     0.074 A 
ATOM     68  C   UNL     1     -10.069 -18.263 -11.679  1.00  0.00     0.031 C 
ATOM     69  C   UNL     1     -11.896 -16.991 -10.586  1.00  0.00     0.031 A 
BRANCH  56  70
ATOM     70  C   UNL     1     -13.206 -11.580  -7.892  1.00  0.00    -0.014 A 
ATOM     71  C   UNL     1     -13.698 -10.395  -8.466  1.00  0.00     0.009 A 
ATOM     72  C   UNL     1     -13.677 -11.964  -6.628  1.00  0.00     0.009 A 
ATOM     73  C   UNL     1     -14.601  -9.591  -7.769  1.00  0.00     0.001 A 
ATOM     74  C   UNL     1     -14.608 -11.176  -5.947  1.00  0.00     0.001 A 
ATOM     75  C   UNL     1     -15.059  -9.984  -6.512  1.00  0.00     0.000 A 
ENDBRANCH  56  70
BRANCH  57  76
ATOM     76  C   UNL     1      -6.140 -16.963 -12.454  1.00  0.00    -0.014 A 
ATOM     77  C   UNL     1      -6.277 -17.294 -13.812  1.00  0.00     0.009 A 
ATOM     78  C   UNL     1      -5.008 -17.416 -11.759  1.00  0.00     0.009 A 
ATOM     79  C   UNL     1      -5.319 -18.085 -14.449  1.00  0.00     0.001 A 
ATOM     80  C   UNL     1      -4.035 -18.179 -12.407  1.00  0.00     0.001 A 
ATOM     81  C   UNL     1      -4.196 -18.522 -13.749  1.00  0.00     0.000 A 
ENDBRANCH  57  76
BRANCH  69  82
ATOM     82  C   UNL     1     -12.801 -18.168 -10.825  1.00  0.00    -0.014 A 
ATOM     83  C   UNL     1     -12.639 -19.373 -10.125  1.00  0.00     0.009 A 
ATOM     84  C   UNL     1     -13.861 -18.050 -11.739  1.00  0.00     0.009 A 
ATOM     85  C   UNL     1     -13.498 -20.449 -10.363  1.00  0.00     0.001 A 
ATOM     86  C   UNL     1     -14.739 -19.114 -11.949  1.00  0.00     0.001 A 
ATOM     87  C   UNL     1     -14.550 -20.316 -11.269  1.00  0.00     0.000 A 
ENDBRANCH  69  82
ENDBRANCH  43  44
ENDBRANCH  35  38
ENDBRANCH  33  34
ENDBRANCH  32  33
ENDBRANCH   1  32
TORSDOF 14
