REMARK SMILES C[C@@H](CO)C[NH2+]CC(C)(C)C(=O)NCCCCNC(=O)c1ccc(-c2c3nc(c(-c4ccccc4)c4ccc([nH]4)c(-c4ccccc4)c4nc(c(-c5ccccc5)c5ccc2[nH]5)C=C4)C=C3)cc1
REMARK SMILES IDX 11 1 12 2 13 3 8 5 9 6 10 7 7 8 6 9 5 12 2 13 1 14 3 15 4 16
REMARK SMILES IDX 14 18 15 19 16 20 17 21 18 22 19 23 20 25 21 26 22 27 68 28
REMARK SMILES IDX 23 29 67 30 24 31 25 32 26 33 61 34 27 35 66 36 60 37 62 38
REMARK SMILES IDX 28 39 65 40 59 41 58 42 29 44 51 45 36 46 50 47 37 48 40 49
REMARK SMILES IDX 49 50 63 51 38 52 39 53 48 55 64 56 41 57 30 58 31 59 35 60
REMARK SMILES IDX 32 61 34 62 33 63 52 64 53 65 57 66 54 67 56 68 55 69 42 70
REMARK SMILES IDX 43 71 47 72 44 73 46 74 45 75
REMARK H PARENT 13 4 6 10 6 11 4 17 18 24 62 43 40 54
REMARK Flexibility Score: inf
ROOT
ATOM      1  C   UNL     1      -3.557   0.925   1.023  1.00  0.00     0.231 C 
ATOM      2  O   UNL     1      -3.387   0.618   2.206  1.00  0.00    -0.274 OA
ATOM      3  N   UNL     1      -3.657   2.257   0.774  1.00  0.00    -0.355 N 
ATOM      4  H   UNL     1      -3.076   2.832   1.322  1.00  0.00     0.163 HD
ENDROOT
BRANCH   1   5
ATOM      5  C   UNL     1      -3.678  -0.135  -0.090  1.00  0.00     0.092 C 
ATOM      6  C   UNL     1      -3.070   0.287  -1.441  1.00  0.00     0.027 C 
ATOM      7  C   UNL     1      -5.178  -0.445  -0.251  1.00  0.00     0.027 C 
BRANCH   5   8
ATOM      8  C   UNL     1      -2.961  -1.454   0.379  1.00  0.00     0.276 C 
BRANCH   8   9
ATOM      9  N   UNL     1      -1.483  -1.513   0.311  1.00  0.00    -0.345 N 
ATOM     10  H   UNL     1      -1.183  -2.463   0.525  1.00  0.00     0.346 HD
ATOM     11  H   UNL     1      -1.204  -1.236  -0.630  1.00  0.00     0.346 HD
BRANCH   9  12
ATOM     12  C   UNL     1      -0.844  -0.592   1.256  1.00  0.00     0.266 C 
BRANCH  12  13
ATOM     13  C   UNL     1       0.694  -0.601   1.205  1.00  0.00     0.067 C 
ATOM     14  C   UNL     1       1.218  -0.151  -0.164  1.00  0.00     0.016 C 
BRANCH  13  15
ATOM     15  C   UNL     1       1.239   0.310   2.320  1.00  0.00     0.165 C 
BRANCH  15  16
ATOM     16  O   UNL     1       0.804   1.659   2.175  1.00  0.00    -0.396 OA
ATOM     17  H   UNL     1       1.130   2.015   1.333  1.00  0.00     0.210 HD
ENDBRANCH  15  16
ENDBRANCH  13  15
ENDBRANCH  12  13
ENDBRANCH   9  12
ENDBRANCH   8   9
ENDBRANCH   5   8
ENDBRANCH   1   5
BRANCH   3  18
ATOM     18  C   UNL     1      -4.493   2.952  -0.179  1.00  0.00     0.116 C 
BRANCH  18  19
ATOM     19  C   UNL     1      -5.752   3.475   0.511  1.00  0.00     0.023 C 
BRANCH  19  20
ATOM     20  C   UNL     1      -5.493   4.561   1.557  1.00  0.00     0.023 C 
BRANCH  20  21
ATOM     21  C   UNL     1      -4.689   5.752   1.053  1.00  0.00     0.116 C 
BRANCH  21  22
ATOM     22  N   UNL     1      -5.290   6.375  -0.117  1.00  0.00    -0.352 N 
ATOM     23  C   UNL     1      -5.504   7.702  -0.375  1.00  0.00     0.251 C 
ATOM     24  H   UNL     1      -5.583   5.754  -0.822  1.00  0.00     0.163 HD
ATOM     25  O   UNL     1      -6.174   8.039  -1.350  1.00  0.00    -0.269 OA
BRANCH  23  26
ATOM     26  C   UNL     1      -4.946   8.727   0.527  1.00  0.00     0.039 A 
ATOM     27  C   UNL     1      -5.739   9.822   0.875  1.00  0.00     0.014 A 
ATOM     28  C   UNL     1      -3.640   8.620   1.015  1.00  0.00     0.014 A 
ATOM     29  C   UNL     1      -5.230  10.797   1.733  1.00  0.00     0.010 A 
ATOM     30  C   UNL     1      -3.169   9.542   1.942  1.00  0.00     0.010 A 
ATOM     31  C   UNL     1      -3.946  10.657   2.285  1.00  0.00    -0.014 A 
BRANCH  31  32
ATOM     32  C   UNL     1      -3.380  11.704   3.170  1.00  0.00     0.031 A 
ATOM     33  C   UNL     1      -2.165  12.479   2.732  1.00  0.00     0.074 A 
ATOM     34  C   UNL     1      -3.940  11.944   4.370  1.00  0.00     0.049 A 
ATOM     35  N   UNL     1      -1.526  13.436   3.356  1.00  0.00    -0.248 NA
ATOM     36  C   UNL     1      -1.574  12.115   1.433  1.00  0.00     0.031 C 
ATOM     37  C   UNL     1      -5.093  11.234   4.928  1.00  0.00     0.029 A 
ATOM     38  N   UNL     1      -3.616  12.862   5.337  1.00  0.00    -0.354 N 
ATOM     39  C   UNL     1      -0.456  13.772   2.535  1.00  0.00     0.074 A 
ATOM     40  C   UNL     1      -0.492  12.876   1.402  1.00  0.00     0.031 C 
ATOM     41  C   UNL     1      -5.404  11.769   6.119  1.00  0.00     0.029 A 
ATOM     42  C   UNL     1      -4.453  12.833   6.426  1.00  0.00     0.049 A 
ATOM     43  H   UNL     1      -2.855  13.482   5.258  1.00  0.00     0.167 HD
ATOM     44  C   UNL     1       0.459  14.757   2.693  1.00  0.00     0.031 A 
ATOM     45  C   UNL     1      -4.457  13.586   7.542  1.00  0.00     0.031 A 
ATOM     46  C   UNL     1       0.488  15.657   3.814  1.00  0.00     0.049 A 
ATOM     47  C   UNL     1      -3.428  14.672   7.694  1.00  0.00     0.074 A 
ATOM     48  C   UNL     1       1.344  16.718   4.047  1.00  0.00     0.029 A 
ATOM     49  N   UNL     1      -0.383  15.599   4.891  1.00  0.00    -0.354 N 
ATOM     50  N   UNL     1      -2.465  15.023   6.876  1.00  0.00    -0.248 NA
ATOM     51  C   UNL     1      -3.504  15.483   8.917  1.00  0.00     0.031 C 
ATOM     52  C   UNL     1       1.025  17.270   5.292  1.00  0.00     0.029 A 
ATOM     53  C   UNL     1      -0.074  16.596   5.801  1.00  0.00     0.049 A 
ATOM     54  H   UNL     1      -1.112  14.945   4.995  1.00  0.00     0.167 HD
ATOM     55  C   UNL     1      -1.848  16.120   7.466  1.00  0.00     0.074 A 
ATOM     56  C   UNL     1      -2.557  16.383   8.701  1.00  0.00     0.031 C 
ATOM     57  C   UNL     1      -0.793  16.848   7.023  1.00  0.00     0.031 A 
BRANCH  44  58
ATOM     58  C   UNL     1       1.508  14.905   1.623  1.00  0.00    -0.014 A 
ATOM     59  C   UNL     1       1.175  15.341   0.330  1.00  0.00     0.009 A 
ATOM     60  C   UNL     1       2.851  14.627   1.918  1.00  0.00     0.009 A 
ATOM     61  C   UNL     1       2.158  15.455  -0.655  1.00  0.00     0.001 A 
ATOM     62  C   UNL     1       3.837  14.775   0.941  1.00  0.00     0.001 A 
ATOM     63  C   UNL     1       3.489  15.178  -0.347  1.00  0.00     0.000 A 
ENDBRANCH  44  58
BRANCH  45  64
ATOM     64  C   UNL     1      -5.487  13.364   8.591  1.00  0.00    -0.014 A 
ATOM     65  C   UNL     1      -6.484  14.324   8.828  1.00  0.00     0.009 A 
ATOM     66  C   UNL     1      -5.468  12.201   9.376  1.00  0.00     0.009 A 
ATOM     67  C   UNL     1      -7.415  14.142   9.854  1.00  0.00     0.001 A 
ATOM     68  C   UNL     1      -6.420  12.006  10.379  1.00  0.00     0.001 A 
ATOM     69  C   UNL     1      -7.384  12.982  10.625  1.00  0.00     0.000 A 
ENDBRANCH  45  64
BRANCH  57  70
ATOM     70  C   UNL     1      -0.383  18.035   7.850  1.00  0.00    -0.014 A 
ATOM     71  C   UNL     1       0.210  17.887   9.113  1.00  0.00     0.009 A 
ATOM     72  C   UNL     1      -0.580  19.329   7.339  1.00  0.00     0.009 A 
ATOM     73  C   UNL     1       0.550  19.011   9.869  1.00  0.00     0.001 A 
ATOM     74  C   UNL     1      -0.205  20.449   8.081  1.00  0.00     0.001 A 
ATOM     75  C   UNL     1       0.345  20.290   9.351  1.00  0.00     0.000 A 
ENDBRANCH  57  70
ENDBRANCH  31  32
ENDBRANCH  23  26
ENDBRANCH  21  22
ENDBRANCH  20  21
ENDBRANCH  19  20
ENDBRANCH  18  19
ENDBRANCH   3  18
TORSDOF 17
