REMARK SMILES O=C(C[C@H]1C(=O)Nc2ccccc21)NCCCCNC(=O)c1ccc(-c2c3nc(c(-c4ccccc4)c4ccc([nH]4)c(-c4ccccc4)c4nc(c(-c5ccccc5)c5ccc2[nH]5)C=C4)C=C3)cc1
REMARK SMILES IDX 17 1 16 2 15 3 14 4 1 5 2 6 3 8 4 9 5 10 13 11 6 12 7 13
REMARK SMILES IDX 8 14 12 15 9 17 11 18 10 19 18 20 19 21 20 22 21 24 22 25
REMARK SMILES IDX 23 26 69 27 24 28 68 29 25 30 26 31 27 32 62 33 28 34 67 35
REMARK SMILES IDX 61 36 63 37 29 38 66 39 60 40 59 41 30 43 52 44 37 45 51 46
REMARK SMILES IDX 38 47 41 48 50 49 64 50 39 51 40 52 49 54 65 55 42 56 31 57
REMARK SMILES IDX 32 58 36 59 33 60 35 61 34 62 53 63 54 64 58 65 55 66 57 67
REMARK SMILES IDX 56 68 43 69 44 70 48 71 45 72 47 73 46 74
REMARK H PARENT 14 7 7 16 19 23 63 42 41 53
REMARK Flexibility Score: inf
ROOT
ATOM      1  C   UNL     1       7.897   5.513   1.983  1.00  0.00     0.023 C 
ENDROOT
BRANCH   1   2
ATOM      2  C   UNL     1       8.468   4.218   2.572  1.00  0.00     0.023 C 
BRANCH   2   3
ATOM      3  C   UNL     1       7.431   3.165   2.962  1.00  0.00     0.116 C 
BRANCH   3   4
ATOM      4  N   UNL     1       6.612   2.770   1.835  1.00  0.00    -0.356 N 
ATOM      5  O   UNL     1       6.843   0.510   2.119  1.00  0.00    -0.275 OA
ATOM      6  C   UNL     1       6.337   1.458   1.530  1.00  0.00     0.221 C 
ATOM      7  H   UNL     1       6.233   3.475   1.261  1.00  0.00     0.163 HD
BRANCH   6   8
ATOM      8  C   UNL     1       5.387   1.263   0.357  1.00  0.00     0.118 C 
BRANCH   8   9
ATOM      9  C   UNL     1       3.954   1.728   0.608  1.00  0.00     0.120 C 
ATOM     10  C   UNL     1       3.430   1.271   1.982  1.00  0.00     0.232 C 
ATOM     11  C   UNL     1       3.786   3.226   0.694  1.00  0.00    -0.011 A 
ATOM     12  O   UNL     1       3.313   0.122   2.375  1.00  0.00    -0.274 OA
ATOM     13  N   UNL     1       3.098   2.412   2.703  1.00  0.00    -0.325 N 
ATOM     14  C   UNL     1       3.304   3.561   1.959  1.00  0.00     0.045 A 
ATOM     15  C   UNL     1       4.067   4.210  -0.238  1.00  0.00     0.007 A 
ATOM     16  H   UNL     1       2.759   2.403   3.627  1.00  0.00     0.169 HD
ATOM     17  C   UNL     1       3.107   4.866   2.355  1.00  0.00     0.026 A 
ATOM     18  C   UNL     1       3.878   5.542   0.142  1.00  0.00     0.000 A 
ATOM     19  C   UNL     1       3.406   5.867   1.427  1.00  0.00     0.002 A 
ENDBRANCH   8   9
ENDBRANCH   6   8
ENDBRANCH   3   4
ENDBRANCH   2   3
ENDBRANCH   1   2
BRANCH   1  20
ATOM     20  C   UNL     1       6.917   6.264   2.879  1.00  0.00     0.116 C 
BRANCH  20  21
ATOM     21  N   UNL     1       7.541   6.782   4.085  1.00  0.00    -0.352 N 
ATOM     22  C   UNL     1       7.586   8.066   4.574  1.00  0.00     0.251 C 
ATOM     23  H   UNL     1       8.003   6.110   4.636  1.00  0.00     0.163 HD
ATOM     24  O   UNL     1       8.299   8.327   5.540  1.00  0.00    -0.269 OA
BRANCH  22  25
ATOM     25  C   UNL     1       6.805   9.147   3.931  1.00  0.00     0.039 A 
ATOM     26  C   UNL     1       7.414  10.390   3.737  1.00  0.00     0.014 A 
ATOM     27  C   UNL     1       5.478   8.954   3.538  1.00  0.00     0.014 A 
ATOM     28  C   UNL     1       6.719  11.414   3.087  1.00  0.00     0.010 A 
ATOM     29  C   UNL     1       4.813   9.950   2.823  1.00  0.00     0.010 A 
ATOM     30  C   UNL     1       5.426  11.190   2.587  1.00  0.00    -0.014 A 
BRANCH  30  31
ATOM     31  C   UNL     1       4.713  12.234   1.804  1.00  0.00     0.031 A 
ATOM     32  C   UNL     1       3.427  12.827   2.312  1.00  0.00     0.074 A 
ATOM     33  C   UNL     1       5.194  12.612   0.603  1.00  0.00     0.049 A 
ATOM     34  N   UNL     1       2.641  13.707   1.741  1.00  0.00    -0.248 NA
ATOM     35  C   UNL     1       2.948  12.354   3.619  1.00  0.00     0.031 C 
ATOM     36  C   UNL     1       6.414  12.096  -0.023  1.00  0.00     0.029 A 
ATOM     37  N   UNL     1       4.712  13.518  -0.310  1.00  0.00    -0.354 N 
ATOM     38  C   UNL     1       1.573  13.882   2.613  1.00  0.00     0.074 A 
ATOM     39  C   UNL     1       1.783  12.977   3.722  1.00  0.00     0.031 C 
ATOM     40  C   UNL     1       6.598  12.712  -1.201  1.00  0.00     0.029 A 
ATOM     41  C   UNL     1       5.489  13.631  -1.438  1.00  0.00     0.049 A 
ATOM     42  H   UNL     1       3.887  14.037  -0.170  1.00  0.00     0.167 HD
ATOM     43  C   UNL     1       0.523  14.732   2.511  1.00  0.00     0.031 A 
ATOM     44  C   UNL     1       5.327  14.380  -2.545  1.00  0.00     0.031 A 
ATOM     45  C   UNL     1       0.310  15.632   1.408  1.00  0.00     0.049 A 
ATOM     46  C   UNL     1       4.133  15.289  -2.651  1.00  0.00     0.074 A 
ATOM     47  C   UNL     1      -0.700  16.564   1.238  1.00  0.00     0.029 A 
ATOM     48  N   UNL     1       1.118  15.709   0.284  1.00  0.00    -0.354 N 
ATOM     49  N   UNL     1       3.167  15.488  -1.788  1.00  0.00    -0.248 NA
ATOM     50  C   UNL     1       4.016  16.085  -3.881  1.00  0.00     0.031 C 
ATOM     51  C   UNL     1      -0.539  17.159  -0.017  1.00  0.00     0.029 A 
ATOM     52  C   UNL     1       0.611  16.650  -0.598  1.00  0.00     0.049 A 
ATOM     53  H   UNL     1       1.931  15.175   0.134  1.00  0.00     0.167 HD
ATOM     54  C   UNL     1       2.344  16.453  -2.356  1.00  0.00     0.074 A 
ATOM     55  C   UNL     1       2.935  16.810  -3.629  1.00  0.00     0.031 C 
ATOM     56  C   UNL     1       1.203  16.995  -1.865  1.00  0.00     0.031 A 
BRANCH  43  57
ATOM     57  C   UNL     1      -0.491  14.716   3.624  1.00  0.00    -0.014 A 
ATOM     58  C   UNL     1      -0.171  15.180   4.911  1.00  0.00     0.009 A 
ATOM     59  C   UNL     1      -1.796  14.261   3.375  1.00  0.00     0.009 A 
ATOM     60  C   UNL     1      -1.122  15.147   5.933  1.00  0.00     0.001 A 
ATOM     61  C   UNL     1      -2.754  14.262   4.390  1.00  0.00     0.001 A 
ATOM     62  C   UNL     1      -2.413  14.693   5.671  1.00  0.00     0.000 A 
ENDBRANCH  43  57
BRANCH  44  63
ATOM     63  C   UNL     1       6.324  14.308  -3.646  1.00  0.00    -0.014 A 
ATOM     64  C   UNL     1       7.160  15.400  -3.926  1.00  0.00     0.009 A 
ATOM     65  C   UNL     1       6.440  13.148  -4.428  1.00  0.00     0.009 A 
ATOM     66  C   UNL     1       8.071  15.341  -4.984  1.00  0.00     0.001 A 
ATOM     67  C   UNL     1       7.375  13.081  -5.464  1.00  0.00     0.001 A 
ATOM     68  C   UNL     1       8.182  14.181  -5.747  1.00  0.00     0.000 A 
ENDBRANCH  44  63
BRANCH  56  69
ATOM     69  C   UNL     1       0.535  18.062  -2.690  1.00  0.00    -0.014 A 
ATOM     70  C   UNL     1      -0.113  17.758  -3.897  1.00  0.00     0.009 A 
ATOM     71  C   UNL     1       0.522  19.388  -2.228  1.00  0.00     0.009 A 
ATOM     72  C   UNL     1      -0.729  18.767  -4.642  1.00  0.00     0.001 A 
ATOM     73  C   UNL     1      -0.123  20.388  -2.957  1.00  0.00     0.001 A 
ATOM     74  C   UNL     1      -0.738  20.079  -4.168  1.00  0.00     0.000 A 
ENDBRANCH  56  69
ENDBRANCH  30  31
ENDBRANCH  22  25
ENDBRANCH  20  21
ENDBRANCH   1  20
TORSDOF 12
