REMARK SMILES Cc1ccc(NC(=O)CN2C(=O)S/C(=C\c3cc(Cl)c(OCC(=O)NCCCCNC(=O)c4ccc(-c5c6nc(c(-c7ccccc7)c7ccc([nH]7)c(-c7ccccc7)c7nc(c(-c8ccccc8)c8ccc5[nH]8)C=C7)C=C6)cc4)c(Cl)c3)C2=O)cc1
REMARK SMILES IDX 23 1 24 2 25 3 22 5 21 6 20 7 16 8 17 9 83 10 18 11 81 12
REMARK SMILES IDX 19 13 82 14 15 15 10 16 11 17 84 18 12 19 13 20 14 21 85 22
REMARK SMILES IDX 9 23 7 24 6 25 8 27 5 28 1 29 2 30 3 31 87 32 4 33 86 34
REMARK SMILES IDX 26 35 27 36 28 37 29 38 30 39 31 40 32 42 33 43 34 44 80 45
REMARK SMILES IDX 35 46 79 47 36 48 37 49 38 50 73 51 39 52 78 53 72 54 74 55
REMARK SMILES IDX 40 56 77 57 71 58 70 59 41 61 63 62 48 63 62 64 49 65 52 66
REMARK SMILES IDX 61 67 75 68 50 69 51 70 60 72 76 73 53 74 42 75 43 76 47 77
REMARK SMILES IDX 44 78 46 79 45 80 64 81 65 82 69 83 66 84 68 85 67 86 54 87
REMARK SMILES IDX 55 88 59 89 56 90 58 91 57 92
REMARK H PARENT 25 4 6 26 30 41 74 60 52 71
REMARK Flexibility Score: inf
ROOT
ATOM      1  C   UNL     1      -7.444  -3.262 -10.759  1.00  0.00     0.257 C 
ATOM      2  O   UNL     1      -8.376  -3.281  -9.953  1.00  0.00    -0.271 OA
ATOM      3  N   UNL     1      -7.239  -4.386 -11.505  1.00  0.00    -0.353 N 
ATOM      4  H   UNL     1      -7.775  -5.170 -11.246  1.00  0.00     0.163 HD
ENDROOT
BRANCH   1   5
ATOM      5  C   UNL     1      -6.569  -2.016 -10.983  1.00  0.00     0.329 C 
BRANCH   5   6
ATOM      6  O   UNL     1      -5.175  -2.125 -10.768  1.00  0.00    -0.481 OA
BRANCH   6   7
ATOM      7  C   UNL     1      -4.616  -2.293  -9.530  1.00  0.00     0.157 A 
ATOM      8  C   UNL     1      -3.114  -2.756  -7.134  1.00  0.00    -0.021 A 
ATOM      9  C   UNL     1      -2.485  -2.820  -8.370  1.00  0.00     0.032 A 
ATOM     10  C   UNL     1      -4.489  -2.494  -7.116  1.00  0.00     0.032 A 
ATOM     11  C   UNL     1      -3.229  -2.595  -9.546  1.00  0.00     0.085 A 
ATOM     12  C   UNL     1      -5.221  -2.196  -8.274  1.00  0.00     0.085 A 
ATOM     13  Cl  UNL     1      -2.352  -2.684 -11.044  1.00  0.00    -0.080 Cl
ATOM     14  Cl  UNL     1      -6.810  -1.615  -7.941  1.00  0.00    -0.080 Cl
BRANCH   8  15
ATOM     15  C   UNL     1      -2.414  -3.007  -5.857  1.00  0.00     0.029 C 
ATOM     16  N   UNL     1      -3.110  -2.066  -2.497  1.00  0.00    -0.259 N 
ATOM     17  C   UNL     1      -3.926  -1.117  -3.055  1.00  0.00     0.294 C 
ATOM     18  C   UNL     1      -2.303  -2.755  -3.382  1.00  0.00     0.268 C 
ATOM     19  O   UNL     1      -4.955  -0.651  -2.600  1.00  0.00    -0.261 OA
ATOM     20  S   UNL     1      -3.341  -0.711  -4.649  1.00  0.00    -0.022 SA
ATOM     21  C   UNL     1      -2.539  -2.232  -4.764  1.00  0.00     0.083 C 
ATOM     22  O   UNL     1      -1.629  -3.745  -3.131  1.00  0.00    -0.268 OA
BRANCH  16  23
ATOM     23  C   UNL     1      -3.440  -2.618  -1.192  1.00  0.00     0.230 C 
BRANCH  23  24
ATOM     24  C   UNL     1      -3.795  -1.546  -0.157  1.00  0.00     0.244 C 
ATOM     25  N   UNL     1      -2.980  -0.471   0.057  1.00  0.00    -0.325 N 
ATOM     26  H   UNL     1      -3.450   0.346   0.339  1.00  0.00     0.169 HD
ATOM     27  O   UNL     1      -4.847  -1.624   0.484  1.00  0.00    -0.273 OA
BRANCH  25  28
ATOM     28  C   UNL     1      -1.590  -0.331  -0.056  1.00  0.00     0.041 A 
ATOM     29  C   UNL     1       2.676   0.315  -0.036  1.00  0.00     0.044 C 
ATOM     30  C   UNL     1       1.192   0.106  -0.051  1.00  0.00    -0.051 A 
ATOM     31  C   UNL     1       0.672  -1.191   0.011  1.00  0.00     0.005 A 
ATOM     32  C   UNL     1       0.307   1.186  -0.114  1.00  0.00     0.005 A 
ATOM     33  C   UNL     1      -0.708  -1.408   0.010  1.00  0.00     0.026 A 
ATOM     34  C   UNL     1      -1.074   0.968  -0.101  1.00  0.00     0.026 A 
ENDBRANCH  25  28
ENDBRANCH  23  24
ENDBRANCH  16  23
ENDBRANCH   8  15
ENDBRANCH   6   7
ENDBRANCH   5   6
ENDBRANCH   1   5
BRANCH   3  35
ATOM     35  C   UNL     1      -6.341  -4.588 -12.624  1.00  0.00     0.116 C 
BRANCH  35  36
ATOM     36  C   UNL     1      -5.044  -5.299 -12.243  1.00  0.00     0.023 C 
BRANCH  36  37
ATOM     37  C   UNL     1      -5.200  -6.623 -11.502  1.00  0.00     0.023 C 
BRANCH  37  38
ATOM     38  C   UNL     1      -5.924  -7.718 -12.269  1.00  0.00     0.116 C 
BRANCH  38  39
ATOM     39  N   UNL     1      -5.112  -8.423 -13.253  1.00  0.00    -0.352 N 
ATOM     40  C   UNL     1      -5.423  -9.514 -14.051  1.00  0.00     0.251 C 
ATOM     41  H   UNL     1      -4.200  -8.071 -13.368  1.00  0.00     0.163 HD
ATOM     42  O   UNL     1      -4.559  -9.998 -14.778  1.00  0.00    -0.269 OA
BRANCH  40  43
ATOM     43  C   UNL     1      -6.830  -9.980 -14.176  1.00  0.00     0.039 A 
ATOM     44  C   UNL     1      -7.290 -10.282 -15.466  1.00  0.00     0.014 A 
ATOM     45  C   UNL     1      -7.739  -9.781 -13.148  1.00  0.00     0.014 A 
ATOM     46  C   UNL     1      -8.618 -10.030 -15.786  1.00  0.00     0.010 A 
ATOM     47  C   UNL     1      -9.003  -9.371 -13.486  1.00  0.00     0.010 A 
ATOM     48  C   UNL     1      -9.411  -9.427 -14.820  1.00  0.00    -0.014 A 
BRANCH  48  49
ATOM     49  C   UNL     1     -10.675  -8.773 -15.088  1.00  0.00     0.031 A 
ATOM     50  C   UNL     1     -11.915  -9.455 -14.699  1.00  0.00     0.074 A 
ATOM     51  C   UNL     1     -10.671  -7.495 -15.525  1.00  0.00     0.049 A 
ATOM     52  N   UNL     1     -13.074  -9.160 -15.169  1.00  0.00    -0.248 NA
ATOM     53  C   UNL     1     -11.938 -10.586 -13.775  1.00  0.00     0.031 C 
ATOM     54  C   UNL     1     -11.767  -6.533 -15.505  1.00  0.00     0.029 A 
ATOM     55  N   UNL     1      -9.682  -6.864 -16.272  1.00  0.00    -0.354 N 
ATOM     56  C   UNL     1     -14.002  -9.805 -14.387  1.00  0.00     0.074 A 
ATOM     57  C   UNL     1     -13.251 -10.768 -13.620  1.00  0.00     0.031 C 
ATOM     58  C   UNL     1     -11.506  -5.551 -16.385  1.00  0.00     0.029 A 
ATOM     59  C   UNL     1     -10.313  -5.940 -17.121  1.00  0.00     0.049 A 
ATOM     60  H   UNL     1      -8.714  -7.035 -16.216  1.00  0.00     0.167 HD
ATOM     61  C   UNL     1     -15.274  -9.326 -14.362  1.00  0.00     0.031 A 
ATOM     62  C   UNL     1     -10.262  -6.103 -18.478  1.00  0.00     0.031 A 
ATOM     63  C   UNL     1     -15.435  -8.220 -15.304  1.00  0.00     0.049 A 
ATOM     64  C   UNL     1     -11.624  -6.348 -19.096  1.00  0.00     0.074 A 
ATOM     65  C   UNL     1     -15.449  -6.845 -15.142  1.00  0.00     0.029 A 
ATOM     66  N   UNL     1     -15.258  -8.458 -16.660  1.00  0.00    -0.354 N 
ATOM     67  N   UNL     1     -12.654  -6.797 -18.431  1.00  0.00    -0.248 NA
ATOM     68  C   UNL     1     -11.937  -6.105 -20.500  1.00  0.00     0.031 C 
ATOM     69  C   UNL     1     -15.230  -6.253 -16.414  1.00  0.00     0.029 A 
ATOM     70  C   UNL     1     -15.116  -7.269 -17.346  1.00  0.00     0.049 A 
ATOM     71  H   UNL     1     -15.238  -9.351 -17.075  1.00  0.00     0.167 HD
ATOM     72  C   UNL     1     -13.746  -6.871 -19.258  1.00  0.00     0.074 A 
ATOM     73  C   UNL     1     -13.240  -6.439 -20.549  1.00  0.00     0.031 C 
ATOM     74  C   UNL     1     -14.967  -7.275 -18.797  1.00  0.00     0.031 A 
BRANCH  61  75
ATOM     75  C   UNL     1     -16.287  -9.652 -13.293  1.00  0.00    -0.014 A 
ATOM     76  C   UNL     1     -17.359  -8.766 -13.078  1.00  0.00     0.009 A 
ATOM     77  C   UNL     1     -16.228 -10.762 -12.435  1.00  0.00     0.009 A 
ATOM     78  C   UNL     1     -18.269  -8.935 -12.027  1.00  0.00     0.001 A 
ATOM     79  C   UNL     1     -17.120 -10.928 -11.365  1.00  0.00     0.001 A 
ATOM     80  C   UNL     1     -18.137 -10.008 -11.157  1.00  0.00     0.000 A 
ENDBRANCH  61  75
BRANCH  62  81
ATOM     81  C   UNL     1      -8.981  -6.726 -18.929  1.00  0.00    -0.014 A 
ATOM     82  C   UNL     1      -7.795  -5.984 -18.740  1.00  0.00     0.009 A 
ATOM     83  C   UNL     1      -8.882  -8.116 -19.082  1.00  0.00     0.009 A 
ATOM     84  C   UNL     1      -6.571  -6.630 -18.538  1.00  0.00     0.001 A 
ATOM     85  C   UNL     1      -7.647  -8.756 -18.904  1.00  0.00     0.001 A 
ATOM     86  C   UNL     1      -6.506  -8.020 -18.580  1.00  0.00     0.000 A 
ENDBRANCH  62  81
BRANCH  74  87
ATOM     87  C   UNL     1     -16.184  -7.662 -19.614  1.00  0.00    -0.014 A 
ATOM     88  C   UNL     1     -16.197  -7.858 -20.998  1.00  0.00     0.009 A 
ATOM     89  C   UNL     1     -17.389  -7.974 -18.932  1.00  0.00     0.009 A 
ATOM     90  C   UNL     1     -17.346  -8.315 -21.662  1.00  0.00     0.001 A 
ATOM     91  C   UNL     1     -18.517  -8.480 -19.579  1.00  0.00     0.001 A 
ATOM     92  C   UNL     1     -18.498  -8.641 -20.953  1.00  0.00     0.000 A 
ENDBRANCH  74  87
ENDBRANCH  48  49
ENDBRANCH  40  43
ENDBRANCH  38  39
ENDBRANCH  37  38
ENDBRANCH  36  37
ENDBRANCH  35  36
ENDBRANCH   3  35
TORSDOF 17
