REMARK SMILES COc1ccc(-n2nc(C(=O)NCCCCNC(=O)c3ccc(-c4c5nc(c(-c6ccccc6)c6ccc([nH]6)c(-c6ccccc6)c6nc(c(-c7ccccc7)c7ccc4[nH]7)C=C6)C=C5)cc3)c(=O)cc2C)cc1
REMARK SMILES IDX 14 1 13 2 12 3 10 4 11 5 9 7 7 8 8 9 71 10 70 11 72 12 68 13
REMARK SMILES IDX 69 14 6 15 3 16 4 17 74 18 5 19 73 20 2 21 1 22 15 23 16 24
REMARK SMILES IDX 17 25 18 26 19 28 20 29 21 30 67 31 22 32 66 33 23 34 24 35
REMARK SMILES IDX 25 36 60 37 26 38 65 39 59 40 61 41 27 42 64 43 58 44 57 45
REMARK SMILES IDX 28 47 50 48 35 49 49 50 36 51 39 52 48 53 62 54 37 55 38 56
REMARK SMILES IDX 47 58 63 59 40 60 29 61 30 62 34 63 31 64 33 65 32 66 51 67
REMARK SMILES IDX 52 68 56 69 53 70 55 71 54 72 41 73 42 74 46 75 43 76 45 77
REMARK SMILES IDX 44 78
REMARK H PARENT 12 6 17 27 61 46 39 57
REMARK Flexibility Score: inf
ROOT
ATOM      1  C   UNL     1       0.336  -7.892  -9.530  1.00  0.00     0.023 C 
ENDROOT
BRANCH   1   2
ATOM      2  C   UNL     1       1.197  -6.681  -9.186  1.00  0.00     0.116 C 
BRANCH   2   3
ATOM      3  N   UNL     1       0.423  -5.485  -8.916  1.00  0.00    -0.351 N 
ATOM      4  C   UNL     1       0.543  -4.552  -7.908  1.00  0.00     0.275 C 
ATOM      5  O   UNL     1      -0.131  -3.527  -7.971  1.00  0.00    -0.267 OA
ATOM      6  H   UNL     1      -0.306  -5.311  -9.555  1.00  0.00     0.163 HD
BRANCH   4   7
ATOM      7  C   UNL     1       1.451  -4.756  -6.702  1.00  0.00     0.196 A 
ATOM      8  N   UNL     1       1.782  -4.510  -4.439  1.00  0.00    -0.237 N 
ATOM      9  N   UNL     1       0.964  -4.395  -5.542  1.00  0.00    -0.158 NA
ATOM     10  C   UNL     1       2.893  -5.358  -4.414  1.00  0.00     0.044 A 
ATOM     11  C   UNL     1       3.449  -5.808  -5.548  1.00  0.00     0.078 A 
ATOM     12  C   UNL     1       3.454  -5.832  -3.094  1.00  0.00     0.067 C 
ATOM     13  C   UNL     1       2.864  -5.283  -6.790  1.00  0.00     0.213 A 
ATOM     14  O   UNL     1       3.478  -5.304  -7.846  1.00  0.00    -0.287 OA
BRANCH   8  15
ATOM     15  C   UNL     1       1.446  -3.623  -3.371  1.00  0.00     0.065 A 
ATOM     16  C   UNL     1       0.788  -1.881  -1.243  1.00  0.00     0.119 A 
ATOM     17  C   UNL     1      -0.195  -2.662  -1.852  1.00  0.00     0.048 A 
ATOM     18  C   UNL     1       2.103  -1.964  -1.694  1.00  0.00     0.048 A 
ATOM     19  C   UNL     1       0.124  -3.505  -2.922  1.00  0.00     0.032 A 
ATOM     20  C   UNL     1       2.427  -2.829  -2.748  1.00  0.00     0.032 A 
BRANCH  16  21
ATOM     21  O   UNL     1       0.365  -1.114  -0.194  1.00  0.00    -0.497 OA
ATOM     22  C   UNL     1       1.066   0.112  -0.009  1.00  0.00     0.278 C 
ENDBRANCH  16  21
ENDBRANCH   8  15
ENDBRANCH   4   7
ENDBRANCH   2   3
ENDBRANCH   1   2
BRANCH   1  23
ATOM     23  C   UNL     1      -0.405  -7.846 -10.866  1.00  0.00     0.023 C 
BRANCH  23  24
ATOM     24  C   UNL     1       0.449  -7.631 -12.114  1.00  0.00     0.116 C 
BRANCH  24  25
ATOM     25  N   UNL     1       1.542  -8.581 -12.260  1.00  0.00    -0.352 N 
ATOM     26  C   UNL     1       1.973  -9.248 -13.384  1.00  0.00     0.251 C 
ATOM     27  H   UNL     1       2.046  -8.774 -11.436  1.00  0.00     0.163 HD
ATOM     28  O   UNL     1       2.885 -10.067 -13.308  1.00  0.00    -0.269 OA
BRANCH  26  29
ATOM     29  C   UNL     1       1.303  -9.012 -14.681  1.00  0.00     0.039 A 
ATOM     30  C   UNL     1       0.871 -10.114 -15.425  1.00  0.00     0.014 A 
ATOM     31  C   UNL     1       1.064  -7.715 -15.140  1.00  0.00     0.014 A 
ATOM     32  C   UNL     1       0.112  -9.913 -16.581  1.00  0.00     0.010 A 
ATOM     33  C   UNL     1       0.252  -7.518 -16.254  1.00  0.00     0.010 A 
ATOM     34  C   UNL     1      -0.246  -8.614 -16.975  1.00  0.00    -0.014 A 
BRANCH  34  35
ATOM     35  C   UNL     1      -1.168  -8.379 -18.116  1.00  0.00     0.031 A 
ATOM     36  C   UNL     1      -0.692  -7.643 -19.337  1.00  0.00     0.074 A 
ATOM     37  C   UNL     1      -2.460  -8.747 -18.013  1.00  0.00     0.049 A 
ATOM     38  N   UNL     1      -1.373  -7.265 -20.389  1.00  0.00    -0.248 NA
ATOM     39  C   UNL     1       0.728  -7.259 -19.368  1.00  0.00     0.031 C 
ATOM     40  C   UNL     1      -3.063  -9.422 -16.861  1.00  0.00     0.029 A 
ATOM     41  N   UNL     1      -3.506  -8.590 -18.888  1.00  0.00    -0.354 N 
ATOM     42  C   UNL     1      -0.473  -6.577 -21.192  1.00  0.00     0.074 A 
ATOM     43  C   UNL     1       0.792  -6.557 -20.490  1.00  0.00     0.031 C 
ATOM     44  C   UNL     1      -4.366  -9.637 -17.108  1.00  0.00     0.029 A 
ATOM     45  C   UNL     1      -4.699  -9.084 -18.416  1.00  0.00     0.049 A 
ATOM     46  H   UNL     1      -3.411  -8.165 -19.771  1.00  0.00     0.167 HD
ATOM     47  C   UNL     1      -0.676  -6.025 -22.412  1.00  0.00     0.031 A 
ATOM     48  C   UNL     1      -5.927  -9.083 -18.969  1.00  0.00     0.031 A 
ATOM     49  C   UNL     1      -1.925  -6.063 -23.123  1.00  0.00     0.049 A 
ATOM     50  C   UNL     1      -6.122  -8.473 -20.329  1.00  0.00     0.074 A 
ATOM     51  C   UNL     1      -2.207  -5.596 -24.395  1.00  0.00     0.029 A 
ATOM     52  N   UNL     1      -3.101  -6.599 -22.622  1.00  0.00    -0.354 N 
ATOM     53  N   UNL     1      -5.241  -7.894 -21.108  1.00  0.00    -0.248 NA
ATOM     54  C   UNL     1      -7.481  -8.524 -20.889  1.00  0.00     0.031 C 
ATOM     55  C   UNL     1      -3.566  -5.812 -24.648  1.00  0.00     0.029 A 
ATOM     56  C   UNL     1      -4.117  -6.455 -23.551  1.00  0.00     0.049 A 
ATOM     57  H   UNL     1      -3.199  -7.020 -21.737  1.00  0.00     0.167 HD
ATOM     58  C   UNL     1      -5.932  -7.536 -22.258  1.00  0.00     0.074 A 
ATOM     59  C   UNL     1      -7.300  -7.975 -22.082  1.00  0.00     0.031 C 
ATOM     60  C   UNL     1      -5.472  -6.899 -23.362  1.00  0.00     0.031 A 
BRANCH  47  61
ATOM     61  C   UNL     1       0.487  -5.326 -23.057  1.00  0.00    -0.014 A 
ATOM     62  C   UNL     1       1.577  -6.049 -23.567  1.00  0.00     0.009 A 
ATOM     63  C   UNL     1       0.474  -3.929 -23.192  1.00  0.00     0.009 A 
ATOM     64  C   UNL     1       2.647  -5.383 -24.169  1.00  0.00     0.001 A 
ATOM     65  C   UNL     1       1.533  -3.268 -23.818  1.00  0.00     0.001 A 
ATOM     66  C   UNL     1       2.622  -3.995 -24.298  1.00  0.00     0.000 A 
ENDBRANCH  47  61
BRANCH  48  67
ATOM     67  C   UNL     1      -7.072  -9.690 -18.244  1.00  0.00    -0.014 A 
ATOM     68  C   UNL     1      -7.627 -10.903 -18.680  1.00  0.00     0.009 A 
ATOM     69  C   UNL     1      -7.625  -9.055 -17.121  1.00  0.00     0.009 A 
ATOM     70  C   UNL     1      -8.730 -11.454 -18.023  1.00  0.00     0.001 A 
ATOM     71  C   UNL     1      -8.712  -9.622 -16.451  1.00  0.00     0.001 A 
ATOM     72  C   UNL     1      -9.269 -10.815 -16.908  1.00  0.00     0.000 A 
ENDBRANCH  48  67
BRANCH  60  73
ATOM     73  C   UNL     1      -6.449  -6.668 -24.479  1.00  0.00    -0.014 A 
ATOM     74  C   UNL     1      -7.444  -5.683 -24.381  1.00  0.00     0.009 A 
ATOM     75  C   UNL     1      -6.341  -7.416 -25.662  1.00  0.00     0.009 A 
ATOM     76  C   UNL     1      -8.330  -5.471 -25.439  1.00  0.00     0.001 A 
ATOM     77  C   UNL     1      -7.213  -7.183 -26.727  1.00  0.00     0.001 A 
ATOM     78  C   UNL     1      -8.210  -6.217 -26.611  1.00  0.00     0.000 A 
ENDBRANCH  60  73
ENDBRANCH  34  35
ENDBRANCH  26  29
ENDBRANCH  24  25
ENDBRANCH  23  24
ENDBRANCH   1  23
TORSDOF 13
