REMARK SMILES COc1ccc(NC(=O)N[C@@H]2C=C[C@H](C(=O)NCCCCNC(=O)c3ccc(-c4c5nc(c(-c6ccccc6)c6ccc([nH]6)c(-c6ccccc6)c6nc(c(-c7ccccc7)c7ccc4[nH]7)C=C6)C=C5)cc3)C2)c(C)c1
REMARK SMILES IDX 19 1 18 2 17 3 15 4 16 5 14 7 11 8 12 9 73 10 13 11 10 12
REMARK SMILES IDX 7 13 8 14 9 16 6 18 3 19 4 20 76 21 5 22 74 23 75 24 2 25
REMARK SMILES IDX 1 26 20 27 21 28 22 29 23 30 24 32 25 33 26 34 72 35 27 36
REMARK SMILES IDX 71 37 28 38 29 39 30 40 65 41 31 42 70 43 64 44 66 45 32 46
REMARK SMILES IDX 69 47 63 48 62 49 33 51 55 52 40 53 54 54 41 55 44 56 53 57
REMARK SMILES IDX 67 58 42 59 43 60 52 62 68 63 45 64 34 65 35 66 39 67 36 68
REMARK SMILES IDX 38 69 37 70 56 71 57 72 61 73 58 74 60 75 59 76 46 77 47 78
REMARK SMILES IDX 51 79 48 80 50 81 49 82
REMARK H PARENT 17 6 7 15 10 17 22 31 66 50 44 61
REMARK Flexibility Score: inf
ROOT
ATOM      1  C   UNL     1      -1.155   3.039   2.249  1.00  0.00     0.023 C 
ENDROOT
BRANCH   1   2
ATOM      2  C   UNL     1      -0.932   1.561   2.597  1.00  0.00     0.116 C 
BRANCH   2   3
ATOM      3  N   UNL     1      -0.276   0.810   1.546  1.00  0.00    -0.356 N 
ATOM      4  C   UNL     1       1.038   0.518   1.348  1.00  0.00     0.227 C 
ATOM      5  O   UNL     1       1.319  -0.158   0.356  1.00  0.00    -0.274 OA
ATOM      6  H   UNL     1      -0.883   0.450   0.860  1.00  0.00     0.163 HD
BRANCH   4   7
ATOM      7  C   UNL     1       2.081   0.999   2.356  1.00  0.00     0.103 C 
ATOM      8  C   UNL     1       3.925   2.597   2.524  1.00  0.00     0.107 C 
ATOM      9  C   UNL     1       4.397   1.249   2.079  1.00  0.00    -0.006 C 
ATOM     10  C   UNL     1       2.422   2.495   2.217  1.00  0.00     0.047 C 
ATOM     11  C   UNL     1       3.406   0.357   2.060  1.00  0.00    -0.016 C 
BRANCH   8  12
ATOM     12  N   UNL     1       4.657   3.593   1.790  1.00  0.00    -0.332 N 
ATOM     13  N   UNL     1       6.557   4.334   3.087  1.00  0.00    -0.308 N 
ATOM     14  C   UNL     1       5.779   4.294   1.989  1.00  0.00     0.319 C 
ATOM     15  H   UNL     1       7.263   5.012   2.986  1.00  0.00     0.171 HD
ATOM     16  O   UNL     1       6.100   5.060   1.069  1.00  0.00    -0.248 OA
ATOM     17  H   UNL     1       4.226   3.815   0.933  1.00  0.00     0.165 HD
BRANCH  13  18
ATOM     18  C   UNL     1       6.659   3.694   4.337  1.00  0.00     0.046 A 
ATOM     19  C   UNL     1       6.451   2.599   6.940  1.00  0.00     0.119 A 
ATOM     20  C   UNL     1       6.033   1.875   5.840  1.00  0.00     0.048 A 
ATOM     21  C   UNL     1       7.142   3.790   6.719  1.00  0.00     0.052 A 
ATOM     22  C   UNL     1       6.195   2.409   4.561  1.00  0.00     0.030 A 
ATOM     23  C   UNL     1       7.284   4.338   5.422  1.00  0.00    -0.024 A 
ATOM     24  C   UNL     1       8.209   5.518   5.280  1.00  0.00     0.047 C 
BRANCH  19  25
ATOM     25  O   UNL     1       6.304   2.215   8.242  1.00  0.00    -0.497 OA
ATOM     26  C   UNL     1       5.415   1.125   8.474  1.00  0.00     0.278 C 
ENDBRANCH  19  25
ENDBRANCH  13  18
ENDBRANCH   8  12
ENDBRANCH   4   7
ENDBRANCH   2   3
ENDBRANCH   1   2
BRANCH   1  27
ATOM     27  C   UNL     1      -1.605   3.338   0.817  1.00  0.00     0.023 C 
BRANCH  27  28
ATOM     28  C   UNL     1      -2.889   2.645   0.392  1.00  0.00     0.116 C 
BRANCH  28  29
ATOM     29  N   UNL     1      -4.114   3.312   0.804  1.00  0.00    -0.352 N 
ATOM     30  C   UNL     1      -5.413   2.827   0.805  1.00  0.00     0.251 C 
ATOM     31  H   UNL     1      -4.006   4.236   1.126  1.00  0.00     0.163 HD
ATOM     32  O   UNL     1      -6.338   3.549   1.139  1.00  0.00    -0.269 OA
BRANCH  30  33
ATOM     33  C   UNL     1      -5.657   1.385   0.533  1.00  0.00     0.039 A 
ATOM     34  C   UNL     1      -6.516   0.696   1.397  1.00  0.00     0.014 A 
ATOM     35  C   UNL     1      -4.906   0.682  -0.407  1.00  0.00     0.014 A 
ATOM     36  C   UNL     1      -6.421  -0.690   1.494  1.00  0.00     0.010 A 
ATOM     37  C   UNL     1      -4.733  -0.680  -0.245  1.00  0.00     0.010 A 
ATOM     38  C   UNL     1      -5.438  -1.352   0.754  1.00  0.00    -0.014 A 
BRANCH  38  39
ATOM     39  C   UNL     1      -5.007  -2.709   1.061  1.00  0.00     0.031 A 
ATOM     40  C   UNL     1      -5.528  -3.850   0.290  1.00  0.00     0.074 A 
ATOM     41  C   UNL     1      -4.151  -2.940   2.082  1.00  0.00     0.049 A 
ATOM     42  N   UNL     1      -5.832  -4.991   0.814  1.00  0.00    -0.248 NA
ATOM     43  C   UNL     1      -5.779  -3.770  -1.144  1.00  0.00     0.031 C 
ATOM     44  C   UNL     1      -3.516  -4.209   2.427  1.00  0.00     0.029 A 
ATOM     45  N   UNL     1      -3.864  -2.110   3.167  1.00  0.00    -0.354 N 
ATOM     46  C   UNL     1      -6.021  -5.863  -0.231  1.00  0.00     0.074 A 
ATOM     47  C   UNL     1      -6.080  -5.043  -1.421  1.00  0.00     0.031 C 
ATOM     48  C   UNL     1      -3.195  -4.184   3.731  1.00  0.00     0.029 A 
ATOM     49  C   UNL     1      -3.727  -2.948   4.284  1.00  0.00     0.049 A 
ATOM     50  H   UNL     1      -3.774  -1.130   3.151  1.00  0.00     0.167 HD
ATOM     51  C   UNL     1      -5.928  -7.207  -0.040  1.00  0.00     0.031 A 
ATOM     52  C   UNL     1      -4.487  -2.842   5.411  1.00  0.00     0.031 A 
ATOM     53  C   UNL     1      -5.586  -7.558   1.331  1.00  0.00     0.049 A 
ATOM     54  C   UNL     1      -5.214  -4.121   5.763  1.00  0.00     0.074 A 
ATOM     55  C   UNL     1      -4.383  -7.889   1.933  1.00  0.00     0.029 A 
ATOM     56  N   UNL     1      -6.485  -7.302   2.358  1.00  0.00    -0.354 N 
ATOM     57  N   UNL     1      -5.395  -5.104   4.927  1.00  0.00    -0.248 NA
ATOM     58  C   UNL     1      -5.874  -4.352   7.046  1.00  0.00     0.031 C 
ATOM     59  C   UNL     1      -4.548  -7.788   3.334  1.00  0.00     0.029 A 
ATOM     60  C   UNL     1      -5.855  -7.413   3.583  1.00  0.00     0.049 A 
ATOM     61  H   UNL     1      -7.434  -7.075   2.231  1.00  0.00     0.167 HD
ATOM     62  C   UNL     1      -6.191  -6.058   5.507  1.00  0.00     0.074 A 
ATOM     63  C   UNL     1      -6.452  -5.549   6.840  1.00  0.00     0.031 C 
ATOM     64  C   UNL     1      -6.584  -7.168   4.819  1.00  0.00     0.031 A 
BRANCH  51  65
ATOM     65  C   UNL     1      -5.804  -8.149  -1.206  1.00  0.00    -0.014 A 
ATOM     66  C   UNL     1      -4.876  -9.204  -1.161  1.00  0.00     0.009 A 
ATOM     67  C   UNL     1      -6.542  -8.005  -2.393  1.00  0.00     0.009 A 
ATOM     68  C   UNL     1      -4.621 -10.009  -2.277  1.00  0.00     0.001 A 
ATOM     69  C   UNL     1      -6.265  -8.784  -3.525  1.00  0.00     0.001 A 
ATOM     70  C   UNL     1      -5.294  -9.778  -3.470  1.00  0.00     0.000 A 
ENDBRANCH  51  65
BRANCH  52  71
ATOM     71  C   UNL     1      -5.062  -1.490   5.643  1.00  0.00    -0.014 A 
ATOM     72  C   UNL     1      -4.194  -0.427   5.959  1.00  0.00     0.009 A 
ATOM     73  C   UNL     1      -6.361  -1.192   5.207  1.00  0.00     0.009 A 
ATOM     74  C   UNL     1      -4.583   0.898   5.745  1.00  0.00     0.001 A 
ATOM     75  C   UNL     1      -6.748   0.137   5.002  1.00  0.00     0.001 A 
ATOM     76  C   UNL     1      -5.850   1.177   5.239  1.00  0.00     0.000 A 
ENDBRANCH  52  71
BRANCH  64  77
ATOM     77  C   UNL     1      -7.626  -8.173   5.247  1.00  0.00    -0.014 A 
ATOM     78  C   UNL     1      -8.629  -7.925   6.192  1.00  0.00     0.009 A 
ATOM     79  C   UNL     1      -7.692  -9.413   4.568  1.00  0.00     0.009 A 
ATOM     80  C   UNL     1      -9.620  -8.878   6.471  1.00  0.00     0.001 A 
ATOM     81  C   UNL     1      -8.703 -10.346   4.811  1.00  0.00     0.001 A 
ATOM     82  C   UNL     1      -9.663 -10.081   5.774  1.00  0.00     0.000 A 
ENDBRANCH  64  77
ENDBRANCH  38  39
ENDBRANCH  30  33
ENDBRANCH  28  29
ENDBRANCH  27  28
ENDBRANCH   1  27
TORSDOF 14
