REMARK SMILES CCN(CC)C(=O)[C@H](C)SCC(=O)NCCCCNC(=O)c1ccc(-c2c3nc(c(-c4ccccc4)c4ccc([nH]4)c(-c4ccccc4)c4nc(c(-c5ccccc5)c5ccc2[nH]5)C=C4)C=C3)cc1
REMARK SMILES IDX 15 1 14 2 12 3 13 4 11 6 10 7 8 8 9 9 6 10 3 11 7 12 2 13
REMARK SMILES IDX 1 14 4 15 5 16 16 17 17 18 18 19 19 20 20 21 21 23 22 24
REMARK SMILES IDX 23 25 69 26 24 27 68 28 25 29 26 30 27 31 62 32 28 33 67 34
REMARK SMILES IDX 61 35 63 36 29 37 66 38 60 39 59 40 30 42 52 43 37 44 51 45
REMARK SMILES IDX 38 46 41 47 50 48 64 49 39 50 40 51 49 53 65 54 42 55 31 56
REMARK SMILES IDX 32 57 36 58 33 59 35 60 34 61 53 62 54 63 58 64 55 65 57 66
REMARK SMILES IDX 56 67 43 68 44 69 48 70 45 71 47 72 46 73
REMARK H PARENT 14 5 19 22 63 41 41 52
REMARK Flexibility Score: inf
ROOT
ATOM      1  C   UNL     1       0.405  -7.940  -0.546  1.00  0.00     0.116 C 
ENDROOT
BRANCH   1   2
ATOM      2  N   UNL     1       0.046  -6.816   0.298  1.00  0.00    -0.355 N 
ATOM      3  C   UNL     1      -0.265  -5.522   0.011  1.00  0.00     0.230 C 
ATOM      4  O   UNL     1      -0.809  -4.881   0.915  1.00  0.00    -0.274 OA
ATOM      5  H   UNL     1       0.023  -7.029   1.259  1.00  0.00     0.163 HD
BRANCH   3   6
ATOM      6  C   UNL     1      -0.065  -4.901  -1.350  1.00  0.00     0.170 C 
BRANCH   6   7
ATOM      7  S   UNL     1       1.596  -4.341  -1.829  1.00  0.00    -0.139 SA
BRANCH   7   8
ATOM      8  C   UNL     1       2.335  -3.360  -0.445  1.00  0.00     0.133 C 
ATOM      9  C   UNL     1       1.990  -1.877  -0.582  1.00  0.00     0.030 C 
BRANCH   8  10
ATOM     10  C   UNL     1       2.067  -3.869   0.964  1.00  0.00     0.235 C 
ATOM     11  N   UNL     1       2.634  -5.072   1.397  1.00  0.00    -0.342 N 
ATOM     12  O   UNL     1       1.374  -3.188   1.728  1.00  0.00    -0.274 OA
BRANCH  11  13
ATOM     13  C   UNL     1       2.188  -5.526   2.722  1.00  0.00     0.116 C 
ATOM     14  C   UNL     1       3.091  -5.054   3.851  1.00  0.00     0.027 C 
ENDBRANCH  11  13
BRANCH  11  15
ATOM     15  C   UNL     1       3.873  -5.693   0.896  1.00  0.00     0.116 C 
ATOM     16  C   UNL     1       3.996  -6.049  -0.576  1.00  0.00     0.027 C 
ENDBRANCH  11  15
ENDBRANCH   8  10
ENDBRANCH   7   8
ENDBRANCH   6   7
ENDBRANCH   3   6
ENDBRANCH   1   2
BRANCH   1  17
ATOM     17  C   UNL     1       1.667  -8.679  -0.094  1.00  0.00     0.023 C 
BRANCH  17  18
ATOM     18  C   UNL     1       1.724  -9.104   1.370  1.00  0.00     0.023 C 
BRANCH  18  19
ATOM     19  C   UNL     1       1.141 -10.475   1.626  1.00  0.00     0.116 C 
BRANCH  19  20
ATOM     20  N   UNL     1       1.926 -11.533   1.009  1.00  0.00    -0.352 N 
ATOM     21  C   UNL     1       2.342 -12.730   1.542  1.00  0.00     0.251 C 
ATOM     22  H   UNL     1       2.197 -11.369   0.077  1.00  0.00     0.163 HD
ATOM     23  O   UNL     1       3.132 -13.434   0.931  1.00  0.00    -0.269 OA
BRANCH  21  24
ATOM     24  C   UNL     1       1.849 -13.141   2.873  1.00  0.00     0.039 A 
ATOM     25  C   UNL     1       2.728 -13.766   3.759  1.00  0.00     0.014 A 
ATOM     26  C   UNL     1       0.528 -12.892   3.251  1.00  0.00     0.014 A 
ATOM     27  C   UNL     1       2.286 -14.105   5.036  1.00  0.00     0.010 A 
ATOM     28  C   UNL     1       0.132 -13.104   4.561  1.00  0.00     0.010 A 
ATOM     29  C   UNL     1       0.992 -13.755   5.453  1.00  0.00    -0.014 A 
BRANCH  29  30
ATOM     30  C   UNL     1       0.488 -14.128   6.793  1.00  0.00     0.031 A 
ATOM     31  C   UNL     1      -0.705 -15.041   6.908  1.00  0.00     0.074 A 
ATOM     32  C   UNL     1       1.075 -13.616   7.892  1.00  0.00     0.049 A 
ATOM     33  N   UNL     1      -1.311 -15.476   7.982  1.00  0.00    -0.248 NA
ATOM     34  C   UNL     1      -1.324 -15.498   5.650  1.00  0.00     0.031 C 
ATOM     35  C   UNL     1       2.196 -12.672   7.895  1.00  0.00     0.029 A 
ATOM     36  N   UNL     1       0.812 -13.824   9.220  1.00  0.00    -0.354 N 
ATOM     37  C   UNL     1      -2.388 -16.227   7.527  1.00  0.00     0.074 A 
ATOM     38  C   UNL     1      -2.399 -16.134   6.087  1.00  0.00     0.031 C 
ATOM     39  C   UNL     1       2.555 -12.422   9.165  1.00  0.00     0.029 A 
ATOM     40  C   UNL     1       1.666 -13.153  10.060  1.00  0.00     0.049 A 
ATOM     41  H   UNL     1       0.081 -14.400   9.541  1.00  0.00     0.167 HD
ATOM     42  C   UNL     1      -3.272 -16.959   8.243  1.00  0.00     0.031 A 
ATOM     43  C   UNL     1       1.725 -13.137  11.405  1.00  0.00     0.031 A 
ATOM     44  C   UNL     1      -3.232 -17.071   9.674  1.00  0.00     0.049 A 
ATOM     45  C   UNL     1       0.749 -13.982  12.176  1.00  0.00     0.074 A 
ATOM     46  C   UNL     1      -4.032 -17.837  10.502  1.00  0.00     0.029 A 
ATOM     47  N   UNL     1      -2.336 -16.396  10.489  1.00  0.00    -0.354 N 
ATOM     48  N   UNL     1      -0.213 -14.754  11.728  1.00  0.00    -0.248 NA
ATOM     49  C   UNL     1       0.882 -13.971  13.638  1.00  0.00     0.031 C 
ATOM     50  C   UNL     1      -3.655 -17.581  11.824  1.00  0.00     0.029 A 
ATOM     51  C   UNL     1      -2.576 -16.710  11.814  1.00  0.00     0.049 A 
ATOM     52  H   UNL     1      -1.633 -15.784  10.171  1.00  0.00     0.167 HD
ATOM     53  C   UNL     1      -0.779 -15.344  12.850  1.00  0.00     0.074 A 
ATOM     54  C   UNL     1      -0.035 -14.858  13.995  1.00  0.00     0.031 C 
ATOM     55  C   UNL     1      -1.819 -16.210  12.932  1.00  0.00     0.031 A 
BRANCH  42  56
ATOM     56  C   UNL     1      -4.349 -17.688   7.487  1.00  0.00    -0.014 A 
ATOM     57  C   UNL     1      -4.050 -18.770   6.643  1.00  0.00     0.009 A 
ATOM     58  C   UNL     1      -5.690 -17.303   7.641  1.00  0.00     0.009 A 
ATOM     59  C   UNL     1      -5.064 -19.426   5.941  1.00  0.00     0.001 A 
ATOM     60  C   UNL     1      -6.706 -17.981   6.966  1.00  0.00     0.001 A 
ATOM     61  C   UNL     1      -6.392 -19.035   6.109  1.00  0.00     0.000 A 
ENDBRANCH  42  56
BRANCH  43  62
ATOM     62  C   UNL     1       2.754 -12.321  12.102  1.00  0.00    -0.014 A 
ATOM     63  C   UNL     1       3.798 -12.935  12.812  1.00  0.00     0.009 A 
ATOM     64  C   UNL     1       2.692 -10.919  12.071  1.00  0.00     0.009 A 
ATOM     65  C   UNL     1       4.733 -12.164  13.507  1.00  0.00     0.001 A 
ATOM     66  C   UNL     1       3.648 -10.150  12.738  1.00  0.00     0.001 A 
ATOM     67  C   UNL     1       4.660 -10.773  13.467  1.00  0.00     0.000 A 
ENDBRANCH  43  62
BRANCH  55  68
ATOM     68  C   UNL     1      -2.177 -16.716  14.300  1.00  0.00    -0.014 A 
ATOM     69  C   UNL     1      -2.757 -15.878  15.265  1.00  0.00     0.009 A 
ATOM     70  C   UNL     1      -1.951 -18.065  14.617  1.00  0.00     0.009 A 
ATOM     71  C   UNL     1      -3.054 -16.369  16.537  1.00  0.00     0.001 A 
ATOM     72  C   UNL     1      -2.285 -18.562  15.876  1.00  0.00     0.001 A 
ATOM     73  C   UNL     1      -2.822 -17.711  16.839  1.00  0.00     0.000 A 
ENDBRANCH  55  68
ENDBRANCH  29  30
ENDBRANCH  21  24
ENDBRANCH  19  20
ENDBRANCH  18  19
ENDBRANCH  17  18
ENDBRANCH   1  17
TORSDOF 16
