REMARK SMILES O=C(NCCCCNC(=O)c1ccc(C[N@H+]2CC[N@H+]3CCCC[C@@H]3C2)c(F)c1)c1ccc(-c2c3nc(c(-c4ccccc4)c4ccc([nH]4)c(-c4ccccc4)c4nc(c(-c5ccccc5)c5ccc2[nH]5)C=C4)C=C3)cc1
REMARK SMILES IDX 5 1 4 2 3 3 1 4 2 5 29 7 30 8 76 9 31 10 75 11 32 12 33 13
REMARK SMILES IDX 34 14 69 15 35 16 74 17 68 18 70 19 36 20 73 21 67 22 66 23
REMARK SMILES IDX 37 25 59 26 44 27 58 28 45 29 48 30 57 31 71 32 46 33 47 34
REMARK SMILES IDX 56 36 72 37 49 38 38 39 39 40 43 41 40 42 42 43 41 44 60 45
REMARK SMILES IDX 61 46 65 47 62 48 64 49 63 50 50 51 51 52 55 53 52 54 54 55
REMARK SMILES IDX 53 56 6 57 7 58 8 59 9 60 10 62 11 63 12 64 28 65 13 66
REMARK SMILES IDX 26 67 14 68 27 69 15 70 16 71 17 72 25 73 18 75 24 76 19 77
REMARK SMILES IDX 23 78 20 79 22 81 21 82
REMARK H PARENT 3 6 70 24 48 35 8 61 16 74 19 80
REMARK Flexibility Score: inf
ROOT
ATOM      1  C   UNL     1       5.444   1.821   1.932  1.00  0.00     0.023 C 
ENDROOT
BRANCH   1   2
ATOM      2  C   UNL     1       4.907   0.665   1.094  1.00  0.00     0.116 C 
BRANCH   2   3
ATOM      3  N   UNL     1       3.455   0.544   1.098  1.00  0.00    -0.352 N 
ATOM      4  O   UNL     1       1.398   0.226   0.214  1.00  0.00    -0.269 OA
ATOM      5  C   UNL     1       2.615   0.223   0.055  1.00  0.00     0.251 C 
ATOM      6  H   UNL     1       3.016   0.716   1.962  1.00  0.00     0.163 HD
BRANCH   5   7
ATOM      7  C   UNL     1       3.187  -0.081  -1.275  1.00  0.00     0.039 A 
ATOM      8  C   UNL     1       4.276  -0.945  -1.399  1.00  0.00     0.014 A 
ATOM      9  C   UNL     1       2.652   0.543  -2.406  1.00  0.00     0.014 A 
ATOM     10  C   UNL     1       4.933  -1.052  -2.619  1.00  0.00     0.010 A 
ATOM     11  C   UNL     1       3.264   0.366  -3.650  1.00  0.00     0.010 A 
ATOM     12  C   UNL     1       4.436  -0.398  -3.758  1.00  0.00    -0.014 A 
BRANCH  12  13
ATOM     13  C   UNL     1       5.140  -0.563  -5.054  1.00  0.00     0.031 A 
ATOM     14  C   UNL     1       5.817   0.598  -5.729  1.00  0.00     0.074 A 
ATOM     15  C   UNL     1       5.207  -1.792  -5.601  1.00  0.00     0.049 A 
ATOM     16  N   UNL     1       6.504   0.614  -6.845  1.00  0.00    -0.248 NA
ATOM     17  C   UNL     1       5.712   1.911  -5.072  1.00  0.00     0.031 C 
ATOM     18  C   UNL     1       4.597  -2.999  -5.037  1.00  0.00     0.029 A 
ATOM     19  N   UNL     1       5.838  -2.235  -6.734  1.00  0.00    -0.354 N 
ATOM     20  C   UNL     1       6.895   1.933  -7.034  1.00  0.00     0.074 A 
ATOM     21  C   UNL     1       6.353   2.695  -5.929  1.00  0.00     0.031 C 
ATOM     22  C   UNL     1       4.929  -4.053  -5.796  1.00  0.00     0.029 A 
ATOM     23  C   UNL     1       5.717  -3.589  -6.932  1.00  0.00     0.049 A 
ATOM     24  H   UNL     1       6.329  -1.641  -7.346  1.00  0.00     0.167 HD
ATOM     25  C   UNL     1       7.640   2.461  -8.035  1.00  0.00     0.031 A 
ATOM     26  C   UNL     1       6.176  -4.373  -7.923  1.00  0.00     0.031 A 
ATOM     27  C   UNL     1       8.181   1.703  -9.134  1.00  0.00     0.049 A 
ATOM     28  C   UNL     1       6.963  -3.755  -9.040  1.00  0.00     0.074 A 
ATOM     29  C   UNL     1       8.967   2.146 -10.184  1.00  0.00     0.029 A 
ATOM     30  N   UNL     1       7.989   0.343  -9.326  1.00  0.00    -0.354 N 
ATOM     31  N   UNL     1       7.336  -2.508  -9.193  1.00  0.00    -0.248 NA
ATOM     32  C   UNL     1       7.388  -4.653 -10.121  1.00  0.00     0.031 C 
ATOM     33  C   UNL     1       9.212   1.064 -11.037  1.00  0.00     0.029 A 
ATOM     34  C   UNL     1       8.621  -0.063 -10.490  1.00  0.00     0.049 A 
ATOM     35  H   UNL     1       7.479  -0.246  -8.725  1.00  0.00     0.167 HD
ATOM     36  C   UNL     1       8.049  -2.473 -10.383  1.00  0.00     0.074 A 
ATOM     37  C   UNL     1       8.075  -3.827 -10.898  1.00  0.00     0.031 C 
ATOM     38  C   UNL     1       8.627  -1.411 -10.995  1.00  0.00     0.031 A 
BRANCH  25  39
ATOM     39  C   UNL     1       7.897   3.942  -8.006  1.00  0.00    -0.014 A 
ATOM     40  C   UNL     1       8.801   4.508  -7.094  1.00  0.00     0.009 A 
ATOM     41  C   UNL     1       7.266   4.777  -8.943  1.00  0.00     0.009 A 
ATOM     42  C   UNL     1       9.046   5.884  -7.103  1.00  0.00     0.001 A 
ATOM     43  C   UNL     1       7.530   6.147  -8.964  1.00  0.00     0.001 A 
ATOM     44  C   UNL     1       8.415   6.701  -8.040  1.00  0.00     0.000 A 
ENDBRANCH  25  39
BRANCH  26  45
ATOM     45  C   UNL     1       5.884  -5.828  -7.904  1.00  0.00    -0.014 A 
ATOM     46  C   UNL     1       6.902  -6.757  -7.648  1.00  0.00     0.009 A 
ATOM     47  C   UNL     1       4.575  -6.291  -8.118  1.00  0.00     0.009 A 
ATOM     48  C   UNL     1       6.617  -8.124  -7.619  1.00  0.00     0.001 A 
ATOM     49  C   UNL     1       4.289  -7.655  -8.061  1.00  0.00     0.001 A 
ATOM     50  C   UNL     1       5.311  -8.571  -7.819  1.00  0.00     0.000 A 
ENDBRANCH  26  45
BRANCH  38  51
ATOM     51  C   UNL     1       9.352  -1.683 -12.281  1.00  0.00    -0.014 A 
ATOM     52  C   UNL     1       8.650  -1.939 -13.469  1.00  0.00     0.009 A 
ATOM     53  C   UNL     1      10.755  -1.660 -12.308  1.00  0.00     0.009 A 
ATOM     54  C   UNL     1       9.341  -2.201 -14.653  1.00  0.00     0.001 A 
ATOM     55  C   UNL     1      11.442  -1.897 -13.499  1.00  0.00     0.001 A 
ATOM     56  C   UNL     1      10.735  -2.176 -14.668  1.00  0.00     0.000 A 
ENDBRANCH  38  51
ENDBRANCH  12  13
ENDBRANCH   5   7
ENDBRANCH   2   3
ENDBRANCH   1   2
BRANCH   1  57
ATOM     57  C   UNL     1       5.118   1.756   3.422  1.00  0.00     0.023 C 
BRANCH  57  58
ATOM     58  C   UNL     1       5.656   0.529   4.162  1.00  0.00     0.116 C 
BRANCH  58  59
ATOM     59  N   UNL     1       7.093   0.598   4.362  1.00  0.00    -0.352 N 
ATOM     60  C   UNL     1       7.795   0.849   5.518  1.00  0.00     0.251 C 
ATOM     61  H   UNL     1       7.641   0.444   3.559  1.00  0.00     0.163 HD
ATOM     62  O   UNL     1       9.011   1.001   5.493  1.00  0.00    -0.269 OA
BRANCH  60  63
ATOM     63  C   UNL     1       7.076   0.959   6.800  1.00  0.00     0.042 A 
ATOM     64  C   UNL     1       6.480  -0.164   7.381  1.00  0.00     0.014 A 
ATOM     65  C   UNL     1       7.020   2.198   7.434  1.00  0.00     0.053 A 
ATOM     66  C   UNL     1       5.747  -0.022   8.565  1.00  0.00     0.013 A 
ATOM     67  C   UNL     1       6.271   2.327   8.600  1.00  0.00     0.132 A 
ATOM     68  C   UNL     1       5.577   1.244   9.152  1.00  0.00     0.042 A 
ATOM     69  F   UNL     1       6.179   3.538   9.168  1.00  0.00    -0.206 F 
BRANCH  68  70
ATOM     70  C   UNL     1       4.651   1.443  10.331  1.00  0.00     0.302 C 
BRANCH  70  71
ATOM     71  N   UNL     1       3.238   1.757  10.070  1.00  0.00    -0.322 N 
ATOM     72  C   UNL     1       2.965   3.055   9.437  1.00  0.00     0.324 C 
ATOM     73  C   UNL     1       2.436   0.698   9.444  1.00  0.00     0.328 C 
ATOM     74  H   UNL     1       2.914   1.829  11.034  1.00  0.00     0.348 HD
ATOM     75  C   UNL     1       2.911   3.065   7.888  1.00  0.00     0.324 C 
ATOM     76  C   UNL     1       2.511   0.673   7.899  1.00  0.00     0.239 C 
ATOM     77  N   UNL     1       2.125   1.962   7.287  1.00  0.00    -0.323 N 
ATOM     78  C   UNL     1       1.663  -0.467   7.322  1.00  0.00     0.071 C 
ATOM     79  C   UNL     1       2.353   1.928   5.836  1.00  0.00     0.262 C 
ATOM     80  H   UNL     1       1.133   2.120   7.463  1.00  0.00     0.348 HD
ATOM     81  C   UNL     1       1.921  -0.577   5.823  1.00  0.00     0.012 C 
ATOM     82  C   UNL     1       1.645   0.759   5.142  1.00  0.00     0.062 C 
ENDBRANCH  70  71
ENDBRANCH  68  70
ENDBRANCH  60  63
ENDBRANCH  58  59
ENDBRANCH  57  58
ENDBRANCH   1  57
TORSDOF 13
