REMARK SMILES C[C@@H](CCC(=O)NCCCCNC(=O)c1ccc(-c2c3nc(c(-c4ccccc4)c4ccc([nH]4)c(-c4ccccc4)c4nc(c(-c5ccccc5)c5ccc2[nH]5)C=C4)C=C3)cc1)[C@@H]1CC[C@H]2[C@@H]3CC[C@H]4CC(=O)CC[C@@]4(C)[C@H]3CC(=O)[C@@]21C
REMARK SMILES IDX 9 1 8 2 7 3 5 4 6 5 4 7 3 8 2 9 1 10 63 11 64 12 82 13 65 14
REMARK SMILES IDX 66 15 80 16 83 17 67 18 79 19 81 20 68 21 78 22 69 23 76 24
REMARK SMILES IDX 70 25 75 26 77 27 71 28 74 29 72 30 73 31 10 32 11 33 12 34
REMARK SMILES IDX 13 35 14 37 15 38 16 39 62 40 17 41 61 42 18 43 19 44 20 45
REMARK SMILES IDX 55 46 21 47 60 48 54 49 56 50 22 51 59 52 53 53 52 54 23 56
REMARK SMILES IDX 45 57 30 58 44 59 31 60 34 61 43 62 57 63 32 64 33 65 42 67
REMARK SMILES IDX 58 68 35 69 24 70 25 71 29 72 26 73 28 74 27 75 46 76 47 77
REMARK SMILES IDX 51 78 48 79 50 80 49 81 36 82 37 83 41 84 38 85 40 86 39 87
REMARK H PARENT 7 6 12 36 56 55 34 66
REMARK Flexibility Score: inf
ROOT
ATOM      1  C   UNL     1       1.874  -0.350  -1.442  1.00  0.00     0.023 C 
ENDROOT
BRANCH   1   2
ATOM      2  C   UNL     1       1.853  -1.069  -2.788  1.00  0.00     0.116 C 
BRANCH   2   3
ATOM      3  N   UNL     1       0.655  -1.859  -3.014  1.00  0.00    -0.356 N 
ATOM      4  C   UNL     1      -0.446  -1.608  -3.779  1.00  0.00     0.220 C 
ATOM      5  O   UNL     1      -1.287  -2.503  -3.893  1.00  0.00    -0.275 OA
ATOM      6  H   UNL     1       0.634  -2.719  -2.534  1.00  0.00     0.163 HD
BRANCH   4   7
ATOM      7  C   UNL     1      -0.645  -0.256  -4.440  1.00  0.00     0.100 C 
BRANCH   7   8
ATOM      8  C   UNL     1      -1.897   0.526  -3.978  1.00  0.00     0.013 C 
BRANCH   8   9
ATOM      9  C   UNL     1      -1.945   1.052  -2.491  1.00  0.00    -0.010 C 
ATOM     10  C   UNL     1      -0.765   1.995  -2.287  1.00  0.00     0.008 C 
BRANCH   9  11
ATOM     11  C   UNL     1      -2.274  -0.150  -1.537  1.00  0.00     0.005 C 
ATOM     12  C   UNL     1      -3.796  -0.487  -1.778  1.00  0.00     0.005 C 
ATOM     13  C   UNL     1      -2.154  -0.324   0.015  1.00  0.00     0.032 C 
ATOM     14  C   UNL     1      -4.497  -0.514  -0.421  1.00  0.00     0.005 C 
ATOM     15  C   UNL     1      -3.517   0.173   0.522  1.00  0.00     0.006 C 
ATOM     16  C   UNL     1      -1.129   0.385   0.895  1.00  0.00     0.139 C 
ATOM     17  C   UNL     1      -1.952  -1.864   0.248  1.00  0.00     0.020 C 
ATOM     18  C   UNL     1      -3.779  -0.088   2.022  1.00  0.00    -0.003 C 
ATOM     19  C   UNL     1      -1.223   0.089   2.392  1.00  0.00     0.080 C 
ATOM     20  O   UNL     1      -0.254   1.132   0.470  1.00  0.00    -0.299 OA
ATOM     21  C   UNL     1      -5.090   0.589   2.452  1.00  0.00     0.004 C 
ATOM     22  C   UNL     1      -2.622   0.429   2.928  1.00  0.00     0.006 C 
ATOM     23  C   UNL     1      -5.380   0.429   3.938  1.00  0.00     0.005 C 
ATOM     24  C   UNL     1      -2.873   0.073   4.452  1.00  0.00    -0.025 C 
ATOM     25  C   UNL     1      -4.191   0.797   4.852  1.00  0.00     0.002 C 
ATOM     26  C   UNL     1      -2.967  -1.454   4.750  1.00  0.00     0.015 C 
ATOM     27  C   UNL     1      -1.689   0.614   5.300  1.00  0.00     0.012 C 
ATOM     28  C   UNL     1      -4.558   0.556   6.314  1.00  0.00     0.079 C 
ATOM     29  C   UNL     1      -4.006  -1.933   5.777  1.00  0.00     0.076 C 
ATOM     30  C   UNL     1      -4.758  -0.906   6.596  1.00  0.00     0.133 C 
ATOM     31  O   UNL     1      -5.528  -1.268   7.490  1.00  0.00    -0.300 OA
ENDBRANCH   9  11
ENDBRANCH   8   9
ENDBRANCH   7   8
ENDBRANCH   4   7
ENDBRANCH   2   3
ENDBRANCH   1   2
BRANCH   1  32
ATOM     32  C   UNL     1       1.839  -1.277  -0.240  1.00  0.00     0.023 C 
BRANCH  32  33
ATOM     33  C   UNL     1       2.823  -0.940   0.864  1.00  0.00     0.116 C 
BRANCH  33  34
ATOM     34  N   UNL     1       2.734   0.395   1.433  1.00  0.00    -0.352 N 
ATOM     35  C   UNL     1       2.945   0.852   2.717  1.00  0.00     0.251 C 
ATOM     36  H   UNL     1       2.478   1.095   0.790  1.00  0.00     0.163 HD
ATOM     37  O   UNL     1       2.936   2.064   2.933  1.00  0.00    -0.269 OA
BRANCH  35  38
ATOM     38  C   UNL     1       3.086  -0.078   3.873  1.00  0.00     0.039 A 
ATOM     39  C   UNL     1       2.638   0.344   5.133  1.00  0.00     0.014 A 
ATOM     40  C   UNL     1       3.588  -1.368   3.749  1.00  0.00     0.014 A 
ATOM     41  C   UNL     1       2.606  -0.549   6.212  1.00  0.00     0.010 A 
ATOM     42  C   UNL     1       3.390  -2.298   4.761  1.00  0.00     0.010 A 
ATOM     43  C   UNL     1       2.923  -1.901   6.019  1.00  0.00    -0.014 A 
BRANCH  43  44
ATOM     44  C   UNL     1       2.834  -2.918   7.103  1.00  0.00     0.031 A 
ATOM     45  C   UNL     1       4.037  -3.775   7.423  1.00  0.00     0.074 A 
ATOM     46  C   UNL     1       1.662  -3.154   7.726  1.00  0.00     0.049 A 
ATOM     47  N   UNL     1       4.122  -4.834   8.189  1.00  0.00    -0.248 NA
ATOM     48  C   UNL     1       5.298  -3.432   6.742  1.00  0.00     0.031 C 
ATOM     49  C   UNL     1       0.403  -2.446   7.481  1.00  0.00     0.029 A 
ATOM     50  N   UNL     1       1.339  -4.071   8.696  1.00  0.00    -0.354 N 
ATOM     51  C   UNL     1       5.418  -5.310   8.029  1.00  0.00     0.074 A 
ATOM     52  C   UNL     1       6.062  -4.469   7.046  1.00  0.00     0.031 C 
ATOM     53  C   UNL     1      -0.541  -2.924   8.307  1.00  0.00     0.029 A 
ATOM     54  C   UNL     1       0.029  -4.006   9.104  1.00  0.00     0.049 A 
ATOM     55  H   UNL     1       1.986  -4.715   9.064  1.00  0.00     0.167 HD
ATOM     56  C   UNL     1       6.037  -6.333   8.665  1.00  0.00     0.031 A 
ATOM     57  C   UNL     1      -0.641  -4.736  10.015  1.00  0.00     0.031 A 
ATOM     58  C   UNL     1       5.426  -7.120   9.700  1.00  0.00     0.049 A 
ATOM     59  C   UNL     1       0.082  -5.823  10.760  1.00  0.00     0.074 A 
ATOM     60  C   UNL     1       5.991  -8.120  10.472  1.00  0.00     0.029 A 
ATOM     61  N   UNL     1       4.115  -6.975  10.124  1.00  0.00    -0.354 N 
ATOM     62  N   UNL     1       1.322  -6.227  10.632  1.00  0.00    -0.248 NA
ATOM     63  C   UNL     1      -0.685  -6.545  11.785  1.00  0.00     0.031 C 
ATOM     64  C   UNL     1       5.010  -8.601  11.345  1.00  0.00     0.029 A 
ATOM     65  C   UNL     1       3.849  -7.871  11.145  1.00  0.00     0.049 A 
ATOM     66  H   UNL     1       3.469  -6.331   9.754  1.00  0.00     0.167 HD
ATOM     67  C   UNL     1       1.492  -7.232  11.575  1.00  0.00     0.074 A 
ATOM     68  C   UNL     1       0.233  -7.364  12.278  1.00  0.00     0.031 C 
ATOM     69  C   UNL     1       2.591  -7.980  11.835  1.00  0.00     0.031 A 
BRANCH  56  70
ATOM     70  C   UNL     1       7.455  -6.639   8.267  1.00  0.00    -0.014 A 
ATOM     71  C   UNL     1       8.503  -5.749   8.556  1.00  0.00     0.009 A 
ATOM     72  C   UNL     1       7.751  -7.837   7.598  1.00  0.00     0.009 A 
ATOM     73  C   UNL     1       9.806  -6.027   8.137  1.00  0.00     0.001 A 
ATOM     74  C   UNL     1       9.061  -8.129   7.212  1.00  0.00     0.001 A 
ATOM     75  C   UNL     1      10.084  -7.218   7.469  1.00  0.00     0.000 A 
ENDBRANCH  56  70
BRANCH  57  76
ATOM     76  C   UNL     1      -2.067  -4.434  10.303  1.00  0.00    -0.014 A 
ATOM     77  C   UNL     1      -2.428  -3.811  11.508  1.00  0.00     0.009 A 
ATOM     78  C   UNL     1      -3.071  -4.749   9.375  1.00  0.00     0.009 A 
ATOM     79  C   UNL     1      -3.767  -3.528  11.787  1.00  0.00     0.001 A 
ATOM     80  C   UNL     1      -4.406  -4.437   9.643  1.00  0.00     0.001 A 
ATOM     81  C   UNL     1      -4.753  -3.835  10.852  1.00  0.00     0.000 A 
ENDBRANCH  57  76
BRANCH  69  82
ATOM     82  C   UNL     1       2.492  -8.982  12.948  1.00  0.00    -0.014 A 
ATOM     83  C   UNL     1       1.774 -10.176  12.788  1.00  0.00     0.009 A 
ATOM     84  C   UNL     1       3.170  -8.748  14.154  1.00  0.00     0.009 A 
ATOM     85  C   UNL     1       1.712 -11.104  13.829  1.00  0.00     0.001 A 
ATOM     86  C   UNL     1       3.127  -9.689  15.183  1.00  0.00     0.001 A 
ATOM     87  C   UNL     1       2.392 -10.862  15.022  1.00  0.00     0.000 A 
ENDBRANCH  69  82
ENDBRANCH  43  44
ENDBRANCH  35  38
ENDBRANCH  33  34
ENDBRANCH  32  33
ENDBRANCH   1  32
TORSDOF 14
