REMARK SMILES O=C(Cc1csc(NC(=O)CS[C@@H]2CCS(=O)(=O)C2)n1)NCCCCNC(=O)c1ccc(-c2c3nc(c(-c4ccccc4)c4ccc([nH]4)c(-c4ccccc4)c4nc(c(-c5ccccc5)c5ccc2[nH]5)C=C4)C=C3)cc1
REMARK SMILES IDX 22 1 21 2 1 3 2 4 3 6 4 7 5 8 20 9 6 10 7 11 8 12 9 13 10 15
REMARK SMILES IDX 11 16 12 17 13 18 14 19 19 20 15 21 16 22 17 23 18 24 23 25
REMARK SMILES IDX 24 26 25 27 26 28 27 29 28 31 29 32 30 33 76 34 31 35 75 36
REMARK SMILES IDX 32 37 33 38 34 39 69 40 35 41 74 42 68 43 70 44 36 45 73 46
REMARK SMILES IDX 67 47 66 48 37 50 59 51 44 52 58 53 45 54 48 55 57 56 71 57
REMARK SMILES IDX 46 58 47 59 56 61 72 62 49 63 38 64 39 65 43 66 40 67 42 68
REMARK SMILES IDX 41 69 60 70 61 71 65 72 62 73 64 74 63 75 50 76 51 77 55 78
REMARK SMILES IDX 52 79 54 80 53 81
REMARK H PARENT 21 5 8 14 26 30 70 49 48 60
REMARK Flexibility Score: inf
ROOT
ATOM      1  C   UNL     1       1.946  -1.848   1.711  1.00  0.00     0.116 C 
ENDROOT
BRANCH   1   2
ATOM      2  N   UNL     1       2.611  -0.953   0.784  1.00  0.00    -0.356 N 
ATOM      3  O   UNL     1       0.707   0.093   0.055  1.00  0.00    -0.275 OA
ATOM      4  C   UNL     1       1.929  -0.032   0.014  1.00  0.00     0.226 C 
ATOM      5  H   UNL     1       3.591  -1.004   0.701  1.00  0.00     0.163 HD
BRANCH   4   6
ATOM      6  C   UNL     1       2.781   0.732  -0.985  1.00  0.00     0.157 C 
BRANCH   6   7
ATOM      7  C   UNL     1       3.863   1.549  -0.355  1.00  0.00     0.063 A 
ATOM      8  C   UNL     1       5.121   1.116   0.024  1.00  0.00     0.093 A 
ATOM      9  N   UNL     1       3.664   2.912  -0.190  1.00  0.00    -0.224 NA
ATOM     10  S   UNL     1       6.040   2.429   0.621  1.00  0.00    -0.105 S 
ATOM     11  C   UNL     1       4.712   3.462   0.373  1.00  0.00     0.189 A 
BRANCH  11  12
ATOM     12  N   UNL     1       4.777   4.809   0.576  1.00  0.00    -0.301 N 
ATOM     13  C   UNL     1       5.593   5.581   1.335  1.00  0.00     0.236 C 
ATOM     14  H   UNL     1       4.101   5.319   0.075  1.00  0.00     0.172 HD
ATOM     15  O   UNL     1       5.629   6.786   1.055  1.00  0.00    -0.274 OA
BRANCH  13  16
ATOM     16  C   UNL     1       6.410   5.067   2.508  1.00  0.00     0.170 C 
BRANCH  16  17
ATOM     17  S   UNL     1       5.477   4.029   3.688  1.00  0.00    -0.148 SA
BRANCH  17  18
ATOM     18  C   UNL     1       4.406   5.173   4.644  1.00  0.00     0.063 C 
ATOM     19  C   UNL     1       3.274   5.873   3.890  1.00  0.00     0.031 C 
ATOM     20  C   UNL     1       5.116   6.178   5.539  1.00  0.00     0.151 C 
ATOM     21  C   UNL     1       3.652   7.320   3.611  1.00  0.00     0.138 C 
ATOM     22  S   UNL     1       4.909   7.771   4.787  1.00  0.00     0.151 S 
ATOM     23  O   UNL     1       6.131   8.094   4.081  1.00  0.00    -0.229 OA
ATOM     24  O   UNL     1       4.329   8.665   5.766  1.00  0.00    -0.229 OA
ENDBRANCH  17  18
ENDBRANCH  16  17
ENDBRANCH  13  16
ENDBRANCH  11  12
ENDBRANCH   6   7
ENDBRANCH   4   6
ENDBRANCH   1   2
BRANCH   1  25
ATOM     25  C   UNL     1       2.356  -3.303   1.482  1.00  0.00     0.023 C 
BRANCH  25  26
ATOM     26  C   UNL     1       3.849  -3.596   1.660  1.00  0.00     0.023 C 
BRANCH  26  27
ATOM     27  C   UNL     1       4.427  -3.244   3.028  1.00  0.00     0.116 C 
BRANCH  27  28
ATOM     28  N   UNL     1       3.841  -4.024   4.105  1.00  0.00    -0.352 N 
ATOM     29  C   UNL     1       4.450  -4.792   5.067  1.00  0.00     0.251 C 
ATOM     30  H   UNL     1       2.858  -3.997   4.153  1.00  0.00     0.163 HD
ATOM     31  O   UNL     1       3.770  -5.502   5.803  1.00  0.00    -0.269 OA
BRANCH  29  32
ATOM     32  C   UNL     1       5.924  -4.796   5.206  1.00  0.00     0.039 A 
ATOM     33  C   UNL     1       6.577  -6.016   5.402  1.00  0.00     0.014 A 
ATOM     34  C   UNL     1       6.663  -3.611   5.156  1.00  0.00     0.014 A 
ATOM     35  C   UNL     1       7.972  -6.056   5.476  1.00  0.00     0.010 A 
ATOM     36  C   UNL     1       8.056  -3.660   5.151  1.00  0.00     0.010 A 
ATOM     37  C   UNL     1       8.727  -4.883   5.309  1.00  0.00    -0.014 A 
BRANCH  37  38
ATOM     38  C   UNL     1      10.213  -4.921   5.284  1.00  0.00     0.031 A 
ATOM     39  C   UNL     1      11.016  -4.196   6.329  1.00  0.00     0.074 A 
ATOM     40  C   UNL     1      10.847  -5.563   4.281  1.00  0.00     0.049 A 
ATOM     41  N   UNL     1      12.315  -4.071   6.434  1.00  0.00    -0.248 NA
ATOM     42  C   UNL     1      10.259  -3.499   7.382  1.00  0.00     0.031 C 
ATOM     43  C   UNL     1      10.191  -6.278   3.184  1.00  0.00     0.029 A 
ATOM     44  N   UNL     1      12.187  -5.711   4.019  1.00  0.00    -0.354 N 
ATOM     45  C   UNL     1      12.530  -3.277   7.554  1.00  0.00     0.074 A 
ATOM     46  C   UNL     1      11.228  -2.902   8.060  1.00  0.00     0.031 C 
ATOM     47  C   UNL     1      11.129  -6.811   2.384  1.00  0.00     0.029 A 
ATOM     48  C   UNL     1      12.449  -6.437   2.882  1.00  0.00     0.049 A 
ATOM     49  H   UNL     1      12.893  -5.333   4.592  1.00  0.00     0.167 HD
ATOM     50  C   UNL     1      13.703  -2.909   8.124  1.00  0.00     0.031 A 
ATOM     51  C   UNL     1      13.618  -6.758   2.296  1.00  0.00     0.031 A 
ATOM     52  C   UNL     1      15.001  -3.278   7.620  1.00  0.00     0.049 A 
ATOM     53  C   UNL     1      14.906  -6.306   2.926  1.00  0.00     0.074 A 
ATOM     54  C   UNL     1      16.245  -2.989   8.152  1.00  0.00     0.029 A 
ATOM     55  N   UNL     1      15.221  -4.009   6.463  1.00  0.00    -0.354 N 
ATOM     56  N   UNL     1      15.091  -5.610   4.021  1.00  0.00    -0.248 NA
ATOM     57  C   UNL     1      16.148  -6.696   2.243  1.00  0.00     0.031 C 
ATOM     58  C   UNL     1      17.220  -3.492   7.285  1.00  0.00     0.029 A 
ATOM     59  C   UNL     1      16.582  -4.156   6.249  1.00  0.00     0.049 A 
ATOM     60  H   UNL     1      14.515  -4.371   5.880  1.00  0.00     0.167 HD
ATOM     61  C   UNL     1      16.468  -5.504   4.175  1.00  0.00     0.074 A 
ATOM     62  C   UNL     1      17.069  -6.223   3.071  1.00  0.00     0.031 C 
ATOM     63  C   UNL     1      17.171  -4.870   5.145  1.00  0.00     0.031 A 
BRANCH  50  64
ATOM     64  C   UNL     1      13.634  -2.049   9.357  1.00  0.00    -0.014 A 
ATOM     65  C   UNL     1      13.139  -2.552  10.571  1.00  0.00     0.009 A 
ATOM     66  C   UNL     1      14.102  -0.726   9.315  1.00  0.00     0.009 A 
ATOM     67  C   UNL     1      13.075  -1.737  11.703  1.00  0.00     0.001 A 
ATOM     68  C   UNL     1      14.068   0.076  10.457  1.00  0.00     0.001 A 
ATOM     69  C   UNL     1      13.544  -0.426  11.647  1.00  0.00     0.000 A 
ENDBRANCH  50  64
BRANCH  51  70
ATOM     70  C   UNL     1      13.627  -7.553   1.038  1.00  0.00    -0.014 A 
ATOM     71  C   UNL     1      14.114  -8.870   1.028  1.00  0.00     0.009 A 
ATOM     72  C   UNL     1      13.156  -6.996  -0.161  1.00  0.00     0.009 A 
ATOM     73  C   UNL     1      14.156  -9.599  -0.163  1.00  0.00     0.001 A 
ATOM     74  C   UNL     1      13.169  -7.740  -1.343  1.00  0.00     0.001 A 
ATOM     75  C   UNL     1      13.679  -9.036  -1.345  1.00  0.00     0.000 A 
ENDBRANCH  51  70
BRANCH  63  76
ATOM     76  C   UNL     1      18.671  -4.956   5.080  1.00  0.00    -0.014 A 
ATOM     77  C   UNL     1      19.403  -4.282   4.090  1.00  0.00     0.009 A 
ATOM     78  C   UNL     1      19.365  -5.695   6.053  1.00  0.00     0.009 A 
ATOM     79  C   UNL     1      20.797  -4.377   4.055  1.00  0.00     0.001 A 
ATOM     80  C   UNL     1      20.759  -5.760   6.035  1.00  0.00     0.001 A 
ATOM     81  C   UNL     1      21.473  -5.110   5.030  1.00  0.00     0.000 A 
ENDBRANCH  63  76
ENDBRANCH  37  38
ENDBRANCH  29  32
ENDBRANCH  27  28
ENDBRANCH  26  27
ENDBRANCH  25  26
ENDBRANCH   1  25
TORSDOF 16
