REMARK SMILES CCc1ccsc1C(=O)N(CC(=O)NCCCCNC(=O)c1ccc(-c2c3nc(c(-c4ccccc4)c4ccc([nH]4)c(-c4ccccc4)c4nc(c(-c5ccccc5)c5ccc2[nH]5)C=C4)C=C3)cc1)c1ccccc1N
REMARK SMILES IDX 15 1 14 2 12 3 13 4 11 6 10 7 8 8 9 9 7 10 3 11 4 12 5 13
REMARK SMILES IDX 6 14 2 15 1 16 70 17 71 18 75 19 72 20 74 21 73 22 76 23
REMARK SMILES IDX 16 26 17 27 18 28 19 29 20 30 21 32 22 33 23 34 69 35 24 36
REMARK SMILES IDX 68 37 25 38 26 39 27 40 62 41 28 42 67 43 61 44 63 45 29 46
REMARK SMILES IDX 66 47 60 48 59 49 30 51 52 52 37 53 51 54 38 55 41 56 50 57
REMARK SMILES IDX 64 58 39 59 40 60 49 62 65 63 42 64 31 65 32 66 36 67 33 68
REMARK SMILES IDX 35 69 34 70 53 71 54 72 58 73 55 74 57 75 56 76 43 77 44 78
REMARK SMILES IDX 48 79 45 80 47 81 46 82
REMARK H PARENT 14 5 76 24 76 25 19 31 63 50 41 61
REMARK Flexibility Score: inf
ROOT
ATOM      1  C   UNL     1       3.721   1.597  -1.018  1.00  0.00     0.116 C 
ENDROOT
BRANCH   1   2
ATOM      2  N   UNL     1       3.042   2.173   0.123  1.00  0.00    -0.355 N 
ATOM      3  C   UNL     1       1.814   2.742   0.264  1.00  0.00     0.240 C 
ATOM      4  O   UNL     1       1.409   2.853   1.429  1.00  0.00    -0.273 OA
ATOM      5  H   UNL     1       3.568   2.150   0.955  1.00  0.00     0.163 HD
BRANCH   3   6
ATOM      6  C   UNL     1       0.881   3.167  -0.893  1.00  0.00     0.226 C 
BRANCH   6   7
ATOM      7  N   UNL     1       1.415   3.451  -2.210  1.00  0.00    -0.296 N 
BRANCH   7   8
ATOM      8  C   UNL     1       1.454   2.536  -3.290  1.00  0.00     0.269 C 
ATOM      9  O   UNL     1       1.888   2.990  -4.362  1.00  0.00    -0.268 OA
BRANCH   8  10
ATOM     10  C   UNL     1       1.124   1.052  -3.243  1.00  0.00     0.096 A 
ATOM     11  C   UNL     1       0.702   0.013  -2.374  1.00  0.00    -0.025 A 
ATOM     12  C   UNL     1       0.690  -1.275  -3.057  1.00  0.00     0.016 A 
ATOM     13  C   UNL     1       1.124  -1.247  -4.348  1.00  0.00     0.066 A 
ATOM     14  S   UNL     1       1.466   0.322  -4.835  1.00  0.00    -0.138 S 
BRANCH  11  15
ATOM     15  C   UNL     1       0.265  -0.044  -0.924  1.00  0.00     0.034 C 
ATOM     16  C   UNL     1       1.043  -1.035  -0.060  1.00  0.00     0.009 C 
ENDBRANCH  11  15
ENDBRANCH   8  10
ENDBRANCH   7   8
BRANCH   7  17
ATOM     17  C   UNL     1       1.721   4.878  -2.383  1.00  0.00     0.068 A 
ATOM     18  C   UNL     1       2.400   5.541  -1.333  1.00  0.00     0.028 A 
ATOM     19  C   UNL     1       1.242   5.669  -3.457  1.00  0.00     0.056 A 
ATOM     20  C   UNL     1       2.540   6.929  -1.295  1.00  0.00     0.002 A 
ATOM     21  C   UNL     1       1.346   7.072  -3.371  1.00  0.00     0.028 A 
ATOM     22  C   UNL     1       1.992   7.698  -2.306  1.00  0.00     0.002 A 
BRANCH  19  23
ATOM     23  N   UNL     1       0.464   5.157  -4.505  1.00  0.00    -0.397 N 
ATOM     24  H   UNL     1       0.359   4.183  -4.610  1.00  0.00     0.156 HD
ATOM     25  H   UNL     1       0.023   5.770  -5.136  1.00  0.00     0.156 HD
ENDBRANCH  19  23
ENDBRANCH   7  17
ENDBRANCH   6   7
ENDBRANCH   3   6
ENDBRANCH   1   2
BRANCH   1  26
ATOM     26  C   UNL     1       4.772   2.493  -1.659  1.00  0.00     0.023 C 
BRANCH  26  27
ATOM     27  C   UNL     1       6.035   2.688  -0.823  1.00  0.00     0.023 C 
BRANCH  27  28
ATOM     28  C   UNL     1       6.756   1.406  -0.418  1.00  0.00     0.116 C 
BRANCH  28  29
ATOM     29  N   UNL     1       7.172   0.584  -1.544  1.00  0.00    -0.352 N 
ATOM     30  C   UNL     1       8.343  -0.120  -1.706  1.00  0.00     0.251 C 
ATOM     31  H   UNL     1       6.532   0.525  -2.290  1.00  0.00     0.163 HD
ATOM     32  O   UNL     1       8.584  -0.697  -2.762  1.00  0.00    -0.269 OA
BRANCH  30  33
ATOM     33  C   UNL     1       9.333  -0.144  -0.610  1.00  0.00     0.039 A 
ATOM     34  C   UNL     1      10.668   0.152  -0.900  1.00  0.00     0.014 A 
ATOM     35  C   UNL     1       8.941  -0.415   0.703  1.00  0.00     0.014 A 
ATOM     36  C   UNL     1      11.594   0.253   0.139  1.00  0.00     0.010 A 
ATOM     37  C   UNL     1       9.848  -0.240   1.744  1.00  0.00     0.010 A 
ATOM     38  C   UNL     1      11.182   0.099   1.473  1.00  0.00    -0.014 A 
BRANCH  38  39
ATOM     39  C   UNL     1      12.129   0.297   2.599  1.00  0.00     0.031 A 
ATOM     40  C   UNL     1      12.467  -0.845   3.515  1.00  0.00     0.074 A 
ATOM     41  C   UNL     1      12.628   1.525   2.843  1.00  0.00     0.049 A 
ATOM     42  N   UNL     1      13.220  -0.850   4.586  1.00  0.00    -0.248 NA
ATOM     43  C   UNL     1      11.857  -2.147   3.202  1.00  0.00     0.031 C 
ATOM     44  C   UNL     1      12.340   2.730   2.061  1.00  0.00     0.029 A 
ATOM     45  N   UNL     1      13.476   1.964   3.829  1.00  0.00    -0.354 N 
ATOM     46  C   UNL     1      13.160  -2.147   5.082  1.00  0.00     0.074 A 
ATOM     47  C   UNL     1      12.256  -2.885   4.227  1.00  0.00     0.031 C 
ATOM     48  C   UNL     1      13.017   3.765   2.585  1.00  0.00     0.029 A 
ATOM     49  C   UNL     1      13.755   3.307   3.758  1.00  0.00     0.049 A 
ATOM     50  H   UNL     1      13.849   1.372   4.522  1.00  0.00     0.167 HD
ATOM     51  C   UNL     1      13.815  -2.682   6.140  1.00  0.00     0.031 A 
ATOM     52  C   UNL     1      14.513   4.087   4.551  1.00  0.00     0.031 A 
ATOM     53  C   UNL     1      14.719  -1.952   6.987  1.00  0.00     0.049 A 
ATOM     54  C   UNL     1      15.226   3.472   5.723  1.00  0.00     0.074 A 
ATOM     55  C   UNL     1      15.472  -2.419   8.050  1.00  0.00     0.029 A 
ATOM     56  N   UNL     1      14.989  -0.597   6.869  1.00  0.00    -0.354 N 
ATOM     57  N   UNL     1      15.216   2.228   6.135  1.00  0.00    -0.248 NA
ATOM     58  C   UNL     1      16.067   4.368   6.529  1.00  0.00     0.031 C 
ATOM     59  C   UNL     1      16.161  -1.336   8.606  1.00  0.00     0.029 A 
ATOM     60  C   UNL     1      15.880  -0.206   7.854  1.00  0.00     0.049 A 
ATOM     61  H   UNL     1      14.604  -0.002   6.186  1.00  0.00     0.167 HD
ATOM     62  C   UNL     1      16.066   2.186   7.233  1.00  0.00     0.074 A 
ATOM     63  C   UNL     1      16.588   3.526   7.411  1.00  0.00     0.031 C 
ATOM     64  C   UNL     1      16.386   1.132   8.022  1.00  0.00     0.031 A 
BRANCH  51  65
ATOM     65  C   UNL     1      13.564  -4.135   6.438  1.00  0.00    -0.014 A 
ATOM     66  C   UNL     1      14.031  -5.144   5.580  1.00  0.00     0.009 A 
ATOM     67  C   UNL     1      12.868  -4.501   7.601  1.00  0.00     0.009 A 
ATOM     68  C   UNL     1      13.767  -6.487   5.857  1.00  0.00     0.001 A 
ATOM     69  C   UNL     1      12.633  -5.846   7.891  1.00  0.00     0.001 A 
ATOM     70  C   UNL     1      13.072  -6.837   7.014  1.00  0.00     0.000 A 
ENDBRANCH  51  65
BRANCH  52  71
ATOM     71  C   UNL     1      14.648   5.537   4.255  1.00  0.00    -0.014 A 
ATOM     72  C   UNL     1      15.855   6.055   3.761  1.00  0.00     0.009 A 
ATOM     73  C   UNL     1      13.568   6.410   4.462  1.00  0.00     0.009 A 
ATOM     74  C   UNL     1      15.985   7.421   3.502  1.00  0.00     0.001 A 
ATOM     75  C   UNL     1      13.693   7.771   4.175  1.00  0.00     0.001 A 
ATOM     76  C   UNL     1      14.903   8.277   3.705  1.00  0.00     0.000 A 
ENDBRANCH  52  71
BRANCH  64  77
ATOM     77  C   UNL     1      17.369   1.378   9.132  1.00  0.00    -0.014 A 
ATOM     78  C   UNL     1      17.009   2.106  10.277  1.00  0.00     0.009 A 
ATOM     79  C   UNL     1      18.662   0.840   9.047  1.00  0.00     0.009 A 
ATOM     80  C   UNL     1      17.936   2.317  11.299  1.00  0.00     0.001 A 
ATOM     81  C   UNL     1      19.578   1.028  10.083  1.00  0.00     0.001 A 
ATOM     82  C   UNL     1      19.217   1.774  11.204  1.00  0.00     0.000 A 
ENDBRANCH  64  77
ENDBRANCH  38  39
ENDBRANCH  30  33
ENDBRANCH  28  29
ENDBRANCH  27  28
ENDBRANCH  26  27
ENDBRANCH   1  26
TORSDOF 17
