REMARK SMILES CCCC1(CCC)SC[C@@H]2C(=O)N(Cc3ccc(C(=O)NCCCCNC(=O)c4ccc(-c5c6nc(c(-c7ccccc7)c7ccc([nH]7)c(-c7ccccc7)c7nc(c(-c8ccccc8)c8ccc5[nH]8)C=C7)C=C6)cc4)cc3)CC(=O)N21
REMARK SMILES IDX 22 1 21 2 19 3 20 4 18 6 15 7 16 8 78 9 17 10 77 11 14 12
REMARK SMILES IDX 13 13 4 14 8 15 82 16 9 17 10 18 80 19 11 20 79 21 81 22
REMARK SMILES IDX 12 23 3 24 2 25 1 26 5 27 6 28 7 29 23 30 24 31 25 32 26 33
REMARK SMILES IDX 27 34 28 36 29 37 30 38 76 39 31 40 75 41 32 42 33 43 34 44
REMARK SMILES IDX 69 45 35 46 74 47 68 48 70 49 36 50 73 51 67 52 66 53 37 55
REMARK SMILES IDX 59 56 44 57 58 58 45 59 48 60 57 61 71 62 46 63 47 64 56 66
REMARK SMILES IDX 72 67 49 68 38 69 39 70 43 71 40 72 42 73 41 74 60 75 61 76
REMARK SMILES IDX 65 77 62 78 64 79 63 80 50 81 51 82 55 83 52 84 54 85 53 86
REMARK H PARENT 21 5 26 35 70 54 48 65
REMARK Flexibility Score: inf
ROOT
ATOM      1  C   UNL     1      -2.506  -9.894  -1.037  1.00  0.00     0.116 C 
ENDROOT
BRANCH   1   2
ATOM      2  N   UNL     1      -2.765 -10.242   0.350  1.00  0.00    -0.352 N 
ATOM      3  C   UNL     1      -2.354  -9.626   1.510  1.00  0.00     0.251 C 
ATOM      4  O   UNL     1      -2.797 -10.017   2.586  1.00  0.00    -0.269 OA
ATOM      5  H   UNL     1      -3.321 -11.043   0.481  1.00  0.00     0.163 HD
BRANCH   3   6
ATOM      6  C   UNL     1      -1.431  -8.464   1.479  1.00  0.00     0.039 A 
ATOM      7  C   UNL     1       0.191  -6.167   1.377  1.00  0.00    -0.029 A 
ATOM      8  C   UNL     1      -0.881  -6.236   2.276  1.00  0.00     0.006 A 
ATOM      9  C   UNL     1       0.479  -7.286   0.586  1.00  0.00     0.006 A 
ATOM     10  C   UNL     1      -1.685  -7.382   2.330  1.00  0.00     0.014 A 
ATOM     11  C   UNL     1      -0.309  -8.430   0.653  1.00  0.00     0.014 A 
BRANCH   7  12
ATOM     12  C   UNL     1       1.053  -4.939   1.254  1.00  0.00     0.155 C 
BRANCH  12  13
ATOM     13  N   UNL     1       0.597  -3.969   0.265  1.00  0.00    -0.327 N 
ATOM     14  C   UNL     1       0.129  -0.611  -2.423  1.00  0.00     0.090 C 
ATOM     15  S   UNL     1       0.786  -1.446  -4.019  1.00  0.00    -0.131 SA
ATOM     16  N   UNL     1       0.062  -1.753  -1.478  1.00  0.00    -0.314 N 
ATOM     17  C   UNL     1       0.699  -3.116  -3.353  1.00  0.00     0.107 C 
ATOM     18  C   UNL     1       0.911  -2.876  -1.874  1.00  0.00     0.186 C 
ATOM     19  C   UNL     1      -0.428  -1.677  -0.189  1.00  0.00     0.244 C 
ATOM     20  C   UNL     1       0.809  -4.183  -1.089  1.00  0.00     0.247 C 
ATOM     21  C   UNL     1      -0.348  -2.945   0.672  1.00  0.00     0.220 C 
ATOM     22  O   UNL     1      -1.019  -0.700   0.264  1.00  0.00    -0.273 OA
ATOM     23  O   UNL     1       1.202  -5.247  -1.562  1.00  0.00    -0.272 OA
BRANCH  14  24
ATOM     24  C   UNL     1       1.249   0.420  -2.092  1.00  0.00     0.040 C 
BRANCH  24  25
ATOM     25  C   UNL     1       1.243   1.089  -0.711  1.00  0.00    -0.000 C 
ATOM     26  C   UNL     1       2.096   0.363   0.323  1.00  0.00     0.004 C 
ENDBRANCH  24  25
ENDBRANCH  14  24
BRANCH  14  27
ATOM     27  C   UNL     1      -1.233  -0.054  -2.936  1.00  0.00     0.040 C 
BRANCH  27  28
ATOM     28  C   UNL     1      -2.066   0.931  -2.112  1.00  0.00    -0.000 C 
ATOM     29  C   UNL     1      -1.625   2.384  -2.201  1.00  0.00     0.004 C 
ENDBRANCH  27  28
ENDBRANCH  14  27
ENDBRANCH  12  13
ENDBRANCH   7  12
ENDBRANCH   3   6
ENDBRANCH   1   2
BRANCH   1  30
ATOM     30  C   UNL     1      -1.469 -10.826  -1.667  1.00  0.00     0.023 C 
BRANCH  30  31
ATOM     31  C   UNL     1      -1.983 -12.229  -1.989  1.00  0.00     0.023 C 
BRANCH  31  32
ATOM     32  C   UNL     1      -3.086 -12.283  -3.035  1.00  0.00     0.116 C 
BRANCH  32  33
ATOM     33  N   UNL     1      -2.691 -11.727  -4.319  1.00  0.00    -0.352 N 
ATOM     34  C   UNL     1      -3.051 -12.146  -5.583  1.00  0.00     0.251 C 
ATOM     35  H   UNL     1      -2.087 -10.951  -4.282  1.00  0.00     0.163 HD
ATOM     36  O   UNL     1      -2.556 -11.639  -6.572  1.00  0.00    -0.269 OA
BRANCH  34  37
ATOM     37  C   UNL     1      -4.021 -13.255  -5.715  1.00  0.00     0.039 A 
ATOM     38  C   UNL     1      -3.700 -14.328  -6.550  1.00  0.00     0.014 A 
ATOM     39  C   UNL     1      -5.212 -13.255  -4.987  1.00  0.00     0.014 A 
ATOM     40  C   UNL     1      -4.545 -15.437  -6.599  1.00  0.00     0.010 A 
ATOM     41  C   UNL     1      -6.016 -14.389  -4.981  1.00  0.00     0.010 A 
ATOM     42  C   UNL     1      -5.689 -15.492  -5.785  1.00  0.00    -0.014 A 
BRANCH  42  43
ATOM     43  C   UNL     1      -6.556 -16.694  -5.759  1.00  0.00     0.031 A 
ATOM     44  C   UNL     1      -7.976 -16.610  -6.245  1.00  0.00     0.074 A 
ATOM     45  C   UNL     1      -6.086 -17.845  -5.239  1.00  0.00     0.049 A 
ATOM     46  N   UNL     1      -8.903 -17.533  -6.246  1.00  0.00    -0.248 NA
ATOM     47  C   UNL     1      -8.418 -15.311  -6.778  1.00  0.00     0.031 C 
ATOM     48  C   UNL     1      -4.739 -18.046  -4.699  1.00  0.00     0.029 A 
ATOM     49  N   UNL     1      -6.694 -19.064  -5.075  1.00  0.00    -0.354 N 
ATOM     50  C   UNL     1     -10.039 -16.924  -6.765  1.00  0.00     0.074 A 
ATOM     51  C   UNL     1      -9.700 -15.540  -7.019  1.00  0.00     0.031 C 
ATOM     52  C   UNL     1      -4.615 -19.320  -4.293  1.00  0.00     0.029 A 
ATOM     53  C   UNL     1      -5.881 -20.013  -4.506  1.00  0.00     0.049 A 
ATOM     54  H   UNL     1      -7.625 -19.241  -5.341  1.00  0.00     0.167 HD
ATOM     55  C   UNL     1     -11.249 -17.471  -7.029  1.00  0.00     0.031 A 
ATOM     56  C   UNL     1      -6.129 -21.298  -4.189  1.00  0.00     0.031 A 
ATOM     57  C   UNL     1     -11.585 -18.847  -6.786  1.00  0.00     0.049 A 
ATOM     58  C   UNL     1      -7.488 -21.875  -4.473  1.00  0.00     0.074 A 
ATOM     59  C   UNL     1     -12.770 -19.508  -7.061  1.00  0.00     0.029 A 
ATOM     60  N   UNL     1     -10.732 -19.776  -6.211  1.00  0.00    -0.354 N 
ATOM     61  N   UNL     1      -8.532 -21.301  -5.020  1.00  0.00    -0.248 NA
ATOM     62  C   UNL     1      -7.697 -23.282  -4.104  1.00  0.00     0.031 C 
ATOM     63  C   UNL     1     -12.648 -20.827  -6.613  1.00  0.00     0.029 A 
ATOM     64  C   UNL     1     -11.371 -21.000  -6.106  1.00  0.00     0.049 A 
ATOM     65  H   UNL     1      -9.809 -19.593  -5.920  1.00  0.00     0.167 HD
ATOM     66  C   UNL     1      -9.511 -22.283  -5.087  1.00  0.00     0.074 A 
ATOM     67  C   UNL     1      -8.932 -23.492  -4.539  1.00  0.00     0.031 C 
ATOM     68  C   UNL     1     -10.777 -22.193  -5.561  1.00  0.00     0.031 A 
BRANCH  55  69
ATOM     69  C   UNL     1     -12.299 -16.569  -7.613  1.00  0.00    -0.014 A 
ATOM     70  C   UNL     1     -12.200 -16.104  -8.934  1.00  0.00     0.009 A 
ATOM     71  C   UNL     1     -13.416 -16.205  -6.846  1.00  0.00     0.009 A 
ATOM     72  C   UNL     1     -13.181 -15.262  -9.463  1.00  0.00     0.001 A 
ATOM     73  C   UNL     1     -14.409 -15.386  -7.387  1.00  0.00     0.001 A 
ATOM     74  C   UNL     1     -14.286 -14.908  -8.691  1.00  0.00     0.000 A 
ENDBRANCH  55  69
BRANCH  56  75
ATOM     75  C   UNL     1      -5.064 -22.139  -3.583  1.00  0.00    -0.014 A 
ATOM     76  C   UNL     1      -4.471 -23.173  -4.323  1.00  0.00     0.009 A 
ATOM     77  C   UNL     1      -4.648 -21.925  -2.260  1.00  0.00     0.009 A 
ATOM     78  C   UNL     1      -3.505 -23.996  -3.741  1.00  0.00     0.001 A 
ATOM     79  C   UNL     1      -3.661 -22.732  -1.690  1.00  0.00     0.001 A 
ATOM     80  C   UNL     1      -3.098 -23.773  -2.426  1.00  0.00     0.000 A 
ENDBRANCH  56  75
BRANCH  68  81
ATOM     81  C   UNL     1     -11.607 -23.445  -5.542  1.00  0.00    -0.014 A 
ATOM     82  C   UNL     1     -12.122 -23.959  -4.342  1.00  0.00     0.009 A 
ATOM     83  C   UNL     1     -11.907 -24.096  -6.748  1.00  0.00     0.009 A 
ATOM     84  C   UNL     1     -12.896 -25.121  -4.349  1.00  0.00     0.001 A 
ATOM     85  C   UNL     1     -12.704 -25.241  -6.755  1.00  0.00     0.001 A 
ATOM     86  C   UNL     1     -13.190 -25.758  -5.555  1.00  0.00     0.000 A 
ENDBRANCH  68  81
ENDBRANCH  42  43
ENDBRANCH  34  37
ENDBRANCH  32  33
ENDBRANCH  31  32
ENDBRANCH  30  31
ENDBRANCH   1  30
TORSDOF 17
