REMARK SMILES CCN(Cc1ccccn1)c1nc(C)cc(C)c1C(=O)NCCCCNC(=O)c1ccc(-c2c3nc(c(-c4ccccc4)c4ccc([nH]4)c(-c4ccccc4)c4nc(c(-c5ccccc5)c5ccc2[nH]5)C=C4)C=C3)cc1
REMARK SMILES IDX 23 1 22 2 21 3 19 4 20 5 18 7 11 8 12 9 13 10 16 11 14 12
REMARK SMILES IDX 15 13 17 14 3 15 2 16 1 17 4 18 5 19 6 20 10 21 7 22 9 23
REMARK SMILES IDX 8 24 24 25 25 26 26 27 27 28 28 30 29 31 30 32 76 33 31 34
REMARK SMILES IDX 75 35 32 36 33 37 34 38 69 39 35 40 74 41 68 42 70 43 36 44
REMARK SMILES IDX 73 45 67 46 66 47 37 49 59 50 44 51 58 52 45 53 48 54 57 55
REMARK SMILES IDX 71 56 46 57 47 58 56 60 72 61 49 62 38 63 39 64 43 65 40 66
REMARK SMILES IDX 42 67 41 68 60 69 61 70 65 71 62 72 64 73 63 74 50 75 51 76
REMARK SMILES IDX 55 77 52 78 54 79 53 80
REMARK H PARENT 21 6 26 29 70 48 48 59
REMARK Flexibility Score: inf
ROOT
ATOM      1  C   UNL     1       5.263   0.476  -2.115  1.00  0.00     0.023 C 
ENDROOT
BRANCH   1   2
ATOM      2  C   UNL     1       5.129   0.815  -0.634  1.00  0.00     0.116 C 
BRANCH   2   3
ATOM      3  N   UNL     1       3.873   1.406  -0.221  1.00  0.00    -0.352 N 
ATOM      4  C   UNL     1       3.254   1.373   1.017  1.00  0.00     0.255 C 
ATOM      5  O   UNL     1       2.348   2.177   1.228  1.00  0.00    -0.269 OA
ATOM      6  H   UNL     1       3.391   1.903  -0.921  1.00  0.00     0.163 HD
BRANCH   4   7
ATOM      7  C   UNL     1       3.660   0.406   2.074  1.00  0.00     0.085 A 
ATOM      8  C   UNL     1       2.691  -0.461   2.622  1.00  0.00     0.142 A 
ATOM      9  N   UNL     1       3.025  -1.341   3.598  1.00  0.00    -0.235 NA
ATOM     10  C   UNL     1       4.271  -1.375   4.099  1.00  0.00     0.040 A 
ATOM     11  C   UNL     1       4.953   0.414   2.648  1.00  0.00    -0.033 A 
ATOM     12  C   UNL     1       4.499  -2.301   5.253  1.00  0.00     0.067 C 
ATOM     13  C   UNL     1       5.256  -0.518   3.651  1.00  0.00     0.028 A 
ATOM     14  C   UNL     1       6.043   1.382   2.288  1.00  0.00     0.045 C 
BRANCH   8  15
ATOM     15  N   UNL     1       1.346  -0.449   2.269  1.00  0.00    -0.350 N 
BRANCH  15  16
ATOM     16  C   UNL     1       0.918  -1.382   1.233  1.00  0.00     0.115 C 
ATOM     17  C   UNL     1       0.791  -0.667  -0.105  1.00  0.00     0.027 C 
ENDBRANCH  15  16
BRANCH  15  18
ATOM     18  C   UNL     1       0.391  -0.189   3.365  1.00  0.00     0.174 C 
BRANCH  18  19
ATOM     19  C   UNL     1       0.297  -1.265   4.449  1.00  0.00     0.060 A 
ATOM     20  C   UNL     1       0.659  -0.948   5.763  1.00  0.00     0.026 A 
ATOM     21  N   UNL     1      -0.128  -2.512   4.102  1.00  0.00    -0.259 NA
ATOM     22  C   UNL     1       0.637  -1.943   6.737  1.00  0.00     0.004 A 
ATOM     23  C   UNL     1      -0.112  -3.461   5.066  1.00  0.00     0.111 A 
ATOM     24  C   UNL     1       0.259  -3.229   6.381  1.00  0.00     0.020 A 
ENDBRANCH  18  19
ENDBRANCH  15  18
ENDBRANCH   8  15
ENDBRANCH   4   7
ENDBRANCH   2   3
ENDBRANCH   1   2
BRANCH   1  25
ATOM     25  C   UNL     1       5.025   1.595  -3.130  1.00  0.00     0.023 C 
BRANCH  25  26
ATOM     26  C   UNL     1       5.546   2.990  -2.796  1.00  0.00     0.116 C 
BRANCH  26  27
ATOM     27  N   UNL     1       6.988   3.084  -2.624  1.00  0.00    -0.352 N 
ATOM     28  C   UNL     1       7.932   3.809  -3.321  1.00  0.00     0.251 C 
ATOM     29  H   UNL     1       7.350   2.540  -1.888  1.00  0.00     0.163 HD
ATOM     30  O   UNL     1       9.114   3.736  -3.008  1.00  0.00    -0.269 OA
BRANCH  28  31
ATOM     31  C   UNL     1       7.535   4.621  -4.493  1.00  0.00     0.039 A 
ATOM     32  C   UNL     1       8.235   4.449  -5.691  1.00  0.00     0.014 A 
ATOM     33  C   UNL     1       6.453   5.500  -4.438  1.00  0.00     0.014 A 
ATOM     34  C   UNL     1       7.763   5.045  -6.863  1.00  0.00     0.010 A 
ATOM     35  C   UNL     1       5.934   6.024  -5.619  1.00  0.00     0.010 A 
ATOM     36  C   UNL     1       6.564   5.775  -6.849  1.00  0.00    -0.014 A 
BRANCH  36  37
ATOM     37  C   UNL     1       5.910   6.221  -8.107  1.00  0.00     0.031 A 
ATOM     38  C   UNL     1       5.666   7.680  -8.366  1.00  0.00     0.074 A 
ATOM     39  C   UNL     1       5.432   5.299  -8.968  1.00  0.00     0.049 A 
ATOM     40  N   UNL     1       5.002   8.245  -9.344  1.00  0.00    -0.248 NA
ATOM     41  C   UNL     1       6.212   8.626  -7.382  1.00  0.00     0.031 C 
ATOM     42  C   UNL     1       5.550   3.847  -8.810  1.00  0.00     0.029 A 
ATOM     43  N   UNL     1       4.730   5.447 -10.139  1.00  0.00    -0.354 N 
ATOM     44  C   UNL     1       5.030   9.607  -9.079  1.00  0.00     0.074 A 
ATOM     45  C   UNL     1       5.737   9.780  -7.828  1.00  0.00     0.031 C 
ATOM     46  C   UNL     1       4.956   3.241  -9.851  1.00  0.00     0.029 A 
ATOM     47  C   UNL     1       4.378   4.255 -10.725  1.00  0.00     0.049 A 
ATOM     48  H   UNL     1       4.500   6.324 -10.522  1.00  0.00     0.167 HD
ATOM     49  C   UNL     1       4.528  10.626  -9.817  1.00  0.00     0.031 A 
ATOM     50  C   UNL     1       3.656   4.001 -11.833  1.00  0.00     0.031 A 
ATOM     51  C   UNL     1       3.834  10.459 -11.066  1.00  0.00     0.049 A 
ATOM     52  C   UNL     1       3.105   5.146 -12.633  1.00  0.00     0.074 A 
ATOM     53  C   UNL     1       3.349  11.435 -11.920  1.00  0.00     0.029 A 
ATOM     54  N   UNL     1       3.522   9.236 -11.637  1.00  0.00    -0.354 N 
ATOM     55  N   UNL     1       3.205   6.432 -12.407  1.00  0.00    -0.248 NA
ATOM     56  C   UNL     1       2.346   4.802 -13.844  1.00  0.00     0.031 C 
ATOM     57  C   UNL     1       2.704  10.800 -12.987  1.00  0.00     0.029 A 
ATOM     58  C   UNL     1       2.828   9.431 -12.820  1.00  0.00     0.049 A 
ATOM     59  H   UNL     1       3.758   8.358 -11.259  1.00  0.00     0.167 HD
ATOM     60  C   UNL     1       2.537   7.053 -13.454  1.00  0.00     0.074 A 
ATOM     61  C   UNL     1       2.051   6.003 -14.325  1.00  0.00     0.031 C 
ATOM     62  C   UNL     1       2.344   8.376 -13.673  1.00  0.00     0.031 A 
BRANCH  49  63
ATOM     63  C   UNL     1       4.709  12.017  -9.278  1.00  0.00    -0.014 A 
ATOM     64  C   UNL     1       5.975  12.625  -9.251  1.00  0.00     0.009 A 
ATOM     65  C   UNL     1       3.600  12.735  -8.806  1.00  0.00     0.009 A 
ATOM     66  C   UNL     1       6.132  13.907  -8.720  1.00  0.00     0.001 A 
ATOM     67  C   UNL     1       3.756  14.027  -8.302  1.00  0.00     0.001 A 
ATOM     68  C   UNL     1       5.023  14.607  -8.248  1.00  0.00     0.000 A 
ENDBRANCH  49  63
BRANCH  50  69
ATOM     69  C   UNL     1       3.414   2.596 -12.252  1.00  0.00    -0.014 A 
ATOM     70  C   UNL     1       4.077   2.062 -13.367  1.00  0.00     0.009 A 
ATOM     71  C   UNL     1       2.525   1.780 -11.534  1.00  0.00     0.009 A 
ATOM     72  C   UNL     1       3.841   0.745 -13.767  1.00  0.00     0.001 A 
ATOM     73  C   UNL     1       2.310   0.455 -11.922  1.00  0.00     0.001 A 
ATOM     74  C   UNL     1       2.962  -0.059 -13.042  1.00  0.00     0.000 A 
ENDBRANCH  50  69
BRANCH  62  75
ATOM     75  C   UNL     1       1.590   8.764 -14.912  1.00  0.00    -0.014 A 
ATOM     76  C   UNL     1       0.199   8.600 -14.995  1.00  0.00     0.009 A 
ATOM     77  C   UNL     1       2.274   9.347 -15.990  1.00  0.00     0.009 A 
ATOM     78  C   UNL     1      -0.489   8.990 -16.145  1.00  0.00     0.001 A 
ATOM     79  C   UNL     1       1.580   9.759 -17.128  1.00  0.00     0.001 A 
ATOM     80  C   UNL     1       0.201   9.574 -17.208  1.00  0.00     0.000 A 
ENDBRANCH  62  75
ENDBRANCH  36  37
ENDBRANCH  28  31
ENDBRANCH  26  27
ENDBRANCH  25  26
ENDBRANCH   1  25
TORSDOF 15
