REMARK SMILES CC(C)(C)OC(=O)[C@]1(C(=O)NCCCCNC(=O)c2ccc(-c3c4nc(c(-c5ccccc5)c5ccc([nH]5)c(-c5ccccc5)c5nc(c(-c6ccccc6)c6ccc3[nH]6)C=C5)C=C4)cc2)CC=CC[C@@H]1[NH3+]
REMARK SMILES IDX 13 1 12 2 11 3 9 4 10 5 8 7 67 8 71 9 68 10 70 11 69 12 6 13
REMARK SMILES IDX 7 14 5 15 2 16 1 17 3 18 4 19 72 20 14 24 15 25 16 26 17 27
REMARK SMILES IDX 18 29 19 30 20 31 66 32 21 33 65 34 22 35 23 36 24 37 59 38
REMARK SMILES IDX 25 39 64 40 58 41 60 42 26 43 63 44 57 45 56 46 27 48 49 49
REMARK SMILES IDX 34 50 48 51 35 52 38 53 47 54 61 55 36 56 37 57 46 59 62 60
REMARK SMILES IDX 39 61 28 62 29 63 33 64 30 65 32 66 31 67 50 68 51 69 55 70
REMARK SMILES IDX 52 71 54 72 53 73 40 74 41 75 45 76 42 77 44 78 43 79
REMARK H PARENT 11 6 72 21 72 22 72 23 16 28 60 47 38 58
REMARK Flexibility Score: inf
ROOT
ATOM      1  C   UNL     1       0.886   1.686   0.872  1.00  0.00     0.023 C 
ENDROOT
BRANCH   1   2
ATOM      2  C   UNL     1       1.222   1.683  -0.620  1.00  0.00     0.116 C 
BRANCH   2   3
ATOM      3  N   UNL     1       0.230   2.432  -1.372  1.00  0.00    -0.355 N 
ATOM      4  C   UNL     1       0.117   3.755  -1.683  1.00  0.00     0.244 C 
ATOM      5  O   UNL     1      -0.971   4.072  -2.179  1.00  0.00    -0.274 OA
ATOM      6  H   UNL     1      -0.502   1.877  -1.726  1.00  0.00     0.163 HD
BRANCH   4   7
ATOM      7  C   UNL     1       1.275   4.770  -1.580  1.00  0.00     0.201 C 
ATOM      8  C   UNL     1       2.215   4.494  -2.800  1.00  0.00     0.062 C 
ATOM      9  C   UNL     1       0.650   6.230  -1.595  1.00  0.00     0.212 C 
ATOM     10  C   UNL     1       2.255   5.519  -3.898  1.00  0.00    -0.029 C 
ATOM     11  C   UNL     1       0.314   6.771  -2.999  1.00  0.00     0.093 C 
ATOM     12  C   UNL     1       1.402   6.543  -3.994  1.00  0.00    -0.025 C 
BRANCH   7  13
ATOM     13  C   UNL     1       2.064   4.624  -0.273  1.00  0.00     0.328 C 
ATOM     14  O   UNL     1       3.220   4.218  -0.187  1.00  0.00    -0.251 OA
BRANCH  13  15
ATOM     15  O   UNL     1       1.341   5.050   0.798  1.00  0.00    -0.459 OA
BRANCH  15  16
ATOM     16  C   UNL     1       1.942   5.306   2.100  1.00  0.00     0.104 C 
ATOM     17  C   UNL     1       0.810   5.999   2.870  1.00  0.00     0.056 C 
ATOM     18  C   UNL     1       3.144   6.257   2.018  1.00  0.00     0.056 C 
ATOM     19  C   UNL     1       2.337   4.024   2.839  1.00  0.00     0.056 C 
ENDBRANCH  15  16
ENDBRANCH  13  15
ENDBRANCH   7  13
BRANCH   9  20
ATOM     20  N   UNL     1       1.460   7.297  -0.953  1.00  0.00    -0.353 N 
ATOM     21  H   UNL     1       2.299   7.467  -1.507  1.00  0.00     0.344 HD
ATOM     22  H   UNL     1       1.726   7.003  -0.013  1.00  0.00     0.344 HD
ATOM     23  H   UNL     1       0.910   8.154  -0.898  1.00  0.00     0.344 HD
ENDBRANCH   9  20
ENDBRANCH   4   7
ENDBRANCH   2   3
ENDBRANCH   1   2
BRANCH   1  24
ATOM     24  C   UNL     1      -0.355   0.894   1.275  1.00  0.00     0.023 C 
BRANCH  24  25
ATOM     25  C   UNL     1      -0.228  -0.613   1.123  1.00  0.00     0.116 C 
BRANCH  25  26
ATOM     26  N   UNL     1       0.740  -1.197   2.040  1.00  0.00    -0.352 N 
ATOM     27  C   UNL     1       0.599  -2.259   2.902  1.00  0.00     0.251 C 
ATOM     28  H   UNL     1       1.627  -0.769   2.042  1.00  0.00     0.163 HD
ATOM     29  O   UNL     1       1.496  -2.526   3.697  1.00  0.00    -0.269 OA
BRANCH  27  30
ATOM     30  C   UNL     1      -0.645  -3.061   2.902  1.00  0.00     0.039 A 
ATOM     31  C   UNL     1      -1.204  -3.442   4.125  1.00  0.00     0.014 A 
ATOM     32  C   UNL     1      -1.270  -3.428   1.708  1.00  0.00     0.014 A 
ATOM     33  C   UNL     1      -2.424  -4.122   4.150  1.00  0.00     0.010 A 
ATOM     34  C   UNL     1      -2.530  -4.018   1.736  1.00  0.00     0.010 A 
ATOM     35  C   UNL     1      -3.120  -4.378   2.957  1.00  0.00    -0.014 A 
BRANCH  35  36
ATOM     36  C   UNL     1      -4.461  -5.019   2.966  1.00  0.00     0.031 A 
ATOM     37  C   UNL     1      -4.673  -6.344   2.283  1.00  0.00     0.074 A 
ATOM     38  C   UNL     1      -5.504  -4.382   3.535  1.00  0.00     0.049 A 
ATOM     39  N   UNL     1      -5.778  -7.034   2.145  1.00  0.00    -0.248 NA
ATOM     40  C   UNL     1      -3.497  -6.963   1.650  1.00  0.00     0.031 C 
ATOM     41  C   UNL     1      -5.445  -3.075   4.193  1.00  0.00     0.029 A 
ATOM     42  N   UNL     1      -6.822  -4.750   3.649  1.00  0.00    -0.354 N 
ATOM     43  C   UNL     1      -5.432  -8.154   1.400  1.00  0.00     0.074 A 
ATOM     44  C   UNL     1      -4.031  -8.024   1.065  1.00  0.00     0.031 C 
ATOM     45  C   UNL     1      -6.662  -2.768   4.672  1.00  0.00     0.029 A 
ATOM     46  C   UNL     1      -7.596  -3.831   4.315  1.00  0.00     0.049 A 
ATOM     47  H   UNL     1      -7.178  -5.594   3.288  1.00  0.00     0.167 HD
ATOM     48  C   UNL     1      -6.203  -9.210   1.044  1.00  0.00     0.031 A 
ATOM     49  C   UNL     1      -8.911  -3.838   4.603  1.00  0.00     0.031 A 
ATOM     50  C   UNL     1      -7.595  -9.344   1.380  1.00  0.00     0.049 A 
ATOM     51  C   UNL     1      -9.751  -5.010   4.175  1.00  0.00     0.074 A 
ATOM     52  C   UNL     1      -8.448 -10.400   1.110  1.00  0.00     0.029 A 
ATOM     53  N   UNL     1      -8.340  -8.390   2.055  1.00  0.00    -0.354 N 
ATOM     54  N   UNL     1      -9.391  -6.095   3.534  1.00  0.00    -0.248 NA
ATOM     55  C   UNL     1     -11.177  -4.963   4.526  1.00  0.00     0.031 C 
ATOM     56  C   UNL     1      -9.724 -10.059   1.568  1.00  0.00     0.029 A 
ATOM     57  C   UNL     1      -9.650  -8.821   2.186  1.00  0.00     0.049 A 
ATOM     58  H   UNL     1      -7.990  -7.534   2.391  1.00  0.00     0.167 HD
ATOM     59  C   UNL     1     -10.538  -6.873   3.433  1.00  0.00     0.074 A 
ATOM     60  C   UNL     1     -11.598  -6.143   4.095  1.00  0.00     0.031 C 
ATOM     61  C   UNL     1     -10.697  -8.085   2.846  1.00  0.00     0.031 A 
BRANCH  48  62
ATOM     62  C   UNL     1      -5.553 -10.302   0.237  1.00  0.00    -0.014 A 
ATOM     63  C   UNL     1      -4.573 -11.138   0.797  1.00  0.00     0.009 A 
ATOM     64  C   UNL     1      -5.950 -10.520  -1.091  1.00  0.00     0.009 A 
ATOM     65  C   UNL     1      -3.976 -12.142   0.031  1.00  0.00     0.001 A 
ATOM     66  C   UNL     1      -5.376 -11.546  -1.844  1.00  0.00     0.001 A 
ATOM     67  C   UNL     1      -4.383 -12.349  -1.286  1.00  0.00     0.000 A 
ENDBRANCH  48  62
BRANCH  49  68
ATOM     68  C   UNL     1      -9.520  -2.703   5.347  1.00  0.00    -0.014 A 
ATOM     69  C   UNL     1      -9.992  -2.880   6.658  1.00  0.00     0.009 A 
ATOM     70  C   UNL     1      -9.649  -1.440   4.747  1.00  0.00     0.009 A 
ATOM     71  C   UNL     1     -10.608  -1.826   7.338  1.00  0.00     0.001 A 
ATOM     72  C   UNL     1     -10.235  -0.380   5.442  1.00  0.00     0.001 A 
ATOM     73  C   UNL     1     -10.724  -0.577   6.732  1.00  0.00     0.000 A 
ENDBRANCH  49  68
BRANCH  61  74
ATOM     74  C   UNL     1     -12.059  -8.718   2.933  1.00  0.00    -0.014 A 
ATOM     75  C   UNL     1     -13.155  -8.207   2.220  1.00  0.00     0.009 A 
ATOM     76  C   UNL     1     -12.237  -9.868   3.719  1.00  0.00     0.009 A 
ATOM     77  C   UNL     1     -14.409  -8.811   2.326  1.00  0.00     0.001 A 
ATOM     78  C   UNL     1     -13.484 -10.490   3.795  1.00  0.00     0.001 A 
ATOM     79  C   UNL     1     -14.572  -9.954   3.108  1.00  0.00     0.000 A 
ENDBRANCH  61  74
ENDBRANCH  35  36
ENDBRANCH  27  30
ENDBRANCH  25  26
ENDBRANCH  24  25
ENDBRANCH   1  24
TORSDOF 15
