REMARK SMILES CC(C)(C)[C@@H]1CC(C(=O)NCCCCNC(=O)c2ccc(-c3c4nc(c(-c5ccccc5)c5ccc([nH]5)c(-c5ccccc5)c5nc(c(-c6ccccc6)c6ccc3[nH]6)C=C5)C=C4)cc2)C[C@@H](C(C)(C)C)C1
REMARK SMILES IDX 13 1 12 2 11 3 10 4 8 5 9 6 7 8 5 9 6 10 72 11 67 12 66 13
REMARK SMILES IDX 2 14 1 15 3 16 4 17 68 18 69 19 70 20 71 21 14 22 15 23
REMARK SMILES IDX 16 24 17 26 18 27 19 28 65 29 20 30 64 31 21 32 22 33 23 34
REMARK SMILES IDX 58 35 24 36 63 37 57 38 59 39 25 40 62 41 56 42 55 43 26 45
REMARK SMILES IDX 48 46 33 47 47 48 34 49 37 50 46 51 60 52 35 53 36 54 45 56
REMARK SMILES IDX 61 57 38 58 27 59 28 60 32 61 29 62 31 63 30 64 49 65 50 66
REMARK SMILES IDX 54 67 51 68 53 69 52 70 39 71 40 72 44 73 41 74 43 75 42 76
REMARK H PARENT 10 7 15 25 59 44 37 55
REMARK Flexibility Score: inf
ROOT
ATOM      1  C   UNL     1      -4.643   1.826   2.891  1.00  0.00     0.023 C 
ENDROOT
BRANCH   1   2
ATOM      2  C   UNL     1      -3.454   2.156   1.994  1.00  0.00     0.023 C 
BRANCH   2   3
ATOM      3  C   UNL     1      -2.674   3.410   2.390  1.00  0.00     0.116 C 
BRANCH   3   4
ATOM      4  N   UNL     1      -2.042   3.267   3.688  1.00  0.00    -0.356 N 
ATOM      5  C   UNL     1      -0.731   3.144   4.033  1.00  0.00     0.223 C 
ATOM      6  O   UNL     1      -0.470   2.996   5.230  1.00  0.00    -0.275 OA
ATOM      7  H   UNL     1      -2.667   3.256   4.449  1.00  0.00     0.163 HD
BRANCH   5   8
ATOM      8  C   UNL     1       0.391   3.225   2.996  1.00  0.00     0.079 C 
ATOM      9  C   UNL     1       1.015   2.305   0.615  1.00  0.00    -0.005 C 
ATOM     10  C   UNL     1       0.306   2.086   1.967  1.00  0.00     0.017 C 
ATOM     11  C   UNL     1       0.905   3.766   0.158  1.00  0.00     0.008 C 
ATOM     12  C   UNL     1       1.368   4.806   1.193  1.00  0.00    -0.005 C 
ATOM     13  C   UNL     1       0.499   4.658   2.451  1.00  0.00     0.017 C 
BRANCH   9  14
ATOM     14  C   UNL     1       0.549   1.278  -0.503  1.00  0.00    -0.035 C 
ATOM     15  C   UNL     1       0.995  -0.147  -0.114  1.00  0.00     0.011 C 
ATOM     16  C   UNL     1       1.195   1.607  -1.867  1.00  0.00     0.011 C 
ATOM     17  C   UNL     1      -0.980   1.256  -0.717  1.00  0.00     0.011 C 
ENDBRANCH   9  14
BRANCH  12  18
ATOM     18  C   UNL     1       2.925   4.963   1.444  1.00  0.00    -0.035 C 
ATOM     19  C   UNL     1       3.445   4.278   2.722  1.00  0.00     0.011 C 
ATOM     20  C   UNL     1       3.786   4.457   0.268  1.00  0.00     0.011 C 
ATOM     21  C   UNL     1       3.223   6.477   1.595  1.00  0.00     0.011 C 
ENDBRANCH  12  18
ENDBRANCH   5   8
ENDBRANCH   3   4
ENDBRANCH   2   3
ENDBRANCH   1   2
BRANCH   1  22
ATOM     22  C   UNL     1      -5.625   2.967   3.098  1.00  0.00     0.116 C 
BRANCH  22  23
ATOM     23  N   UNL     1      -6.155   3.497   1.851  1.00  0.00    -0.352 N 
ATOM     24  C   UNL     1      -7.452   3.838   1.544  1.00  0.00     0.251 C 
ATOM     25  H   UNL     1      -5.497   3.630   1.130  1.00  0.00     0.163 HD
ATOM     26  O   UNL     1      -7.760   4.166   0.410  1.00  0.00    -0.269 OA
BRANCH  24  27
ATOM     27  C   UNL     1      -8.476   3.761   2.605  1.00  0.00     0.039 A 
ATOM     28  C   UNL     1      -9.660   3.068   2.348  1.00  0.00     0.014 A 
ATOM     29  C   UNL     1      -8.239   4.323   3.862  1.00  0.00     0.014 A 
ATOM     30  C   UNL     1     -10.581   2.877   3.378  1.00  0.00     0.010 A 
ATOM     31  C   UNL     1      -9.118   4.063   4.907  1.00  0.00     0.010 A 
ATOM     32  C   UNL     1     -10.298   3.340   4.674  1.00  0.00    -0.014 A 
BRANCH  32  33
ATOM     33  C   UNL     1     -11.226   3.083   5.801  1.00  0.00     0.031 A 
ATOM     34  C   UNL     1     -11.898   4.234   6.498  1.00  0.00     0.074 A 
ATOM     35  C   UNL     1     -11.412   1.823   6.240  1.00  0.00     0.049 A 
ATOM     36  N   UNL     1     -12.694   4.218   7.536  1.00  0.00    -0.248 NA
ATOM     37  C   UNL     1     -11.615   5.582   5.977  1.00  0.00     0.031 C 
ATOM     38  C   UNL     1     -10.779   0.626   5.681  1.00  0.00     0.029 A 
ATOM     39  N   UNL     1     -12.185   1.342   7.267  1.00  0.00    -0.354 N 
ATOM     40  C   UNL     1     -12.988   5.549   7.804  1.00  0.00     0.074 A 
ATOM     41  C   UNL     1     -12.246   6.348   6.854  1.00  0.00     0.031 C 
ATOM     42  C   UNL     1     -11.212  -0.453   6.353  1.00  0.00     0.029 A 
ATOM     43  C   UNL     1     -12.120  -0.023   7.411  1.00  0.00     0.049 A 
ATOM     44  H   UNL     1     -12.733   1.920   7.845  1.00  0.00     0.167 HD
ATOM     45  C   UNL     1     -13.817   6.061   8.743  1.00  0.00     0.031 A 
ATOM     46  C   UNL     1     -12.724  -0.836   8.298  1.00  0.00     0.031 A 
ATOM     47  C   UNL     1     -14.569   5.266   9.676  1.00  0.00     0.049 A 
ATOM     48  C   UNL     1     -13.645  -0.243   9.327  1.00  0.00     0.074 A 
ATOM     49  C   UNL     1     -15.485   5.686  10.624  1.00  0.00     0.029 A 
ATOM     50  N   UNL     1     -14.491   3.886   9.776  1.00  0.00    -0.354 N 
ATOM     51  N   UNL     1     -13.969   1.012   9.521  1.00  0.00    -0.248 NA
ATOM     52  C   UNL     1     -14.295  -1.184  10.251  1.00  0.00     0.031 C 
ATOM     53  C   UNL     1     -15.928   4.563  11.330  1.00  0.00     0.029 A 
ATOM     54  C   UNL     1     -15.328   3.439  10.784  1.00  0.00     0.049 A 
ATOM     55  H   UNL     1     -13.925   3.309   9.213  1.00  0.00     0.167 HD
ATOM     56  C   UNL     1     -14.879   1.010  10.570  1.00  0.00     0.074 A 
ATOM     57  C   UNL     1     -15.068  -0.372  10.959  1.00  0.00     0.031 C 
ATOM     58  C   UNL     1     -15.503   2.060  11.158  1.00  0.00     0.031 A 
BRANCH  45  59
ATOM     59  C   UNL     1     -13.950   7.556   8.805  1.00  0.00    -0.014 A 
ATOM     60  C   UNL     1     -14.614   8.270   7.794  1.00  0.00     0.009 A 
ATOM     61  C   UNL     1     -13.431   8.259   9.903  1.00  0.00     0.009 A 
ATOM     62  C   UNL     1     -14.722   9.660   7.863  1.00  0.00     0.001 A 
ATOM     63  C   UNL     1     -13.566   9.646   9.984  1.00  0.00     0.001 A 
ATOM     64  C   UNL     1     -14.202  10.346   8.960  1.00  0.00     0.000 A 
ENDBRANCH  45  59
BRANCH  46  65
ATOM     65  C   UNL     1     -12.494  -2.303   8.240  1.00  0.00    -0.014 A 
ATOM     66  C   UNL     1     -13.512  -3.165   7.804  1.00  0.00     0.009 A 
ATOM     67  C   UNL     1     -11.260  -2.849   8.624  1.00  0.00     0.009 A 
ATOM     68  C   UNL     1     -13.307  -4.546   7.779  1.00  0.00     0.001 A 
ATOM     69  C   UNL     1     -11.049  -4.228   8.572  1.00  0.00     0.001 A 
ATOM     70  C   UNL     1     -12.075  -5.076   8.159  1.00  0.00     0.000 A 
ENDBRANCH  46  65
BRANCH  58  71
ATOM     71  C   UNL     1     -16.474   1.750  12.261  1.00  0.00    -0.014 A 
ATOM     72  C   UNL     1     -16.032   1.335  13.526  1.00  0.00     0.009 A 
ATOM     73  C   UNL     1     -17.850   1.919  12.040  1.00  0.00     0.009 A 
ATOM     74  C   UNL     1     -16.953   1.063  14.540  1.00  0.00     0.001 A 
ATOM     75  C   UNL     1     -18.766   1.673  13.064  1.00  0.00     0.001 A 
ATOM     76  C   UNL     1     -18.317   1.237  14.309  1.00  0.00     0.000 A 
ENDBRANCH  58  71
ENDBRANCH  32  33
ENDBRANCH  24  27
ENDBRANCH  22  23
ENDBRANCH   1  22
TORSDOF 13
