REMARK SMILES C/C(=C(\C#N)C(=O)NCCCCNC(=O)c1ccc(-c2c3nc(c(-c4ccccc4)c4ccc([nH]4)c(-c4ccccc4)c4nc(c(-c5ccccc5)c5ccc2[nH]5)C=C4)C=C3)cc1)c1cccc2ccccc12
REMARK SMILES IDX 11 1 10 2 9 3 8 4 6 5 7 6 3 8 1 9 2 10 64 11 65 12 73 13
REMARK SMILES IDX 66 14 68 15 72 16 67 17 69 18 71 19 70 20 4 21 5 22 12 23
REMARK SMILES IDX 13 24 14 25 15 27 16 28 17 29 63 30 18 31 62 32 19 33 20 34
REMARK SMILES IDX 21 35 56 36 22 37 61 38 55 39 57 40 23 41 60 42 54 43 53 44
REMARK SMILES IDX 24 46 46 47 31 48 45 49 32 50 35 51 44 52 58 53 33 54 34 55
REMARK SMILES IDX 43 57 59 58 36 59 25 60 26 61 30 62 27 63 29 64 28 65 47 66
REMARK SMILES IDX 48 67 52 68 49 69 51 70 50 71 37 72 38 73 42 74 39 75 41 76
REMARK SMILES IDX 40 77
REMARK H PARENT 8 7 13 26 57 45 35 56
REMARK Flexibility Score: inf
ROOT
ATOM      1  C   UNL     1      -4.411  -3.866   3.689  1.00  0.00     0.023 C 
ENDROOT
BRANCH   1   2
ATOM      2  C   UNL     1      -3.450  -2.689   3.494  1.00  0.00     0.023 C 
BRANCH   2   3
ATOM      3  C   UNL     1      -1.987  -3.055   3.722  1.00  0.00     0.116 C 
BRANCH   3   4
ATOM      4  N   UNL     1      -1.390  -3.694   2.564  1.00  0.00    -0.351 N 
ATOM      5  C   UNL     1      -0.597  -3.287   1.534  1.00  0.00     0.262 C 
ATOM      6  O   UNL     1      -0.104  -4.225   0.904  1.00  0.00    -0.268 OA
ATOM      7  H   UNL     1      -1.610  -4.652   2.510  1.00  0.00     0.163 HD
BRANCH   5   8
ATOM      8  C   UNL     1      -0.288  -1.829   1.202  1.00  0.00     0.120 C 
ATOM      9  C   UNL     1       0.904  -0.037  -0.105  1.00  0.00     0.046 C 
ATOM     10  C   UNL     1       0.385  -1.442   0.072  1.00  0.00    -0.020 C 
BRANCH  10  11
ATOM     11  C   UNL     1       0.627  -2.386  -1.089  1.00  0.00    -0.013 A 
ATOM     12  C   UNL     1      -0.531  -3.036  -1.571  1.00  0.00     0.009 A 
ATOM     13  C   UNL     1       1.892  -2.740  -1.682  1.00  0.00    -0.011 A 
ATOM     14  C   UNL     1      -0.450  -4.165  -2.378  1.00  0.00     0.001 A 
ATOM     15  C   UNL     1       1.954  -3.936  -2.457  1.00  0.00    -0.018 A 
ATOM     16  C   UNL     1       3.107  -2.005  -1.609  1.00  0.00     0.009 A 
ATOM     17  C   UNL     1       0.792  -4.653  -2.751  1.00  0.00     0.009 A 
ATOM     18  C   UNL     1       3.170  -4.411  -2.978  1.00  0.00     0.009 A 
ATOM     19  C   UNL     1       4.287  -2.430  -2.241  1.00  0.00     0.001 A 
ATOM     20  C   UNL     1       4.330  -3.654  -2.889  1.00  0.00     0.001 A 
ENDBRANCH  10  11
BRANCH   8  21
ATOM     21  C   UNL     1      -0.655  -0.844   2.300  1.00  0.00     0.105 C 
ATOM     22  N   UNL     1      -0.959  -0.026   3.210  1.00  0.00    -0.192 NA
ENDBRANCH   8  21
ENDBRANCH   5   8
ENDBRANCH   3   4
ENDBRANCH   2   3
ENDBRANCH   1   2
BRANCH   1  23
ATOM     23  C   UNL     1      -4.265  -4.601   5.020  1.00  0.00     0.116 C 
BRANCH  23  24
ATOM     24  N   UNL     1      -4.301  -3.719   6.176  1.00  0.00    -0.352 N 
ATOM     25  C   UNL     1      -4.736  -3.994   7.450  1.00  0.00     0.251 C 
ATOM     26  H   UNL     1      -3.969  -2.804   6.026  1.00  0.00     0.163 HD
ATOM     27  O   UNL     1      -4.820  -3.108   8.286  1.00  0.00    -0.269 OA
BRANCH  25  28
ATOM     28  C   UNL     1      -5.144  -5.374   7.782  1.00  0.00     0.039 A 
ATOM     29  C   UNL     1      -6.364  -5.569   8.430  1.00  0.00     0.014 A 
ATOM     30  C   UNL     1      -4.345  -6.464   7.428  1.00  0.00     0.014 A 
ATOM     31  C   UNL     1      -6.808  -6.867   8.672  1.00  0.00     0.010 A 
ATOM     32  C   UNL     1      -4.830  -7.757   7.592  1.00  0.00     0.010 A 
ATOM     33  C   UNL     1      -6.062  -7.972   8.223  1.00  0.00    -0.014 A 
BRANCH  33  34
ATOM     34  C   UNL     1      -6.584  -9.348   8.406  1.00  0.00     0.031 A 
ATOM     35  C   UNL     1      -5.858 -10.334   9.278  1.00  0.00     0.074 A 
ATOM     36  C   UNL     1      -7.716  -9.709   7.771  1.00  0.00     0.049 A 
ATOM     37  N   UNL     1      -6.212 -11.549   9.617  1.00  0.00    -0.248 NA
ATOM     38  C   UNL     1      -4.557  -9.916   9.825  1.00  0.00     0.031 C 
ATOM     39  C   UNL     1      -8.476  -8.863   6.848  1.00  0.00     0.029 A 
ATOM     40  N   UNL     1      -8.435 -10.875   7.821  1.00  0.00    -0.354 N 
ATOM     41  C   UNL     1      -5.181 -12.035  10.410  1.00  0.00     0.074 A 
ATOM     42  C   UNL     1      -4.158 -11.014  10.449  1.00  0.00     0.031 C 
ATOM     43  C   UNL     1      -9.585  -9.515   6.466  1.00  0.00     0.029 A 
ATOM     44  C   UNL     1      -9.595 -10.835   7.086  1.00  0.00     0.049 A 
ATOM     45  H   UNL     1      -8.149 -11.665   8.334  1.00  0.00     0.167 HD
ATOM     46  C   UNL     1      -5.103 -13.215  11.070  1.00  0.00     0.031 A 
ATOM     47  C   UNL     1     -10.567 -11.755   6.939  1.00  0.00     0.031 A 
ATOM     48  C   UNL     1      -6.120 -14.232  11.026  1.00  0.00     0.049 A 
ATOM     49  C   UNL     1     -10.455 -13.056   7.682  1.00  0.00     0.074 A 
ATOM     50  C   UNL     1      -6.161 -15.442  11.697  1.00  0.00     0.029 A 
ATOM     51  N   UNL     1      -7.274 -14.161  10.260  1.00  0.00    -0.354 N 
ATOM     52  N   UNL     1      -9.516 -13.466   8.500  1.00  0.00    -0.248 NA
ATOM     53  C   UNL     1     -11.553 -14.014   7.495  1.00  0.00     0.031 C 
ATOM     54  C   UNL     1      -7.311 -16.128  11.291  1.00  0.00     0.029 A 
ATOM     55  C   UNL     1      -8.021 -15.316  10.421  1.00  0.00     0.049 A 
ATOM     56  H   UNL     1      -7.526 -13.401   9.687  1.00  0.00     0.167 HD
ATOM     57  C   UNL     1      -9.922 -14.717   8.946  1.00  0.00     0.074 A 
ATOM     58  C   UNL     1     -11.207 -14.982   8.331  1.00  0.00     0.031 C 
ATOM     59  C   UNL     1      -9.290 -15.572   9.788  1.00  0.00     0.031 A 
BRANCH  46  60
ATOM     60  C   UNL     1      -3.868 -13.469  11.892  1.00  0.00    -0.014 A 
ATOM     61  C   UNL     1      -3.605 -12.732  13.059  1.00  0.00     0.009 A 
ATOM     62  C   UNL     1      -2.971 -14.480  11.515  1.00  0.00     0.009 A 
ATOM     63  C   UNL     1      -2.452 -12.976  13.809  1.00  0.00     0.001 A 
ATOM     64  C   UNL     1      -1.836 -14.745  12.284  1.00  0.00     0.001 A 
ATOM     65  C   UNL     1      -1.572 -13.986  13.424  1.00  0.00     0.000 A 
ENDBRANCH  46  60
BRANCH  47  66
ATOM     66  C   UNL     1     -11.746 -11.467   6.079  1.00  0.00    -0.014 A 
ATOM     67  C   UNL     1     -13.021 -11.303   6.642  1.00  0.00     0.009 A 
ATOM     68  C   UNL     1     -11.604 -11.371   4.686  1.00  0.00     0.009 A 
ATOM     69  C   UNL     1     -14.133 -11.083   5.827  1.00  0.00     0.001 A 
ATOM     70  C   UNL     1     -12.712 -11.116   3.876  1.00  0.00     0.001 A 
ATOM     71  C   UNL     1     -13.977 -10.986   4.445  1.00  0.00     0.000 A 
ENDBRANCH  47  66
BRANCH  59  72
ATOM     72  C   UNL     1     -10.001 -16.858  10.110  1.00  0.00    -0.014 A 
ATOM     73  C   UNL     1     -10.188 -17.855   9.139  1.00  0.00     0.009 A 
ATOM     74  C   UNL     1     -10.494 -17.073  11.406  1.00  0.00     0.009 A 
ATOM     75  C   UNL     1     -10.905 -19.014   9.445  1.00  0.00     0.001 A 
ATOM     76  C   UNL     1     -11.177 -18.248  11.720  1.00  0.00     0.001 A 
ATOM     77  C   UNL     1     -11.397 -19.210  10.735  1.00  0.00     0.000 A 
ENDBRANCH  59  72
ENDBRANCH  33  34
ENDBRANCH  25  28
ENDBRANCH  23  24
ENDBRANCH   1  23
TORSDOF 13
