REMARK SMILES Cc1nc2cc(S(=O)(=O)N3CCC(C(=O)NCCCCNC(=O)c4ccc(-c5c6nc(c(-c7ccccc7)c7ccc([nH]7)c(-c7ccccc7)c7nc(c(-c8ccccc8)c8ccc5[nH]8)C=C7)C=C6)cc4)CC3)ccc2n1C1CCCC1
REMARK SMILES IDX 18 1 17 2 16 3 14 4 15 5 13 7 10 8 11 9 73 10 12 11 72 12
REMARK SMILES IDX 7 13 8 14 9 15 6 16 1 17 2 18 3 19 77 20 4 21 76 22 5 23
REMARK SMILES IDX 75 24 74 25 78 26 79 27 82 28 80 29 81 30 19 31 20 32 21 33
REMARK SMILES IDX 22 34 23 36 24 37 25 38 71 39 26 40 70 41 27 42 28 43 29 44
REMARK SMILES IDX 64 45 30 46 69 47 63 48 65 49 31 50 68 51 62 52 61 53 32 55
REMARK SMILES IDX 54 56 39 57 53 58 40 59 43 60 52 61 66 62 41 63 42 64 51 66
REMARK SMILES IDX 67 67 44 68 33 69 34 70 38 71 35 72 37 73 36 74 55 75 56 76
REMARK SMILES IDX 60 77 57 78 59 79 58 80 45 81 46 82 50 83 47 84 49 85 48 86
REMARK H PARENT 16 6 21 35 65 54 43 65
REMARK Flexibility Score: inf
ROOT
ATOM      1  C   UNL     1      -4.202   2.113 -12.468  1.00  0.00     0.023 C 
ENDROOT
BRANCH   1   2
ATOM      2  C   UNL     1      -2.776   2.246 -11.962  1.00  0.00     0.116 C 
BRANCH   2   3
ATOM      3  N   UNL     1      -2.486   3.598 -11.505  1.00  0.00    -0.356 N 
ATOM      4  C   UNL     1      -2.039   4.040 -10.296  1.00  0.00     0.223 C 
ATOM      5  O   UNL     1      -1.847   5.247 -10.145  1.00  0.00    -0.275 OA
ATOM      6  H   UNL     1      -2.637   4.303 -12.175  1.00  0.00     0.163 HD
BRANCH   4   7
ATOM      7  C   UNL     1      -1.775   3.062  -9.164  1.00  0.00     0.081 C 
ATOM      8  N   UNL     1      -1.720   0.342  -8.140  1.00  0.00    -0.198 NA
ATOM      9  C   UNL     1      -2.919   1.167  -7.864  1.00  0.00     0.103 C 
ATOM     10  C   UNL     1      -0.457   0.960  -8.604  1.00  0.00     0.103 C 
ATOM     11  C   UNL     1      -3.074   2.396  -8.729  1.00  0.00     0.030 C 
ATOM     12  C   UNL     1      -0.643   2.119  -9.551  1.00  0.00     0.030 C 
BRANCH   8  13
ATOM     13  S   UNL     1      -1.478  -0.933  -6.998  1.00  0.00     0.243 S 
ATOM     14  O   UNL     1      -0.386  -1.741  -7.477  1.00  0.00    -0.207 OA
ATOM     15  O   UNL     1      -2.782  -1.500  -6.701  1.00  0.00    -0.207 OA
BRANCH  13  16
ATOM     16  C   UNL     1      -0.915  -0.139  -5.498  1.00  0.00     0.085 A 
ATOM     17  C   UNL     1       1.118  -0.121   0.121  1.00  0.00     0.088 C 
ATOM     18  C   UNL     1       0.641   0.047  -1.275  1.00  0.00     0.106 A 
ATOM     19  N   UNL     1       0.300  -0.945  -2.073  1.00  0.00    -0.233 NA
ATOM     20  N   UNL     1       0.502   1.264  -1.909  1.00  0.00    -0.325 N 
ATOM     21  C   UNL     1      -0.097  -0.369  -3.248  1.00  0.00     0.090 A 
ATOM     22  C   UNL     1       0.004   1.016  -3.170  1.00  0.00     0.068 A 
ATOM     23  C   UNL     1      -0.561  -0.972  -4.428  1.00  0.00     0.052 A 
ATOM     24  C   UNL     1      -0.357   1.855  -4.221  1.00  0.00     0.030 A 
ATOM     25  C   UNL     1      -0.811   1.250  -5.385  1.00  0.00     0.024 A 
BRANCH  20  26
ATOM     26  C   UNL     1       0.806   2.574  -1.362  1.00  0.00     0.089 C 
ATOM     27  C   UNL     1       1.826   3.384  -2.169  1.00  0.00     0.025 C 
ATOM     28  C   UNL     1      -0.414   3.494  -1.237  1.00  0.00     0.025 C 
ATOM     29  C   UNL     1       1.592   4.822  -1.734  1.00  0.00     0.002 C 
ATOM     30  C   UNL     1       0.119   4.920  -1.354  1.00  0.00     0.002 C 
ENDBRANCH  20  26
ENDBRANCH  13  16
ENDBRANCH   8  13
ENDBRANCH   4   7
ENDBRANCH   2   3
ENDBRANCH   1   2
BRANCH   1  31
ATOM     31  C   UNL     1      -4.485   2.920 -13.731  1.00  0.00     0.023 C 
BRANCH  31  32
ATOM     32  C   UNL     1      -3.482   2.696 -14.868  1.00  0.00     0.116 C 
BRANCH  32  33
ATOM     33  N   UNL     1      -3.292   1.306 -15.236  1.00  0.00    -0.352 N 
ATOM     34  C   UNL     1      -3.983   0.421 -16.018  1.00  0.00     0.251 C 
ATOM     35  H   UNL     1      -2.485   0.911 -14.834  1.00  0.00     0.163 HD
ATOM     36  O   UNL     1      -3.453  -0.676 -16.209  1.00  0.00    -0.269 OA
BRANCH  34  37
ATOM     37  C   UNL     1      -5.334   0.672 -16.591  1.00  0.00     0.039 A 
ATOM     38  C   UNL     1      -6.019   1.882 -16.520  1.00  0.00     0.014 A 
ATOM     39  C   UNL     1      -5.974  -0.419 -17.207  1.00  0.00     0.014 A 
ATOM     40  C   UNL     1      -7.342   1.974 -16.924  1.00  0.00     0.010 A 
ATOM     41  C   UNL     1      -7.287  -0.318 -17.668  1.00  0.00     0.010 A 
ATOM     42  C   UNL     1      -7.986   0.870 -17.479  1.00  0.00    -0.014 A 
BRANCH  42  43
ATOM     43  C   UNL     1      -9.371   1.072 -17.892  1.00  0.00     0.031 A 
ATOM     44  C   UNL     1      -9.617   2.175 -18.868  1.00  0.00     0.074 A 
ATOM     45  C   UNL     1     -10.401   0.307 -17.487  1.00  0.00     0.049 A 
ATOM     46  N   UNL     1     -10.392   3.204 -18.735  1.00  0.00    -0.248 NA
ATOM     47  C   UNL     1      -8.857   2.152 -20.126  1.00  0.00     0.031 C 
ATOM     48  C   UNL     1     -10.363  -0.967 -16.770  1.00  0.00     0.029 A 
ATOM     49  N   UNL     1     -11.728   0.486 -17.746  1.00  0.00    -0.354 N 
ATOM     50  C   UNL     1     -10.316   3.909 -19.935  1.00  0.00     0.074 A 
ATOM     51  C   UNL     1      -9.302   3.256 -20.727  1.00  0.00     0.031 C 
ATOM     52  C   UNL     1     -11.574  -1.559 -16.867  1.00  0.00     0.029 A 
ATOM     53  C   UNL     1     -12.494  -0.643 -17.522  1.00  0.00     0.049 A 
ATOM     54  H   UNL     1     -12.104   1.339 -18.063  1.00  0.00     0.167 HD
ATOM     55  C   UNL     1     -11.175   4.915 -20.258  1.00  0.00     0.031 A 
ATOM     56  C   UNL     1     -13.772  -0.836 -17.919  1.00  0.00     0.031 A 
ATOM     57  C   UNL     1     -11.871   5.431 -19.113  1.00  0.00     0.049 A 
ATOM     58  C   UNL     1     -14.388   0.484 -18.175  1.00  0.00     0.074 A 
ATOM     59  C   UNL     1     -11.492   6.081 -17.956  1.00  0.00     0.029 A 
ATOM     60  N   UNL     1     -13.173   5.043 -18.916  1.00  0.00    -0.354 N 
ATOM     61  N   UNL     1     -14.688   1.339 -17.241  1.00  0.00    -0.248 NA
ATOM     62  C   UNL     1     -14.363   1.022 -19.526  1.00  0.00     0.031 C 
ATOM     63  C   UNL     1     -12.409   5.635 -16.963  1.00  0.00     0.029 A 
ATOM     64  C   UNL     1     -13.303   4.758 -17.581  1.00  0.00     0.049 A 
ATOM     65  H   UNL     1     -13.877   4.982 -19.601  1.00  0.00     0.167 HD
ATOM     66  C   UNL     1     -14.469   2.582 -17.814  1.00  0.00     0.074 A 
ATOM     67  C   UNL     1     -14.411   2.328 -19.250  1.00  0.00     0.031 C 
ATOM     68  C   UNL     1     -14.072   3.649 -17.058  1.00  0.00     0.031 A 
BRANCH  55  69
ATOM     69  C   UNL     1     -11.579   5.272 -21.665  1.00  0.00    -0.014 A 
ATOM     70  C   UNL     1     -11.403   4.403 -22.757  1.00  0.00     0.009 A 
ATOM     71  C   UNL     1     -12.388   6.404 -21.882  1.00  0.00     0.009 A 
ATOM     72  C   UNL     1     -11.997   4.646 -24.000  1.00  0.00     0.001 A 
ATOM     73  C   UNL     1     -13.020   6.627 -23.112  1.00  0.00     0.001 A 
ATOM     74  C   UNL     1     -12.825   5.746 -24.170  1.00  0.00     0.000 A 
ENDBRANCH  55  69
BRANCH  56  75
ATOM     75  C   UNL     1     -14.407  -2.098 -18.346  1.00  0.00    -0.014 A 
ATOM     76  C   UNL     1     -13.632  -3.123 -18.919  1.00  0.00     0.009 A 
ATOM     77  C   UNL     1     -15.802  -2.200 -18.439  1.00  0.00     0.009 A 
ATOM     78  C   UNL     1     -14.227  -4.195 -19.589  1.00  0.00     0.001 A 
ATOM     79  C   UNL     1     -16.398  -3.269 -19.118  1.00  0.00     0.001 A 
ATOM     80  C   UNL     1     -15.611  -4.258 -19.703  1.00  0.00     0.000 A 
ENDBRANCH  56  75
BRANCH  68  81
ATOM     81  C   UNL     1     -14.124   3.522 -15.552  1.00  0.00    -0.014 A 
ATOM     82  C   UNL     1     -14.720   4.550 -14.805  1.00  0.00     0.009 A 
ATOM     83  C   UNL     1     -13.448   2.505 -14.855  1.00  0.00     0.009 A 
ATOM     84  C   UNL     1     -14.644   4.559 -13.409  1.00  0.00     0.001 A 
ATOM     85  C   UNL     1     -13.397   2.498 -13.459  1.00  0.00     0.001 A 
ATOM     86  C   UNL     1     -13.988   3.530 -12.736  1.00  0.00     0.000 A 
ENDBRANCH  68  81
ENDBRANCH  42  43
ENDBRANCH  34  37
ENDBRANCH  32  33
ENDBRANCH  31  32
ENDBRANCH   1  31
TORSDOF 14
