REMARK SMILES CC1=C(C)C[C@@H](C(=O)NCCCCNC(=O)c2ccc(-c3c4nc(c(-c5ccccc5)c5ccc([nH]5)c(-c5ccccc5)c5nc(c(-c6ccccc6)c6ccc3[nH]6)C=C5)C=C4)cc2)[C@@H](C(=O)N2CCN(c3cccc(C(F)(F)F)c3)CC2)C1
REMARK SMILES IDX 11 1 10 2 9 3 7 4 8 5 6 7 1 8 2 9 3 10 84 11 4 12 5 13 65 14
REMARK SMILES IDX 66 15 67 16 68 17 69 18 83 19 70 20 82 21 71 22 72 23 73 24
REMARK SMILES IDX 81 25 74 26 76 27 75 28 77 29 78 30 79 31 80 32 12 33 13 34
REMARK SMILES IDX 14 35 15 36 16 38 17 39 18 40 64 41 19 42 63 43 20 44 21 45
REMARK SMILES IDX 22 46 57 47 23 48 62 49 56 50 58 51 24 52 61 53 55 54 54 55
REMARK SMILES IDX 25 57 47 58 32 59 46 60 33 61 36 62 45 63 59 64 34 65 35 66
REMARK SMILES IDX 44 68 60 69 37 70 26 71 27 72 31 73 28 74 30 75 29 76 48 77
REMARK SMILES IDX 49 78 53 79 50 80 52 81 51 82 38 83 39 84 43 85 40 86 42 87
REMARK SMILES IDX 41 88
REMARK H PARENT 9 6 14 37 58 56 36 67
REMARK Flexibility Score: inf
ROOT
ATOM      1  C   UNL     1       3.439   1.493   2.276  1.00  0.00     0.023 C 
ENDROOT
BRANCH   1   2
ATOM      2  C   UNL     1       2.335   1.456   3.328  1.00  0.00     0.116 C 
BRANCH   2   3
ATOM      3  N   UNL     1       2.033   2.736   3.929  1.00  0.00    -0.356 N 
ATOM      4  C   UNL     1       1.115   3.690   3.648  1.00  0.00     0.224 C 
ATOM      5  O   UNL     1       1.089   4.673   4.400  1.00  0.00    -0.275 OA
ATOM      6  H   UNL     1       2.610   2.958   4.696  1.00  0.00     0.163 HD
BRANCH   4   7
ATOM      7  C   UNL     1       0.131   3.637   2.478  1.00  0.00     0.095 C 
ATOM      8  C   UNL     1       0.743   0.321  -0.368  1.00  0.00     0.039 C 
ATOM      9  C   UNL     1       0.279   1.449   0.523  1.00  0.00    -0.074 C 
ATOM     10  C   UNL     1      -0.537   1.303   1.589  1.00  0.00    -0.074 C 
ATOM     11  C   UNL     1       0.865   2.790   0.130  1.00  0.00     0.045 C 
ATOM     12  C   UNL     1      -1.172   0.009   2.040  1.00  0.00     0.039 C 
ATOM     13  C   UNL     1      -0.847   2.460   2.510  1.00  0.00     0.045 C 
ATOM     14  C   UNL     1       0.682   3.982   1.094  1.00  0.00     0.095 C 
BRANCH  14  15
ATOM     15  C   UNL     1       1.994   4.778   1.131  1.00  0.00     0.226 C 
ATOM     16  O   UNL     1       3.035   4.356   1.624  1.00  0.00    -0.275 OA
ATOM     17  N   UNL     1       2.004   5.936   0.388  1.00  0.00    -0.339 N 
ATOM     18  C   UNL     1       3.252   6.291  -0.288  1.00  0.00     0.141 C 
ATOM     19  C   UNL     1       1.190   7.081   0.801  1.00  0.00     0.141 C 
ATOM     20  C   UNL     1       2.971   7.159  -1.518  1.00  0.00     0.138 C 
ATOM     21  C   UNL     1       0.941   8.070  -0.349  1.00  0.00     0.138 C 
ATOM     22  N   UNL     1       2.166   8.317  -1.119  1.00  0.00    -0.368 N 
BRANCH  22  23
ATOM     23  C   UNL     1       2.633   9.581  -1.386  1.00  0.00     0.037 A 
ATOM     24  C   UNL     1       2.910   9.971  -2.701  1.00  0.00     0.026 A 
ATOM     25  C   UNL     1       2.899  10.488  -0.356  1.00  0.00     0.039 A 
ATOM     26  C   UNL     1       3.428  11.233  -2.988  1.00  0.00     0.003 A 
ATOM     27  C   UNL     1       3.451  11.752  -0.621  1.00  0.00     0.058 A 
ATOM     28  C   UNL     1       3.701  12.120  -1.951  1.00  0.00     0.013 A 
BRANCH  27  29
ATOM     29  C   UNL     1       3.793  12.698   0.500  1.00  0.00     0.416 C 
ATOM     30  F   UNL     1       5.099  13.088   0.471  1.00  0.00    -0.166 F 
ATOM     31  F   UNL     1       3.061  13.845   0.456  1.00  0.00    -0.166 F 
ATOM     32  F   UNL     1       3.592  12.174   1.742  1.00  0.00    -0.166 F 
ENDBRANCH  27  29
ENDBRANCH  22  23
ENDBRANCH  14  15
ENDBRANCH   4   7
ENDBRANCH   2   3
ENDBRANCH   1   2
BRANCH   1  33
ATOM     33  C   UNL     1       4.808   1.909   2.811  1.00  0.00     0.023 C 
BRANCH  33  34
ATOM     34  C   UNL     1       5.352   0.946   3.849  1.00  0.00     0.116 C 
BRANCH  34  35
ATOM     35  N   UNL     1       5.419  -0.421   3.350  1.00  0.00    -0.352 N 
ATOM     36  C   UNL     1       6.313  -1.407   3.681  1.00  0.00     0.251 C 
ATOM     37  H   UNL     1       4.733  -0.670   2.689  1.00  0.00     0.163 HD
ATOM     38  O   UNL     1       6.343  -2.463   3.079  1.00  0.00    -0.269 OA
BRANCH  36  39
ATOM     39  C   UNL     1       7.260  -1.133   4.775  1.00  0.00     0.039 A 
ATOM     40  C   UNL     1       8.620  -1.348   4.555  1.00  0.00     0.014 A 
ATOM     41  C   UNL     1       6.793  -0.611   5.984  1.00  0.00     0.014 A 
ATOM     42  C   UNL     1       9.527  -1.000   5.550  1.00  0.00     0.010 A 
ATOM     43  C   UNL     1       7.703  -0.182   6.934  1.00  0.00     0.010 A 
ATOM     44  C   UNL     1       9.074  -0.397   6.734  1.00  0.00    -0.014 A 
BRANCH  44  45
ATOM     45  C   UNL     1      10.018  -0.017   7.805  1.00  0.00     0.031 A 
ATOM     46  C   UNL     1       9.938  -0.702   9.137  1.00  0.00     0.074 A 
ATOM     47  C   UNL     1      10.884   0.991   7.597  1.00  0.00     0.049 A 
ATOM     48  N   UNL     1      10.639  -0.486  10.219  1.00  0.00    -0.248 NA
ATOM     49  C   UNL     1       8.904  -1.740   9.288  1.00  0.00     0.031 C 
ATOM     50  C   UNL     1      10.995   1.775   6.365  1.00  0.00     0.029 A 
ATOM     51  N   UNL     1      11.830   1.533   8.426  1.00  0.00    -0.354 N 
ATOM     52  C   UNL     1      10.109  -1.334  11.182  1.00  0.00     0.074 A 
ATOM     53  C   UNL     1       8.995  -2.027  10.576  1.00  0.00     0.031 C 
ATOM     54  C   UNL     1      11.973   2.683   6.511  1.00  0.00     0.029 A 
ATOM     55  C   UNL     1      12.535   2.561   7.852  1.00  0.00     0.049 A 
ATOM     56  H   UNL     1      11.988   1.216   9.344  1.00  0.00     0.167 HD
ATOM     57  C   UNL     1      10.528  -1.535  12.453  1.00  0.00     0.031 A 
ATOM     58  C   UNL     1      13.526   3.318   8.355  1.00  0.00     0.031 A 
ATOM     59  C   UNL     1      11.655  -0.860  13.036  1.00  0.00     0.049 A 
ATOM     60  C   UNL     1      14.013   3.043   9.749  1.00  0.00     0.074 A 
ATOM     61  C   UNL     1      12.227  -1.051  14.280  1.00  0.00     0.029 A 
ATOM     62  N   UNL     1      12.380   0.141  12.406  1.00  0.00    -0.354 N 
ATOM     63  N   UNL     1      13.571   2.166  10.618  1.00  0.00    -0.248 NA
ATOM     64  C   UNL     1      15.148   3.846  10.222  1.00  0.00     0.031 C 
ATOM     65  C   UNL     1      13.272  -0.131  14.421  1.00  0.00     0.029 A 
ATOM     66  C   UNL     1      13.381   0.596  13.245  1.00  0.00     0.049 A 
ATOM     67  H   UNL     1      12.207   0.478  11.498  1.00  0.00     0.167 HD
ATOM     68  C   UNL     1      14.383   2.298  11.736  1.00  0.00     0.074 A 
ATOM     69  C   UNL     1      15.356   3.327  11.425  1.00  0.00     0.031 C 
ATOM     70  C   UNL     1      14.330   1.629  12.914  1.00  0.00     0.031 A 
BRANCH  57  71
ATOM     71  C   UNL     1       9.748  -2.513  13.286  1.00  0.00    -0.014 A 
ATOM     72  C   UNL     1       9.757  -3.889  13.001  1.00  0.00     0.009 A 
ATOM     73  C   UNL     1       8.980  -2.051  14.365  1.00  0.00     0.009 A 
ATOM     74  C   UNL     1       8.973  -4.772  13.745  1.00  0.00     0.001 A 
ATOM     75  C   UNL     1       8.222  -2.941  15.129  1.00  0.00     0.001 A 
ATOM     76  C   UNL     1       8.208  -4.298  14.809  1.00  0.00     0.000 A 
ENDBRANCH  57  71
BRANCH  58  77
ATOM     77  C   UNL     1      14.137   4.377   7.514  1.00  0.00    -0.014 A 
ATOM     78  C   UNL     1      15.410   4.195   6.954  1.00  0.00     0.009 A 
ATOM     79  C   UNL     1      13.432   5.557   7.231  1.00  0.00     0.009 A 
ATOM     80  C   UNL     1      15.972   5.181   6.140  1.00  0.00     0.001 A 
ATOM     81  C   UNL     1      13.986   6.530   6.397  1.00  0.00     0.001 A 
ATOM     82  C   UNL     1      15.258   6.344   5.857  1.00  0.00     0.000 A 
ENDBRANCH  58  77
BRANCH  70  83
ATOM     83  C   UNL     1      15.364   1.980  13.944  1.00  0.00    -0.014 A 
ATOM     84  C   UNL     1      15.300   3.188  14.655  1.00  0.00     0.009 A 
ATOM     85  C   UNL     1      16.390   1.068  14.236  1.00  0.00     0.009 A 
ATOM     86  C   UNL     1      16.263   3.489  15.619  1.00  0.00     0.001 A 
ATOM     87  C   UNL     1      17.336   1.360  15.219  1.00  0.00     0.001 A 
ATOM     88  C   UNL     1      17.276   2.573  15.903  1.00  0.00     0.000 A 
ENDBRANCH  70  83
ENDBRANCH  44  45
ENDBRANCH  36  39
ENDBRANCH  34  35
ENDBRANCH  33  34
ENDBRANCH   1  33
TORSDOF 14
