REMARK SMILES Cn1c(=O)[nH]c(=O)c2c1nc(NC1CCCC1)n2CC(=O)NCCCCNC(=O)c1ccc(-c2c3nc(c(-c4ccccc4)c4ccc([nH]4)c(-c4ccccc4)c4nc(c(-c5ccccc5)c5ccc2[nH]5)C=C4)C=C3)cc1
REMARK SMILES IDX 24 1 23 2 22 3 20 4 21 5 19 7 18 8 1 9 2 10 3 11 9 12 4 13
REMARK SMILES IDX 5 14 8 15 10 16 6 17 11 19 7 20 12 21 13 23 14 24 17 25
REMARK SMILES IDX 15 26 16 27 25 28 26 29 27 30 28 31 29 33 30 34 31 35 77 36
REMARK SMILES IDX 32 37 76 38 33 39 34 40 35 41 70 42 36 43 75 44 69 45 71 46
REMARK SMILES IDX 37 47 74 48 68 49 67 50 38 52 60 53 45 54 59 55 46 56 49 57
REMARK SMILES IDX 58 58 72 59 47 60 48 61 57 63 73 64 50 65 39 66 40 67 44 68
REMARK SMILES IDX 41 69 43 70 42 71 61 72 62 73 66 74 63 75 65 76 64 77 51 78
REMARK SMILES IDX 52 79 56 80 53 81 55 82 54 83
REMARK H PARENT 22 6 5 18 12 22 27 32 71 51 49 62
REMARK Flexibility Score: inf
ROOT
ATOM      1  C   UNL     1      -2.792   2.836  -2.029  1.00  0.00     0.023 C 
ENDROOT
BRANCH   1   2
ATOM      2  C   UNL     1      -2.771   3.195  -3.520  1.00  0.00     0.116 C 
BRANCH   2   3
ATOM      3  N   UNL     1      -2.273   4.535  -3.767  1.00  0.00    -0.355 N 
ATOM      4  C   UNL     1      -1.018   4.938  -4.128  1.00  0.00     0.240 C 
ATOM      5  O   UNL     1      -0.793   6.150  -4.201  1.00  0.00    -0.273 OA
ATOM      6  H   UNL     1      -2.933   5.257  -3.658  1.00  0.00     0.163 HD
BRANCH   4   7
ATOM      7  C   UNL     1       0.067   3.932  -4.459  1.00  0.00     0.226 C 
BRANCH   7   8
ATOM      8  N   UNL     1       0.494   3.161  -3.309  1.00  0.00    -0.295 N 
ATOM      9  C   UNL     1       1.116   0.083   0.054  1.00  0.00     0.157 C 
ATOM     10  N   UNL     1       0.762   0.295  -1.336  1.00  0.00    -0.279 N 
ATOM     11  C   UNL     1       0.360  -0.768  -2.135  1.00  0.00     0.329 A 
ATOM     12  C   UNL     1       0.809   1.557  -1.887  1.00  0.00     0.170 A 
ATOM     13  O   UNL     1       0.264  -1.930  -1.741  1.00  0.00    -0.248 OA
ATOM     14  N   UNL     1       0.043  -0.482  -3.450  1.00  0.00    -0.272 N 
ATOM     15  C   UNL     1       0.452   1.795  -3.182  1.00  0.00     0.154 A 
ATOM     16  N   UNL     1       1.140   2.698  -1.237  1.00  0.00    -0.194 NA
ATOM     17  C   UNL     1       0.055   0.750  -4.060  1.00  0.00     0.279 A 
ATOM     18  H   UNL     1      -0.221  -1.245  -4.012  1.00  0.00     0.175 HD
ATOM     19  C   UNL     1       0.947   3.671  -2.103  1.00  0.00     0.206 A 
ATOM     20  O   UNL     1      -0.283   0.899  -5.231  1.00  0.00    -0.267 OA
BRANCH  19  21
ATOM     21  N   UNL     1       1.099   4.996  -1.900  1.00  0.00    -0.353 N 
ATOM     22  H   UNL     1       0.883   5.612  -2.637  1.00  0.00     0.163 HD
BRANCH  21  23
ATOM     23  C   UNL     1       1.568   5.558  -0.643  1.00  0.00     0.082 C 
ATOM     24  C   UNL     1       0.693   5.236   0.563  1.00  0.00     0.025 C 
ATOM     25  C   UNL     1       2.966   5.100  -0.239  1.00  0.00     0.025 C 
ATOM     26  C   UNL     1       1.596   5.556   1.747  1.00  0.00     0.002 C 
ATOM     27  C   UNL     1       3.023   5.278   1.277  1.00  0.00     0.002 C 
ENDBRANCH  21  23
ENDBRANCH  19  21
ENDBRANCH   7   8
ENDBRANCH   4   7
ENDBRANCH   2   3
ENDBRANCH   1   2
BRANCH   1  28
ATOM     28  C   UNL     1      -3.818   3.585  -1.167  1.00  0.00     0.023 C 
BRANCH  28  29
ATOM     29  C   UNL     1      -5.273   3.309  -1.514  1.00  0.00     0.116 C 
BRANCH  29  30
ATOM     30  N   UNL     1      -5.661   1.907  -1.338  1.00  0.00    -0.352 N 
ATOM     31  C   UNL     1      -6.827   1.292  -1.764  1.00  0.00     0.251 C 
ATOM     32  H   UNL     1      -5.018   1.335  -0.860  1.00  0.00     0.163 HD
ATOM     33  O   UNL     1      -7.226   0.250  -1.263  1.00  0.00    -0.269 OA
BRANCH  31  34
ATOM     34  C   UNL     1      -7.573   1.927  -2.862  1.00  0.00     0.039 A 
ATOM     35  C   UNL     1      -8.956   2.117  -2.817  1.00  0.00     0.014 A 
ATOM     36  C   UNL     1      -6.817   2.414  -3.920  1.00  0.00     0.014 A 
ATOM     37  C   UNL     1      -9.555   2.893  -3.810  1.00  0.00     0.010 A 
ATOM     38  C   UNL     1      -7.372   3.329  -4.772  1.00  0.00     0.010 A 
ATOM     39  C   UNL     1      -8.750   3.518  -4.775  1.00  0.00    -0.014 A 
BRANCH  39  40
ATOM     40  C   UNL     1      -9.313   4.394  -5.795  1.00  0.00     0.031 A 
ATOM     41  C   UNL     1     -10.196   5.497  -5.331  1.00  0.00     0.074 A 
ATOM     42  C   UNL     1      -8.931   4.337  -7.089  1.00  0.00     0.049 A 
ATOM     43  N   UNL     1     -11.462   5.625  -5.553  1.00  0.00    -0.248 NA
ATOM     44  C   UNL     1      -9.631   6.551  -4.479  1.00  0.00     0.031 C 
ATOM     45  C   UNL     1      -7.885   3.516  -7.718  1.00  0.00     0.029 A 
ATOM     46  N   UNL     1      -9.359   5.110  -8.119  1.00  0.00    -0.354 N 
ATOM     47  C   UNL     1     -11.845   6.843  -4.999  1.00  0.00     0.074 A 
ATOM     48  C   UNL     1     -10.702   7.318  -4.255  1.00  0.00     0.031 C 
ATOM     49  C   UNL     1      -7.605   3.999  -8.948  1.00  0.00     0.029 A 
ATOM     50  C   UNL     1      -8.588   5.014  -9.266  1.00  0.00     0.049 A 
ATOM     51  H   UNL     1     -10.151   5.691  -8.056  1.00  0.00     0.167 HD
ATOM     52  C   UNL     1     -13.019   7.447  -5.338  1.00  0.00     0.031 A 
ATOM     53  C   UNL     1      -8.759   5.709 -10.412  1.00  0.00     0.031 A 
ATOM     54  C   UNL     1     -13.896   6.549  -6.046  1.00  0.00     0.049 A 
ATOM     55  C   UNL     1     -10.171   6.150 -10.445  1.00  0.00     0.074 A 
ATOM     56  C   UNL     1     -14.521   5.357  -5.736  1.00  0.00     0.029 A 
ATOM     57  N   UNL     1     -13.921   6.635  -7.418  1.00  0.00    -0.354 N 
ATOM     58  N   UNL     1     -11.169   5.320 -10.552  1.00  0.00    -0.248 NA
ATOM     59  C   UNL     1     -10.502   7.460  -9.911  1.00  0.00     0.031 C 
ATOM     60  C   UNL     1     -14.419   4.573  -6.925  1.00  0.00     0.029 A 
ATOM     61  C   UNL     1     -13.797   5.356  -7.901  1.00  0.00     0.049 A 
ATOM     62  H   UNL     1     -14.011   7.457  -7.952  1.00  0.00     0.167 HD
ATOM     63  C   UNL     1     -12.143   5.827  -9.705  1.00  0.00     0.074 A 
ATOM     64  C   UNL     1     -11.724   7.202  -9.432  1.00  0.00     0.031 C 
ATOM     65  C   UNL     1     -13.043   5.005  -9.086  1.00  0.00     0.031 A 
BRANCH  52  66
ATOM     66  C   UNL     1     -13.257   8.935  -5.324  1.00  0.00    -0.014 A 
ATOM     67  C   UNL     1     -14.547   9.421  -5.612  1.00  0.00     0.009 A 
ATOM     68  C   UNL     1     -12.218   9.882  -5.294  1.00  0.00     0.009 A 
ATOM     69  C   UNL     1     -14.770  10.770  -5.917  1.00  0.00     0.001 A 
ATOM     70  C   UNL     1     -12.443  11.237  -5.559  1.00  0.00     0.001 A 
ATOM     71  C   UNL     1     -13.715  11.676  -5.897  1.00  0.00     0.000 A 
ENDBRANCH  52  66
BRANCH  53  72
ATOM     72  C   UNL     1      -7.736   6.198 -11.351  1.00  0.00    -0.014 A 
ATOM     73  C   UNL     1      -8.083   6.578 -12.655  1.00  0.00     0.009 A 
ATOM     74  C   UNL     1      -6.462   6.558 -10.873  1.00  0.00     0.009 A 
ATOM     75  C   UNL     1      -7.205   7.340 -13.435  1.00  0.00     0.001 A 
ATOM     76  C   UNL     1      -5.586   7.319 -11.652  1.00  0.00     0.001 A 
ATOM     77  C   UNL     1      -5.965   7.725 -12.927  1.00  0.00     0.000 A 
ENDBRANCH  53  72
BRANCH  65  78
ATOM     78  C   UNL     1     -13.047   3.544  -9.482  1.00  0.00    -0.014 A 
ATOM     79  C   UNL     1     -11.927   2.708  -9.311  1.00  0.00     0.009 A 
ATOM     80  C   UNL     1     -14.250   2.953  -9.892  1.00  0.00     0.009 A 
ATOM     81  C   UNL     1     -11.998   1.336  -9.575  1.00  0.00     0.001 A 
ATOM     82  C   UNL     1     -14.328   1.578 -10.137  1.00  0.00     0.001 A 
ATOM     83  C   UNL     1     -13.202   0.771  -9.984  1.00  0.00     0.000 A 
ENDBRANCH  65  78
ENDBRANCH  39  40
ENDBRANCH  31  34
ENDBRANCH  29  30
ENDBRANCH  28  29
ENDBRANCH   1  28
TORSDOF 14
