REMARK SMILES Cc1ccc(NC(=O)C[C@@H](C(=O)NCCCCNC(=O)c2ccc(-c3c4nc(c(-c5ccccc5)c5ccc([nH]5)c(-c5ccccc5)c5nc(c(-c6ccccc6)c6ccc3[nH]6)C=C5)C=C4)cc2)[NH+]2CCOCC2)cc1
REMARK SMILES IDX 15 1 14 2 13 3 11 4 12 5 10 7 9 8 7 9 6 10 8 12 5 13 1 14
REMARK SMILES IDX 2 15 3 16 76 17 4 18 75 19 69 20 70 21 74 22 71 24 73 25
REMARK SMILES IDX 72 26 16 27 17 28 18 29 19 30 20 32 21 33 22 34 68 35 23 36
REMARK SMILES IDX 67 37 24 38 25 39 26 40 61 41 27 42 66 43 60 44 62 45 28 46
REMARK SMILES IDX 65 47 59 48 58 49 29 51 51 52 36 53 50 54 37 55 40 56 49 57
REMARK SMILES IDX 63 58 38 59 39 60 48 62 64 63 41 64 30 65 31 66 35 67 32 68
REMARK SMILES IDX 34 69 33 70 52 71 53 72 57 73 54 74 56 75 55 76 42 77 43 78
REMARK SMILES IDX 47 79 44 80 46 81 45 82
REMARK H PARENT 13 6 6 11 69 23 18 31 62 50 40 61
REMARK Flexibility Score: inf
ROOT
ATOM      1  C   UNL     1      -4.691   0.901  -0.500  1.00  0.00     0.023 C 
ENDROOT
BRANCH   1   2
ATOM      2  C   UNL     1      -4.132   0.031  -1.647  1.00  0.00     0.116 C 
BRANCH   2   3
ATOM      3  N   UNL     1      -2.695  -0.166  -1.629  1.00  0.00    -0.351 N 
ATOM      4  C   UNL     1      -1.881  -1.255  -1.590  1.00  0.00     0.278 C 
ATOM      5  O   UNL     1      -0.692  -0.991  -1.815  1.00  0.00    -0.268 OA
ATOM      6  H   UNL     1      -2.195   0.682  -1.650  1.00  0.00     0.163 HD
BRANCH   4   7
ATOM      7  C   UNL     1      -2.388  -2.724  -1.356  1.00  0.00     0.283 C 
BRANCH   7   8
ATOM      8  C   UNL     1      -2.877  -3.021   0.080  1.00  0.00     0.175 C 
BRANCH   8   9
ATOM      9  C   UNL     1      -3.306  -1.916   1.007  1.00  0.00     0.230 C 
ATOM     10  N   UNL     1      -2.444  -1.020   1.564  1.00  0.00    -0.326 N 
ATOM     11  H   UNL     1      -2.878  -0.368   2.160  1.00  0.00     0.169 HD
ATOM     12  O   UNL     1      -4.505  -1.817   1.295  1.00  0.00    -0.274 OA
BRANCH  10  13
ATOM     13  C   UNL     1      -1.053  -0.848   1.452  1.00  0.00     0.041 A 
ATOM     14  C   UNL     1       2.965   0.102   0.246  1.00  0.00     0.044 C 
ATOM     15  C   UNL     1       1.606  -0.223   0.784  1.00  0.00    -0.051 A 
ATOM     16  C   UNL     1       1.170  -1.549   0.800  1.00  0.00     0.005 A 
ATOM     17  C   UNL     1       0.741   0.776   1.234  1.00  0.00     0.005 A 
ATOM     18  C   UNL     1      -0.149  -1.859   1.142  1.00  0.00     0.026 A 
ATOM     19  C   UNL     1      -0.572   0.459   1.593  1.00  0.00     0.026 A 
ENDBRANCH  10  13
ENDBRANCH   8   9
ENDBRANCH   7   8
BRANCH   7  20
ATOM     20  N   UNL     1      -1.306  -3.690  -1.763  1.00  0.00    -0.320 N 
ATOM     21  C   UNL     1      -0.918  -3.627  -3.191  1.00  0.00     0.291 C 
ATOM     22  C   UNL     1      -1.389  -5.104  -1.354  1.00  0.00     0.291 C 
ATOM     23  H   UNL     1      -0.575  -3.297  -1.170  1.00  0.00     0.348 HD
ATOM     24  C   UNL     1      -1.697  -4.586  -4.107  1.00  0.00     0.221 C 
ATOM     25  C   UNL     1      -2.165  -6.016  -2.310  1.00  0.00     0.221 C 
ATOM     26  O   UNL     1      -1.641  -5.936  -3.636  1.00  0.00    -0.370 OA
ENDBRANCH   7  20
ENDBRANCH   4   7
ENDBRANCH   2   3
ENDBRANCH   1   2
BRANCH   1  27
ATOM     27  C   UNL     1      -3.766   1.957   0.113  1.00  0.00     0.023 C 
BRANCH  27  28
ATOM     28  C   UNL     1      -3.795   3.307  -0.584  1.00  0.00     0.116 C 
BRANCH  28  29
ATOM     29  N   UNL     1      -4.684   4.285   0.048  1.00  0.00    -0.352 N 
ATOM     30  C   UNL     1      -4.939   5.584  -0.357  1.00  0.00     0.251 C 
ATOM     31  H   UNL     1      -5.155   3.982   0.858  1.00  0.00     0.163 HD
ATOM     32  O   UNL     1      -5.740   6.300   0.237  1.00  0.00    -0.269 OA
BRANCH  30  33
ATOM     33  C   UNL     1      -4.306   6.044  -1.609  1.00  0.00     0.039 A 
ATOM     34  C   UNL     1      -5.146   6.284  -2.698  1.00  0.00     0.014 A 
ATOM     35  C   UNL     1      -2.935   5.862  -1.778  1.00  0.00     0.014 A 
ATOM     36  C   UNL     1      -4.654   6.063  -3.979  1.00  0.00     0.010 A 
ATOM     37  C   UNL     1      -2.473   5.551  -3.042  1.00  0.00     0.010 A 
ATOM     38  C   UNL     1      -3.354   5.571  -4.128  1.00  0.00    -0.014 A 
BRANCH  38  39
ATOM     39  C   UNL     1      -2.910   4.925  -5.357  1.00  0.00     0.031 A 
ATOM     40  C   UNL     1      -1.995   5.625  -6.276  1.00  0.00     0.074 A 
ATOM     41  C   UNL     1      -3.390   3.715  -5.727  1.00  0.00     0.049 A 
ATOM     42  N   UNL     1      -2.068   5.532  -7.563  1.00  0.00    -0.248 NA
ATOM     43  C   UNL     1      -0.947   6.525  -5.811  1.00  0.00     0.031 C 
ATOM     44  C   UNL     1      -2.941   2.889  -6.846  1.00  0.00     0.029 A 
ATOM     45  N   UNL     1      -4.528   3.064  -5.290  1.00  0.00    -0.354 N 
ATOM     46  C   UNL     1      -0.924   6.096  -8.067  1.00  0.00     0.074 A 
ATOM     47  C   UNL     1      -0.305   6.782  -6.954  1.00  0.00     0.031 C 
ATOM     48  C   UNL     1      -3.916   2.020  -7.164  1.00  0.00     0.029 A 
ATOM     49  C   UNL     1      -5.073   2.334  -6.344  1.00  0.00     0.049 A 
ATOM     50  H   UNL     1      -4.895   3.109  -4.378  1.00  0.00     0.167 HD
ATOM     51  C   UNL     1      -0.505   5.800  -9.327  1.00  0.00     0.031 A 
ATOM     52  C   UNL     1      -6.334   2.557  -6.817  1.00  0.00     0.031 A 
ATOM     53  C   UNL     1      -1.382   4.859 -10.011  1.00  0.00     0.049 A 
ATOM     54  C   UNL     1      -6.377   2.978  -8.273  1.00  0.00     0.074 A 
ATOM     55  C   UNL     1      -1.299   3.495 -10.245  1.00  0.00     0.029 A 
ATOM     56  N   UNL     1      -2.687   5.228 -10.311  1.00  0.00    -0.354 N 
ATOM     57  N   UNL     1      -5.336   3.368  -8.954  1.00  0.00    -0.248 NA
ATOM     58  C   UNL     1      -7.608   3.055  -9.057  1.00  0.00     0.031 C 
ATOM     59  C   UNL     1      -2.572   3.039 -10.670  1.00  0.00     0.029 A 
ATOM     60  C   UNL     1      -3.423   4.128 -10.708  1.00  0.00     0.049 A 
ATOM     61  H   UNL     1      -3.038   6.146 -10.251  1.00  0.00     0.167 HD
ATOM     62  C   UNL     1      -5.722   3.767 -10.211  1.00  0.00     0.074 A 
ATOM     63  C   UNL     1      -7.153   3.528 -10.232  1.00  0.00     0.031 C 
ATOM     64  C   UNL     1      -4.820   4.277 -11.102  1.00  0.00     0.031 A 
BRANCH  51  65
ATOM     65  C   UNL     1       0.895   6.133  -9.762  1.00  0.00    -0.014 A 
ATOM     66  C   UNL     1       1.651   5.195 -10.484  1.00  0.00     0.009 A 
ATOM     67  C   UNL     1       1.538   7.336  -9.422  1.00  0.00     0.009 A 
ATOM     68  C   UNL     1       3.010   5.395 -10.751  1.00  0.00     0.001 A 
ATOM     69  C   UNL     1       2.907   7.523  -9.648  1.00  0.00     0.001 A 
ATOM     70  C   UNL     1       3.647   6.545 -10.301  1.00  0.00     0.000 A 
ENDBRANCH  51  65
BRANCH  52  71
ATOM     71  C   UNL     1      -7.296   3.022  -5.782  1.00  0.00    -0.014 A 
ATOM     72  C   UNL     1      -7.649   2.131  -4.749  1.00  0.00     0.009 A 
ATOM     73  C   UNL     1      -7.576   4.385  -5.617  1.00  0.00     0.009 A 
ATOM     74  C   UNL     1      -8.157   2.606  -3.537  1.00  0.00     0.001 A 
ATOM     75  C   UNL     1      -8.097   4.855  -4.405  1.00  0.00     0.001 A 
ATOM     76  C   UNL     1      -8.352   3.972  -3.355  1.00  0.00     0.000 A 
ENDBRANCH  52  71
BRANCH  64  77
ATOM     77  C   UNL     1      -5.102   4.914 -12.449  1.00  0.00    -0.014 A 
ATOM     78  C   UNL     1      -6.362   5.310 -12.912  1.00  0.00     0.009 A 
ATOM     79  C   UNL     1      -4.006   5.228 -13.291  1.00  0.00     0.009 A 
ATOM     80  C   UNL     1      -6.521   5.954 -14.151  1.00  0.00     0.001 A 
ATOM     81  C   UNL     1      -4.153   5.905 -14.505  1.00  0.00     0.001 A 
ATOM     82  C   UNL     1      -5.418   6.262 -14.940  1.00  0.00     0.000 A 
ENDBRANCH  64  77
ENDBRANCH  38  39
ENDBRANCH  30  33
ENDBRANCH  28  29
ENDBRANCH  27  28
ENDBRANCH   1  27
TORSDOF 15
