REMARK SMILES COCC[NH2+][C@]1(C(=O)NCCCCNC(=O)c2ccc(-c3c4nc(c(-c5ccccc5)c5ccc([nH]5)c(-c5ccccc5)c5nc(c(-c6ccccc6)c6ccc3[nH]6)C=C5)C=C4)cc2)CCCS[C@H]1C
REMARK SMILES IDX 10 1 9 2 7 3 8 4 6 6 65 7 69 8 66 9 68 10 70 11 67 12 5 13
REMARK SMILES IDX 4 16 3 17 2 18 1 19 11 20 12 21 13 22 14 23 15 24 16 26
REMARK SMILES IDX 17 27 18 28 64 29 19 30 63 31 20 32 21 33 22 34 57 35 23 36
REMARK SMILES IDX 62 37 56 38 58 39 24 40 61 41 55 42 54 43 25 45 47 46 32 47
REMARK SMILES IDX 46 48 33 49 36 50 45 51 59 52 34 53 35 54 44 56 60 57 37 58
REMARK SMILES IDX 26 59 27 60 31 61 28 62 30 63 29 64 48 65 49 66 53 67 50 68
REMARK SMILES IDX 52 69 51 70 38 71 39 72 43 73 40 74 42 75 41 76
REMARK H PARENT 9 5 5 14 5 15 14 25 58 44 36 55
REMARK Flexibility Score: inf
ROOT
ATOM      1  C   UNL     1       3.561   1.571   2.443  1.00  0.00     0.116 C 
ENDROOT
BRANCH   1   2
ATOM      2  N   UNL     1       2.337   1.454   1.680  1.00  0.00    -0.351 N 
ATOM      3  C   UNL     1       1.022   1.343   2.007  1.00  0.00     0.282 C 
ATOM      4  O   UNL     1       0.292   1.142   1.029  1.00  0.00    -0.268 OA
ATOM      5  H   UNL     1       2.491   1.455   0.707  1.00  0.00     0.163 HD
BRANCH   3   6
ATOM      6  C   UNL     1       0.428   1.575   3.455  1.00  0.00     0.187 C 
ATOM      7  C   UNL     1       0.219   3.105   3.626  1.00  0.00     0.081 C 
ATOM      8  C   UNL     1      -0.936   0.801   3.613  1.00  0.00     0.115 C 
ATOM      9  C   UNL     1      -0.861   3.725   2.736  1.00  0.00     0.018 C 
ATOM     10  S   UNL     1      -2.387   1.427   2.669  1.00  0.00    -0.152 SA
ATOM     11  C   UNL     1      -0.826  -0.708   3.331  1.00  0.00     0.027 C 
ATOM     12  C   UNL     1      -2.251   3.189   3.034  1.00  0.00     0.070 C 
BRANCH   6  13
ATOM     13  N   UNL     1       1.312   0.972   4.501  1.00  0.00    -0.331 N 
ATOM     14  H   UNL     1       0.767   0.249   4.970  1.00  0.00     0.347 HD
ATOM     15  H   UNL     1       2.131   0.663   3.977  1.00  0.00     0.347 HD
BRANCH  13  16
ATOM     16  C   UNL     1       1.872   1.829   5.546  1.00  0.00     0.290 C 
BRANCH  16  17
ATOM     17  C   UNL     1       2.828   1.059   6.475  1.00  0.00     0.221 C 
BRANCH  17  18
ATOM     18  O   UNL     1       3.837   0.368   5.731  1.00  0.00    -0.379 OA
ATOM     19  C   UNL     1       3.683  -1.046   5.796  1.00  0.00     0.195 C 
ENDBRANCH  17  18
ENDBRANCH  16  17
ENDBRANCH  13  16
ENDBRANCH   6  13
ENDBRANCH   3   6
ENDBRANCH   1   2
BRANCH   1  20
ATOM     20  C   UNL     1       4.273   0.220   2.528  1.00  0.00     0.023 C 
BRANCH  20  21
ATOM     21  C   UNL     1       5.110  -0.132   1.299  1.00  0.00     0.023 C 
BRANCH  21  22
ATOM     22  C   UNL     1       6.201   0.877   0.959  1.00  0.00     0.116 C 
BRANCH  22  23
ATOM     23  N   UNL     1       7.067   1.214   2.080  1.00  0.00    -0.352 N 
ATOM     24  C   UNL     1       8.410   1.514   2.070  1.00  0.00     0.251 C 
ATOM     25  H   UNL     1       6.634   1.230   2.964  1.00  0.00     0.163 HD
ATOM     26  O   UNL     1       9.018   1.707   3.112  1.00  0.00    -0.269 OA
BRANCH  24  27
ATOM     27  C   UNL     1       9.119   1.548   0.775  1.00  0.00     0.039 A 
ATOM     28  C   UNL     1      10.294   0.809   0.635  1.00  0.00     0.014 A 
ATOM     29  C   UNL     1       8.582   2.245  -0.309  1.00  0.00     0.014 A 
ATOM     30  C   UNL     1      10.888   0.700  -0.622  1.00  0.00     0.010 A 
ATOM     31  C   UNL     1       9.125   2.065  -1.575  1.00  0.00     0.010 A 
ATOM     32  C   UNL     1      10.281   1.288  -1.744  1.00  0.00    -0.014 A 
BRANCH  32  33
ATOM     33  C   UNL     1      10.832   1.089  -3.106  1.00  0.00     0.031 A 
ATOM     34  C   UNL     1      11.328   2.264  -3.901  1.00  0.00     0.074 A 
ATOM     35  C   UNL     1      10.812  -0.141  -3.657  1.00  0.00     0.049 A 
ATOM     36  N   UNL     1      11.801   2.294  -5.120  1.00  0.00    -0.248 NA
ATOM     37  C   UNL     1      11.247   3.584  -3.254  1.00  0.00     0.031 C 
ATOM     38  C   UNL     1      10.289  -1.351  -3.018  1.00  0.00     0.029 A 
ATOM     39  N   UNL     1      11.242  -0.574  -4.885  1.00  0.00    -0.354 N 
ATOM     40  C   UNL     1      12.047   3.633  -5.395  1.00  0.00     0.074 A 
ATOM     41  C   UNL     1      11.623   4.388  -4.237  1.00  0.00     0.031 C 
ATOM     42  C   UNL     1      10.459  -2.394  -3.846  1.00  0.00     0.029 A 
ATOM     43  C   UNL     1      11.075  -1.923  -5.082  1.00  0.00     0.049 A 
ATOM     44  H   UNL     1      11.633   0.025  -5.562  1.00  0.00     0.167 HD
ATOM     45  C   UNL     1      12.597   4.184  -6.502  1.00  0.00     0.031 A 
ATOM     46  C   UNL     1      11.388  -2.696  -6.139  1.00  0.00     0.031 A 
ATOM     47  C   UNL     1      13.046   3.431  -7.641  1.00  0.00     0.049 A 
ATOM     48  C   UNL     1      12.042  -2.068  -7.337  1.00  0.00     0.074 A 
ATOM     49  C   UNL     1      13.692   3.886  -8.777  1.00  0.00     0.029 A 
ATOM     50  N   UNL     1      12.898   2.060  -7.784  1.00  0.00    -0.354 N 
ATOM     51  N   UNL     1      12.349  -0.811  -7.545  1.00  0.00    -0.248 NA
ATOM     52  C   UNL     1      12.407  -2.971  -8.437  1.00  0.00     0.031 C 
ATOM     53  C   UNL     1      13.900   2.793  -9.626  1.00  0.00     0.029 A 
ATOM     54  C   UNL     1      13.425   1.654  -8.998  1.00  0.00     0.049 A 
ATOM     55  H   UNL     1      12.480   1.464  -7.121  1.00  0.00     0.167 HD
ATOM     56  C   UNL     1      12.962  -0.774  -8.790  1.00  0.00     0.074 A 
ATOM     57  C   UNL     1      13.001  -2.137  -9.280  1.00  0.00     0.031 C 
ATOM     58  C   UNL     1      13.448   0.294  -9.469  1.00  0.00     0.031 A 
BRANCH  45  59
ATOM     59  C   UNL     1      12.741   5.680  -6.525  1.00  0.00    -0.014 A 
ATOM     60  C   UNL     1      13.671   6.334  -5.700  1.00  0.00     0.009 A 
ATOM     61  C   UNL     1      11.944   6.445  -7.390  1.00  0.00     0.009 A 
ATOM     62  C   UNL     1      13.768   7.727  -5.709  1.00  0.00     0.001 A 
ATOM     63  C   UNL     1      12.065   7.836  -7.418  1.00  0.00     0.001 A 
ATOM     64  C   UNL     1      12.968   8.476  -6.571  1.00  0.00     0.000 A 
ENDBRANCH  45  59
BRANCH  46  65
ATOM     65  C   UNL     1      11.121  -4.156  -6.097  1.00  0.00    -0.014 A 
ATOM     66  C   UNL     1      12.179  -5.066  -5.950  1.00  0.00     0.009 A 
ATOM     67  C   UNL     1       9.811  -4.648  -6.200  1.00  0.00     0.009 A 
ATOM     68  C   UNL     1      11.933  -6.441  -5.933  1.00  0.00     0.001 A 
ATOM     69  C   UNL     1       9.566  -6.022  -6.158  1.00  0.00     0.001 A 
ATOM     70  C   UNL     1      10.627  -6.917  -6.033  1.00  0.00     0.000 A 
ENDBRANCH  46  65
BRANCH  58  71
ATOM     71  C   UNL     1      14.082   0.021 -10.802  1.00  0.00    -0.014 A 
ATOM     72  C   UNL     1      13.304  -0.306 -11.923  1.00  0.00     0.009 A 
ATOM     73  C   UNL     1      15.475   0.121 -10.943  1.00  0.00     0.009 A 
ATOM     74  C   UNL     1      13.913  -0.563 -13.153  1.00  0.00     0.001 A 
ATOM     75  C   UNL     1      16.078  -0.111 -12.180  1.00  0.00     0.001 A 
ATOM     76  C   UNL     1      15.298  -0.461 -13.281  1.00  0.00     0.000 A 
ENDBRANCH  58  71
ENDBRANCH  32  33
ENDBRANCH  24  27
ENDBRANCH  22  23
ENDBRANCH  21  22
ENDBRANCH  20  21
ENDBRANCH   1  20
TORSDOF 15
