REMARK SMILES O=C(NCCCCNC(=O)c1ccc(-c2c3nc(c(-c4ccccc4)c4ccc([nH]4)c(-c4ccccc4)c4nc(c(-c5ccccc5)c5ccc2[nH]5)C=C4)C=C3)cc1)C1=NN(c2ccc(S(=O)(=O)[O-])cc2)C(=O)/C1=C/Nc1ccccc1
REMARK SMILES IDX 5 1 4 2 3 3 1 4 2 5 59 7 60 8 74 9 61 10 72 11 75 12 73 13
REMARK SMILES IDX 62 14 63 15 71 16 64 17 70 18 65 19 66 20 67 21 68 22 69 23
REMARK SMILES IDX 76 24 77 26 78 27 82 28 79 29 81 30 80 31 6 32 7 33 8 34
REMARK SMILES IDX 9 35 10 37 11 38 12 39 58 40 13 41 57 42 14 43 15 44 16 45
REMARK SMILES IDX 51 46 17 47 56 48 50 49 52 50 18 51 55 52 49 53 48 54 19 56
REMARK SMILES IDX 41 57 26 58 40 59 27 60 30 61 39 62 53 63 28 64 29 65 38 67
REMARK SMILES IDX 54 68 31 69 20 70 21 71 25 72 22 73 24 74 23 75 42 76 43 77
REMARK SMILES IDX 47 78 44 79 46 80 45 81 32 82 33 83 37 84 34 85 36 86 35 87
REMARK H PARENT 3 6 76 25 8 36 52 55 30 66
REMARK Flexibility Score: inf
ROOT
ATOM      1  C   UNL     1       5.021   0.774   2.432  1.00  0.00     0.023 C 
ENDROOT
BRANCH   1   2
ATOM      2  C   UNL     1       4.607   0.023   1.173  1.00  0.00     0.116 C 
BRANCH   2   3
ATOM      3  N   UNL     1       3.168  -0.033   0.995  1.00  0.00    -0.351 N 
ATOM      4  O   UNL     1       1.274  -0.162  -0.251  1.00  0.00    -0.267 OA
ATOM      5  C   UNL     1       2.470   0.087  -0.182  1.00  0.00     0.272 C 
ATOM      6  H   UNL     1       2.632  -0.172   1.809  1.00  0.00     0.163 HD
BRANCH   5   7
ATOM      7  C   UNL     1       3.207   0.443  -1.433  1.00  0.00     0.163 C 
ATOM      8  N   UNL     1       3.115   1.601  -2.036  1.00  0.00    -0.158 NA
ATOM      9  C   UNL     1       4.121  -0.481  -2.104  1.00  0.00     0.091 C 
ATOM     10  N   UNL     1       3.935   1.490  -3.163  1.00  0.00    -0.196 N 
ATOM     11  C   UNL     1       4.661   0.290  -3.235  1.00  0.00     0.282 C 
ATOM     12  C   UNL     1       4.436  -1.751  -1.842  1.00  0.00     0.099 C 
ATOM     13  O   UNL     1       5.507  -0.103  -4.018  1.00  0.00    -0.267 OA
BRANCH  10  14
ATOM     14  C   UNL     1       3.814   2.453  -4.190  1.00  0.00     0.069 A 
ATOM     15  C   UNL     1       3.322   3.741  -3.926  1.00  0.00     0.030 A 
ATOM     16  C   UNL     1       4.113   2.105  -5.517  1.00  0.00     0.030 A 
ATOM     17  C   UNL     1       3.155   4.666  -4.965  1.00  0.00     0.021 A 
ATOM     18  C   UNL     1       3.916   3.008  -6.562  1.00  0.00     0.021 A 
ATOM     19  C   UNL     1       3.449   4.289  -6.279  1.00  0.00     0.054 A 
BRANCH  19  20
ATOM     20  S   UNL     1       3.191   5.445  -7.592  1.00  0.00     0.124 S 
ATOM     21  O   UNL     1       1.817   5.891  -7.534  1.00  0.00    -0.237 OA
ATOM     22  O   UNL     1       4.295   6.378  -7.584  1.00  0.00    -0.237 OA
ATOM     23  O   UNL     1       3.338   4.594  -8.957  1.00  0.00    -0.744 OA
ENDBRANCH  19  20
ENDBRANCH  10  14
BRANCH  12  24
ATOM     24  N   UNL     1       3.848  -2.608  -0.948  1.00  0.00    -0.361 N 
ATOM     25  H   UNL     1       2.973  -2.335  -0.589  1.00  0.00     0.166 HD
BRANCH  24  26
ATOM     26  C   UNL     1       4.357  -3.831  -0.488  1.00  0.00     0.038 A 
ATOM     27  C   UNL     1       3.468  -4.892  -0.267  1.00  0.00     0.026 A 
ATOM     28  C   UNL     1       5.725  -4.053  -0.294  1.00  0.00     0.026 A 
ATOM     29  C   UNL     1       3.931  -6.135   0.166  1.00  0.00     0.002 A 
ATOM     30  C   UNL     1       6.188  -5.289   0.164  1.00  0.00     0.002 A 
ATOM     31  C   UNL     1       5.290  -6.330   0.392  1.00  0.00     0.000 A 
ENDBRANCH  24  26
ENDBRANCH  12  24
ENDBRANCH   5   7
ENDBRANCH   2   3
ENDBRANCH   1   2
BRANCH   1  32
ATOM     32  C   UNL     1       4.536   0.165   3.747  1.00  0.00     0.023 C 
BRANCH  32  33
ATOM     33  C   UNL     1       4.912  -1.295   3.981  1.00  0.00     0.116 C 
BRANCH  33  34
ATOM     34  N   UNL     1       6.349  -1.517   4.010  1.00  0.00    -0.352 N 
ATOM     35  C   UNL     1       7.136  -2.079   4.986  1.00  0.00     0.251 C 
ATOM     36  H   UNL     1       6.833  -1.218   3.207  1.00  0.00     0.163 HD
ATOM     37  O   UNL     1       8.359  -2.053   4.873  1.00  0.00    -0.269 OA
BRANCH  35  38
ATOM     38  C   UNL     1       6.526  -2.690   6.189  1.00  0.00     0.039 A 
ATOM     39  C   UNL     1       7.102  -2.437   7.437  1.00  0.00     0.014 A 
ATOM     40  C   UNL     1       5.406  -3.520   6.095  1.00  0.00     0.014 A 
ATOM     41  C   UNL     1       6.518  -2.963   8.593  1.00  0.00     0.010 A 
ATOM     42  C   UNL     1       4.777  -3.973   7.253  1.00  0.00     0.010 A 
ATOM     43  C   UNL     1       5.329  -3.708   8.515  1.00  0.00    -0.014 A 
BRANCH  43  44
ATOM     44  C   UNL     1       4.668  -4.230   9.740  1.00  0.00     0.031 A 
ATOM     45  C   UNL     1       4.526  -5.714   9.952  1.00  0.00     0.074 A 
ATOM     46  C   UNL     1       4.157  -3.372  10.646  1.00  0.00     0.049 A 
ATOM     47  N   UNL     1       3.951  -6.357  10.938  1.00  0.00    -0.248 NA
ATOM     48  C   UNL     1       5.083  -6.591   8.910  1.00  0.00     0.031 C 
ATOM     49  C   UNL     1       4.189  -1.911  10.546  1.00  0.00     0.029 A 
ATOM     50  N   UNL     1       3.508  -3.609  11.833  1.00  0.00    -0.354 N 
ATOM     51  C   UNL     1       4.073  -7.707  10.631  1.00  0.00     0.074 A 
ATOM     52  C   UNL     1       4.717  -7.790   9.339  1.00  0.00     0.031 C 
ATOM     53  C   UNL     1       3.613  -1.383  11.639  1.00  0.00     0.029 A 
ATOM     54  C   UNL     1       3.138  -2.464  12.497  1.00  0.00     0.049 A 
ATOM     55  H   UNL     1       3.325  -4.513  12.175  1.00  0.00     0.167 HD
ATOM     56  C   UNL     1       3.710  -8.784  11.367  1.00  0.00     0.031 A 
ATOM     57  C   UNL     1       2.488  -2.301  13.665  1.00  0.00     0.031 A 
ATOM     58  C   UNL     1       3.071  -8.710  12.654  1.00  0.00     0.049 A 
ATOM     59  C   UNL     1       2.079  -3.515  14.455  1.00  0.00     0.074 A 
ATOM     60  C   UNL     1       2.686  -9.746  13.488  1.00  0.00     0.029 A 
ATOM     61  N   UNL     1       2.726  -7.531  13.296  1.00  0.00    -0.354 N 
ATOM     62  N   UNL     1       2.252  -4.783  14.173  1.00  0.00    -0.248 NA
ATOM     63  C   UNL     1       1.401  -3.269  15.736  1.00  0.00     0.031 C 
ATOM     64  C   UNL     1       2.070  -9.194  14.616  1.00  0.00     0.029 A 
ATOM     65  C   UNL     1       2.125  -7.814  14.511  1.00  0.00     0.049 A 
ATOM     66  H   UNL     1       2.885  -6.627  12.941  1.00  0.00     0.167 HD
ATOM     67  C   UNL     1       1.739  -5.484  15.258  1.00  0.00     0.074 A 
ATOM     68  C   UNL     1       1.267  -4.500  16.209  1.00  0.00     0.031 C 
ATOM     69  C   UNL     1       1.667  -6.824  15.451  1.00  0.00     0.031 A 
BRANCH  56  70
ATOM     70  C   UNL     1       4.007 -10.143  10.793  1.00  0.00    -0.014 A 
ATOM     71  C   UNL     1       5.328 -10.607  10.682  1.00  0.00     0.009 A 
ATOM     72  C   UNL     1       2.958 -10.982  10.389  1.00  0.00     0.009 A 
ATOM     73  C   UNL     1       5.594 -11.867  10.142  1.00  0.00     0.001 A 
ATOM     74  C   UNL     1       3.225 -12.255   9.879  1.00  0.00     0.001 A 
ATOM     75  C   UNL     1       4.542 -12.692   9.746  1.00  0.00     0.000 A 
ENDBRANCH  56  70
BRANCH  57  76
ATOM     76  C   UNL     1       2.191  -0.936  14.177  1.00  0.00    -0.014 A 
ATOM     77  C   UNL     1       2.833  -0.448  15.326  1.00  0.00     0.009 A 
ATOM     78  C   UNL     1       1.237  -0.128  13.540  1.00  0.00     0.009 A 
ATOM     79  C   UNL     1       2.495   0.802  15.850  1.00  0.00     0.001 A 
ATOM     80  C   UNL     1       0.926   1.136  14.046  1.00  0.00     0.001 A 
ATOM     81  C   UNL     1       1.544   1.594  15.208  1.00  0.00     0.000 A 
ENDBRANCH  57  76
BRANCH  69  82
ATOM     82  C   UNL     1       1.107  -7.299  16.764  1.00  0.00    -0.014 A 
ATOM     83  C   UNL     1      -0.255  -7.163  17.075  1.00  0.00     0.009 A 
ATOM     84  C   UNL     1       1.960  -7.909  17.698  1.00  0.00     0.009 A 
ATOM     85  C   UNL     1      -0.741  -7.586  18.314  1.00  0.00     0.001 A 
ATOM     86  C   UNL     1       1.464  -8.360  18.921  1.00  0.00     0.001 A 
ATOM     87  C   UNL     1       0.117  -8.187  19.234  1.00  0.00     0.000 A 
ENDBRANCH  69  82
ENDBRANCH  43  44
ENDBRANCH  35  38
ENDBRANCH  33  34
ENDBRANCH  32  33
ENDBRANCH   1  32
TORSDOF 15
