REMARK SMILES Cc1ccccc1C(=O)Nc1cc(C(=O)NCCCCNC(=O)c2ccc(-c3c4nc(c(-c5ccccc5)c5ccc([nH]5)c(-c5ccccc5)c5nc(c(-c6ccccc6)c6ccc3[nH]6)C=C5)C=C4)cc2)ccc1N1CC[NH+](CC(=O)Nc2ccc(F)cc2)CC1
REMARK SMILES IDX 17 1 16 2 14 3 15 4 13 6 11 7 12 8 74 9 73 10 72 11 10 12
REMARK SMILES IDX 8 13 9 14 7 16 1 17 2 18 3 19 4 20 6 21 5 22 75 23 76 24
REMARK SMILES IDX 91 25 77 26 90 27 78 28 79 30 80 31 81 32 82 33 83 35 84 36
REMARK SMILES IDX 89 37 85 38 88 39 86 40 87 41 18 42 19 43 20 44 21 45 22 46
REMARK SMILES IDX 23 48 24 49 25 50 71 51 26 52 70 53 27 54 28 55 29 56 64 57
REMARK SMILES IDX 30 58 69 59 63 60 65 61 31 62 68 63 62 64 61 65 32 67 54 68
REMARK SMILES IDX 39 69 53 70 40 71 43 72 52 73 66 74 41 75 42 76 51 78 67 79
REMARK SMILES IDX 44 80 33 81 34 82 38 83 35 84 37 85 36 86 55 87 56 88 60 89
REMARK SMILES IDX 57 90 59 91 58 92 45 93 46 94 50 95 47 96 49 97 48 98
REMARK H PARENT 16 5 10 15 78 29 82 34 21 47 65 66 43 77
REMARK Flexibility Score: inf
ROOT
ATOM      1  C   UNL     1       1.440  -1.268  -3.151  1.00  0.00     0.116 C 
ENDROOT
BRANCH   1   2
ATOM      2  N   UNL     1       2.619  -2.114  -3.031  1.00  0.00    -0.352 N 
ATOM      3  C   UNL     1       3.811  -1.994  -2.351  1.00  0.00     0.251 C 
ATOM      4  O   UNL     1       4.570  -2.964  -2.386  1.00  0.00    -0.269 OA
ATOM      5  H   UNL     1       2.549  -2.951  -3.545  1.00  0.00     0.163 HD
BRANCH   3   6
ATOM      6  C   UNL     1       4.229  -0.790  -1.570  1.00  0.00     0.042 A 
ATOM      7  C   UNL     1       3.848   1.424  -0.660  1.00  0.00     0.065 A 
ATOM      8  C   UNL     1       3.490   0.373  -1.499  1.00  0.00     0.042 A 
ATOM      9  C   UNL     1       5.056   1.431   0.080  1.00  0.00     0.061 A 
ATOM     10  C   UNL     1       5.841   0.276  -0.052  1.00  0.00     0.029 A 
ATOM     11  C   UNL     1       5.423  -0.825  -0.834  1.00  0.00     0.016 A 
BRANCH   7  12
ATOM     12  N   UNL     1       2.939   2.489  -0.573  1.00  0.00    -0.320 N 
ATOM     13  C   UNL     1       1.626   2.437  -0.131  1.00  0.00     0.255 C 
ATOM     14  O   UNL     1       1.059   3.497   0.147  1.00  0.00    -0.269 OA
ATOM     15  H   UNL     1       3.271   3.372  -0.858  1.00  0.00     0.170 HD
BRANCH  13  16
ATOM     16  C   UNL     1       0.850   1.171   0.002  1.00  0.00     0.043 A 
ATOM     17  C   UNL     1       2.336  -0.117   1.696  1.00  0.00     0.045 C 
ATOM     18  C   UNL     1       1.165   0.026   0.769  1.00  0.00    -0.038 A 
ATOM     19  C   UNL     1       0.320  -1.101   0.681  1.00  0.00     0.004 A 
ATOM     20  C   UNL     1      -0.840  -1.073  -0.086  1.00  0.00     0.000 A 
ATOM     21  C   UNL     1      -0.348   1.196  -0.728  1.00  0.00     0.014 A 
ATOM     22  C   UNL     1      -1.179   0.083  -0.775  1.00  0.00     0.001 A 
ENDBRANCH  13  16
ENDBRANCH   7  12
BRANCH   9  23
ATOM     23  N   UNL     1       5.405   2.472   0.932  1.00  0.00    -0.359 N 
ATOM     24  C   UNL     1       6.754   2.651   1.533  1.00  0.00     0.178 C 
ATOM     25  C   UNL     1       4.379   3.094   1.765  1.00  0.00     0.178 C 
ATOM     26  C   UNL     1       6.961   4.095   2.157  1.00  0.00     0.284 C 
ATOM     27  C   UNL     1       4.657   4.596   1.774  1.00  0.00     0.284 C 
ATOM     28  N   UNL     1       5.794   4.876   2.640  1.00  0.00    -0.324 N 
ATOM     29  H   UNL     1       6.089   5.850   2.569  1.00  0.00     0.348 HD
BRANCH  28  30
ATOM     30  C   UNL     1       5.453   4.843   4.083  1.00  0.00     0.364 C 
BRANCH  30  31
ATOM     31  C   UNL     1       5.258   3.484   4.755  1.00  0.00     0.279 C 
ATOM     32  O   UNL     1       6.242   2.752   4.940  1.00  0.00    -0.268 OA
ATOM     33  N   UNL     1       4.069   3.010   5.244  1.00  0.00    -0.321 N 
ATOM     34  H   UNL     1       4.222   2.305   5.914  1.00  0.00     0.170 HD
BRANCH  33  35
ATOM     35  C   UNL     1       2.685   3.240   5.064  1.00  0.00     0.041 A 
ATOM     36  C   UNL     1       1.820   2.463   5.858  1.00  0.00     0.029 A 
ATOM     37  C   UNL     1       2.102   4.060   4.104  1.00  0.00     0.029 A 
ATOM     38  C   UNL     1       0.432   2.474   5.662  1.00  0.00     0.041 A 
ATOM     39  C   UNL     1       0.718   4.030   3.858  1.00  0.00     0.041 A 
ATOM     40  C   UNL     1      -0.106   3.239   4.641  1.00  0.00     0.123 A 
ATOM     41  F   UNL     1      -1.426   3.217   4.415  1.00  0.00    -0.207 F 
ENDBRANCH  33  35
ENDBRANCH  30  31
ENDBRANCH  28  30
ENDBRANCH   9  23
ENDBRANCH   3   6
ENDBRANCH   1   2
BRANCH   1  42
ATOM     42  C   UNL     1       1.585  -0.170  -4.221  1.00  0.00     0.023 C 
BRANCH  42  43
ATOM     43  C   UNL     1       1.388  -0.670  -5.649  1.00  0.00     0.023 C 
BRANCH  43  44
ATOM     44  C   UNL     1      -0.066  -0.982  -5.964  1.00  0.00     0.116 C 
BRANCH  44  45
ATOM     45  N   UNL     1      -0.833   0.118  -6.527  1.00  0.00    -0.352 N 
ATOM     46  C   UNL     1      -2.190   0.202  -6.814  1.00  0.00     0.251 C 
ATOM     47  H   UNL     1      -0.311   0.926  -6.737  1.00  0.00     0.163 HD
ATOM     48  O   UNL     1      -2.618   1.180  -7.397  1.00  0.00    -0.269 OA
BRANCH  46  49
ATOM     49  C   UNL     1      -3.145  -0.810  -6.273  1.00  0.00     0.039 A 
ATOM     50  C   UNL     1      -4.411  -0.355  -5.872  1.00  0.00     0.014 A 
ATOM     51  C   UNL     1      -2.748  -2.097  -5.937  1.00  0.00     0.014 A 
ATOM     52  C   UNL     1      -5.125  -1.063  -4.908  1.00  0.00     0.010 A 
ATOM     53  C   UNL     1      -3.367  -2.724  -4.882  1.00  0.00     0.010 A 
ATOM     54  C   UNL     1      -4.517  -2.167  -4.323  1.00  0.00    -0.014 A 
BRANCH  54  55
ATOM     55  C   UNL     1      -4.918  -2.749  -3.053  1.00  0.00     0.031 A 
ATOM     56  C   UNL     1      -5.539  -4.081  -3.018  1.00  0.00     0.074 A 
ATOM     57  C   UNL     1      -4.538  -2.132  -1.914  1.00  0.00     0.049 A 
ATOM     58  N   UNL     1      -6.180  -4.550  -2.005  1.00  0.00    -0.248 NA
ATOM     59  C   UNL     1      -5.547  -4.974  -4.171  1.00  0.00     0.031 C 
ATOM     60  C   UNL     1      -4.477  -2.687  -0.566  1.00  0.00     0.029 A 
ATOM     61  N   UNL     1      -4.316  -0.771  -1.727  1.00  0.00    -0.354 N 
ATOM     62  C   UNL     1      -6.388  -5.888  -2.241  1.00  0.00     0.074 A 
ATOM     63  C   UNL     1      -6.104  -6.066  -3.643  1.00  0.00     0.031 C 
ATOM     64  C   UNL     1      -4.526  -1.677   0.318  1.00  0.00     0.029 A 
ATOM     65  C   UNL     1      -4.769  -0.459  -0.438  1.00  0.00     0.049 A 
ATOM     66  H   UNL     1      -3.917  -0.147  -2.376  1.00  0.00     0.167 HD
ATOM     67  C   UNL     1      -6.617  -6.711  -1.180  1.00  0.00     0.031 A 
ATOM     68  C   UNL     1      -5.762   0.443  -0.197  1.00  0.00     0.031 A 
ATOM     69  C   UNL     1      -6.802  -5.943   0.056  1.00  0.00     0.049 A 
ATOM     70  C   UNL     1      -6.935  -0.217   0.492  1.00  0.00     0.074 A 
ATOM     71  C   UNL     1      -5.988  -5.698   1.150  1.00  0.00     0.029 A 
ATOM     72  N   UNL     1      -7.850  -5.028   0.135  1.00  0.00    -0.354 N 
ATOM     73  N   UNL     1      -7.143  -1.507   0.468  1.00  0.00    -0.248 NA
ATOM     74  C   UNL     1      -7.954   0.497   1.254  1.00  0.00     0.031 C 
ATOM     75  C   UNL     1      -6.501  -4.558   1.828  1.00  0.00     0.029 A 
ATOM     76  C   UNL     1      -7.649  -4.142   1.175  1.00  0.00     0.049 A 
ATOM     77  H   UNL     1      -8.628  -5.014  -0.469  1.00  0.00     0.167 HD
ATOM     78  C   UNL     1      -8.231  -1.810   1.237  1.00  0.00     0.074 A 
ATOM     79  C   UNL     1      -8.726  -0.519   1.684  1.00  0.00     0.031 C 
ATOM     80  C   UNL     1      -8.628  -3.097   1.458  1.00  0.00     0.031 A 
BRANCH  67  81
ATOM     81  C   UNL     1      -6.392  -8.210  -1.211  1.00  0.00    -0.014 A 
ATOM     82  C   UNL     1      -6.280  -8.920  -0.001  1.00  0.00     0.009 A 
ATOM     83  C   UNL     1      -6.196  -8.974  -2.376  1.00  0.00     0.009 A 
ATOM     84  C   UNL     1      -5.934 -10.280   0.040  1.00  0.00     0.001 A 
ATOM     85  C   UNL     1      -5.839 -10.330  -2.347  1.00  0.00     0.001 A 
ATOM     86  C   UNL     1      -5.699 -10.983  -1.135  1.00  0.00     0.000 A 
ENDBRANCH  67  81
BRANCH  68  87
ATOM     87  C   UNL     1      -5.826   1.538  -1.206  1.00  0.00    -0.014 A 
ATOM     88  C   UNL     1      -4.744   2.445  -1.234  1.00  0.00     0.009 A 
ATOM     89  C   UNL     1      -6.623   1.416  -2.354  1.00  0.00     0.009 A 
ATOM     90  C   UNL     1      -4.381   3.095  -2.417  1.00  0.00     0.001 A 
ATOM     91  C   UNL     1      -6.260   2.081  -3.536  1.00  0.00     0.001 A 
ATOM     92  C   UNL     1      -5.119   2.882  -3.578  1.00  0.00     0.000 A 
ENDBRANCH  68  87
BRANCH  80  93
ATOM     93  C   UNL     1      -9.954  -3.512   2.040  1.00  0.00    -0.014 A 
ATOM     94  C   UNL     1     -11.110  -2.722   1.990  1.00  0.00     0.009 A 
ATOM     95  C   UNL     1     -10.105  -4.833   2.517  1.00  0.00     0.009 A 
ATOM     96  C   UNL     1     -12.346  -3.216   2.426  1.00  0.00     0.001 A 
ATOM     97  C   UNL     1     -11.343  -5.345   2.907  1.00  0.00     0.001 A 
ATOM     98  C   UNL     1     -12.464  -4.530   2.871  1.00  0.00     0.000 A 
ENDBRANCH  80  93
ENDBRANCH  54  55
ENDBRANCH  46  49
ENDBRANCH  44  45
ENDBRANCH  43  44
ENDBRANCH  42  43
ENDBRANCH   1  42
TORSDOF 17
