REMARK SMILES CC(C)(C)OC(=O)N[C@H](Cc1ccc(N=[N+]=[N-])cc1)C(=O)NCCCCNC(=O)c1ccc(-c2c3nc(c(-c4ccccc4)c4ccc([nH]4)c(-c4ccccc4)c4nc(c(-c5ccccc5)c5ccc2[nH]5)C=C4)C=C3)cc1
REMARK SMILES IDX 24 1 23 2 22 3 20 4 21 5 9 7 8 8 6 9 7 10 5 12 2 13 1 14
REMARK SMILES IDX 3 15 4 16 10 17 11 18 12 19 19 20 13 21 18 22 14 23 15 24
REMARK SMILES IDX 16 25 17 26 25 27 26 28 27 29 28 30 29 32 30 33 31 34 77 35
REMARK SMILES IDX 32 36 76 37 33 38 34 39 35 40 70 41 36 42 75 43 69 44 71 45
REMARK SMILES IDX 37 46 74 47 68 48 67 49 38 51 60 52 45 53 59 54 46 55 49 56
REMARK SMILES IDX 58 57 72 58 47 59 48 60 57 62 73 63 50 64 39 65 40 66 44 67
REMARK SMILES IDX 41 68 43 69 42 70 61 71 62 72 66 73 63 74 65 75 64 76 51 77
REMARK SMILES IDX 52 78 56 79 53 80 55 81 54 82
REMARK H PARENT 22 6 8 11 27 31 71 50 49 61
REMARK Flexibility Score: inf
ROOT
ATOM      1  C   UNL     1       0.002   5.813  -5.858  1.00  0.00     0.023 C 
ENDROOT
BRANCH   1   2
ATOM      2  C   UNL     1       1.259   6.107  -5.028  1.00  0.00     0.116 C 
BRANCH   2   3
ATOM      3  N   UNL     1       0.989   5.948  -3.616  1.00  0.00    -0.354 N 
ATOM      4  C   UNL     1       1.298   4.923  -2.767  1.00  0.00     0.243 C 
ATOM      5  O   UNL     1       0.747   4.939  -1.660  1.00  0.00    -0.273 OA
ATOM      6  H   UNL     1       0.507   6.699  -3.200  1.00  0.00     0.163 HD
BRANCH   4   7
ATOM      7  C   UNL     1       2.174   3.714  -3.193  1.00  0.00     0.179 C 
BRANCH   7   8
ATOM      8  N   UNL     1       3.446   4.128  -3.780  1.00  0.00    -0.309 N 
ATOM      9  C   UNL     1       4.496   4.718  -3.147  1.00  0.00     0.408 C 
ATOM     10  O   UNL     1       5.557   4.860  -3.740  1.00  0.00    -0.225 OA
ATOM     11  H   UNL     1       3.557   3.961  -4.744  1.00  0.00     0.167 HD
BRANCH   9  12
ATOM     12  O   UNL     1       4.229   5.121  -1.882  1.00  0.00    -0.444 OA
BRANCH  12  13
ATOM     13  C   UNL     1       5.257   5.819  -1.123  1.00  0.00     0.106 C 
ATOM     14  C   UNL     1       4.618   6.166   0.232  1.00  0.00     0.056 C 
ATOM     15  C   UNL     1       5.662   7.134  -1.805  1.00  0.00     0.056 C 
ATOM     16  C   UNL     1       6.469   4.914  -0.862  1.00  0.00     0.056 C 
ENDBRANCH  12  13
ENDBRANCH   9  12
ENDBRANCH   7   8
BRANCH   7  17
ATOM     17  C   UNL     1       1.353   2.716  -4.070  1.00  0.00     0.070 C 
BRANCH  17  18
ATOM     18  C   UNL     1       2.017   2.196  -5.335  1.00  0.00    -0.045 A 
ATOM     19  C   UNL     1       2.750   1.012  -5.368  1.00  0.00     0.004 A 
ATOM     20  C   UNL     1       1.956   2.940  -6.513  1.00  0.00     0.004 A 
ATOM     21  C   UNL     1       3.442   0.639  -6.536  1.00  0.00     0.010 A 
ATOM     22  C   UNL     1       2.671   2.599  -7.661  1.00  0.00     0.010 A 
ATOM     23  C   UNL     1       3.442   1.440  -7.687  1.00  0.00     0.038 A 
BRANCH  23  24
ATOM     24  N   UNL     1       4.200   1.010  -8.793  1.00  0.00    -0.061 NA
ATOM     25  N   UNL     1       4.324   1.834  -9.723  1.00  0.00     0.005 N 
ATOM     26  N   UNL     1       4.432   2.582 -10.575  1.00  0.00    -0.003 NA
ENDBRANCH  23  24
ENDBRANCH  17  18
ENDBRANCH   7  17
ENDBRANCH   4   7
ENDBRANCH   2   3
ENDBRANCH   1   2
BRANCH   1  27
ATOM     27  C   UNL     1      -0.852   7.026  -6.186  1.00  0.00     0.023 C 
BRANCH  27  28
ATOM     28  C   UNL     1      -0.142   8.055  -7.055  1.00  0.00     0.116 C 
BRANCH  28  29
ATOM     29  N   UNL     1       0.355   7.534  -8.327  1.00  0.00    -0.352 N 
ATOM     30  C   UNL     1       0.391   8.171  -9.547  1.00  0.00     0.251 C 
ATOM     31  H   UNL     1       0.709   6.615  -8.309  1.00  0.00     0.163 HD
ATOM     32  O   UNL     1       0.764   7.586 -10.556  1.00  0.00    -0.269 OA
BRANCH  30  33
ATOM     33  C   UNL     1      -0.087   9.565  -9.617  1.00  0.00     0.039 A 
ATOM     34  C   UNL     1      -1.084   9.893 -10.534  1.00  0.00     0.014 A 
ATOM     35  C   UNL     1       0.360  10.497  -8.678  1.00  0.00     0.014 A 
ATOM     36  C   UNL     1      -1.704  11.139 -10.445  1.00  0.00     0.010 A 
ATOM     37  C   UNL     1      -0.334  11.688  -8.521  1.00  0.00     0.010 A 
ATOM     38  C   UNL     1      -1.373  12.022  -9.403  1.00  0.00    -0.014 A 
BRANCH  38  39
ATOM     39  C   UNL     1      -2.105  13.297  -9.211  1.00  0.00     0.031 A 
ATOM     40  C   UNL     1      -1.365  14.604  -9.284  1.00  0.00     0.074 A 
ATOM     41  C   UNL     1      -3.417  13.277  -8.906  1.00  0.00     0.049 A 
ATOM     42  N   UNL     1      -1.818  15.818  -9.102  1.00  0.00    -0.248 NA
ATOM     43  C   UNL     1       0.078  14.539  -9.569  1.00  0.00     0.031 C 
ATOM     44  C   UNL     1      -4.238  12.072  -8.755  1.00  0.00     0.029 A 
ATOM     45  N   UNL     1      -4.295  14.305  -8.668  1.00  0.00    -0.354 N 
ATOM     46  C   UNL     1      -0.716  16.653  -9.237  1.00  0.00     0.074 A 
ATOM     47  C   UNL     1       0.436  15.807  -9.447  1.00  0.00     0.031 C 
ATOM     48  C   UNL     1      -5.504  12.432  -8.492  1.00  0.00     0.029 A 
ATOM     49  C   UNL     1      -5.578  13.886  -8.406  1.00  0.00     0.049 A 
ATOM     50  H   UNL     1      -4.030  15.253  -8.683  1.00  0.00     0.167 HD
ATOM     51  C   UNL     1      -0.670  18.005  -9.214  1.00  0.00     0.031 A 
ATOM     52  C   UNL     1      -6.688  14.594  -8.124  1.00  0.00     0.031 A 
ATOM     53  C   UNL     1      -1.818  18.846  -9.009  1.00  0.00     0.049 A 
ATOM     54  C   UNL     1      -6.604  16.095  -8.078  1.00  0.00     0.074 A 
ATOM     55  C   UNL     1      -1.886  20.228  -9.024  1.00  0.00     0.029 A 
ATOM     56  N   UNL     1      -3.098  18.383  -8.745  1.00  0.00    -0.354 N 
ATOM     57  N   UNL     1      -5.570  16.873  -8.288  1.00  0.00    -0.248 NA
ATOM     58  C   UNL     1      -7.847  16.816  -7.769  1.00  0.00     0.031 C 
ATOM     59  C   UNL     1      -3.194  20.602  -8.703  1.00  0.00     0.029 A 
ATOM     60  C   UNL     1      -3.957  19.453  -8.563  1.00  0.00     0.049 A 
ATOM     61  H   UNL     1      -3.357  17.435  -8.695  1.00  0.00     0.167 HD
ATOM     62  C   UNL     1      -6.043  18.174  -8.167  1.00  0.00     0.074 A 
ATOM     63  C   UNL     1      -7.460  18.079  -7.885  1.00  0.00     0.031 C 
ATOM     64  C   UNL     1      -5.365  19.342  -8.281  1.00  0.00     0.031 A 
BRANCH  51  65
ATOM     65  C   UNL     1       0.673  18.656  -9.407  1.00  0.00    -0.014 A 
ATOM     66  C   UNL     1       1.346  18.591 -10.638  1.00  0.00     0.009 A 
ATOM     67  C   UNL     1       1.259  19.370  -8.351  1.00  0.00     0.009 A 
ATOM     68  C   UNL     1       2.596  19.193 -10.795  1.00  0.00     0.001 A 
ATOM     69  C   UNL     1       2.493  20.002  -8.521  1.00  0.00     0.001 A 
ATOM     70  C   UNL     1       3.165  19.903  -9.739  1.00  0.00     0.000 A 
ENDBRANCH  51  65
BRANCH  52  71
ATOM     71  C   UNL     1      -7.978  13.897  -7.873  1.00  0.00    -0.014 A 
ATOM     72  C   UNL     1      -9.044  14.018  -8.778  1.00  0.00     0.009 A 
ATOM     73  C   UNL     1      -8.157  13.119  -6.718  1.00  0.00     0.009 A 
ATOM     74  C   UNL     1     -10.271  13.403  -8.516  1.00  0.00     0.001 A 
ATOM     75  C   UNL     1      -9.373  12.476  -6.476  1.00  0.00     0.001 A 
ATOM     76  C   UNL     1     -10.433  12.629  -7.368  1.00  0.00     0.000 A 
ENDBRANCH  52  71
BRANCH  64  77
ATOM     77  C   UNL     1      -6.155  20.614  -8.142  1.00  0.00    -0.014 A 
ATOM     78  C   UNL     1      -6.682  21.020  -6.906  1.00  0.00     0.009 A 
ATOM     79  C   UNL     1      -6.335  21.442  -9.262  1.00  0.00     0.009 A 
ATOM     80  C   UNL     1      -7.406  22.210  -6.804  1.00  0.00     0.001 A 
ATOM     81  C   UNL     1      -7.027  22.648  -9.150  1.00  0.00     0.001 A 
ATOM     82  C   UNL     1      -7.572  23.025  -7.924  1.00  0.00     0.000 A 
ENDBRANCH  64  77
ENDBRANCH  38  39
ENDBRANCH  30  33
ENDBRANCH  28  29
ENDBRANCH  27  28
ENDBRANCH   1  27
TORSDOF 17
