REMARK SMILES Cc1ccc(Nc2c(Cl)cc(Cl)cc2Cl)c(CC(=O)NCCCCNC(=O)c2ccc(-c3c4nc(c(-c5ccccc5)c5ccc([nH]5)c(-c5ccccc5)c5nc(c(-c6ccccc6)c6ccc3[nH]6)C=C5)C=C4)cc2)c1
REMARK SMILES IDX 22 1 21 2 20 3 18 4 19 5 17 7 16 8 1 9 2 10 3 11 76 12 4 13
REMARK SMILES IDX 5 14 6 15 7 17 8 18 14 19 9 20 10 21 13 22 15 23 11 24 12 25
REMARK SMILES IDX 23 26 24 27 25 28 26 29 27 31 28 32 29 33 75 34 30 35 74 36
REMARK SMILES IDX 31 37 32 38 33 39 68 40 34 41 73 42 67 43 69 44 35 45 72 46
REMARK SMILES IDX 66 47 65 48 36 50 58 51 43 52 57 53 44 54 47 55 56 56 70 57
REMARK SMILES IDX 45 58 46 59 55 61 71 62 48 63 37 64 38 65 42 66 39 67 41 68
REMARK SMILES IDX 40 69 59 70 60 71 64 72 61 73 63 74 62 75 49 76 50 77 54 78
REMARK SMILES IDX 51 79 53 80 52 81
REMARK H PARENT 20 6 6 16 25 30 69 49 47 60
REMARK Flexibility Score: inf
ROOT
ATOM      1  C   UNL     1      -0.174   1.147  -3.162  1.00  0.00     0.023 C 
ENDROOT
BRANCH   1   2
ATOM      2  C   UNL     1      -0.595   2.567  -2.746  1.00  0.00     0.116 C 
BRANCH   2   3
ATOM      3  N   UNL     1      -1.997   2.672  -2.381  1.00  0.00    -0.356 N 
ATOM      4  C   UNL     1      -2.594   2.566  -1.159  1.00  0.00     0.224 C 
ATOM      5  O   UNL     1      -3.827   2.573  -1.108  1.00  0.00    -0.275 OA
ATOM      6  H   UNL     1      -2.611   2.847  -3.130  1.00  0.00     0.163 HD
BRANCH   4   7
ATOM      7  C   UNL     1      -1.777   2.412   0.111  1.00  0.00     0.137 C 
BRANCH   7   8
ATOM      8  C   UNL     1      -1.073   1.078   0.210  1.00  0.00    -0.015 A 
ATOM      9  C   UNL     1       2.582  -0.045   0.262  1.00  0.00     0.044 C 
ATOM     10  C   UNL     1       1.084  -0.081   0.258  1.00  0.00    -0.051 A 
ATOM     11  C   UNL     1       0.411  -1.295   0.146  1.00  0.00     0.005 A 
ATOM     12  C   UNL     1       0.335   1.096   0.323  1.00  0.00     0.009 A 
ATOM     13  C   UNL     1      -0.986  -1.328   0.094  1.00  0.00     0.026 A 
ATOM     14  C   UNL     1      -1.758  -0.155   0.117  1.00  0.00     0.042 A 
BRANCH  14  15
ATOM     15  N   UNL     1      -3.171  -0.208   0.085  1.00  0.00    -0.353 N 
ATOM     16  H   UNL     1      -3.625   0.664   0.038  1.00  0.00     0.167 HD
BRANCH  15  17
ATOM     17  C   UNL     1      -4.026  -1.337   0.110  1.00  0.00     0.076 A 
ATOM     18  C   UNL     1      -4.040  -2.267   1.170  1.00  0.00     0.067 A 
ATOM     19  C   UNL     1      -4.852  -1.607  -1.003  1.00  0.00     0.067 A 
ATOM     20  Cl  UNL     1      -3.164  -1.999   2.641  1.00  0.00    -0.082 Cl
ATOM     21  C   UNL     1      -4.819  -3.427   1.104  1.00  0.00     0.043 A 
ATOM     22  C   UNL     1      -5.637  -2.761  -1.068  1.00  0.00     0.043 A 
ATOM     23  Cl  UNL     1      -4.899  -0.532  -2.361  1.00  0.00    -0.082 Cl
ATOM     24  C   UNL     1      -5.606  -3.670  -0.017  1.00  0.00     0.044 A 
ATOM     25  Cl  UNL     1      -6.549  -5.106  -0.103  1.00  0.00    -0.084 Cl
ENDBRANCH  15  17
ENDBRANCH  14  15
ENDBRANCH   7   8
ENDBRANCH   4   7
ENDBRANCH   2   3
ENDBRANCH   1   2
BRANCH   1  26
ATOM     26  C   UNL     1      -0.968   0.525  -4.311  1.00  0.00     0.023 C 
BRANCH  26  27
ATOM     27  C   UNL     1      -0.688   1.157  -5.664  1.00  0.00     0.116 C 
BRANCH  27  28
ATOM     28  N   UNL     1       0.425   0.564  -6.396  1.00  0.00    -0.352 N 
ATOM     29  C   UNL     1       1.046   1.005  -7.554  1.00  0.00     0.251 C 
ATOM     30  H   UNL     1       0.787  -0.268  -6.013  1.00  0.00     0.163 HD
ATOM     31  O   UNL     1       1.937   0.346  -8.068  1.00  0.00    -0.269 OA
BRANCH  29  32
ATOM     32  C   UNL     1       0.724   2.357  -8.079  1.00  0.00     0.039 A 
ATOM     33  C   UNL     1       1.799   3.204  -8.371  1.00  0.00     0.014 A 
ATOM     34  C   UNL     1      -0.573   2.860  -8.030  1.00  0.00     0.014 A 
ATOM     35  C   UNL     1       1.609   4.580  -8.320  1.00  0.00     0.010 A 
ATOM     36  C   UNL     1      -0.745   4.221  -7.873  1.00  0.00     0.010 A 
ATOM     37  C   UNL     1       0.364   5.069  -7.931  1.00  0.00    -0.014 A 
BRANCH  37  38
ATOM     38  C   UNL     1       0.176   6.414  -7.403  1.00  0.00     0.031 A 
ATOM     39  C   UNL     1      -0.537   7.438  -8.182  1.00  0.00     0.074 A 
ATOM     40  C   UNL     1       0.624   6.710  -6.162  1.00  0.00     0.049 A 
ATOM     41  N   UNL     1      -0.436   8.704  -7.954  1.00  0.00    -0.248 NA
ATOM     42  C   UNL     1      -1.353   7.127  -9.353  1.00  0.00     0.031 C 
ATOM     43  C   UNL     1       0.299   7.875  -5.342  1.00  0.00     0.029 A 
ATOM     44  N   UNL     1       1.689   6.105  -5.492  1.00  0.00    -0.354 N 
ATOM     45  C   UNL     1      -1.398   9.328  -8.703  1.00  0.00     0.074 A 
ATOM     46  C   UNL     1      -1.823   8.339  -9.663  1.00  0.00     0.031 C 
ATOM     47  C   UNL     1       1.278   8.056  -4.441  1.00  0.00     0.029 A 
ATOM     48  C   UNL     1       2.338   7.115  -4.757  1.00  0.00     0.049 A 
ATOM     49  H   UNL     1       1.939   5.153  -5.528  1.00  0.00     0.167 HD
ATOM     50  C   UNL     1      -1.831  10.560  -8.320  1.00  0.00     0.031 A 
ATOM     51  C   UNL     1       3.629   7.459  -5.038  1.00  0.00     0.031 A 
ATOM     52  C   UNL     1      -0.951  11.167  -7.316  1.00  0.00     0.049 A 
ATOM     53  C   UNL     1       3.820   8.895  -5.494  1.00  0.00     0.074 A 
ATOM     54  C   UNL     1      -1.076  11.508  -5.980  1.00  0.00     0.029 A 
ATOM     55  N   UNL     1       0.399  11.300  -7.616  1.00  0.00    -0.354 N 
ATOM     56  N   UNL     1       2.856   9.749  -5.702  1.00  0.00    -0.248 NA
ATOM     57  C   UNL     1       5.127   9.441  -5.858  1.00  0.00     0.031 C 
ATOM     58  C   UNL     1       0.223  11.830  -5.479  1.00  0.00     0.029 A 
ATOM     59  C   UNL     1       1.127  11.714  -6.518  1.00  0.00     0.049 A 
ATOM     60  H   UNL     1       0.789  11.121  -8.502  1.00  0.00     0.167 HD
ATOM     61  C   UNL     1       3.364  10.893  -6.266  1.00  0.00     0.074 A 
ATOM     62  C   UNL     1       4.793  10.649  -6.343  1.00  0.00     0.031 C 
ATOM     63  C   UNL     1       2.562  11.923  -6.673  1.00  0.00     0.031 A 
BRANCH  50  64
ATOM     64  C   UNL     1      -3.170  11.143  -8.722  1.00  0.00    -0.014 A 
ATOM     65  C   UNL     1      -3.577  12.380  -8.190  1.00  0.00     0.009 A 
ATOM     66  C   UNL     1      -4.124  10.483  -9.519  1.00  0.00     0.009 A 
ATOM     67  C   UNL     1      -4.857  12.907  -8.424  1.00  0.00     0.001 A 
ATOM     68  C   UNL     1      -5.393  11.015  -9.784  1.00  0.00     0.001 A 
ATOM     69  C   UNL     1      -5.765  12.225  -9.225  1.00  0.00     0.000 A 
ENDBRANCH  50  64
BRANCH  51  70
ATOM     70  C   UNL     1       4.458   6.310  -5.503  1.00  0.00    -0.014 A 
ATOM     71  C   UNL     1       4.694   5.246  -4.608  1.00  0.00     0.009 A 
ATOM     72  C   UNL     1       4.708   6.103  -6.866  1.00  0.00     0.009 A 
ATOM     73  C   UNL     1       5.055   3.980  -5.078  1.00  0.00     0.001 A 
ATOM     74  C   UNL     1       5.087   4.838  -7.331  1.00  0.00     0.001 A 
ATOM     75  C   UNL     1       5.224   3.770  -6.444  1.00  0.00     0.000 A 
ENDBRANCH  51  70
BRANCH  63  76
ATOM     76  C   UNL     1       3.033  13.206  -7.327  1.00  0.00    -0.014 A 
ATOM     77  C   UNL     1       4.298  13.776  -7.134  1.00  0.00     0.009 A 
ATOM     78  C   UNL     1       2.132  13.948  -8.126  1.00  0.00     0.009 A 
ATOM     79  C   UNL     1       4.671  14.967  -7.777  1.00  0.00     0.001 A 
ATOM     80  C   UNL     1       2.489  15.147  -8.749  1.00  0.00     0.001 A 
ATOM     81  C   UNL     1       3.770  15.648  -8.589  1.00  0.00     0.000 A 
ENDBRANCH  63  76
ENDBRANCH  37  38
ENDBRANCH  29  32
ENDBRANCH  27  28
ENDBRANCH  26  27
ENDBRANCH   1  26
TORSDOF 14
