REMARK SMILES O=C(NCCCCNC(=O)[C@H]1CC=CC[C@@H]1C(=O)N[C@@H]1CCCN(c2ccccc2F)C1=O)c1ccc(-c2c3nc(c(-c4ccccc4)c4ccc([nH]4)c(-c4ccccc4)c4nc(c(-c5ccccc5)c5ccc2[nH]5)C=C4)C=C3)cc1
REMARK SMILES IDX 6 1 5 2 4 3 3 4 1 5 2 6 34 8 35 9 81 10 36 11 80 12 37 13
REMARK SMILES IDX 38 14 39 15 74 16 40 17 79 18 73 19 75 20 41 21 78 22 72 23
REMARK SMILES IDX 71 24 42 26 64 27 49 28 63 29 50 30 53 31 62 32 76 33 51 34
REMARK SMILES IDX 52 35 61 37 77 38 54 39 43 40 44 41 48 42 45 43 47 44 46 45
REMARK SMILES IDX 65 46 66 47 70 48 67 49 69 50 68 51 55 52 56 53 60 54 57 55
REMARK SMILES IDX 59 56 58 57 7 58 8 59 9 60 10 62 11 63 12 64 16 65 13 66
REMARK SMILES IDX 15 67 14 68 17 69 18 70 19 71 20 73 21 74 32 75 22 76 24 77
REMARK SMILES IDX 33 78 23 79 25 80 26 81 30 82 27 83 29 84 31 85 28 86
REMARK H PARENT 3 7 75 25 53 36 8 61 19 72
REMARK Flexibility Score: inf
ROOT
ATOM      1  C   UNL     1      14.225  -1.045  -6.407  1.00  0.00     0.023 C 
ENDROOT
BRANCH   1   2
ATOM      2  C   UNL     1      14.078  -1.203  -7.923  1.00  0.00     0.023 C 
BRANCH   2   3
ATOM      3  C   UNL     1      13.593   0.023  -8.700  1.00  0.00     0.116 C 
BRANCH   3   4
ATOM      4  N   UNL     1      14.459   1.193  -8.591  1.00  0.00    -0.352 N 
ATOM      5  O   UNL     1      15.946   2.788  -9.188  1.00  0.00    -0.269 OA
ATOM      6  C   UNL     1      15.249   1.831  -9.522  1.00  0.00     0.251 C 
ATOM      7  H   UNL     1      14.482   1.597  -7.693  1.00  0.00     0.163 HD
BRANCH   6   8
ATOM      8  C   UNL     1      15.312   1.340 -10.914  1.00  0.00     0.039 A 
ATOM      9  C   UNL     1      14.153   0.996 -11.603  1.00  0.00     0.014 A 
ATOM     10  C   UNL     1      16.561   1.174 -11.522  1.00  0.00     0.014 A 
ATOM     11  C   UNL     1      14.251   0.254 -12.773  1.00  0.00     0.010 A 
ATOM     12  C   UNL     1      16.653   0.527 -12.758  1.00  0.00     0.010 A 
ATOM     13  C   UNL     1      15.503  -0.012 -13.353  1.00  0.00    -0.014 A 
BRANCH  13  14
ATOM     14  C   UNL     1      15.572  -0.883 -14.555  1.00  0.00     0.031 A 
ATOM     15  C   UNL     1      16.274  -2.216 -14.507  1.00  0.00     0.074 A 
ATOM     16  C   UNL     1      14.917  -0.508 -15.671  1.00  0.00     0.049 A 
ATOM     17  N   UNL     1      16.355  -3.139 -15.434  1.00  0.00    -0.248 NA
ATOM     18  C   UNL     1      16.983  -2.560 -13.264  1.00  0.00     0.031 C 
ATOM     19  C   UNL     1      14.192   0.755 -15.837  1.00  0.00     0.029 A 
ATOM     20  N   UNL     1      14.713  -1.166 -16.856  1.00  0.00    -0.354 N 
ATOM     21  C   UNL     1      17.148  -4.149 -14.901  1.00  0.00     0.074 A 
ATOM     22  C   UNL     1      17.539  -3.722 -13.576  1.00  0.00     0.031 C 
ATOM     23  C   UNL     1      13.556   0.743 -17.017  1.00  0.00     0.029 A 
ATOM     24  C   UNL     1      13.884  -0.492 -17.719  1.00  0.00     0.049 A 
ATOM     25  H   UNL     1      15.122  -2.037 -17.067  1.00  0.00     0.167 HD
ATOM     26  C   UNL     1      17.515  -5.327 -15.462  1.00  0.00     0.031 A 
ATOM     27  C   UNL     1      13.435  -0.828 -18.942  1.00  0.00     0.031 A 
ATOM     28  C   UNL     1      17.108  -5.762 -16.772  1.00  0.00     0.049 A 
ATOM     29  C   UNL     1      13.863  -2.133 -19.542  1.00  0.00     0.074 A 
ATOM     30  C   UNL     1      17.402  -6.951 -17.418  1.00  0.00     0.029 A 
ATOM     31  N   UNL     1      16.317  -5.022 -17.637  1.00  0.00    -0.354 N 
ATOM     32  N   UNL     1      14.602  -3.079 -19.016  1.00  0.00    -0.248 NA
ATOM     33  C   UNL     1      13.400  -2.412 -20.907  1.00  0.00     0.031 C 
ATOM     34  C   UNL     1      16.825  -6.911 -18.692  1.00  0.00     0.029 A 
ATOM     35  C   UNL     1      16.131  -5.719 -18.820  1.00  0.00     0.049 A 
ATOM     36  H   UNL     1      15.943  -4.133 -17.440  1.00  0.00     0.167 HD
ATOM     37  C   UNL     1      14.686  -4.072 -19.982  1.00  0.00     0.074 A 
ATOM     38  C   UNL     1      13.901  -3.622 -21.115  1.00  0.00     0.031 C 
ATOM     39  C   UNL     1      15.357  -5.248 -19.939  1.00  0.00     0.031 A 
BRANCH  26  40
ATOM     40  C   UNL     1      18.437  -6.217 -14.672  1.00  0.00    -0.014 A 
ATOM     41  C   UNL     1      17.989  -6.930 -13.549  1.00  0.00     0.009 A 
ATOM     42  C   UNL     1      19.771  -6.370 -15.083  1.00  0.00     0.009 A 
ATOM     43  C   UNL     1      18.867  -7.751 -12.835  1.00  0.00     0.001 A 
ATOM     44  C   UNL     1      20.639  -7.211 -14.383  1.00  0.00     0.001 A 
ATOM     45  C   UNL     1      20.189  -7.893 -13.255  1.00  0.00     0.000 A 
ENDBRANCH  26  40
BRANCH  27  46
ATOM     46  C   UNL     1      12.528   0.095 -19.671  1.00  0.00    -0.014 A 
ATOM     47  C   UNL     1      11.178  -0.235 -19.863  1.00  0.00     0.009 A 
ATOM     48  C   UNL     1      13.003   1.325 -20.153  1.00  0.00     0.009 A 
ATOM     49  C   UNL     1      10.325   0.644 -20.532  1.00  0.00     0.001 A 
ATOM     50  C   UNL     1      12.140   2.214 -20.796  1.00  0.00     0.001 A 
ATOM     51  C   UNL     1      10.804   1.871 -20.990  1.00  0.00     0.000 A 
ENDBRANCH  27  46
BRANCH  39  52
ATOM     52  C   UNL     1      15.250  -6.131 -21.148  1.00  0.00    -0.014 A 
ATOM     53  C   UNL     1      15.931  -5.819 -22.334  1.00  0.00     0.009 A 
ATOM     54  C   UNL     1      14.467  -7.294 -21.093  1.00  0.00     0.009 A 
ATOM     55  C   UNL     1      15.798  -6.637 -23.458  1.00  0.00     0.001 A 
ATOM     56  C   UNL     1      14.357  -8.123 -22.210  1.00  0.00     0.001 A 
ATOM     57  C   UNL     1      15.014  -7.788 -23.394  1.00  0.00     0.000 A 
ENDBRANCH  39  52
ENDBRANCH  13  14
ENDBRANCH   6   8
ENDBRANCH   3   4
ENDBRANCH   2   3
ENDBRANCH   1   2
BRANCH   1  58
ATOM     58  C   UNL     1      12.982  -0.553  -5.675  1.00  0.00     0.116 C 
BRANCH  58  59
ATOM     59  N   UNL     1      11.945  -1.553  -5.486  1.00  0.00    -0.356 N 
ATOM     60  C   UNL     1      10.820  -1.460  -4.695  1.00  0.00     0.224 C 
ATOM     61  H   UNL     1      12.059  -2.396  -5.981  1.00  0.00     0.163 HD
ATOM     62  O   UNL     1      10.139  -2.472  -4.533  1.00  0.00    -0.275 OA
BRANCH  60  63
ATOM     63  C   UNL     1      10.448  -0.098  -4.085  1.00  0.00     0.095 C 
ATOM     64  C   UNL     1      10.098   0.849  -5.215  1.00  0.00     0.041 C 
ATOM     65  C   UNL     1       9.274  -0.152  -3.087  1.00  0.00     0.095 C 
ATOM     66  C   UNL     1       8.764   0.636  -5.841  1.00  0.00    -0.030 C 
ATOM     67  C   UNL     1       7.879  -0.332  -3.722  1.00  0.00     0.041 C 
ATOM     68  C   UNL     1       7.753   0.095  -5.155  1.00  0.00    -0.030 C 
BRANCH  65  69
ATOM     69  C   UNL     1       9.264   0.887  -1.948  1.00  0.00     0.224 C 
ATOM     70  O   UNL     1       9.171   0.444  -0.789  1.00  0.00    -0.275 OA
ATOM     71  N   UNL     1       9.274   2.235  -1.985  1.00  0.00    -0.344 N 
ATOM     72  H   UNL     1       9.130   2.568  -1.070  1.00  0.00     0.164 HD
BRANCH  71  73
ATOM     73  C   UNL     1       9.421   3.406  -2.886  1.00  0.00     0.172 C 
ATOM     74  C   UNL     1       8.390   3.551  -3.987  1.00  0.00     0.037 C 
ATOM     75  C   UNL     1      10.896   3.738  -3.198  1.00  0.00     0.249 C 
ATOM     76  C   UNL     1       8.867   4.439  -5.125  1.00  0.00     0.025 C 
ATOM     77  N   UNL     1      11.273   3.886  -4.536  1.00  0.00    -0.308 N 
ATOM     78  O   UNL     1      11.680   3.879  -2.254  1.00  0.00    -0.272 OA
ATOM     79  C   UNL     1      10.297   4.182  -5.590  1.00  0.00     0.126 C 
BRANCH  77  80
ATOM     80  C   UNL     1      12.656   3.679  -4.918  1.00  0.00     0.080 A 
ATOM     81  C   UNL     1      13.199   4.278  -6.065  1.00  0.00     0.029 A 
ATOM     82  C   UNL     1      13.507   2.819  -4.191  1.00  0.00     0.146 A 
ATOM     83  C   UNL     1      14.542   4.078  -6.421  1.00  0.00     0.002 A 
ATOM     84  C   UNL     1      14.843   2.619  -4.542  1.00  0.00     0.041 A 
ATOM     85  F   UNL     1      13.027   2.038  -3.211  1.00  0.00    -0.205 F 
ATOM     86  C   UNL     1      15.367   3.259  -5.656  1.00  0.00     0.003 A 
ENDBRANCH  77  80
ENDBRANCH  71  73
ENDBRANCH  65  69
ENDBRANCH  60  63
ENDBRANCH  58  59
ENDBRANCH   1  58
TORSDOF 14
