REMARK SMILES Cc1cccc(-c2cc(C[C@]3(C(=O)NCCCCNC(=O)c4ccc(-c5c6nc(c(-c7ccccc7)c7ccc([nH]7)c(-c7ccccc7)c7nc(c(-c8ccccc8)c8ccc5[nH]8)C=C7)C=C6)cc4)CCCN(C(=O)C(C)C)C3)on2)c1
REMARK SMILES IDX 16 1 15 2 14 3 12 4 13 5 11 7 70 8 79 9 71 10 73 11 72 12
REMARK SMILES IDX 10 13 9 14 7 15 8 16 81 17 80 18 6 19 1 20 2 21 3 22 82 23
REMARK SMILES IDX 4 24 5 25 74 26 75 27 76 28 77 29 78 30 17 31 18 32 19 33
REMARK SMILES IDX 20 34 21 36 22 37 23 38 69 39 24 40 68 41 25 42 26 43 27 44
REMARK SMILES IDX 62 45 28 46 67 47 61 48 63 49 29 50 66 51 60 52 59 53 30 55
REMARK SMILES IDX 52 56 37 57 51 58 38 59 41 60 50 61 64 62 39 63 40 64 49 66
REMARK SMILES IDX 65 67 42 68 31 69 32 70 36 71 33 72 35 73 34 74 53 75 54 76
REMARK SMILES IDX 58 77 55 78 57 79 56 80 43 81 44 82 48 83 45 84 47 85 46 86
REMARK H PARENT 14 6 19 35 63 54 41 65
REMARK Flexibility Score: inf
ROOT
ATOM      1  C   UNL     1      -7.987   7.395  -1.424  1.00  0.00     0.023 C 
ENDROOT
BRANCH   1   2
ATOM      2  C   UNL     1      -7.016   6.867  -2.494  1.00  0.00     0.116 C 
BRANCH   2   3
ATOM      3  N   UNL     1      -5.711   7.514  -2.516  1.00  0.00    -0.356 N 
ATOM      4  C   UNL     1      -4.444   7.107  -2.201  1.00  0.00     0.228 C 
ATOM      5  O   UNL     1      -3.554   7.916  -2.486  1.00  0.00    -0.274 OA
ATOM      6  H   UNL     1      -5.749   8.448  -2.825  1.00  0.00     0.163 HD
BRANCH   4   7
ATOM      7  C   UNL     1      -4.107   5.751  -1.511  1.00  0.00     0.074 C 
ATOM      8  C   UNL     1      -4.863   5.713  -0.152  1.00  0.00     0.021 C 
ATOM      9  C   UNL     1      -4.445   4.603  -2.499  1.00  0.00     0.136 C 
ATOM     10  C   UNL     1      -5.407   4.358   0.296  1.00  0.00     0.023 C 
ATOM     11  N   UNL     1      -4.859   3.363  -1.833  1.00  0.00    -0.341 N 
ATOM     12  C   UNL     1      -5.926   3.536  -0.866  1.00  0.00     0.119 C 
BRANCH   7  13
ATOM     13  C   UNL     1      -2.555   5.763  -1.253  1.00  0.00     0.097 C 
BRANCH  13  14
ATOM     14  C   UNL     1      -1.961   4.544  -0.630  1.00  0.00     0.138 A 
ATOM     15  C   UNL     1      -0.938   2.691   0.031  1.00  0.00     0.114 A 
ATOM     16  C   UNL     1      -1.221   3.487  -1.108  1.00  0.00     0.077 A 
ATOM     17  N   UNL     1      -1.460   3.250   1.134  1.00  0.00    -0.080 NA
ATOM     18  O   UNL     1      -2.073   4.420   0.719  1.00  0.00    -0.361 OA
BRANCH  15  19
ATOM     19  C   UNL     1      -0.234   1.417   0.076  1.00  0.00     0.004 A 
ATOM     20  C   UNL     1       3.312   0.023  -0.130  1.00  0.00     0.044 C 
ATOM     21  C   UNL     1       1.819   0.113  -0.020  1.00  0.00    -0.050 A 
ATOM     22  C   UNL     1       1.071  -1.065   0.113  1.00  0.00     0.003 A 
ATOM     23  C   UNL     1       1.159   1.353  -0.052  1.00  0.00     0.014 A 
ATOM     24  C   UNL     1      -0.312  -1.008   0.245  1.00  0.00     0.001 A 
ATOM     25  C   UNL     1      -0.954   0.229   0.239  1.00  0.00     0.010 A 
ENDBRANCH  15  19
ENDBRANCH  13  14
ENDBRANCH   7  13
BRANCH  11  26
ATOM     26  C   UNL     1      -4.203   2.181  -2.130  1.00  0.00     0.225 C 
ATOM     27  O   UNL     1      -3.368   2.139  -3.042  1.00  0.00    -0.275 OA
BRANCH  26  28
ATOM     28  C   UNL     1      -4.514   0.874  -1.386  1.00  0.00     0.072 C 
ATOM     29  C   UNL     1      -4.536   0.932   0.140  1.00  0.00     0.018 C 
ATOM     30  C   UNL     1      -5.747   0.188  -1.957  1.00  0.00     0.018 C 
ENDBRANCH  26  28
ENDBRANCH  11  26
ENDBRANCH   4   7
ENDBRANCH   2   3
ENDBRANCH   1   2
BRANCH   1  31
ATOM     31  C   UNL     1      -8.389   8.864  -1.563  1.00  0.00     0.023 C 
BRANCH  31  32
ATOM     32  C   UNL     1      -9.319   9.145  -2.736  1.00  0.00     0.116 C 
BRANCH  32  33
ATOM     33  N   UNL     1     -10.742   9.048  -2.431  1.00  0.00    -0.352 N 
ATOM     34  C   UNL     1     -11.825   9.065  -3.299  1.00  0.00     0.251 C 
ATOM     35  H   UNL     1     -10.966   8.958  -1.476  1.00  0.00     0.163 HD
ATOM     36  O   UNL     1     -12.966   9.012  -2.866  1.00  0.00    -0.269 OA
BRANCH  34  37
ATOM     37  C   UNL     1     -11.582   9.011  -4.763  1.00  0.00     0.039 A 
ATOM     38  C   UNL     1     -12.292   8.066  -5.512  1.00  0.00     0.014 A 
ATOM     39  C   UNL     1     -10.529   9.713  -5.343  1.00  0.00     0.014 A 
ATOM     40  C   UNL     1     -11.777   7.639  -6.734  1.00  0.00     0.010 A 
ATOM     41  C   UNL     1      -9.958   9.220  -6.500  1.00  0.00     0.010 A 
ATOM     42  C   UNL     1     -10.543   8.133  -7.156  1.00  0.00    -0.014 A 
BRANCH  42  43
ATOM     43  C   UNL     1      -9.720   7.466  -8.160  1.00  0.00     0.031 A 
ATOM     44  C   UNL     1      -9.503   8.052  -9.494  1.00  0.00     0.074 A 
ATOM     45  C   UNL     1      -9.092   6.309  -7.852  1.00  0.00     0.049 A 
ATOM     46  N   UNL     1      -9.198   7.359 -10.540  1.00  0.00    -0.248 NA
ATOM     47  C   UNL     1      -9.649   9.477  -9.763  1.00  0.00     0.031 C 
ATOM     48  C   UNL     1      -8.023   5.645  -8.593  1.00  0.00     0.029 A 
ATOM     49  N   UNL     1      -9.465   5.379  -6.894  1.00  0.00    -0.354 N 
ATOM     50  C   UNL     1      -8.800   8.244 -11.510  1.00  0.00     0.074 A 
ATOM     51  C   UNL     1      -9.185   9.548 -11.014  1.00  0.00     0.031 C 
ATOM     52  C   UNL     1      -7.982   4.353  -8.232  1.00  0.00     0.029 A 
ATOM     53  C   UNL     1      -9.118   4.104  -7.361  1.00  0.00     0.049 A 
ATOM     54  H   UNL     1      -9.899   5.579  -6.034  1.00  0.00     0.167 HD
ATOM     55  C   UNL     1      -8.054   7.810 -12.564  1.00  0.00     0.031 A 
ATOM     56  C   UNL     1     -10.088   3.168  -7.585  1.00  0.00     0.031 A 
ATOM     57  C   UNL     1      -7.825   6.365 -12.548  1.00  0.00     0.049 A 
ATOM     58  C   UNL     1     -10.239   2.747  -9.038  1.00  0.00     0.074 A 
ATOM     59  C   UNL     1      -6.734   5.556 -12.273  1.00  0.00     0.029 A 
ATOM     60  N   UNL     1      -8.920   5.516 -12.597  1.00  0.00    -0.354 N 
ATOM     61  N   UNL     1      -9.527   3.208 -10.028  1.00  0.00    -0.248 NA
ATOM     62  C   UNL     1     -11.303   1.850  -9.495  1.00  0.00     0.031 C 
ATOM     63  C   UNL     1      -7.186   4.208 -12.178  1.00  0.00     0.029 A 
ATOM     64  C   UNL     1      -8.549   4.200 -12.399  1.00  0.00     0.049 A 
ATOM     65  H   UNL     1      -9.845   5.814 -12.754  1.00  0.00     0.167 HD
ATOM     66  C   UNL     1     -10.051   2.763 -11.215  1.00  0.00     0.074 A 
ATOM     67  C   UNL     1     -11.156   1.906 -10.829  1.00  0.00     0.031 C 
ATOM     68  C   UNL     1      -9.581   3.177 -12.428  1.00  0.00     0.031 A 
BRANCH  55  69
ATOM     69  C   UNL     1      -7.315   8.770 -13.462  1.00  0.00    -0.014 A 
ATOM     70  C   UNL     1      -6.067   8.411 -13.998  1.00  0.00     0.009 A 
ATOM     71  C   UNL     1      -7.777  10.060 -13.774  1.00  0.00     0.009 A 
ATOM     72  C   UNL     1      -5.272   9.326 -14.700  1.00  0.00     0.001 A 
ATOM     73  C   UNL     1      -6.968  10.996 -14.433  1.00  0.00     0.001 A 
ATOM     74  C   UNL     1      -5.707  10.632 -14.884  1.00  0.00     0.000 A 
ENDBRANCH  55  69
BRANCH  56  75
ATOM     75  C   UNL     1     -11.218   3.261  -6.616  1.00  0.00    -0.014 A 
ATOM     76  C   UNL     1     -10.957   2.991  -5.258  1.00  0.00     0.009 A 
ATOM     77  C   UNL     1     -12.399   3.939  -6.950  1.00  0.00     0.009 A 
ATOM     78  C   UNL     1     -11.793   3.492  -4.256  1.00  0.00     0.001 A 
ATOM     79  C   UNL     1     -13.243   4.423  -5.944  1.00  0.00     0.001 A 
ATOM     80  C   UNL     1     -12.921   4.232  -4.601  1.00  0.00     0.000 A 
ENDBRANCH  56  75
BRANCH  68  81
ATOM     81  C   UNL     1     -10.096   2.698 -13.763  1.00  0.00    -0.014 A 
ATOM     82  C   UNL     1     -10.576   1.400 -13.986  1.00  0.00     0.009 A 
ATOM     83  C   UNL     1      -9.999   3.537 -14.895  1.00  0.00     0.009 A 
ATOM     84  C   UNL     1     -11.015   0.992 -15.254  1.00  0.00     0.001 A 
ATOM     85  C   UNL     1     -10.412   3.128 -16.165  1.00  0.00     0.001 A 
ATOM     86  C   UNL     1     -10.937   1.857 -16.341  1.00  0.00     0.000 A 
ENDBRANCH  68  81
ENDBRANCH  42  43
ENDBRANCH  34  37
ENDBRANCH  32  33
ENDBRANCH  31  32
ENDBRANCH   1  31
TORSDOF 16
