REMARK SMILES O=C(NCCCCNC(=O)[C@@H]1CN(S(=O)(=O)c2ccc3c(c2)OCCCO3)CC[NH2+]1)c1ccc(-c2c3nc(c(-c4ccccc4)c4ccc([nH]4)c(-c4ccccc4)c4nc(c(-c5ccccc5)c5ccc2[nH]5)C=C4)C=C3)cc1
REMARK SMILES IDX 7 1 6 2 5 3 4 4 3 5 1 6 2 7 31 9 32 10 78 11 33 12 77 13
REMARK SMILES IDX 34 14 35 15 36 16 71 17 37 18 76 19 70 20 72 21 38 22 75 23
REMARK SMILES IDX 69 24 68 25 39 27 61 28 46 29 60 30 47 31 50 32 59 33 73 34
REMARK SMILES IDX 48 35 49 36 58 38 74 39 51 40 40 41 41 42 45 43 42 44 44 45
REMARK SMILES IDX 43 46 62 47 63 48 67 49 64 50 66 51 65 52 52 53 53 54 57 55
REMARK SMILES IDX 54 56 56 57 55 58 8 59 9 60 10 62 11 63 12 64 30 65 13 66
REMARK SMILES IDX 29 67 28 70 14 71 15 72 16 73 17 74 18 75 22 76 19 77 21 78
REMARK SMILES IDX 20 79 23 80 24 81 27 83 26 84 25 85
REMARK H PARENT 3 8 72 26 50 37 8 61 30 68 30 69
REMARK Flexibility Score: 90.00
ROOT
ATOM      1  C   UNL     1       5.022  -0.794  -4.003  1.00  0.00     0.116 C 
ENDROOT
BRANCH   1   2
ATOM      2  C   UNL     1       4.568  -1.937  -3.099  1.00  0.00     0.023 C 
BRANCH   2   3
ATOM      3  C   UNL     1       5.000  -1.836  -1.641  1.00  0.00     0.023 C 
BRANCH   3   4
ATOM      4  C   UNL     1       4.616  -0.543  -0.941  1.00  0.00     0.116 C 
BRANCH   4   5
ATOM      5  N   UNL     1       3.185  -0.293  -0.953  1.00  0.00    -0.352 N 
ATOM      6  O   UNL     1       1.155   0.165  -0.092  1.00  0.00    -0.269 OA
ATOM      7  C   UNL     1       2.372   0.135   0.067  1.00  0.00     0.251 C 
ATOM      8  H   UNL     1       2.734  -0.453  -1.814  1.00  0.00     0.163 HD
BRANCH   7   9
ATOM      9  C   UNL     1       2.956   0.536   1.366  1.00  0.00     0.039 A 
ATOM     10  C   UNL     1       2.301   0.156   2.541  1.00  0.00     0.014 A 
ATOM     11  C   UNL     1       4.121   1.306   1.433  1.00  0.00     0.014 A 
ATOM     12  C   UNL     1       2.830   0.523   3.779  1.00  0.00     0.010 A 
ATOM     13  C   UNL     1       4.693   1.598   2.667  1.00  0.00     0.010 A 
ATOM     14  C   UNL     1       4.036   1.237   3.851  1.00  0.00    -0.014 A 
BRANCH  14  15
ATOM     15  C   UNL     1       4.577   1.694   5.154  1.00  0.00     0.031 A 
ATOM     16  C   UNL     1       4.631   3.167   5.457  1.00  0.00     0.074 A 
ATOM     17  C   UNL     1       5.028   0.799   6.053  1.00  0.00     0.049 A 
ATOM     18  N   UNL     1       5.086   3.773   6.524  1.00  0.00    -0.248 NA
ATOM     19  C   UNL     1       4.128   4.083   4.418  1.00  0.00     0.031 C 
ATOM     20  C   UNL     1       5.045  -0.653   5.870  1.00  0.00     0.029 A 
ATOM     21  N   UNL     1       5.546   0.983   7.310  1.00  0.00    -0.354 N 
ATOM     22  C   UNL     1       4.942   5.132   6.274  1.00  0.00     0.074 A 
ATOM     23  C   UNL     1       4.407   5.268   4.939  1.00  0.00     0.031 C 
ATOM     24  C   UNL     1       5.499  -1.231   6.995  1.00  0.00     0.029 A 
ATOM     25  C   UNL     1       5.836  -0.191   7.963  1.00  0.00     0.049 A 
ATOM     26  H   UNL     1       5.695   1.871   7.707  1.00  0.00     0.167 HD
ATOM     27  C   UNL     1       5.205   6.176   7.093  1.00  0.00     0.031 A 
ATOM     28  C   UNL     1       6.304  -0.404   9.207  1.00  0.00     0.031 A 
ATOM     29  C   UNL     1       5.700   6.043   8.435  1.00  0.00     0.049 A 
ATOM     30  C   UNL     1       6.577   0.773  10.104  1.00  0.00     0.074 A 
ATOM     31  C   UNL     1       5.969   7.040   9.354  1.00  0.00     0.029 A 
ATOM     32  N   UNL     1       5.980   4.835   9.054  1.00  0.00    -0.354 N 
ATOM     33  N   UNL     1       6.415   2.050   9.859  1.00  0.00    -0.248 NA
ATOM     34  C   UNL     1       7.084   0.477  11.452  1.00  0.00     0.031 C 
ATOM     35  C   UNL     1       6.443   6.438  10.522  1.00  0.00     0.029 A 
ATOM     36  C   UNL     1       6.420   5.064  10.345  1.00  0.00     0.049 A 
ATOM     37  H   UNL     1       5.880   3.949   8.637  1.00  0.00     0.167 HD
ATOM     38  C   UNL     1       6.766   2.708  11.031  1.00  0.00     0.074 A 
ATOM     39  C   UNL     1       7.144   1.689  11.988  1.00  0.00     0.031 C 
ATOM     40  C   UNL     1       6.773   4.037  11.289  1.00  0.00     0.031 A 
BRANCH  27  41
ATOM     41  C   UNL     1       4.944   7.559   6.570  1.00  0.00    -0.014 A 
ATOM     42  C   UNL     1       6.019   8.419   6.298  1.00  0.00     0.009 A 
ATOM     43  C   UNL     1       3.633   8.034   6.410  1.00  0.00     0.009 A 
ATOM     44  C   UNL     1       5.786   9.731   5.882  1.00  0.00     0.001 A 
ATOM     45  C   UNL     1       3.404   9.338   5.968  1.00  0.00     0.001 A 
ATOM     46  C   UNL     1       4.479  10.188   5.713  1.00  0.00     0.000 A 
ENDBRANCH  27  41
BRANCH  28  47
ATOM     47  C   UNL     1       6.481  -1.794   9.703  1.00  0.00    -0.014 A 
ATOM     48  C   UNL     1       7.517  -2.607   9.220  1.00  0.00     0.009 A 
ATOM     49  C   UNL     1       5.592  -2.319  10.653  1.00  0.00     0.009 A 
ATOM     50  C   UNL     1       7.655  -3.921   9.673  1.00  0.00     0.001 A 
ATOM     51  C   UNL     1       5.747  -3.625  11.123  1.00  0.00     0.001 A 
ATOM     52  C   UNL     1       6.774  -4.427  10.628  1.00  0.00     0.000 A 
ENDBRANCH  28  47
BRANCH  40  53
ATOM     53  C   UNL     1       7.158   4.483  12.670  1.00  0.00    -0.014 A 
ATOM     54  C   UNL     1       6.179   5.020  13.521  1.00  0.00     0.009 A 
ATOM     55  C   UNL     1       8.496   4.470  13.090  1.00  0.00     0.009 A 
ATOM     56  C   UNL     1       6.533   5.547  14.763  1.00  0.00     0.001 A 
ATOM     57  C   UNL     1       8.844   4.975  14.344  1.00  0.00     0.001 A 
ATOM     58  C   UNL     1       7.865   5.520  15.175  1.00  0.00     0.000 A 
ENDBRANCH  40  53
ENDBRANCH  14  15
ENDBRANCH   7   9
ENDBRANCH   4   5
ENDBRANCH   3   4
ENDBRANCH   2   3
ENDBRANCH   1   2
BRANCH   1  59
ATOM     59  N   UNL     1       6.462  -0.813  -4.218  1.00  0.00    -0.351 N 
ATOM     60  C   UNL     1       7.181  -1.037  -5.361  1.00  0.00     0.279 C 
ATOM     61  H   UNL     1       7.004  -0.638  -3.414  1.00  0.00     0.163 HD
ATOM     62  O   UNL     1       8.413  -1.010  -5.293  1.00  0.00    -0.268 OA
BRANCH  60  63
ATOM     63  C   UNL     1       6.458  -1.349  -6.674  1.00  0.00     0.287 C 
ATOM     64  C   UNL     1       6.702  -2.828  -7.032  1.00  0.00     0.178 C 
ATOM     65  N   UNL     1       6.927  -0.443  -7.758  1.00  0.00    -0.334 N 
ATOM     66  N   UNL     1       5.941  -3.228  -8.265  1.00  0.00    -0.186 NA
ATOM     67  C   UNL     1       6.237  -0.815  -9.011  1.00  0.00     0.278 C 
ATOM     68  H   UNL     1       7.935  -0.542  -7.878  1.00  0.00     0.347 HD
ATOM     69  H   UNL     1       6.719   0.526  -7.518  1.00  0.00     0.347 HD
ATOM     70  C   UNL     1       6.347  -2.311  -9.393  1.00  0.00     0.164 C 
BRANCH  66  71
ATOM     71  S   UNL     1       4.247  -3.465  -8.143  1.00  0.00     0.243 S 
ATOM     72  O   UNL     1       3.661  -2.326  -7.470  1.00  0.00    -0.207 OA
ATOM     73  O   UNL     1       3.775  -3.860  -9.454  1.00  0.00    -0.207 OA
BRANCH  71  74
ATOM     74  C   UNL     1       4.017  -4.859  -7.059  1.00  0.00     0.086 A 
ATOM     75  C   UNL     1       3.473  -6.052  -7.536  1.00  0.00     0.026 A 
ATOM     76  C   UNL     1       4.243  -4.699  -5.691  1.00  0.00     0.072 A 
ATOM     77  C   UNL     1       3.172  -7.082  -6.636  1.00  0.00     0.052 A 
ATOM     78  C   UNL     1       3.972  -5.734  -4.799  1.00  0.00     0.162 A 
ATOM     79  C   UNL     1       3.406  -6.919  -5.266  1.00  0.00     0.161 A 
BRANCH  78  80
ATOM     80  O   UNL     1       4.406  -5.555  -3.515  1.00  0.00    -0.490 OA
BRANCH  80  81
ATOM     81  C   UNL     1       3.353  -5.590  -2.555  1.00  0.00     0.233 CG0
ATOM     82  G   UNL     1       2.914  -7.007  -2.227  1.00  0.00     0.000 G0
ENDBRANCH  80  81
ENDBRANCH  78  80
BRANCH  79  83
ATOM     83  O   UNL     1       3.124  -7.986  -4.460  1.00  0.00    -0.490 OA
BRANCH  83  84
ATOM     84  C   UNL     1       2.210  -7.647  -3.414  1.00  0.00     0.233 C 
BRANCH  84  85
ATOM     85  C   UNL     1       2.914  -7.007  -2.227  1.00  0.00     0.083 CG0
ATOM     86  G   UNL     1       3.353  -5.590  -2.555  1.00  0.00     0.000 G0
ENDBRANCH  84  85
ENDBRANCH  83  84
ENDBRANCH  79  83
ENDBRANCH  71  74
ENDBRANCH  66  71
ENDBRANCH  60  63
ENDBRANCH   1  59
TORSDOF 13
