REMARK SMILES Cc1sc(-c2ccco2)nc1C(=O)N[C@@H](C(=O)NCCCCNC(=O)c1ccc(-c2c3nc(c(-c4ccccc4)c4ccc([nH]4)c(-c4ccccc4)c4nc(c(-c5ccccc5)c5ccc2[nH]5)C=C4)C=C3)cc1)C(C)C
REMARK SMILES IDX 20 1 19 2 18 3 16 4 17 5 15 7 14 8 12 9 13 10 11 12 1 13
REMARK SMILES IDX 2 14 3 15 4 16 10 17 5 18 6 19 9 20 7 21 8 22 74 23 75 24
REMARK SMILES IDX 76 25 21 26 22 27 23 28 24 29 25 31 26 32 27 33 73 34 28 35
REMARK SMILES IDX 72 36 29 37 30 38 31 39 66 40 32 41 71 42 65 43 67 44 33 45
REMARK SMILES IDX 70 46 64 47 63 48 34 50 56 51 41 52 55 53 42 54 45 55 54 56
REMARK SMILES IDX 68 57 43 58 44 59 53 61 69 62 46 63 35 64 36 65 40 66 37 67
REMARK SMILES IDX 39 68 38 69 57 70 58 71 62 72 59 73 61 74 60 75 47 76 48 77
REMARK SMILES IDX 52 78 49 79 51 80 50 81
REMARK H PARENT 18 6 14 11 23 30 67 49 45 60
REMARK Flexibility Score: inf
ROOT
ATOM      1  C   UNL     1       0.976  -3.227   3.389  1.00  0.00     0.023 C 
ENDROOT
BRANCH   1   2
ATOM      2  C   UNL     1       1.856  -2.159   2.747  1.00  0.00     0.116 C 
BRANCH   2   3
ATOM      3  N   UNL     1       3.141  -2.699   2.350  1.00  0.00    -0.354 N 
ATOM      4  C   UNL     1       3.645  -2.978   1.109  1.00  0.00     0.242 C 
ATOM      5  O   UNL     1       4.766  -3.491   1.072  1.00  0.00    -0.273 OA
ATOM      6  H   UNL     1       3.752  -2.896   3.096  1.00  0.00     0.163 HD
BRANCH   4   7
ATOM      7  C   UNL     1       2.902  -2.508  -0.171  1.00  0.00     0.174 C 
BRANCH   7   8
ATOM      8  N   UNL     1       1.549  -3.025  -0.221  1.00  0.00    -0.339 N 
ATOM      9  C   UNL     1       0.303  -2.452  -0.238  1.00  0.00     0.271 C 
ATOM     10  O   UNL     1      -0.604  -3.293  -0.256  1.00  0.00    -0.267 OA
ATOM     11  H   UNL     1       1.518  -4.009  -0.247  1.00  0.00     0.164 HD
BRANCH   9  12
ATOM     12  C   UNL     1      -0.035  -0.993  -0.214  1.00  0.00     0.142 A 
ATOM     13  C   UNL     1       2.092   0.626   0.172  1.00  0.00     0.059 C 
ATOM     14  C   UNL     1       0.688   0.206  -0.104  1.00  0.00     0.035 A 
ATOM     15  S   UNL     1      -0.372   1.555  -0.371  1.00  0.00    -0.115 S 
ATOM     16  C   UNL     1      -1.713   0.531  -0.261  1.00  0.00     0.160 A 
ATOM     17  N   UNL     1      -1.433  -0.744  -0.199  1.00  0.00    -0.227 NA
BRANCH  16  18
ATOM     18  C   UNL     1      -3.030   1.078  -0.163  1.00  0.00     0.162 A 
ATOM     19  C   UNL     1      -4.007   0.801   0.779  1.00  0.00     0.053 A 
ATOM     20  O   UNL     1      -3.485   2.077  -0.987  1.00  0.00    -0.462 OA
ATOM     21  C   UNL     1      -5.085   1.685   0.533  1.00  0.00     0.043 A 
ATOM     22  C   UNL     1      -4.725   2.424  -0.567  1.00  0.00     0.196 A 
ENDBRANCH  16  18
ENDBRANCH   9  12
ENDBRANCH   7   8
BRANCH   7  23
ATOM     23  C   UNL     1       3.693  -2.768  -1.476  1.00  0.00     0.015 C 
ATOM     24  C   UNL     1       2.828  -2.574  -2.730  1.00  0.00     0.010 C 
ATOM     25  C   UNL     1       4.888  -1.805  -1.568  1.00  0.00     0.010 C 
ENDBRANCH   7  23
ENDBRANCH   4   7
ENDBRANCH   2   3
ENDBRANCH   1   2
BRANCH   1  26
ATOM     26  C   UNL     1       1.396  -3.571   4.818  1.00  0.00     0.023 C 
BRANCH  26  27
ATOM     27  C   UNL     1       1.329  -2.404   5.798  1.00  0.00     0.116 C 
BRANCH  27  28
ATOM     28  N   UNL     1      -0.016  -1.875   5.966  1.00  0.00    -0.352 N 
ATOM     29  C   UNL     1      -0.653  -1.518   7.130  1.00  0.00     0.251 C 
ATOM     30  H   UNL     1      -0.537  -1.758   5.139  1.00  0.00     0.163 HD
ATOM     31  O   UNL     1      -1.840  -1.209   7.124  1.00  0.00    -0.269 OA
BRANCH  29  32
ATOM     32  C   UNL     1       0.099  -1.547   8.400  1.00  0.00     0.039 A 
ATOM     33  C   UNL     1      -0.455  -2.208   9.498  1.00  0.00     0.014 A 
ATOM     34  C   UNL     1       1.366  -0.963   8.491  1.00  0.00     0.014 A 
ATOM     35  C   UNL     1       0.292  -2.342  10.669  1.00  0.00     0.010 A 
ATOM     36  C   UNL     1       2.139  -1.168   9.629  1.00  0.00     0.010 A 
ATOM     37  C   UNL     1       1.610  -1.858  10.730  1.00  0.00    -0.014 A 
BRANCH  37  38
ATOM     38  C   UNL     1       2.450  -2.070  11.936  1.00  0.00     0.031 A 
ATOM     39  C   UNL     1       2.943  -0.893  12.732  1.00  0.00     0.074 A 
ATOM     40  C   UNL     1       2.820  -3.319  12.281  1.00  0.00     0.049 A 
ATOM     41  N   UNL     1       3.722  -0.876  13.784  1.00  0.00    -0.248 NA
ATOM     42  C   UNL     1       2.527   0.442  12.271  1.00  0.00     0.031 C 
ATOM     43  C   UNL     1       2.445  -4.543  11.570  1.00  0.00     0.029 A 
ATOM     44  N   UNL     1       3.600  -3.765  13.319  1.00  0.00    -0.354 N 
ATOM     45  C   UNL     1       3.899   0.465  14.100  1.00  0.00     0.074 A 
ATOM     46  C   UNL     1       3.195   1.233  13.097  1.00  0.00     0.031 C 
ATOM     47  C   UNL     1       2.967  -5.601  12.211  1.00  0.00     0.029 A 
ATOM     48  C   UNL     1       3.750  -5.130  13.349  1.00  0.00     0.049 A 
ATOM     49  H   UNL     1       4.012  -3.163  13.980  1.00  0.00     0.167 HD
ATOM     50  C   UNL     1       4.568   1.010  15.144  1.00  0.00     0.031 A 
ATOM     51  C   UNL     1       4.445  -5.916  14.193  1.00  0.00     0.031 A 
ATOM     52  C   UNL     1       5.265   0.247  16.144  1.00  0.00     0.049 A 
ATOM     53  C   UNL     1       5.200  -5.285  15.330  1.00  0.00     0.074 A 
ATOM     54  C   UNL     1       5.930   0.705  17.269  1.00  0.00     0.029 A 
ATOM     55  N   UNL     1       5.394  -1.133  16.137  1.00  0.00    -0.354 N 
ATOM     56  N   UNL     1       5.298  -4.019  15.656  1.00  0.00    -0.248 NA
ATOM     57  C   UNL     1       5.932  -6.195  16.222  1.00  0.00     0.031 C 
ATOM     58  C   UNL     1       6.510  -0.394  17.910  1.00  0.00     0.029 A 
ATOM     59  C   UNL     1       6.151  -1.542  17.223  1.00  0.00     0.049 A 
ATOM     60  H   UNL     1       5.005  -1.734  15.461  1.00  0.00     0.167 HD
ATOM     61  C   UNL     1       6.075  -3.983  16.807  1.00  0.00     0.074 A 
ATOM     62  C   UNL     1       6.407  -5.356  17.131  1.00  0.00     0.031 C 
ATOM     63  C   UNL     1       6.476  -2.910  17.532  1.00  0.00     0.031 A 
BRANCH  50  64
ATOM     64  C   UNL     1       4.583   2.511  15.249  1.00  0.00    -0.014 A 
ATOM     65  C   UNL     1       3.417   3.232  15.556  1.00  0.00     0.009 A 
ATOM     66  C   UNL     1       5.785   3.212  15.070  1.00  0.00     0.009 A 
ATOM     67  C   UNL     1       3.448   4.626  15.642  1.00  0.00     0.001 A 
ATOM     68  C   UNL     1       5.820   4.602  15.189  1.00  0.00     0.001 A 
ATOM     69  C   UNL     1       4.650   5.309  15.464  1.00  0.00     0.000 A 
ENDBRANCH  50  64
BRANCH  51  70
ATOM     70  C   UNL     1       4.452  -7.391  14.005  1.00  0.00    -0.014 A 
ATOM     71  C   UNL     1       3.805  -8.232  14.925  1.00  0.00     0.009 A 
ATOM     72  C   UNL     1       5.115  -7.969  12.911  1.00  0.00     0.009 A 
ATOM     73  C   UNL     1       3.848  -9.619  14.770  1.00  0.00     0.001 A 
ATOM     74  C   UNL     1       5.129  -9.355  12.741  1.00  0.00     0.001 A 
ATOM     75  C   UNL     1       4.506 -10.179  13.676  1.00  0.00     0.000 A 
ENDBRANCH  51  70
BRANCH  63  76
ATOM     76  C   UNL     1       7.288  -3.179  18.769  1.00  0.00    -0.014 A 
ATOM     77  C   UNL     1       8.614  -3.634  18.692  1.00  0.00     0.009 A 
ATOM     78  C   UNL     1       6.726  -2.936  20.032  1.00  0.00     0.009 A 
ATOM     79  C   UNL     1       9.346  -3.874  19.856  1.00  0.00     0.001 A 
ATOM     80  C   UNL     1       7.471  -3.145  21.193  1.00  0.00     0.001 A 
ATOM     81  C   UNL     1       8.777  -3.624  21.104  1.00  0.00     0.000 A 
ENDBRANCH  63  76
ENDBRANCH  37  38
ENDBRANCH  29  32
ENDBRANCH  27  28
ENDBRANCH  26  27
ENDBRANCH   1  26
TORSDOF 15
