REMARK SMILES O=C(NCCCCNC(=O)c1cc2n(n1)[C@@H](C(F)(F)F)C[C@H](c1ccc3c(c1)OCO3)N2)c1ccc(-c2c3nc(c(-c4ccccc4)c4ccc([nH]4)c(-c4ccccc4)c4nc(c(-c5ccccc5)c5ccc2[nH]5)C=C4)C=C3)cc1
REMARK SMILES IDX 5 1 4 2 3 3 1 4 2 5 33 7 34 8 80 9 35 10 79 11 36 12 37 13
REMARK SMILES IDX 38 14 73 15 39 16 78 17 72 18 74 19 40 20 77 21 71 22 70 23
REMARK SMILES IDX 41 25 63 26 48 27 62 28 49 29 52 30 61 31 75 32 50 33 51 34
REMARK SMILES IDX 60 36 76 37 53 38 42 39 43 40 47 41 44 42 46 43 45 44 64 45
REMARK SMILES IDX 65 46 69 47 66 48 68 49 67 50 54 51 55 52 59 53 56 54 58 55
REMARK SMILES IDX 57 56 6 57 7 58 8 59 9 60 10 62 11 63 12 64 15 65 13 66
REMARK SMILES IDX 14 67 32 68 16 69 22 70 21 72 17 73 18 74 19 75 20 76 23 77
REMARK SMILES IDX 24 78 28 79 25 80 27 81 26 82 29 83 31 84 30 85
REMARK H PARENT 3 6 74 24 52 35 8 61 32 71
REMARK Flexibility Score: inf
ROOT
ATOM      1  C   UNL     1       4.926  -2.138  -1.357  1.00  0.00     0.023 C 
ENDROOT
BRANCH   1   2
ATOM      2  C   UNL     1       4.579  -0.677  -1.109  1.00  0.00     0.116 C 
BRANCH   2   3
ATOM      3  N   UNL     1       3.145  -0.423  -1.064  1.00  0.00    -0.352 N 
ATOM      4  O   UNL     1       1.166   0.161  -0.141  1.00  0.00    -0.269 OA
ATOM      5  C   UNL     1       2.390   0.134  -0.057  1.00  0.00     0.251 C 
ATOM      6  H   UNL     1       2.645  -0.688  -1.869  1.00  0.00     0.163 HD
BRANCH   5   7
ATOM      7  C   UNL     1       3.061   0.667   1.148  1.00  0.00     0.039 A 
ATOM      8  C   UNL     1       4.207   1.453   1.028  1.00  0.00     0.014 A 
ATOM      9  C   UNL     1       2.562   0.342   2.412  1.00  0.00     0.014 A 
ATOM     10  C   UNL     1       4.960   1.743   2.157  1.00  0.00     0.010 A 
ATOM     11  C   UNL     1       3.262   0.737   3.556  1.00  0.00     0.010 A 
ATOM     12  C   UNL     1       4.493   1.400   3.437  1.00  0.00    -0.014 A 
BRANCH  12  13
ATOM     13  C   UNL     1       5.293   1.795   4.625  1.00  0.00     0.031 A 
ATOM     14  C   UNL     1       5.876   0.769   5.558  1.00  0.00     0.074 A 
ATOM     15  C   UNL     1       5.532   3.105   4.831  1.00  0.00     0.049 A 
ATOM     16  N   UNL     1       6.645   0.951   6.604  1.00  0.00    -0.248 NA
ATOM     17  C   UNL     1       5.552  -0.641   5.294  1.00  0.00     0.031 C 
ATOM     18  C   UNL     1       5.024   4.197   3.996  1.00  0.00     0.029 A 
ATOM     19  N   UNL     1       6.287   3.741   5.782  1.00  0.00    -0.354 N 
ATOM     20  C   UNL     1       6.875  -0.312   7.135  1.00  0.00     0.074 A 
ATOM     21  C   UNL     1       6.142  -1.251   6.313  1.00  0.00     0.031 C 
ATOM     22  C   UNL     1       5.538   5.357   4.427  1.00  0.00     0.029 A 
ATOM     23  C   UNL     1       6.346   5.103   5.613  1.00  0.00     0.049 A 
ATOM     24  H   UNL     1       6.743   3.268   6.515  1.00  0.00     0.167 HD
ATOM     25  C   UNL     1       7.628  -0.658   8.208  1.00  0.00     0.031 A 
ATOM     26  C   UNL     1       6.969   6.050   6.336  1.00  0.00     0.031 A 
ATOM     27  C   UNL     1       8.354   0.281   9.026  1.00  0.00     0.049 A 
ATOM     28  C   UNL     1       7.757   5.641   7.544  1.00  0.00     0.074 A 
ATOM     29  C   UNL     1       9.176   0.024  10.111  1.00  0.00     0.029 A 
ATOM     30  N   UNL     1       8.337   1.657   8.857  1.00  0.00    -0.354 N 
ATOM     31  N   UNL     1       7.998   4.438   8.007  1.00  0.00    -0.248 NA
ATOM     32  C   UNL     1       8.362   6.724   8.329  1.00  0.00     0.031 C 
ATOM     33  C   UNL     1       9.603   1.248  10.637  1.00  0.00     0.029 A 
ATOM     34  C   UNL     1       9.106   2.264   9.838  1.00  0.00     0.049 A 
ATOM     35  H   UNL     1       7.851   2.133   8.145  1.00  0.00     0.167 HD
ATOM     36  C   UNL     1       8.803   4.618   9.122  1.00  0.00     0.074 A 
ATOM     37  C   UNL     1       9.027   6.044   9.252  1.00  0.00     0.031 C 
ATOM     38  C   UNL     1       9.314   3.685   9.962  1.00  0.00     0.031 A 
BRANCH  25  39
ATOM     39  C   UNL     1       7.673  -2.115   8.588  1.00  0.00    -0.014 A 
ATOM     40  C   UNL     1       8.332  -3.066   7.793  1.00  0.00     0.009 A 
ATOM     41  C   UNL     1       7.075  -2.537   9.787  1.00  0.00     0.009 A 
ATOM     42  C   UNL     1       8.355  -4.412   8.169  1.00  0.00     0.001 A 
ATOM     43  C   UNL     1       7.127  -3.877  10.177  1.00  0.00     0.001 A 
ATOM     44  C   UNL     1       7.757  -4.815   9.362  1.00  0.00     0.000 A 
ENDBRANCH  25  39
BRANCH  26  45
ATOM     45  C   UNL     1       6.864   7.477   5.936  1.00  0.00    -0.014 A 
ATOM     46  C   UNL     1       7.988   8.169   5.464  1.00  0.00     0.009 A 
ATOM     47  C   UNL     1       5.636   8.153   6.021  1.00  0.00     0.009 A 
ATOM     48  C   UNL     1       7.890   9.516   5.108  1.00  0.00     0.001 A 
ATOM     49  C   UNL     1       5.533   9.489   5.632  1.00  0.00     0.001 A 
ATOM     50  C   UNL     1       6.663  10.172   5.186  1.00  0.00     0.000 A 
ENDBRANCH  26  45
BRANCH  38  51
ATOM     51  C   UNL     1      10.199   4.181  11.072  1.00  0.00    -0.014 A 
ATOM     52  C   UNL     1       9.682   4.911  12.154  1.00  0.00     0.009 A 
ATOM     53  C   UNL     1      11.574   3.900  11.038  1.00  0.00     0.009 A 
ATOM     54  C   UNL     1      10.532   5.387  13.155  1.00  0.00     0.001 A 
ATOM     55  C   UNL     1      12.416   4.347  12.057  1.00  0.00     0.001 A 
ATOM     56  C   UNL     1      11.896   5.101  13.107  1.00  0.00     0.000 A 
ENDBRANCH  38  51
ENDBRANCH  12  13
ENDBRANCH   5   7
ENDBRANCH   2   3
ENDBRANCH   1   2
BRANCH   1  57
ATOM     57  C   UNL     1       4.470  -2.688  -2.702  1.00  0.00     0.023 C 
BRANCH  57  58
ATOM     58  C   UNL     1       4.912  -1.875  -3.914  1.00  0.00     0.116 C 
BRANCH  58  59
ATOM     59  N   UNL     1       6.357  -1.788  -4.039  1.00  0.00    -0.351 N 
ATOM     60  C   UNL     1       7.169  -2.210  -5.072  1.00  0.00     0.271 C 
ATOM     61  H   UNL     1       6.823  -1.370  -3.280  1.00  0.00     0.163 HD
ATOM     62  O   UNL     1       8.389  -2.180  -4.902  1.00  0.00    -0.267 OA
BRANCH  60  63
ATOM     63  C   UNL     1       6.538  -2.663  -6.317  1.00  0.00     0.152 A 
ATOM     64  C   UNL     1       5.444  -2.052  -6.998  1.00  0.00     0.082 A 
ATOM     65  N   UNL     1       6.947  -3.772  -6.970  1.00  0.00    -0.165 NA
ATOM     66  C   UNL     1       5.110  -2.923  -7.995  1.00  0.00     0.126 A 
ATOM     67  N   UNL     1       6.057  -3.904  -7.963  1.00  0.00    -0.237 N 
ATOM     68  N   UNL     1       4.101  -2.941  -8.885  1.00  0.00    -0.363 N 
ATOM     69  C   UNL     1       6.114  -4.992  -8.918  1.00  0.00     0.217 C 
ATOM     70  C   UNL     1       3.989  -3.975  -9.911  1.00  0.00     0.113 C 
ATOM     71  H   UNL     1       3.416  -2.235  -8.844  1.00  0.00     0.162 HD
ATOM     72  C   UNL     1       5.385  -4.567 -10.210  1.00  0.00     0.066 C 
BRANCH  69  73
ATOM     73  C   UNL     1       5.527  -6.247  -8.310  1.00  0.00     0.410 C 
ATOM     74  F   UNL     1       5.523  -7.244  -9.236  1.00  0.00    -0.169 F 
ATOM     75  F   UNL     1       6.235  -6.708  -7.258  1.00  0.00    -0.169 F 
ATOM     76  F   UNL     1       4.246  -6.097  -7.909  1.00  0.00    -0.169 F 
ENDBRANCH  69  73
BRANCH  70  77
ATOM     77  C   UNL     1       3.314  -3.443 -11.171  1.00  0.00    -0.022 A 
ATOM     78  C   UNL     1       2.942  -4.361 -12.186  1.00  0.00     0.010 A 
ATOM     79  C   UNL     1       3.009  -2.080 -11.355  1.00  0.00     0.056 A 
ATOM     80  C   UNL     1       2.278  -3.942 -13.345  1.00  0.00     0.051 A 
ATOM     81  C   UNL     1       2.329  -1.700 -12.493  1.00  0.00     0.166 A 
ATOM     82  C   UNL     1       1.976  -2.605 -13.462  1.00  0.00     0.165 A 
ATOM     83  O   UNL     1       1.927  -0.435 -12.789  1.00  0.00    -0.454 OA
ATOM     84  O   UNL     1       1.313  -2.024 -14.497  1.00  0.00    -0.454 OA
ATOM     85  C   UNL     1       1.269  -0.651 -14.054  1.00  0.00     0.468 C 
ENDBRANCH  70  77
ENDBRANCH  60  63
ENDBRANCH  58  59
ENDBRANCH  57  58
ENDBRANCH   1  57
TORSDOF 13
