REMARK SMILES Cc1ccc(C(N)=O)c(NCc2ccc(C(=O)NCCCCNC(=O)c3ccc(-c4c5nc(c(-c6ccccc6)c6ccc([nH]6)c(-c6ccccc6)c6nc(c(-c7ccccc7)c7ccc4[nH]7)C=C6)C=C5)cc3)o2)n1
REMARK SMILES IDX 19 1 18 2 16 3 17 4 15 6 12 7 13 8 74 9 14 10 11 11 10 12
REMARK SMILES IDX 9 14 1 15 2 16 3 17 75 18 4 19 5 20 6 21 7 22 8 23 20 26
REMARK SMILES IDX 21 27 22 28 23 29 24 30 25 32 26 33 27 34 73 35 28 36 72 37
REMARK SMILES IDX 29 38 30 39 31 40 66 41 32 42 71 43 65 44 67 45 33 46 70 47
REMARK SMILES IDX 64 48 63 49 34 51 56 52 41 53 55 54 42 55 45 56 54 57 68 58
REMARK SMILES IDX 43 59 44 60 53 62 69 63 46 64 35 65 36 66 40 67 37 68 39 69
REMARK SMILES IDX 38 70 57 71 58 72 62 73 59 74 61 75 60 76 47 77 48 78 52 79
REMARK SMILES IDX 49 80 51 81 50 82
REMARK H PARENT 18 5 10 13 7 24 7 25 23 31 67 50 45 61
REMARK Flexibility Score: inf
ROOT
ATOM      1  C   UNL     1      -1.213   7.003  -5.449  1.00  0.00     0.116 C 
ENDROOT
BRANCH   1   2
ATOM      2  N   UNL     1      -1.098   7.770  -4.227  1.00  0.00    -0.349 N 
ATOM      3  C   UNL     1      -1.072   7.367  -2.911  1.00  0.00     0.286 C 
ATOM      4  O   UNL     1      -0.877   8.262  -2.085  1.00  0.00    -0.266 OA
ATOM      5  H   UNL     1      -1.025   8.743  -4.359  1.00  0.00     0.163 HD
BRANCH   3   6
ATOM      6  C   UNL     1      -1.247   5.973  -2.539  1.00  0.00     0.191 A 
ATOM      7  C   UNL     1      -1.081   4.291  -1.102  1.00  0.00     0.124 A 
ATOM      8  C   UNL     1      -1.609   3.762  -2.258  1.00  0.00     0.048 A 
ATOM      9  O   UNL     1      -0.857   5.623  -1.266  1.00  0.00    -0.454 OA
ATOM     10  C   UNL     1      -1.758   4.844  -3.157  1.00  0.00     0.056 A 
BRANCH   7  11
ATOM     11  C   UNL     1      -0.756   3.713   0.235  1.00  0.00     0.190 C 
BRANCH  11  12
ATOM     12  N   UNL     1      -1.531   2.520   0.545  1.00  0.00    -0.362 N 
ATOM     13  H   UNL     1      -2.435   2.612   0.923  1.00  0.00     0.162 HD
BRANCH  12  14
ATOM     14  C   UNL     1      -1.009   1.257   0.312  1.00  0.00     0.139 A 
ATOM     15  C   UNL     1       2.397  -0.109  -0.044  1.00  0.00     0.067 C 
ATOM     16  C   UNL     1       0.901  -0.070   0.037  1.00  0.00     0.040 A 
ATOM     17  C   UNL     1       0.149  -1.230  -0.057  1.00  0.00     0.024 A 
ATOM     18  N   UNL     1       0.336   1.152   0.200  1.00  0.00    -0.236 NA
ATOM     19  C   UNL     1      -1.234  -1.126   0.022  1.00  0.00     0.019 A 
ATOM     20  C   UNL     1      -1.833   0.129   0.198  1.00  0.00     0.081 A 
BRANCH  20  21
ATOM     21  C   UNL     1      -3.320   0.168   0.207  1.00  0.00     0.252 C 
ATOM     22  N   UNL     1      -3.933   1.340  -0.135  1.00  0.00    -0.365 N 
ATOM     23  O   UNL     1      -3.986  -0.827   0.469  1.00  0.00    -0.269 OA
ATOM     24  H   UNL     1      -3.392   2.136  -0.344  1.00  0.00     0.159 HD
ATOM     25  H   UNL     1      -4.915   1.389  -0.173  1.00  0.00     0.159 HD
ENDBRANCH  20  21
ENDBRANCH  12  14
ENDBRANCH  11  12
ENDBRANCH   7  11
ENDBRANCH   3   6
ENDBRANCH   1   2
BRANCH   1  26
ATOM     26  C   UNL     1      -2.654   6.986  -5.959  1.00  0.00     0.023 C 
BRANCH  26  27
ATOM     27  C   UNL     1      -3.067   8.259  -6.706  1.00  0.00     0.023 C 
BRANCH  27  28
ATOM     28  C   UNL     1      -2.264   8.557  -7.969  1.00  0.00     0.116 C 
BRANCH  28  29
ATOM     29  N   UNL     1      -2.305   7.484  -8.951  1.00  0.00    -0.352 N 
ATOM     30  C   UNL     1      -2.223   7.579 -10.321  1.00  0.00     0.251 C 
ATOM     31  H   UNL     1      -2.405   6.574  -8.588  1.00  0.00     0.163 HD
ATOM     32  O   UNL     1      -2.369   6.592 -11.027  1.00  0.00    -0.269 OA
BRANCH  30  33
ATOM     33  C   UNL     1      -1.997   8.905 -10.931  1.00  0.00     0.039 A 
ATOM     34  C   UNL     1      -2.869   9.345 -11.930  1.00  0.00     0.014 A 
ATOM     35  C   UNL     1      -0.958   9.724 -10.485  1.00  0.00     0.014 A 
ATOM     36  C   UNL     1      -2.744  10.642 -12.432  1.00  0.00     0.010 A 
ATOM     37  C   UNL     1      -0.873  11.035 -10.940  1.00  0.00     0.010 A 
ATOM     38  C   UNL     1      -1.769  11.508 -11.912  1.00  0.00    -0.014 A 
BRANCH  38  39
ATOM     39  C   UNL     1      -1.661  12.917 -12.362  1.00  0.00     0.031 A 
ATOM     40  C   UNL     1      -0.424  13.381 -13.077  1.00  0.00     0.074 A 
ATOM     41  C   UNL     1      -2.631  13.797 -12.048  1.00  0.00     0.049 A 
ATOM     42  N   UNL     1      -0.082  14.592 -13.435  1.00  0.00    -0.248 NA
ATOM     43  C   UNL     1       0.574  12.349 -13.407  1.00  0.00     0.031 C 
ATOM     44  C   UNL     1      -3.868  13.479 -11.331  1.00  0.00     0.029 A 
ATOM     45  N   UNL     1      -2.718  15.147 -12.278  1.00  0.00    -0.354 N 
ATOM     46  C   UNL     1       1.178  14.472 -14.007  1.00  0.00     0.074 A 
ATOM     47  C   UNL     1       1.557  13.079 -13.913  1.00  0.00     0.031 C 
ATOM     48  C   UNL     1      -4.597  14.600 -11.195  1.00  0.00     0.029 A 
ATOM     49  C   UNL     1      -3.861  15.719 -11.774  1.00  0.00     0.049 A 
ATOM     50  H   UNL     1      -2.027  15.657 -12.759  1.00  0.00     0.167 HD
ATOM     51  C   UNL     1       1.946  15.433 -14.574  1.00  0.00     0.031 A 
ATOM     52  C   UNL     1      -4.265  17.003 -11.768  1.00  0.00     0.031 A 
ATOM     53  C   UNL     1       1.562  16.814 -14.684  1.00  0.00     0.049 A 
ATOM     54  C   UNL     1      -3.391  18.053 -12.396  1.00  0.00     0.074 A 
ATOM     55  C   UNL     1       2.249  17.854 -15.285  1.00  0.00     0.029 A 
ATOM     56  N   UNL     1       0.385  17.347 -14.182  1.00  0.00    -0.354 N 
ATOM     57  N   UNL     1      -2.224  17.916 -12.977  1.00  0.00    -0.248 NA
ATOM     58  C   UNL     1      -3.896  19.433 -12.375  1.00  0.00     0.031 C 
ATOM     59  C   UNL     1       1.505  19.026 -15.113  1.00  0.00     0.029 A 
ATOM     60  C   UNL     1       0.332  18.704 -14.449  1.00  0.00     0.049 A 
ATOM     61  H   UNL     1      -0.310  16.836 -13.708  1.00  0.00     0.167 HD
ATOM     62  C   UNL     1      -1.872  19.183 -13.421  1.00  0.00     0.074 A 
ATOM     63  C   UNL     1      -2.951  20.075 -13.048  1.00  0.00     0.031 C 
ATOM     64  C   UNL     1      -0.755  19.573 -14.082  1.00  0.00     0.031 A 
BRANCH  51  65
ATOM     65  C   UNL     1       3.285  15.017 -15.113  1.00  0.00    -0.014 A 
ATOM     66  C   UNL     1       3.390  14.229 -16.271  1.00  0.00     0.009 A 
ATOM     67  C   UNL     1       4.459  15.443 -14.472  1.00  0.00     0.009 A 
ATOM     68  C   UNL     1       4.643  13.845 -16.753  1.00  0.00     0.001 A 
ATOM     69  C   UNL     1       5.710  15.081 -14.973  1.00  0.00     0.001 A 
ATOM     70  C   UNL     1       5.801  14.275 -16.107  1.00  0.00     0.000 A 
ENDBRANCH  51  65
BRANCH  52  71
ATOM     71  C   UNL     1      -5.569  17.371 -11.158  1.00  0.00    -0.014 A 
ATOM     72  C   UNL     1      -6.648  17.755 -11.969  1.00  0.00     0.009 A 
ATOM     73  C   UNL     1      -5.741  17.349  -9.765  1.00  0.00     0.009 A 
ATOM     74  C   UNL     1      -7.864  18.135 -11.397  1.00  0.00     0.001 A 
ATOM     75  C   UNL     1      -6.967  17.703  -9.197  1.00  0.00     0.001 A 
ATOM     76  C   UNL     1      -8.024  18.105 -10.012  1.00  0.00     0.000 A 
ENDBRANCH  52  71
BRANCH  64  77
ATOM     77  C   UNL     1      -0.666  21.014 -14.495  1.00  0.00    -0.014 A 
ATOM     78  C   UNL     1      -0.400  22.026 -13.561  1.00  0.00     0.009 A 
ATOM     79  C   UNL     1      -0.796  21.352 -15.851  1.00  0.00     0.009 A 
ATOM     80  C   UNL     1      -0.292  23.355 -13.976  1.00  0.00     0.001 A 
ATOM     81  C   UNL     1      -0.661  22.678 -16.266  1.00  0.00     0.001 A 
ATOM     82  C   UNL     1      -0.417  23.679 -15.327  1.00  0.00     0.000 A 
ENDBRANCH  64  77
ENDBRANCH  38  39
ENDBRANCH  30  33
ENDBRANCH  28  29
ENDBRANCH  27  28
ENDBRANCH  26  27
ENDBRANCH   1  26
TORSDOF 15
