REMARK SMILES Cc1cccc(OCC(=O)Nc2cc(C(=O)NCCCCNC(=O)c3ccc(-c4c5nc(c(-c6ccccc6)c6ccc([nH]6)c(-c6ccccc6)c6nc(c(-c7ccccc7)c7ccc4[nH]7)C=C6)C=C5)cc3)c(Cl)cc2Cl)c1
REMARK SMILES IDX 18 1 17 2 15 3 16 4 14 6 12 7 13 8 76 9 75 10 77 11 73 12
REMARK SMILES IDX 74 13 11 14 9 15 10 16 8 18 7 19 6 20 1 21 2 22 3 23 78 24
REMARK SMILES IDX 4 25 5 26 19 27 20 28 21 29 22 30 23 31 24 33 25 34 26 35
REMARK SMILES IDX 72 36 27 37 71 38 28 39 29 40 30 41 65 42 31 43 70 44 64 45
REMARK SMILES IDX 66 46 32 47 69 48 63 49 62 50 33 52 55 53 40 54 54 55 41 56
REMARK SMILES IDX 44 57 53 58 67 59 42 60 43 61 52 63 68 64 45 65 34 66 35 67
REMARK SMILES IDX 39 68 36 69 38 70 37 71 56 72 57 73 61 74 58 75 60 76 59 77
REMARK SMILES IDX 46 78 47 79 51 80 48 81 50 82 49 83
REMARK H PARENT 17 5 11 17 22 32 66 51 44 62
REMARK Flexibility Score: inf
ROOT
ATOM      1  C   UNL     1      -3.693   0.144   0.788  1.00  0.00     0.116 C 
ENDROOT
BRANCH   1   2
ATOM      2  N   UNL     1      -5.037   0.678   0.814  1.00  0.00    -0.352 N 
ATOM      3  C   UNL     1      -5.477   1.913   1.244  1.00  0.00     0.252 C 
ATOM      4  O   UNL     1      -6.592   2.294   0.896  1.00  0.00    -0.269 OA
ATOM      5  H   UNL     1      -5.738   0.074   0.478  1.00  0.00     0.163 HD
BRANCH   3   6
ATOM      6  C   UNL     1      -4.662   2.780   2.142  1.00  0.00     0.060 A 
ATOM      7  C   UNL     1      -2.568   3.928   2.679  1.00  0.00     0.061 A 
ATOM      8  C   UNL     1      -3.346   3.172   1.795  1.00  0.00     0.043 A 
ATOM      9  C   UNL     1      -3.171   4.381   3.873  1.00  0.00     0.066 A 
ATOM     10  C   UNL     1      -4.491   4.069   4.189  1.00  0.00     0.044 A 
ATOM     11  Cl  UNL     1      -2.289   5.353   5.009  1.00  0.00    -0.082 Cl
ATOM     12  C   UNL     1      -5.232   3.252   3.337  1.00  0.00     0.055 A 
ATOM     13  Cl  UNL     1      -6.823   2.833   3.871  1.00  0.00    -0.083 Cl
BRANCH   7  14
ATOM     14  N   UNL     1      -1.199   4.233   2.519  1.00  0.00    -0.322 N 
ATOM     15  C   UNL     1      -0.250   4.092   1.558  1.00  0.00     0.262 C 
ATOM     16  O   UNL     1       0.904   4.420   1.866  1.00  0.00    -0.271 OA
ATOM     17  H   UNL     1      -0.833   4.667   3.323  1.00  0.00     0.170 HD
BRANCH  15  18
ATOM     18  C   UNL     1      -0.550   3.648   0.132  1.00  0.00     0.329 C 
BRANCH  18  19
ATOM     19  O   UNL     1      -0.828   2.281  -0.100  1.00  0.00    -0.484 OA
BRANCH  19  20
ATOM     20  C   UNL     1       0.135   1.350   0.160  1.00  0.00     0.120 A 
ATOM     21  C   UNL     1       3.817   0.635   0.796  1.00  0.00     0.044 C 
ATOM     22  C   UNL     1       2.333   0.464   0.673  1.00  0.00    -0.047 A 
ATOM     23  C   UNL     1       1.804  -0.831   0.741  1.00  0.00     0.003 A 
ATOM     24  C   UNL     1       1.487   1.560   0.404  1.00  0.00     0.049 A 
ATOM     25  C   UNL     1       0.465  -1.043   0.472  1.00  0.00     0.004 A 
ATOM     26  C   UNL     1      -0.337   0.040   0.141  1.00  0.00     0.046 A 
ENDBRANCH  19  20
ENDBRANCH  18  19
ENDBRANCH  15  18
ENDBRANCH   7  14
ENDBRANCH   3   6
ENDBRANCH   1   2
BRANCH   1  27
ATOM     27  C   UNL     1      -3.535  -1.331   1.172  1.00  0.00     0.023 C 
BRANCH  27  28
ATOM     28  C   UNL     1      -3.807  -2.390   0.098  1.00  0.00     0.023 C 
BRANCH  28  29
ATOM     29  C   UNL     1      -3.045  -2.290  -1.229  1.00  0.00     0.116 C 
BRANCH  29  30
ATOM     30  N   UNL     1      -1.862  -3.148  -1.349  1.00  0.00    -0.352 N 
ATOM     31  C   UNL     1      -1.062  -3.401  -2.467  1.00  0.00     0.251 C 
ATOM     32  H   UNL     1      -1.592  -3.613  -0.524  1.00  0.00     0.163 HD
ATOM     33  O   UNL     1      -0.027  -4.024  -2.367  1.00  0.00    -0.269 OA
BRANCH  31  34
ATOM     34  C   UNL     1      -1.455  -2.809  -3.773  1.00  0.00     0.039 A 
ATOM     35  C   UNL     1      -0.525  -2.039  -4.479  1.00  0.00     0.014 A 
ATOM     36  C   UNL     1      -2.789  -2.827  -4.156  1.00  0.00     0.014 A 
ATOM     37  C   UNL     1      -0.991  -1.068  -5.363  1.00  0.00     0.010 A 
ATOM     38  C   UNL     1      -3.261  -1.779  -4.918  1.00  0.00     0.010 A 
ATOM     39  C   UNL     1      -2.365  -0.850  -5.460  1.00  0.00    -0.014 A 
BRANCH  39  40
ATOM     40  C   UNL     1      -2.944   0.415  -5.908  1.00  0.00     0.031 A 
ATOM     41  C   UNL     1      -3.824   0.484  -7.093  1.00  0.00     0.074 A 
ATOM     42  C   UNL     1      -2.770   1.514  -5.140  1.00  0.00     0.049 A 
ATOM     43  N   UNL     1      -4.100   1.572  -7.734  1.00  0.00    -0.248 NA
ATOM     44  C   UNL     1      -4.417  -0.703  -7.697  1.00  0.00     0.031 C 
ATOM     45  C   UNL     1      -3.531   2.761  -5.165  1.00  0.00     0.029 A 
ATOM     46  N   UNL     1      -1.692   1.792  -4.304  1.00  0.00    -0.354 N 
ATOM     47  C   UNL     1      -5.121   1.285  -8.611  1.00  0.00     0.074 A 
ATOM     48  C   UNL     1      -5.207  -0.156  -8.624  1.00  0.00     0.031 C 
ATOM     49  C   UNL     1      -2.808   3.725  -4.572  1.00  0.00     0.029 A 
ATOM     50  C   UNL     1      -1.483   3.176  -4.323  1.00  0.00     0.049 A 
ATOM     51  H   UNL     1      -1.170   1.133  -3.791  1.00  0.00     0.167 HD
ATOM     52  C   UNL     1      -5.883   2.299  -9.112  1.00  0.00     0.031 A 
ATOM     53  C   UNL     1      -0.329   3.704  -4.830  1.00  0.00     0.031 A 
ATOM     54  C   UNL     1      -5.355   3.613  -8.742  1.00  0.00     0.049 A 
ATOM     55  C   UNL     1      -0.535   4.640  -6.002  1.00  0.00     0.074 A 
ATOM     56  C   UNL     1      -5.738   4.555  -7.800  1.00  0.00     0.029 A 
ATOM     57  N   UNL     1      -4.096   3.995  -9.190  1.00  0.00    -0.354 N 
ATOM     58  N   UNL     1      -1.604   4.662  -6.748  1.00  0.00    -0.248 NA
ATOM     59  C   UNL     1       0.489   5.573  -6.463  1.00  0.00     0.031 C 
ATOM     60  C   UNL     1      -4.669   5.476  -7.641  1.00  0.00     0.029 A 
ATOM     61  C   UNL     1      -3.651   5.108  -8.503  1.00  0.00     0.049 A 
ATOM     62  H   UNL     1      -3.591   3.536  -9.900  1.00  0.00     0.167 HD
ATOM     63  C   UNL     1      -1.413   5.532  -7.789  1.00  0.00     0.074 A 
ATOM     64  C   UNL     1      -0.101   6.102  -7.548  1.00  0.00     0.031 C 
ATOM     65  C   UNL     1      -2.337   5.674  -8.784  1.00  0.00     0.031 A 
BRANCH  52  66
ATOM     66  C   UNL     1      -7.276   2.091  -9.674  1.00  0.00    -0.014 A 
ATOM     67  C   UNL     1      -8.202   3.151  -9.643  1.00  0.00     0.009 A 
ATOM     68  C   UNL     1      -7.772   0.872 -10.166  1.00  0.00     0.009 A 
ATOM     69  C   UNL     1      -9.554   2.975  -9.974  1.00  0.00     0.001 A 
ATOM     70  C   UNL     1      -9.128   0.675 -10.467  1.00  0.00     0.001 A 
ATOM     71  C   UNL     1     -10.024   1.726 -10.356  1.00  0.00     0.000 A 
ENDBRANCH  52  66
BRANCH  53  72
ATOM     72  C   UNL     1       0.860   2.810  -4.723  1.00  0.00    -0.014 A 
ATOM     73  C   UNL     1       1.349   2.467  -3.449  1.00  0.00     0.009 A 
ATOM     74  C   UNL     1       1.300   2.067  -5.828  1.00  0.00     0.009 A 
ATOM     75  C   UNL     1       2.176   1.353  -3.276  1.00  0.00     0.001 A 
ATOM     76  C   UNL     1       2.141   0.962  -5.652  1.00  0.00     0.001 A 
ATOM     77  C   UNL     1       2.552   0.587  -4.374  1.00  0.00     0.000 A 
ENDBRANCH  53  72
BRANCH  65  78
ATOM     78  C   UNL     1      -2.123   6.388 -10.098  1.00  0.00    -0.014 A 
ATOM     79  C   UNL     1      -0.867   6.668 -10.653  1.00  0.00     0.009 A 
ATOM     80  C   UNL     1      -3.245   6.688 -10.902  1.00  0.00     0.009 A 
ATOM     81  C   UNL     1      -0.739   7.259 -11.919  1.00  0.00     0.001 A 
ATOM     82  C   UNL     1      -3.123   7.232 -12.183  1.00  0.00     0.001 A 
ATOM     83  C   UNL     1      -1.866   7.530 -12.688  1.00  0.00     0.000 A 
ENDBRANCH  65  78
ENDBRANCH  39  40
ENDBRANCH  31  34
ENDBRANCH  29  30
ENDBRANCH  28  29
ENDBRANCH  27  28
ENDBRANCH   1  27
TORSDOF 15
