REMARK SMILES C[C@@H](C(=O)NCCCCNC(=O)c1ccc(-c2c3nc(c(-c4ccccc4)c4ccc([nH]4)c(-c4ccccc4)c4nc(c(-c5ccccc5)c5ccc2[nH]5)C=C4)C=C3)cc1)c1ccc(Cc2cccs2)cc1F
REMARK SMILES IDX 7 1 6 2 5 3 3 4 4 5 2 7 1 8 61 9 62 10 72 11 63 12 71 13
REMARK SMILES IDX 73 14 64 15 65 16 66 17 67 18 70 19 68 20 69 21 8 22 9 23
REMARK SMILES IDX 10 24 11 25 12 27 13 28 14 29 60 30 15 31 59 32 16 33 17 34
REMARK SMILES IDX 18 35 53 36 19 37 58 38 52 39 54 40 20 41 57 42 51 43 50 44
REMARK SMILES IDX 21 46 43 47 28 48 42 49 29 50 32 51 41 52 55 53 30 54 31 55
REMARK SMILES IDX 40 57 56 58 33 59 22 60 23 61 27 62 24 63 26 64 25 65 44 66
REMARK SMILES IDX 45 67 49 68 46 69 48 70 47 71 34 72 35 73 39 74 36 75 38 76
REMARK SMILES IDX 37 77
REMARK H PARENT 5 6 10 26 54 45 32 56
REMARK Flexibility Score: inf
ROOT
ATOM      1  C   UNL     1       4.171   1.071   0.375  1.00  0.00     0.023 C 
ENDROOT
BRANCH   1   2
ATOM      2  C   UNL     1       3.410   0.611   1.620  1.00  0.00     0.116 C 
BRANCH   2   3
ATOM      3  N   UNL     1       2.416   1.584   2.018  1.00  0.00    -0.356 N 
ATOM      4  C   UNL     1       1.059   1.573   1.884  1.00  0.00     0.227 C 
ATOM      5  O   UNL     1       0.478   2.576   2.306  1.00  0.00    -0.274 OA
ATOM      6  H   UNL     1       2.779   2.386   2.458  1.00  0.00     0.163 HD
BRANCH   4   7
ATOM      7  C   UNL     1       0.342   0.347   1.285  1.00  0.00     0.108 C 
ATOM      8  C   UNL     1       0.663   0.125  -0.195  1.00  0.00     0.023 C 
BRANCH   7   9
ATOM      9  C   UNL     1      -1.176   0.368   1.419  1.00  0.00    -0.000 A 
ATOM     10  C   UNL     1      -1.938   1.514   1.154  1.00  0.00     0.008 A 
ATOM     11  C   UNL     1      -1.863  -0.816   1.709  1.00  0.00     0.127 A 
ATOM     12  C   UNL     1      -3.332   1.480   1.218  1.00  0.00     0.004 A 
ATOM     13  C   UNL     1      -3.255  -0.861   1.774  1.00  0.00     0.043 A 
ATOM     14  F   UNL     1      -1.176  -1.954   1.893  1.00  0.00    -0.207 F 
ATOM     15  C   UNL     1      -4.008   0.295   1.536  1.00  0.00    -0.040 A 
BRANCH  15  16
ATOM     16  C   UNL     1      -5.519   0.272   1.606  1.00  0.00     0.082 C 
BRANCH  16  17
ATOM     17  C   UNL     1      -6.080   0.875   2.865  1.00  0.00     0.009 A 
ATOM     18  C   UNL     1      -5.936   2.161   3.354  1.00  0.00     0.016 A 
ATOM     19  S   UNL     1      -7.098  -0.060   3.883  1.00  0.00    -0.149 S 
ATOM     20  C   UNL     1      -6.661   2.375   4.561  1.00  0.00     0.012 A 
ATOM     21  C   UNL     1      -7.345   1.248   4.955  1.00  0.00     0.065 A 
ENDBRANCH  16  17
ENDBRANCH  15  16
ENDBRANCH   7   9
ENDBRANCH   4   7
ENDBRANCH   2   3
ENDBRANCH   1   2
BRANCH   1  22
ATOM     22  C   UNL     1       4.936   2.386   0.538  1.00  0.00     0.023 C 
BRANCH  22  23
ATOM     23  C   UNL     1       5.903   2.426   1.712  1.00  0.00     0.116 C 
BRANCH  23  24
ATOM     24  N   UNL     1       6.912   1.381   1.643  1.00  0.00    -0.352 N 
ATOM     25  C   UNL     1       8.265   1.475   1.850  1.00  0.00     0.251 C 
ATOM     26  H   UNL     1       6.578   0.483   1.417  1.00  0.00     0.163 HD
ATOM     27  O   UNL     1       8.996   0.519   1.604  1.00  0.00    -0.269 OA
BRANCH  25  28
ATOM     28  C   UNL     1       8.842   2.740   2.348  1.00  0.00     0.039 A 
ATOM     29  C   UNL     1      10.006   3.232   1.753  1.00  0.00     0.014 A 
ATOM     30  C   UNL     1       8.234   3.441   3.393  1.00  0.00     0.014 A 
ATOM     31  C   UNL     1      10.537   4.450   2.180  1.00  0.00     0.010 A 
ATOM     32  C   UNL     1       8.711   4.695   3.753  1.00  0.00     0.010 A 
ATOM     33  C   UNL     1       9.880   5.202   3.167  1.00  0.00    -0.014 A 
BRANCH  33  34
ATOM     34  C   UNL     1      10.425   6.502   3.632  1.00  0.00     0.031 A 
ATOM     35  C   UNL     1      10.873   6.660   5.060  1.00  0.00     0.074 A 
ATOM     36  C   UNL     1      10.474   7.551   2.790  1.00  0.00     0.049 A 
ATOM     37  N   UNL     1      11.354   7.717   5.664  1.00  0.00    -0.248 NA
ATOM     38  C   UNL     1      10.735   5.482   5.932  1.00  0.00     0.031 C 
ATOM     39  C   UNL     1      10.039   7.539   1.392  1.00  0.00     0.029 A 
ATOM     40  N   UNL     1      10.916   8.834   2.990  1.00  0.00    -0.354 N 
ATOM     41  C   UNL     1      11.552   7.337   6.986  1.00  0.00     0.074 A 
ATOM     42  C   UNL     1      11.082   5.976   7.110  1.00  0.00     0.031 C 
ATOM     43  C   UNL     1      10.276   8.744   0.849  1.00  0.00     0.029 A 
ATOM     44  C   UNL     1      10.839   9.623   1.869  1.00  0.00     0.049 A 
ATOM     45  H   UNL     1      11.257   9.158   3.855  1.00  0.00     0.167 HD
ATOM     46  C   UNL     1      12.096   8.047   8.003  1.00  0.00     0.031 A 
ATOM     47  C   UNL     1      11.186  10.911   1.683  1.00  0.00     0.031 A 
ATOM     48  C   UNL     1      12.568   9.400   7.877  1.00  0.00     0.049 A 
ATOM     49  C   UNL     1      11.771  11.687   2.830  1.00  0.00     0.074 A 
ATOM     50  C   UNL     1      13.189  10.190   8.829  1.00  0.00     0.029 A 
ATOM     51  N   UNL     1      12.464  10.167   6.726  1.00  0.00    -0.354 N 
ATOM     52  N   UNL     1      12.020  11.293   4.055  1.00  0.00    -0.248 NA
ATOM     53  C   UNL     1      12.139  13.083   2.559  1.00  0.00     0.031 C 
ATOM     54  C   UNL     1      13.403  11.455   8.272  1.00  0.00     0.029 A 
ATOM     55  C   UNL     1      12.984  11.430   6.952  1.00  0.00     0.049 A 
ATOM     56  H   UNL     1      12.079   9.858   5.874  1.00  0.00     0.167 HD
ATOM     57  C   UNL     1      12.610  12.378   4.691  1.00  0.00     0.074 A 
ATOM     58  C   UNL     1      12.689  13.442   3.710  1.00  0.00     0.031 C 
ATOM     59  C   UNL     1      13.055  12.481   5.967  1.00  0.00     0.031 A 
BRANCH  46  60
ATOM     60  C   UNL     1      12.183   7.370   9.345  1.00  0.00    -0.014 A 
ATOM     61  C   UNL     1      13.023   6.264   9.557  1.00  0.00     0.009 A 
ATOM     62  C   UNL     1      11.410   7.845  10.415  1.00  0.00     0.009 A 
ATOM     63  C   UNL     1      13.043   5.615  10.794  1.00  0.00     0.001 A 
ATOM     64  C   UNL     1      11.460   7.218  11.662  1.00  0.00     0.001 A 
ATOM     65  C   UNL     1      12.264   6.094  11.845  1.00  0.00     0.000 A 
ENDBRANCH  46  60
BRANCH  47  66
ATOM     66  C   UNL     1      11.029  11.536   0.343  1.00  0.00    -0.014 A 
ATOM     67  C   UNL     1      12.159  11.851  -0.428  1.00  0.00     0.009 A 
ATOM     68  C   UNL     1       9.755  11.815  -0.176  1.00  0.00     0.009 A 
ATOM     69  C   UNL     1      12.018  12.457  -1.679  1.00  0.00     0.001 A 
ATOM     70  C   UNL     1       9.616  12.393  -1.440  1.00  0.00     0.001 A 
ATOM     71  C   UNL     1      10.746  12.722  -2.186  1.00  0.00     0.000 A 
ENDBRANCH  47  66
BRANCH  59  72
ATOM     72  C   UNL     1      13.718  13.772   6.364  1.00  0.00    -0.014 A 
ATOM     73  C   UNL     1      12.992  14.965   6.500  1.00  0.00     0.009 A 
ATOM     74  C   UNL     1      15.096  13.782   6.638  1.00  0.00     0.009 A 
ATOM     75  C   UNL     1      13.640  16.149   6.860  1.00  0.00     0.001 A 
ATOM     76  C   UNL     1      15.734  14.958   7.032  1.00  0.00     0.001 A 
ATOM     77  C   UNL     1      15.008  16.143   7.130  1.00  0.00     0.000 A 
ENDBRANCH  59  72
ENDBRANCH  33  34
ENDBRANCH  25  28
ENDBRANCH  23  24
ENDBRANCH  22  23
ENDBRANCH   1  22
TORSDOF 14
