REMARK SMILES CCn1cc(C)c(C(=O)NCCCCNC(=O)c2ccc(-c3c4nc(c(-c5ccccc5)c5ccc([nH]5)c(-c5ccccc5)c5nc(c(-c6ccccc6)c6ccc3[nH]6)C=C5)C=C4)cc2)c1CC(=O)NCc1cccc(C)c1
REMARK SMILES IDX 11 1 10 2 8 3 9 4 7 6 3 7 4 8 66 9 5 10 6 11 2 12 1 13 67 14
REMARK SMILES IDX 68 15 69 16 70 17 71 19 72 20 73 21 78 22 74 23 76 24 75 25
REMARK SMILES IDX 77 26 12 27 13 28 14 29 15 30 16 31 17 33 18 34 19 35 65 36
REMARK SMILES IDX 20 37 64 38 21 39 22 40 23 41 58 42 24 43 63 44 57 45 59 46
REMARK SMILES IDX 25 47 62 48 56 49 55 50 26 52 48 53 33 54 47 55 34 56 37 57
REMARK SMILES IDX 46 58 60 59 35 60 36 61 45 63 61 64 38 65 27 66 28 67 32 68
REMARK SMILES IDX 29 69 31 70 30 71 49 72 50 73 54 74 51 75 53 76 52 77 39 78
REMARK SMILES IDX 40 79 44 80 41 81 43 82 42 83
REMARK H PARENT 10 5 70 18 15 32 59 51 37 62
REMARK Flexibility Score: inf
ROOT
ATOM      1  C   UNL     1       3.112  -0.644  -4.774  1.00  0.00     0.116 C 
ENDROOT
BRANCH   1   2
ATOM      2  N   UNL     1       2.699   0.642  -5.299  1.00  0.00    -0.352 N 
ATOM      3  C   UNL     1       2.269   1.838  -4.770  1.00  0.00     0.253 C 
ATOM      4  O   UNL     1       2.264   2.760  -5.596  1.00  0.00    -0.269 OA
ATOM      5  H   UNL     1       2.736   0.667  -6.282  1.00  0.00     0.163 HD
BRANCH   3   6
ATOM      6  C   UNL     1       1.914   2.108  -3.350  1.00  0.00     0.064 A 
ATOM      7  N   UNL     1       1.298   2.042  -1.167  1.00  0.00    -0.350 N 
ATOM      8  C   UNL     1       1.520   3.359  -1.475  1.00  0.00     0.090 A 
ATOM      9  C   UNL     1       1.366   1.296  -2.337  1.00  0.00     0.040 A 
ATOM     10  C   UNL     1       1.811   3.455  -2.815  1.00  0.00    -0.020 A 
ATOM     11  C   UNL     1       1.903   4.744  -3.562  1.00  0.00     0.047 C 
BRANCH   7  12
ATOM     12  C   UNL     1       0.796   1.689   0.159  1.00  0.00     0.118 C 
ATOM     13  C   UNL     1       1.261   0.385   0.787  1.00  0.00     0.027 C 
ENDBRANCH   7  12
BRANCH   9  14
ATOM     14  C   UNL     1       0.769  -0.068  -2.429  1.00  0.00     0.154 C 
BRANCH  14  15
ATOM     15  C   UNL     1      -0.361  -0.109  -3.455  1.00  0.00     0.226 C 
ATOM     16  O   UNL     1      -0.273   0.274  -4.620  1.00  0.00    -0.275 OA
ATOM     17  N   UNL     1      -1.544  -0.672  -3.062  1.00  0.00    -0.352 N 
ATOM     18  H   UNL     1      -1.886  -1.466  -3.532  1.00  0.00     0.163 HD
BRANCH  17  19
ATOM     19  C   UNL     1      -2.298  -0.111  -1.963  1.00  0.00     0.151 C 
BRANCH  19  20
ATOM     20  C   UNL     1      -2.998   1.122  -2.479  1.00  0.00    -0.029 A 
ATOM     21  C   UNL     1      -2.342   2.362  -2.490  1.00  0.00     0.005 A 
ATOM     22  C   UNL     1      -4.227   0.999  -3.139  1.00  0.00     0.009 A 
ATOM     23  C   UNL     1      -2.900   3.455  -3.146  1.00  0.00     0.001 A 
ATOM     24  C   UNL     1      -4.790   2.091  -3.809  1.00  0.00    -0.051 A 
ATOM     25  C   UNL     1      -4.122   3.321  -3.800  1.00  0.00     0.003 A 
ATOM     26  C   UNL     1      -6.094   1.950  -4.533  1.00  0.00     0.044 C 
ENDBRANCH  19  20
ENDBRANCH  17  19
ENDBRANCH  14  15
ENDBRANCH   9  14
ENDBRANCH   3   6
ENDBRANCH   1   2
BRANCH   1  27
ATOM     27  C   UNL     1       2.102  -1.771  -5.048  1.00  0.00     0.023 C 
BRANCH  27  28
ATOM     28  C   UNL     1       2.103  -2.422  -6.434  1.00  0.00     0.023 C 
BRANCH  28  29
ATOM     29  C   UNL     1       3.130  -3.531  -6.606  1.00  0.00     0.116 C 
BRANCH  29  30
ATOM     30  N   UNL     1       2.978  -4.600  -5.620  1.00  0.00    -0.352 N 
ATOM     31  C   UNL     1       3.967  -5.370  -5.037  1.00  0.00     0.251 C 
ATOM     32  H   UNL     1       2.056  -4.796  -5.336  1.00  0.00     0.163 HD
ATOM     33  O   UNL     1       3.723  -6.388  -4.425  1.00  0.00    -0.269 OA
BRANCH  31  34
ATOM     34  C   UNL     1       5.353  -4.904  -5.209  1.00  0.00     0.039 A 
ATOM     35  C   UNL     1       6.241  -5.662  -5.966  1.00  0.00     0.014 A 
ATOM     36  C   UNL     1       5.672  -3.617  -4.775  1.00  0.00     0.014 A 
ATOM     37  C   UNL     1       7.427  -5.069  -6.388  1.00  0.00     0.010 A 
ATOM     38  C   UNL     1       6.812  -3.006  -5.269  1.00  0.00     0.010 A 
ATOM     39  C   UNL     1       7.694  -3.720  -6.085  1.00  0.00    -0.014 A 
BRANCH  39  40
ATOM     40  C   UNL     1       8.815  -3.057  -6.765  1.00  0.00     0.031 A 
ATOM     41  C   UNL     1       8.918  -3.272  -8.243  1.00  0.00     0.074 A 
ATOM     42  C   UNL     1       9.641  -2.139  -6.221  1.00  0.00     0.049 A 
ATOM     43  N   UNL     1       9.871  -3.857  -8.895  1.00  0.00    -0.248 NA
ATOM     44  C   UNL     1       7.808  -2.812  -9.092  1.00  0.00     0.031 C 
ATOM     45  C   UNL     1       9.564  -1.499  -4.906  1.00  0.00     0.029 A 
ATOM     46  N   UNL     1      10.700  -1.507  -6.809  1.00  0.00    -0.354 N 
ATOM     47  C   UNL     1       9.569  -3.713 -10.247  1.00  0.00     0.074 A 
ATOM     48  C   UNL     1       8.242  -3.149 -10.309  1.00  0.00     0.031 C 
ATOM     49  C   UNL     1      10.380  -0.422  -4.883  1.00  0.00     0.029 A 
ATOM     50  C   UNL     1      11.166  -0.412  -6.103  1.00  0.00     0.049 A 
ATOM     51  H   UNL     1      11.097  -1.805  -7.660  1.00  0.00     0.167 HD
ATOM     52  C   UNL     1      10.497  -3.901 -11.227  1.00  0.00     0.031 A 
ATOM     53  C   UNL     1      12.134   0.453  -6.478  1.00  0.00     0.031 A 
ATOM     54  C   UNL     1      11.667  -4.587 -10.751  1.00  0.00     0.049 A 
ATOM     55  C   UNL     1      12.973  -0.208  -7.496  1.00  0.00     0.074 A 
ATOM     56  C   UNL     1      11.931  -5.821 -10.194  1.00  0.00     0.029 A 
ATOM     57  N   UNL     1      12.784  -3.824 -10.519  1.00  0.00    -0.354 N 
ATOM     58  N   UNL     1      13.761  -1.211  -7.240  1.00  0.00    -0.248 NA
ATOM     59  C   UNL     1      12.724   0.043  -8.906  1.00  0.00     0.031 C 
ATOM     60  C   UNL     1      12.985  -5.588  -9.259  1.00  0.00     0.029 A 
ATOM     61  C   UNL     1      13.320  -4.234  -9.325  1.00  0.00     0.049 A 
ATOM     62  H   UNL     1      13.136  -3.113 -11.102  1.00  0.00     0.167 HD
ATOM     63  C   UNL     1      13.752  -1.970  -8.397  1.00  0.00     0.074 A 
ATOM     64  C   UNL     1      13.247  -1.070  -9.427  1.00  0.00     0.031 C 
ATOM     65  C   UNL     1      13.884  -3.329  -8.345  1.00  0.00     0.031 A 
BRANCH  52  66
ATOM     66  C   UNL     1      10.506  -3.146 -12.535  1.00  0.00    -0.014 A 
ATOM     67  C   UNL     1      11.426  -3.514 -13.536  1.00  0.00     0.009 A 
ATOM     68  C   UNL     1       9.841  -1.917 -12.708  1.00  0.00     0.009 A 
ATOM     69  C   UNL     1      11.697  -2.673 -14.624  1.00  0.00     0.001 A 
ATOM     70  C   UNL     1      10.079  -1.095 -13.814  1.00  0.00     0.001 A 
ATOM     71  C   UNL     1      11.025  -1.463 -14.761  1.00  0.00     0.000 A 
ENDBRANCH  52  66
BRANCH  53  72
ATOM     72  C   UNL     1      12.314   1.866  -6.107  1.00  0.00    -0.014 A 
ATOM     73  C   UNL     1      13.572   2.478  -6.195  1.00  0.00     0.009 A 
ATOM     74  C   UNL     1      11.189   2.687  -5.912  1.00  0.00     0.009 A 
ATOM     75  C   UNL     1      13.695   3.871  -6.135  1.00  0.00     0.001 A 
ATOM     76  C   UNL     1      11.312   4.078  -5.848  1.00  0.00     0.001 A 
ATOM     77  C   UNL     1      12.564   4.670  -5.977  1.00  0.00     0.000 A 
ENDBRANCH  53  72
BRANCH  65  78
ATOM     78  C   UNL     1      14.378  -3.936  -7.053  1.00  0.00    -0.014 A 
ATOM     79  C   UNL     1      13.726  -3.754  -5.820  1.00  0.00     0.009 A 
ATOM     80  C   UNL     1      15.482  -4.801  -7.094  1.00  0.00     0.009 A 
ATOM     81  C   UNL     1      14.198  -4.370  -4.657  1.00  0.00     0.001 A 
ATOM     82  C   UNL     1      15.938  -5.439  -5.937  1.00  0.00     0.001 A 
ATOM     83  C   UNL     1      15.304  -5.213  -4.717  1.00  0.00     0.000 A 
ENDBRANCH  65  78
ENDBRANCH  39  40
ENDBRANCH  31  34
ENDBRANCH  29  30
ENDBRANCH  28  29
ENDBRANCH  27  28
ENDBRANCH   1  27
TORSDOF 16
