REMARK SMILES Cc1c(C(=O)NCCCCNC(=O)c2ccc(-c3c4nc(c(-c5ccccc5)c5ccc([nH]5)c(-c5ccccc5)c5nc(c(-c6ccccc6)c6ccc3[nH]6)C=C5)C=C4)cc2)cccc1N1[C@@H](C)C=C(/C=C(\C#N)C(=O)NCCc2c[nH]c3ccccc23)[C@@H]1C
REMARK SMILES IDX 4 1 5 2 6 3 3 5 1 6 2 7 65 8 62 9 64 10 63 11 66 12 67 13
REMARK SMILES IDX 89 14 69 15 68 16 70 17 90 18 71 19 72 20 73 21 74 22 75 23
REMARK SMILES IDX 76 24 77 25 78 27 79 28 80 29 81 30 88 31 82 32 83 33 87 34
REMARK SMILES IDX 84 36 86 37 85 38 7 39 8 40 9 41 10 42 11 43 12 44 13 46
REMARK SMILES IDX 14 47 15 48 61 49 16 50 60 51 17 52 18 53 19 54 54 55 20 56
REMARK SMILES IDX 59 57 53 58 55 59 21 60 58 61 52 62 51 63 22 65 44 66 29 67
REMARK SMILES IDX 43 68 30 69 33 70 42 71 56 72 31 73 32 74 41 76 57 77 34 78
REMARK SMILES IDX 23 79 24 80 28 81 25 82 27 83 26 84 45 85 46 86 50 87 47 88
REMARK SMILES IDX 49 89 48 90 35 91 36 92 40 93 37 94 39 95 38 96
REMARK H PARENT 6 4 77 26 82 35 11 45 55 64 33 75
REMARK Flexibility Score: inf
ROOT
ATOM      1  C   UNL     1       0.853  -2.348   0.134  1.00  0.00     0.251 C 
ATOM      2  O   UNL     1       0.071  -3.304   0.246  1.00  0.00    -0.269 OA
ATOM      3  N   UNL     1       2.155  -2.755   0.151  1.00  0.00    -0.352 N 
ATOM      4  H   UNL     1       2.231  -3.724   0.307  1.00  0.00     0.163 HD
ENDROOT
BRANCH   1   5
ATOM      5  C   UNL     1       0.267  -0.957  -0.027  1.00  0.00     0.044 A 
ATOM      6  C   UNL     1       2.263   0.603   0.420  1.00  0.00     0.047 C 
ATOM      7  C   UNL     1       0.855   0.338  -0.003  1.00  0.00    -0.015 A 
ATOM      8  C   UNL     1       0.054   1.502  -0.215  1.00  0.00     0.041 A 
ATOM      9  C   UNL     1      -1.145  -1.009  -0.132  1.00  0.00     0.014 A 
ATOM     10  C   UNL     1      -1.336   1.369  -0.305  1.00  0.00     0.026 A 
ATOM     11  C   UNL     1      -1.939   0.127  -0.239  1.00  0.00     0.003 A 
BRANCH   8  12
ATOM     12  N   UNL     1       0.575   2.780  -0.147  1.00  0.00    -0.358 N 
ATOM     13  C   UNL     1       0.289   3.616   1.025  1.00  0.00     0.103 C 
ATOM     14  C   UNL     1       1.681   3.300  -0.970  1.00  0.00     0.110 C 
ATOM     15  C   UNL     1       1.426   4.581   0.975  1.00  0.00     0.003 C 
ATOM     16  C   UNL     1       0.369   2.875   2.365  1.00  0.00     0.035 C 
ATOM     17  C   UNL     1       2.277   4.337  -0.031  1.00  0.00    -0.026 C 
ATOM     18  C   UNL     1       1.127   3.925  -2.251  1.00  0.00     0.036 C 
BRANCH  17  19
ATOM     19  C   UNL     1       3.582   4.934  -0.245  1.00  0.00     0.031 C 
ATOM     20  C   UNL     1       4.329   5.657   0.622  1.00  0.00     0.117 C 
BRANCH  20  21
ATOM     21  C   UNL     1       3.922   5.957   1.954  1.00  0.00     0.105 C 
ATOM     22  N   UNL     1       3.581   6.222   3.023  1.00  0.00    -0.192 NA
ENDBRANCH  20  21
BRANCH  20  23
ATOM     23  C   UNL     1       5.502   6.371   0.044  1.00  0.00     0.261 C 
ATOM     24  O   UNL     1       5.765   6.288  -1.157  1.00  0.00    -0.268 OA
ATOM     25  N   UNL     1       6.147   7.321   0.772  1.00  0.00    -0.351 N 
ATOM     26  H   UNL     1       6.253   8.174   0.291  1.00  0.00     0.163 HD
BRANCH  25  27
ATOM     27  C   UNL     1       6.720   7.343   2.129  1.00  0.00     0.121 C 
BRANCH  27  28
ATOM     28  C   UNL     1       8.105   6.641   2.292  1.00  0.00     0.059 C 
BRANCH  28  29
ATOM     29  C   UNL     1       9.263   7.302   1.534  1.00  0.00    -0.021 A 
ATOM     30  C   UNL     1       9.282   8.666   1.242  1.00  0.00     0.087 A 
ATOM     31  C   UNL     1       9.855   6.802   0.329  1.00  0.00     0.003 A 
ATOM     32  N   UNL     1       8.658   8.616  -0.012  1.00  0.00    -0.361 N 
ATOM     33  C   UNL     1       9.164   7.505  -0.659  1.00  0.00     0.046 A 
ATOM     34  C   UNL     1      10.813   5.856  -0.075  1.00  0.00     0.010 A 
ATOM     35  H   UNL     1       7.989   9.248  -0.363  1.00  0.00     0.166 HD
ATOM     36  C   UNL     1       9.126   7.118  -1.994  1.00  0.00     0.026 A 
ATOM     37  C   UNL     1      10.955   5.609  -1.451  1.00  0.00     0.001 A 
ATOM     38  C   UNL     1      10.069   6.165  -2.378  1.00  0.00     0.002 A 
ENDBRANCH  28  29
ENDBRANCH  27  28
ENDBRANCH  25  27
ENDBRANCH  20  23
ENDBRANCH  17  19
ENDBRANCH   8  12
ENDBRANCH   1   5
BRANCH   3  39
ATOM     39  C   UNL     1       3.446  -2.139   0.000  1.00  0.00     0.116 C 
BRANCH  39  40
ATOM     40  C   UNL     1       4.031  -1.711   1.362  1.00  0.00     0.023 C 
BRANCH  40  41
ATOM     41  C   UNL     1       5.027  -2.675   1.981  1.00  0.00     0.023 C 
BRANCH  41  42
ATOM     42  C   UNL     1       6.280  -2.793   1.151  1.00  0.00     0.116 C 
BRANCH  42  43
ATOM     43  N   UNL     1       7.317  -1.804   1.348  1.00  0.00    -0.352 N 
ATOM     44  C   UNL     1       8.568  -1.760   0.746  1.00  0.00     0.251 C 
ATOM     45  H   UNL     1       7.114  -1.080   1.983  1.00  0.00     0.163 HD
ATOM     46  O   UNL     1       9.394  -0.943   1.146  1.00  0.00    -0.269 OA
BRANCH  44  47
ATOM     47  C   UNL     1       8.847  -2.539  -0.504  1.00  0.00     0.039 A 
ATOM     48  C   UNL     1       9.704  -1.937  -1.434  1.00  0.00     0.014 A 
ATOM     49  C   UNL     1       7.974  -3.520  -0.943  1.00  0.00     0.014 A 
ATOM     50  C   UNL     1       9.397  -2.024  -2.785  1.00  0.00     0.010 A 
ATOM     51  C   UNL     1       7.503  -3.420  -2.218  1.00  0.00     0.010 A 
ATOM     52  C   UNL     1       8.195  -2.627  -3.124  1.00  0.00    -0.014 A 
BRANCH  52  53
ATOM     53  C   UNL     1       7.643  -2.728  -4.450  1.00  0.00     0.031 A 
ATOM     54  C   UNL     1       8.117  -3.893  -5.206  1.00  0.00     0.074 A 
ATOM     55  C   UNL     1       6.595  -1.927  -4.747  1.00  0.00     0.049 A 
ATOM     56  N   UNL     1       7.999  -4.023  -6.469  1.00  0.00    -0.248 NA
ATOM     57  C   UNL     1       8.829  -5.020  -4.585  1.00  0.00     0.031 C 
ATOM     58  C   UNL     1       5.630  -1.983  -5.837  1.00  0.00     0.029 A 
ATOM     59  N   UNL     1       6.337  -0.691  -4.149  1.00  0.00    -0.354 N 
ATOM     60  C   UNL     1       8.285  -5.336  -6.770  1.00  0.00     0.074 A 
ATOM     61  C   UNL     1       8.920  -5.881  -5.602  1.00  0.00     0.031 C 
ATOM     62  C   UNL     1       5.147  -0.739  -6.048  1.00  0.00     0.029 A 
ATOM     63  C   UNL     1       5.882   0.166  -5.174  1.00  0.00     0.049 A 
ATOM     64  H   UNL     1       6.449  -0.462  -3.199  1.00  0.00     0.167 HD
ATOM     65  C   UNL     1       7.796  -5.825  -7.939  1.00  0.00     0.031 A 
ATOM     66  C   UNL     1       6.727   1.163  -5.589  1.00  0.00     0.031 A 
ATOM     67  C   UNL     1       7.129  -4.748  -8.672  1.00  0.00     0.049 A 
ATOM     68  C   UNL     1       7.341   0.849  -6.944  1.00  0.00     0.074 A 
ATOM     69  C   UNL     1       5.814  -4.322  -8.744  1.00  0.00     0.029 A 
ATOM     70  N   UNL     1       7.906  -3.668  -9.048  1.00  0.00    -0.354 N 
ATOM     71  N   UNL     1       7.269  -0.321  -7.525  1.00  0.00    -0.248 NA
ATOM     72  C   UNL     1       8.100   1.811  -7.739  1.00  0.00     0.031 C 
ATOM     73  C   UNL     1       5.829  -2.938  -9.113  1.00  0.00     0.029 A 
ATOM     74  C   UNL     1       7.145  -2.543  -9.289  1.00  0.00     0.049 A 
ATOM     75  H   UNL     1       8.886  -3.698  -9.135  1.00  0.00     0.167 HD
ATOM     76  C   UNL     1       7.868  -0.276  -8.748  1.00  0.00     0.074 A 
ATOM     77  C   UNL     1       8.440   1.063  -8.805  1.00  0.00     0.031 C 
ATOM     78  C   UNL     1       7.843  -1.315  -9.638  1.00  0.00     0.031 A 
BRANCH  65  79
ATOM     79  C   UNL     1       7.728  -7.268  -8.344  1.00  0.00    -0.014 A 
ATOM     80  C   UNL     1       6.885  -7.609  -9.418  1.00  0.00     0.009 A 
ATOM     81  C   UNL     1       8.418  -8.331  -7.735  1.00  0.00     0.009 A 
ATOM     82  C   UNL     1       6.713  -8.929  -9.844  1.00  0.00     0.001 A 
ATOM     83  C   UNL     1       8.245  -9.660  -8.153  1.00  0.00     0.001 A 
ATOM     84  C   UNL     1       7.391  -9.959  -9.207  1.00  0.00     0.000 A 
ENDBRANCH  65  79
BRANCH  66  85
ATOM     85  C   UNL     1       7.428   1.782  -4.406  1.00  0.00    -0.014 A 
ATOM     86  C   UNL     1       6.590   2.306  -3.390  1.00  0.00     0.009 A 
ATOM     87  C   UNL     1       8.714   1.358  -4.047  1.00  0.00     0.009 A 
ATOM     88  C   UNL     1       6.905   2.117  -2.041  1.00  0.00     0.001 A 
ATOM     89  C   UNL     1       9.051   1.244  -2.691  1.00  0.00     0.001 A 
ATOM     90  C   UNL     1       8.117   1.533  -1.694  1.00  0.00     0.000 A 
ENDBRANCH  66  85
BRANCH  78  91
ATOM     91  C   UNL     1       8.551  -1.252 -10.960  1.00  0.00    -0.014 A 
ATOM     92  C   UNL     1       8.541  -0.103 -11.753  1.00  0.00     0.009 A 
ATOM     93  C   UNL     1       9.204  -2.388 -11.483  1.00  0.00     0.009 A 
ATOM     94  C   UNL     1       9.280  -0.044 -12.937  1.00  0.00     0.001 A 
ATOM     95  C   UNL     1       9.907  -2.349 -12.683  1.00  0.00     0.001 A 
ATOM     96  C   UNL     1       9.975  -1.162 -13.392  1.00  0.00     0.000 A 
ENDBRANCH  78  91
ENDBRANCH  52  53
ENDBRANCH  44  47
ENDBRANCH  42  43
ENDBRANCH  41  42
ENDBRANCH  40  41
ENDBRANCH  39  40
ENDBRANCH   3  39
TORSDOF 18
