REMARK SMILES C[C@@H]1CCCN(C(=O)c2ccncc2/C=C/C(=O)NCCCCNC(=O)c2ccc(-c3c4nc(c(-c5ccccc5)c5ccc([nH]5)c(-c5ccccc5)c5nc(c(-c6ccccc6)c6ccc3[nH]6)C=C5)C=C4)cc2)[C@@H]1C
REMARK SMILES IDX 21 1 20 2 19 3 17 4 18 5 16 7 15 8 14 9 9 10 10 11 11 12
REMARK SMILES IDX 13 13 12 14 7 15 8 16 6 17 1 18 2 19 3 20 75 21 4 22 76 23
REMARK SMILES IDX 5 24 22 25 23 26 24 27 25 28 26 30 27 31 28 32 74 33 29 34
REMARK SMILES IDX 73 35 30 36 31 37 32 38 67 39 33 40 72 41 66 42 68 43 34 44
REMARK SMILES IDX 71 45 65 46 64 47 35 49 57 50 42 51 56 52 43 53 46 54 55 55
REMARK SMILES IDX 69 56 44 57 45 58 54 60 70 61 47 62 36 63 37 64 41 65 38 66
REMARK SMILES IDX 40 67 39 68 58 69 59 70 63 71 60 72 62 73 61 74 48 75 49 76
REMARK SMILES IDX 53 77 50 78 52 79 51 80
REMARK H PARENT 19 6 24 29 68 48 46 59
REMARK Flexibility Score: inf
ROOT
ATOM      1  C   UNL     1       3.358   1.855   1.176  1.00  0.00     0.023 C 
ENDROOT
BRANCH   1   2
ATOM      2  C   UNL     1       4.856   2.116   1.060  1.00  0.00     0.116 C 
BRANCH   2   3
ATOM      3  N   UNL     1       5.511   1.913   2.338  1.00  0.00    -0.353 N 
ATOM      4  C   UNL     1       6.245   0.856   2.777  1.00  0.00     0.244 C 
ATOM      5  O   UNL     1       6.784   0.899   3.880  1.00  0.00    -0.270 OA
ATOM      6  H   UNL     1       5.410   2.650   2.983  1.00  0.00     0.163 HD
BRANCH   4   7
ATOM      7  C   UNL     1       6.487  -0.313   1.899  1.00  0.00     0.072 C 
ATOM      8  C   UNL     1       5.524  -1.019   1.284  1.00  0.00     0.016 C 
BRANCH   8   9
ATOM      9  C   UNL     1       5.798  -2.171   0.408  1.00  0.00     0.006 A 
ATOM     10  C   UNL     1       5.108  -2.407  -0.793  1.00  0.00     0.050 A 
ATOM     11  C   UNL     1       5.446  -3.498  -1.605  1.00  0.00     0.034 A 
ATOM     12  C   UNL     1       6.413  -4.372  -1.151  1.00  0.00     0.112 A 
ATOM     13  C   UNL     1       6.743  -3.132   0.763  1.00  0.00     0.119 A 
ATOM     14  N   UNL     1       7.057  -4.222   0.022  1.00  0.00    -0.264 NA
BRANCH  10  15
ATOM     15  C   UNL     1       4.064  -1.472  -1.284  1.00  0.00     0.254 C 
ATOM     16  O   UNL     1       4.425  -0.315  -1.480  1.00  0.00    -0.269 OA
BRANCH  15  17
ATOM     17  N   UNL     1       2.768  -1.955  -1.507  1.00  0.00    -0.336 N 
ATOM     18  C   UNL     1       0.705  -0.068  -0.064  1.00  0.00     0.010 C 
ATOM     19  C   UNL     1       0.464  -0.998  -1.254  1.00  0.00     0.008 C 
ATOM     20  C   UNL     1      -0.013  -2.377  -0.772  1.00  0.00     0.007 C 
ATOM     21  C   UNL     1       1.707  -1.153  -2.174  1.00  0.00     0.085 C 
ATOM     22  C   UNL     1       1.114  -3.179  -0.132  1.00  0.00     0.022 C 
ATOM     23  C   UNL     1       2.113   0.180  -2.811  1.00  0.00     0.031 C 
ATOM     24  C   UNL     1       2.316  -3.283  -1.065  1.00  0.00     0.120 C 
ENDBRANCH  15  17
ENDBRANCH  10  15
ENDBRANCH   8   9
ENDBRANCH   4   7
ENDBRANCH   2   3
ENDBRANCH   1   2
BRANCH   1  25
ATOM     25  C   UNL     1       2.545   3.011   1.760  1.00  0.00     0.023 C 
BRANCH  25  26
ATOM     26  C   UNL     1       2.485   4.252   0.878  1.00  0.00     0.116 C 
BRANCH  26  27
ATOM     27  N   UNL     1       1.889   4.006  -0.426  1.00  0.00    -0.352 N 
ATOM     28  C   UNL     1       1.142   4.854  -1.210  1.00  0.00     0.251 C 
ATOM     29  H   UNL     1       2.041   3.108  -0.799  1.00  0.00     0.163 HD
ATOM     30  O   UNL     1       0.617   4.446  -2.236  1.00  0.00    -0.269 OA
BRANCH  28  31
ATOM     31  C   UNL     1       0.941   6.257  -0.781  1.00  0.00     0.039 A 
ATOM     32  C   UNL     1      -0.340   6.807  -0.868  1.00  0.00     0.014 A 
ATOM     33  C   UNL     1       2.000   7.020  -0.281  1.00  0.00     0.014 A 
ATOM     34  C   UNL     1      -0.571   8.099  -0.391  1.00  0.00     0.010 A 
ATOM     35  C   UNL     1       1.752   8.274   0.268  1.00  0.00     0.010 A 
ATOM     36  C   UNL     1       0.465   8.828   0.215  1.00  0.00    -0.014 A 
BRANCH  36  37
ATOM     37  C   UNL     1       0.216  10.168   0.801  1.00  0.00     0.031 A 
ATOM     38  C   UNL     1       0.901  11.384   0.238  1.00  0.00     0.074 A 
ATOM     39  C   UNL     1      -0.584  10.282   1.879  1.00  0.00     0.049 A 
ATOM     40  N   UNL     1       0.821  12.631   0.631  1.00  0.00    -0.248 NA
ATOM     41  C   UNL     1       1.817  11.170  -0.894  1.00  0.00     0.031 C 
ATOM     42  C   UNL     1      -1.256   9.172   2.560  1.00  0.00     0.029 A 
ATOM     43  N   UNL     1      -0.966  11.388   2.596  1.00  0.00    -0.354 N 
ATOM     44  C   UNL     1       1.688  13.341  -0.190  1.00  0.00     0.074 A 
ATOM     45  C   UNL     1       2.321  12.383  -1.068  1.00  0.00     0.031 C 
ATOM     46  C   UNL     1      -1.993   9.657   3.572  1.00  0.00     0.029 A 
ATOM     47  C   UNL     1      -1.821  11.105   3.633  1.00  0.00     0.049 A 
ATOM     48  H   UNL     1      -0.657  12.299   2.386  1.00  0.00     0.167 HD
ATOM     49  C   UNL     1       1.921  14.674  -0.225  1.00  0.00     0.031 A 
ATOM     50  C   UNL     1      -2.406  11.920   4.530  1.00  0.00     0.031 A 
ATOM     51  C   UNL     1       1.275  15.631   0.633  1.00  0.00     0.049 A 
ATOM     52  C   UNL     1      -2.155  13.400   4.448  1.00  0.00     0.074 A 
ATOM     53  C   UNL     1       1.391  17.010   0.628  1.00  0.00     0.029 A 
ATOM     54  N   UNL     1       0.389  15.306   1.647  1.00  0.00    -0.354 N 
ATOM     55  N   UNL     1      -1.398  14.064   3.608  1.00  0.00    -0.248 NA
ATOM     56  C   UNL     1      -2.857  14.243   5.425  1.00  0.00     0.031 C 
ATOM     57  C   UNL     1       0.607  17.518   1.669  1.00  0.00     0.029 A 
ATOM     58  C   UNL     1      -0.037  16.458   2.287  1.00  0.00     0.049 A 
ATOM     59  H   UNL     1       0.104  14.393   1.879  1.00  0.00     0.167 HD
ATOM     60  C   UNL     1      -1.555  15.404   3.938  1.00  0.00     0.074 A 
ATOM     61  C   UNL     1      -2.494  15.458   5.039  1.00  0.00     0.031 C 
ATOM     62  C   UNL     1      -0.973  16.493   3.379  1.00  0.00     0.031 A 
BRANCH  49  63
ATOM     63  C   UNL     1       2.919  15.179  -1.230  1.00  0.00    -0.014 A 
ATOM     64  C   UNL     1       2.631  15.176  -2.604  1.00  0.00     0.009 A 
ATOM     65  C   UNL     1       4.146  15.704  -0.795  1.00  0.00     0.009 A 
ATOM     66  C   UNL     1       3.564  15.659  -3.524  1.00  0.00     0.001 A 
ATOM     67  C   UNL     1       5.065  16.211  -1.715  1.00  0.00     0.001 A 
ATOM     68  C   UNL     1       4.777  16.181  -3.079  1.00  0.00     0.000 A 
ENDBRANCH  49  63
BRANCH  50  69
ATOM     69  C   UNL     1      -3.311  11.364   5.570  1.00  0.00    -0.014 A 
ATOM     70  C   UNL     1      -4.693  11.601   5.513  1.00  0.00     0.009 A 
ATOM     71  C   UNL     1      -2.796  10.608   6.635  1.00  0.00     0.009 A 
ATOM     72  C   UNL     1      -5.536  11.124   6.519  1.00  0.00     0.001 A 
ATOM     73  C   UNL     1      -3.646  10.107   7.623  1.00  0.00     0.001 A 
ATOM     74  C   UNL     1      -5.013  10.375   7.571  1.00  0.00     0.000 A 
ENDBRANCH  50  69
BRANCH  62  75
ATOM     75  C   UNL     1      -1.369  17.835   3.927  1.00  0.00    -0.014 A 
ATOM     76  C   UNL     1      -0.944  18.260   5.196  1.00  0.00     0.009 A 
ATOM     77  C   UNL     1      -2.159  18.695   3.149  1.00  0.00     0.009 A 
ATOM     78  C   UNL     1      -1.339  19.504   5.691  1.00  0.00     0.001 A 
ATOM     79  C   UNL     1      -2.527  19.951   3.635  1.00  0.00     0.001 A 
ATOM     80  C   UNL     1      -2.127  20.349   4.909  1.00  0.00     0.000 A 
ENDBRANCH  62  75
ENDBRANCH  36  37
ENDBRANCH  28  31
ENDBRANCH  26  27
ENDBRANCH  25  26
ENDBRANCH   1  25
TORSDOF 14
