REMARK SMILES CCO[P@TB12](C)(=O)C[N@@H+]1CCC[C@@H]1C(=O)NCCCCNC(=O)c1ccc(-c2c3nc(c(-c4ccccc4)c4ccc([nH]4)c(-c4ccccc4)c4nc(c(-c5ccccc5)c5ccc2[nH]5)C=C4)C=C3)cc1
REMARK SMILES IDX 16 1 15 2 13 3 14 4 12 6 8 7 9 8 10 10 11 11 7 12 4 13 6 14
REMARK SMILES IDX 5 15 3 16 2 17 1 18 17 19 18 20 19 21 20 22 21 23 22 25
REMARK SMILES IDX 23 26 24 27 70 28 25 29 69 30 26 31 27 32 28 33 63 34 29 35
REMARK SMILES IDX 68 36 62 37 64 38 30 39 67 40 61 41 60 42 31 44 53 45 38 46
REMARK SMILES IDX 52 47 39 48 42 49 51 50 65 51 40 52 41 53 50 55 66 56 43 57
REMARK SMILES IDX 32 58 33 59 37 60 34 61 36 62 35 63 54 64 55 65 59 66 56 67
REMARK SMILES IDX 58 68 57 69 44 70 45 71 49 72 46 73 48 74 47 75
REMARK H PARENT 15 5 8 9 20 24 64 43 42 54
REMARK Flexibility Score: inf
ROOT
ATOM      1  C   UNL     1       6.432  -0.408   2.866  1.00  0.00       nan C 
ENDROOT
BRANCH   1   2
ATOM      2  N   UNL     1       5.331   0.437   2.454  1.00  0.00       nan N 
ATOM      3  C   UNL     1       4.732   0.550   1.234  1.00  0.00       nan C 
ATOM      4  O   UNL     1       3.593   1.032   1.233  1.00  0.00       nan OA
ATOM      5  H   UNL     1       4.959   1.015   3.159  1.00  0.00       nan HD
BRANCH   3   6
ATOM      6  C   UNL     1       5.357   0.024  -0.069  1.00  0.00       nan C 
ATOM      7  N   UNL     1       5.136  -1.406  -0.333  1.00  0.00       nan N 
ATOM      8  C   UNL     1       6.322  -1.934  -1.008  1.00  0.00       nan C 
ATOM      9  H   UNL     1       4.311  -1.428  -0.933  1.00  0.00       nan HD
ATOM     10  C   UNL     1       7.476  -1.056  -0.568  1.00  0.00       nan C 
ATOM     11  C   UNL     1       6.840   0.304  -0.319  1.00  0.00       nan C 
BRANCH   7  12
ATOM     12  C   UNL     1       4.604  -2.274   0.712  1.00  0.00       nan C 
BRANCH  12  13
ATOM     13  P   UNL     1       2.774  -2.274   0.712  1.00  0.00       nan P 
ATOM     14  O   UNL     1       2.728  -2.842  -0.722  1.00  0.00       nan OA
ATOM     15  C   UNL     1       0.944  -2.274   0.712  1.00  0.00       nan C 
BRANCH  13  16
ATOM     16  O   UNL     1       2.745  -3.587   1.731  1.00  0.00       nan OA
BRANCH  16  17
ATOM     17  C   UNL     1       2.878  -3.460   3.135  1.00  0.00       nan C 
ATOM     18  C   UNL     1       1.559  -3.133   3.805  1.00  0.00       nan C 
ENDBRANCH  16  17
ENDBRANCH  13  16
ENDBRANCH  12  13
ENDBRANCH   7  12
ENDBRANCH   3   6
ENDBRANCH   1   2
BRANCH   1  19
ATOM     19  C   UNL     1       7.283   0.192   3.969  1.00  0.00       nan C 
BRANCH  19  20
ATOM     20  C   UNL     1       6.563   0.331   5.309  1.00  0.00       nan C 
BRANCH  20  21
ATOM     21  C   UNL     1       5.789  -0.898   5.780  1.00  0.00       nan C 
BRANCH  21  22
ATOM     22  N   UNL     1       6.590  -2.113   5.827  1.00  0.00       nan N 
ATOM     23  C   UNL     1       6.734  -3.016   6.856  1.00  0.00       nan C 
ATOM     24  H   UNL     1       7.100  -2.317   5.009  1.00  0.00       nan HD
ATOM     25  O   UNL     1       7.522  -3.942   6.771  1.00  0.00       inf OA
BRANCH  23  26
ATOM     26  C   UNL     1       5.945  -2.816   8.087  1.00  0.00       inf A 
ATOM     27  C   UNL     1       6.616  -2.738   9.308  1.00  0.00     0.014 A 
ATOM     28  C   UNL     1       4.562  -2.628   8.017  1.00  0.00     0.014 A 
ATOM     29  C   UNL     1       5.906  -2.388  10.456  1.00  0.00     0.010 A 
ATOM     30  C   UNL     1       3.873  -2.203   9.146  1.00  0.00     0.010 A 
ATOM     31  C   UNL     1       4.538  -2.074  10.375  1.00  0.00    -0.014 A 
BRANCH  31  32
ATOM     32  C   UNL     1       3.797  -1.594  11.568  1.00  0.00     0.031 A 
ATOM     33  C   UNL     1       2.667  -2.407  12.133  1.00  0.00     0.074 A 
ATOM     34  C   UNL     1       4.109  -0.401  12.110  1.00  0.00     0.049 A 
ATOM     35  N   UNL     1       1.897  -2.145  13.159  1.00  0.00    -0.248 NA
ATOM     36  C   UNL     1       2.341  -3.664  11.442  1.00  0.00     0.031 C 
ATOM     37  C   UNL     1       5.150   0.509  11.623  1.00  0.00     0.029 A 
ATOM     38  N   UNL     1       3.580   0.253  13.195  1.00  0.00    -0.354 N 
ATOM     39  C   UNL     1       0.992  -3.196  13.228  1.00  0.00     0.074 A 
ATOM     40  C   UNL     1       1.269  -4.068  12.107  1.00  0.00     0.031 C 
ATOM     41  C   UNL     1       5.208   1.581  12.430  1.00  0.00     0.029 A 
ATOM     42  C   UNL     1       4.189   1.454  13.466  1.00  0.00     0.049 A 
ATOM     43  H   UNL     1       2.834  -0.106  13.729  1.00  0.00     0.167 HD
ATOM     44  C   UNL     1       0.033  -3.431  14.154  1.00  0.00     0.031 A 
ATOM     45  C   UNL     1       3.957   2.350  14.444  1.00  0.00     0.031 A 
ATOM     46  C   UNL     1      -0.238  -2.570  15.274  1.00  0.00     0.049 A 
ATOM     47  C   UNL     1       2.884   2.068  15.457  1.00  0.00     0.074 A 
ATOM     48  C   UNL     1      -1.153  -2.749  16.297  1.00  0.00     0.029 A 
ATOM     49  N   UNL     1       0.404  -1.366  15.515  1.00  0.00    -0.354 N 
ATOM     50  N   UNL     1       2.088   1.031  15.551  1.00  0.00    -0.248 NA
ATOM     51  C   UNL     1       2.690   3.075  16.509  1.00  0.00     0.031 C 
ATOM     52  C   UNL     1      -1.097  -1.628  17.132  1.00  0.00     0.029 A 
ATOM     53  C   UNL     1      -0.109  -0.779  16.660  1.00  0.00     0.049 A 
ATOM     54  H   UNL     1       1.119  -0.985  14.957  1.00  0.00     0.167 HD
ATOM     55  C   UNL     1       1.318   1.247  16.687  1.00  0.00     0.074 A 
ATOM     56  C   UNL     1       1.757   2.504  17.258  1.00  0.00     0.031 C 
ATOM     57  C   UNL     1       0.336   0.474  17.211  1.00  0.00     0.031 A 
BRANCH  44  58
ATOM     58  C   UNL     1      -0.796  -4.674  13.986  1.00  0.00    -0.014 A 
ATOM     59  C   UNL     1      -0.241  -5.949  14.181  1.00  0.00     0.009 A 
ATOM     60  C   UNL     1      -2.155  -4.569  13.653  1.00  0.00     0.009 A 
ATOM     61  C   UNL     1      -1.020  -7.095  14.007  1.00  0.00     0.001 A 
ATOM     62  C   UNL     1      -2.939  -5.716  13.510  1.00  0.00     0.001 A 
ATOM     63  C   UNL     1      -2.369  -6.977  13.676  1.00  0.00     0.000 A 
ENDBRANCH  44  58
BRANCH  45  64
ATOM     64  C   UNL     1       4.776   3.587  14.532  1.00  0.00    -0.014 A 
ATOM     65  C   UNL     1       5.705   3.752  15.571  1.00  0.00     0.009 A 
ATOM     66  C   UNL     1       4.626   4.614  13.588  1.00  0.00     0.009 A 
ATOM     67  C   UNL     1       6.446   4.931  15.680  1.00  0.00     0.001 A 
ATOM     68  C   UNL     1       5.389   5.781  13.682  1.00  0.00     0.001 A 
ATOM     69  C   UNL     1       6.290   5.942  14.733  1.00  0.00     0.000 A 
ENDBRANCH  45  64
BRANCH  57  70
ATOM     70  C   UNL     1      -0.306   0.953  18.483  1.00  0.00    -0.014 A 
ATOM     71  C   UNL     1      -1.169   2.060  18.494  1.00  0.00     0.009 A 
ATOM     72  C   UNL     1      -0.064   0.268  19.684  1.00  0.00     0.009 A 
ATOM     73  C   UNL     1      -1.745   2.494  19.689  1.00  0.00     0.001 A 
ATOM     74  C   UNL     1      -0.664   0.685  20.872  1.00  0.00     0.001 A 
ATOM     75  C   UNL     1      -1.495   1.805  20.876  1.00  0.00     0.000 A 
ENDBRANCH  57  70
ENDBRANCH  31  32
ENDBRANCH  23  26
ENDBRANCH  21  22
ENDBRANCH  20  21
ENDBRANCH  19  20
ENDBRANCH   1  19
TORSDOF 15
