REMARK SMILES C[C@@H](O)[C@H](C)C1(C(=O)NCCCCNC(=O)c2ccc(-c3c4nc(c(-c5ccccc5)c5ccc([nH]5)c(-c5ccccc5)c5nc(c(-c6ccccc6)c6ccc3[nH]6)C=C5)C=C4)cc2)CCCCCC1
REMARK SMILES IDX 11 1 10 2 9 3 7 4 8 5 6 7 4 8 5 9 2 10 1 11 3 12 65 14 66 15
REMARK SMILES IDX 67 16 70 18 69 19 68 20 12 22 13 23 14 24 15 25 16 27 17 28
REMARK SMILES IDX 18 29 64 30 19 31 63 32 20 33 21 34 22 35 57 36 23 37 62 38
REMARK SMILES IDX 56 39 58 40 24 41 61 42 55 43 54 44 25 46 47 47 32 48 46 49
REMARK SMILES IDX 33 50 36 51 45 52 59 53 34 54 35 55 44 57 60 58 37 59 26 60
REMARK SMILES IDX 27 61 31 62 28 63 30 64 29 65 48 66 49 67 53 68 50 69 52 70
REMARK SMILES IDX 51 71 38 72 39 73 43 74 40 75 42 76 41 77
REMARK H PARENT 9 6 3 13 14 26 58 45 36 56
REMARK Flexibility Score: 100.00
ROOT
ATOM      1  C   UNL     1      -1.467   5.684  -4.055  1.00  0.00     0.023 C 
ENDROOT
BRANCH   1   2
ATOM      2  C   UNL     1      -2.204   4.347  -4.013  1.00  0.00     0.116 C 
BRANCH   2   3
ATOM      3  N   UNL     1      -1.296   3.242  -3.865  1.00  0.00    -0.356 N 
ATOM      4  C   UNL     1      -1.149   2.305  -2.899  1.00  0.00     0.226 C 
ATOM      5  O   UNL     1      -0.573   1.291  -3.318  1.00  0.00    -0.274 OA
ATOM      6  H   UNL     1      -0.659   3.149  -4.610  1.00  0.00     0.163 HD
BRANCH   4   7
ATOM      7  C   UNL     1      -1.735   2.376  -1.430  1.00  0.00     0.054 C 
BRANCH   7   8
ATOM      8  C   UNL     1      -0.938   1.164  -0.643  1.00  0.00     0.030 C 
ATOM      9  C   UNL     1       0.608   1.300  -0.694  1.00  0.00     0.011 C 
BRANCH   8  10
ATOM     10  C   UNL     1      -1.328   0.777   0.824  1.00  0.00     0.115 C 
ATOM     11  C   UNL     1      -0.553   1.450   1.964  1.00  0.00     0.038 C 
BRANCH  10  12
ATOM     12  O   UNL     1      -2.716   0.914   1.059  1.00  0.00    -0.393 OA
ATOM     13  H   UNL     1      -2.959   1.852   1.021  1.00  0.00     0.210 HD
ENDBRANCH  10  12
ENDBRANCH   8  10
ENDBRANCH   7   8
BRANCH   7  14
ATOM     14  C   UNL     1      -3.246   2.022  -1.599  1.00  0.00     0.017 C 
BRANCH  14  15
ATOM     15  C   UNL     1      -4.306   2.674  -0.710  1.00  0.00     0.001 C 
BRANCH  15  16
ATOM     16  C   UNL     1      -4.584   4.140  -0.991  1.00  0.00     0.000 CG0
ATOM     17  G   UNL     1      -3.609   5.063  -0.283  1.00  0.00     0.000 G0
ENDBRANCH  15  16
ENDBRANCH  14  15
ENDBRANCH   7  14
BRANCH   7  18
ATOM     18  C   UNL     1      -1.415   3.678  -0.647  1.00  0.00     0.017 C 
BRANCH  18  19
ATOM     19  C   UNL     1      -2.166   5.002  -0.755  1.00  0.00     0.001 C 
BRANCH  19  20
ATOM     20  C   UNL     1      -3.609   5.063  -0.283  1.00  0.00     0.000 CG0
ATOM     21  G   UNL     1      -4.584   4.140  -0.991  1.00  0.00     0.000 G0
ENDBRANCH  19  20
ENDBRANCH  18  19
ENDBRANCH   7  18
ENDBRANCH   4   7
ENDBRANCH   2   3
ENDBRANCH   1   2
BRANCH   1  22
ATOM     22  C   UNL     1      -0.925   6.077  -5.422  1.00  0.00     0.023 C 
BRANCH  22  23
ATOM     23  C   UNL     1      -1.970   6.169  -6.524  1.00  0.00     0.116 C 
BRANCH  23  24
ATOM     24  N   UNL     1      -3.126   6.991  -6.184  1.00  0.00    -0.352 N 
ATOM     25  C   UNL     1      -3.816   7.871  -6.987  1.00  0.00     0.251 C 
ATOM     26  H   UNL     1      -3.456   6.905  -5.261  1.00  0.00     0.163 HD
ATOM     27  O   UNL     1      -4.732   8.547  -6.544  1.00  0.00    -0.269 OA
BRANCH  25  28
ATOM     28  C   UNL     1      -3.388   8.017  -8.392  1.00  0.00     0.039 A 
ATOM     29  C   UNL     1      -3.079   9.290  -8.874  1.00  0.00     0.014 A 
ATOM     30  C   UNL     1      -3.191   6.883  -9.183  1.00  0.00     0.014 A 
ATOM     31  C   UNL     1      -2.478   9.416 -10.127  1.00  0.00     0.010 A 
ATOM     32  C   UNL     1      -2.513   7.004 -10.387  1.00  0.00     0.010 A 
ATOM     33  C   UNL     1      -2.145   8.271 -10.868  1.00  0.00    -0.014 A 
BRANCH  33  34
ATOM     34  C   UNL     1      -1.410   8.364 -12.152  1.00  0.00     0.031 A 
ATOM     35  C   UNL     1      -2.052   7.867 -13.415  1.00  0.00     0.074 A 
ATOM     36  C   UNL     1      -0.136   8.805 -12.165  1.00  0.00     0.049 A 
ATOM     37  N   UNL     1      -1.541   7.761 -14.615  1.00  0.00    -0.248 NA
ATOM     38  C   UNL     1      -3.441   7.387 -13.308  1.00  0.00     0.031 C 
ATOM     39  C   UNL     1       0.623   9.257 -10.996  1.00  0.00     0.029 A 
ATOM     40  N   UNL     1       0.750   8.932 -13.204  1.00  0.00    -0.354 N 
ATOM     41  C   UNL     1      -2.530   7.170 -15.391  1.00  0.00     0.074 A 
ATOM     42  C   UNL     1      -3.652   6.900 -14.521  1.00  0.00     0.031 C 
ATOM     43  C   UNL     1       1.850   9.638 -11.388  1.00  0.00     0.029 A 
ATOM     44  C   UNL     1       1.976   9.425 -12.826  1.00  0.00     0.049 A 
ATOM     45  H   UNL     1       0.529   8.694 -14.133  1.00  0.00     0.167 HD
ATOM     46  C   UNL     1      -2.514   6.897 -16.716  1.00  0.00     0.031 A 
ATOM     47  C   UNL     1       3.078   9.675 -13.557  1.00  0.00     0.031 A 
ATOM     48  C   UNL     1      -1.417   7.205 -17.590  1.00  0.00     0.049 A 
ATOM     49  C   UNL     1       3.053   9.407 -15.035  1.00  0.00     0.074 A 
ATOM     50  C   UNL     1      -1.335   7.042 -18.962  1.00  0.00     0.029 A 
ATOM     51  N   UNL     1      -0.213   7.751 -17.176  1.00  0.00    -0.354 N 
ATOM     52  N   UNL     1       2.084   8.914 -15.768  1.00  0.00    -0.248 NA
ATOM     53  C   UNL     1       4.271   9.741 -15.788  1.00  0.00     0.031 C 
ATOM     54  C   UNL     1      -0.066   7.462 -19.374  1.00  0.00     0.029 A 
ATOM     55  C   UNL     1       0.625   7.922 -18.264  1.00  0.00     0.049 A 
ATOM     56  H   UNL     1       0.013   7.983 -16.246  1.00  0.00     0.167 HD
ATOM     57  C   UNL     1       2.565   8.902 -17.070  1.00  0.00     0.074 A 
ATOM     58  C   UNL     1       3.906   9.449 -17.029  1.00  0.00     0.031 C 
ATOM     59  C   UNL     1       1.952   8.475 -18.200  1.00  0.00     0.031 A 
BRANCH  46  60
ATOM     60  C   UNL     1      -3.731   6.233 -17.295  1.00  0.00    -0.014 A 
ATOM     61  C   UNL     1      -4.938   6.934 -17.444  1.00  0.00     0.009 A 
ATOM     62  C   UNL     1      -3.664   4.895 -17.712  1.00  0.00     0.009 A 
ATOM     63  C   UNL     1      -6.066   6.296 -17.963  1.00  0.00     0.001 A 
ATOM     64  C   UNL     1      -4.787   4.268 -18.256  1.00  0.00     0.001 A 
ATOM     65  C   UNL     1      -5.988   4.966 -18.372  1.00  0.00     0.000 A 
ENDBRANCH  46  60
BRANCH  47  66
ATOM     66  C   UNL     1       4.291  10.238 -12.911  1.00  0.00    -0.014 A 
ATOM     67  C   UNL     1       4.645  11.580 -13.118  1.00  0.00     0.009 A 
ATOM     68  C   UNL     1       5.103   9.440 -12.092  1.00  0.00     0.009 A 
ATOM     69  C   UNL     1       5.803  12.104 -12.541  1.00  0.00     0.001 A 
ATOM     70  C   UNL     1       6.248   9.973 -11.496  1.00  0.00     0.001 A 
ATOM     71  C   UNL     1       6.602  11.301 -11.728  1.00  0.00     0.000 A 
ENDBRANCH  47  66
BRANCH  59  72
ATOM     72  C   UNL     1       2.712   8.614 -19.486  1.00  0.00    -0.014 A 
ATOM     73  C   UNL     1       3.764   7.742 -19.804  1.00  0.00     0.009 A 
ATOM     74  C   UNL     1       2.337   9.601 -20.410  1.00  0.00     0.009 A 
ATOM     75  C   UNL     1       4.445   7.875 -21.015  1.00  0.00     0.001 A 
ATOM     76  C   UNL     1       3.004   9.716 -21.630  1.00  0.00     0.001 A 
ATOM     77  C   UNL     1       4.062   8.857 -21.928  1.00  0.00     0.000 A 
ENDBRANCH  59  72
ENDBRANCH  33  34
ENDBRANCH  25  28
ENDBRANCH  23  24
ENDBRANCH  22  23
ENDBRANCH   1  22
TORSDOF 14
