REMARK SMILES Cc1noc(C)c1CNc1cnc(C(=O)NCCCCNC(=O)c2ccc(-c3c4nc(c(-c5ccccc5)c5ccc([nH]5)c(-c5ccccc5)c5nc(c(-c6ccccc6)c6ccc3[nH]6)C=C5)C=C4)cc2)cn1
REMARK SMILES IDX 18 1 17 2 16 3 14 4 15 5 13 7 10 8 11 9 73 10 12 11 72 12
REMARK SMILES IDX 9 13 8 15 7 16 1 17 2 18 3 19 4 20 5 21 6 22 19 23 20 24
REMARK SMILES IDX 21 25 22 26 23 28 24 29 25 30 71 31 26 32 70 33 27 34 28 35
REMARK SMILES IDX 29 36 64 37 30 38 69 39 63 40 65 41 31 42 68 43 62 44 61 45
REMARK SMILES IDX 32 47 54 48 39 49 53 50 40 51 43 52 52 53 66 54 41 55 42 56
REMARK SMILES IDX 51 58 67 59 44 60 33 61 34 62 38 63 35 64 37 65 36 66 55 67
REMARK SMILES IDX 56 68 60 69 57 70 59 71 58 72 45 73 46 74 50 75 47 76 49 77
REMARK SMILES IDX 48 78
REMARK H PARENT 16 6 9 14 21 27 65 46 43 57
REMARK Flexibility Score: inf
ROOT
ATOM      1  C   UNL     1      -3.567   9.044   0.902  1.00  0.00     0.023 C 
ENDROOT
BRANCH   1   2
ATOM      2  C   UNL     1      -4.204   7.735   1.363  1.00  0.00     0.116 C 
BRANCH   2   3
ATOM      3  N   UNL     1      -5.181   7.257   0.401  1.00  0.00    -0.351 N 
ATOM      4  C   UNL     1      -5.074   6.315  -0.599  1.00  0.00     0.271 C 
ATOM      5  O   UNL     1      -6.067   6.110  -1.299  1.00  0.00    -0.267 OA
ATOM      6  H   UNL     1      -6.069   7.676   0.477  1.00  0.00     0.163 HD
BRANCH   4   7
ATOM      7  C   UNL     1      -3.833   5.523  -0.843  1.00  0.00     0.146 A 
ATOM      8  C   UNL     1      -1.720   3.856  -1.223  1.00  0.00     0.144 A 
ATOM      9  C   UNL     1      -1.679   4.930  -0.336  1.00  0.00     0.158 A 
ATOM     10  N   UNL     1      -2.815   3.650  -1.980  1.00  0.00    -0.235 NA
ATOM     11  N   UNL     1      -2.714   5.779  -0.127  1.00  0.00    -0.246 NA
ATOM     12  C   UNL     1      -3.867   4.490  -1.769  1.00  0.00     0.147 A 
BRANCH   8  13
ATOM     13  N   UNL     1      -0.712   2.934  -1.367  1.00  0.00    -0.365 N 
ATOM     14  H   UNL     1      -0.479   2.607  -2.266  1.00  0.00     0.162 HD
BRANCH  13  15
ATOM     15  C   UNL     1       0.016   2.435  -0.216  1.00  0.00     0.156 C 
BRANCH  15  16
ATOM     16  C   UNL     1       0.056   0.954  -0.093  1.00  0.00     0.037 A 
ATOM     17  C   UNL     1      -2.494   0.365  -0.007  1.00  0.00     0.071 C 
ATOM     18  C   UNL     1      -1.044   0.054   0.004  1.00  0.00     0.086 A 
ATOM     19  N   UNL     1      -0.628  -1.213   0.117  1.00  0.00    -0.085 NA
ATOM     20  O   UNL     1       0.751  -1.161   0.100  1.00  0.00    -0.361 OA
ATOM     21  C   UNL     1       1.157   0.129  -0.022  1.00  0.00     0.138 A 
ATOM     22  C   UNL     1       2.614   0.359  -0.039  1.00  0.00     0.091 C 
ENDBRANCH  15  16
ENDBRANCH  13  15
ENDBRANCH   8  13
ENDBRANCH   4   7
ENDBRANCH   2   3
ENDBRANCH   1   2
BRANCH   1  23
ATOM     23  C   UNL     1      -4.483  10.264   1.048  1.00  0.00     0.023 C 
BRANCH  23  24
ATOM     24  C   UNL     1      -5.020  10.510   2.455  1.00  0.00     0.116 C 
BRANCH  24  25
ATOM     25  N   UNL     1      -3.975  10.626   3.462  1.00  0.00    -0.352 N 
ATOM     26  C   UNL     1      -3.931  11.445   4.563  1.00  0.00     0.251 C 
ATOM     27  H   UNL     1      -3.195  10.038   3.337  1.00  0.00     0.163 HD
ATOM     28  O   UNL     1      -2.924  11.499   5.262  1.00  0.00    -0.269 OA
BRANCH  26  29
ATOM     29  C   UNL     1      -5.098  12.294   4.878  1.00  0.00     0.039 A 
ATOM     30  C   UNL     1      -4.895  13.655   5.118  1.00  0.00     0.014 A 
ATOM     31  C   UNL     1      -6.387  11.756   4.893  1.00  0.00     0.014 A 
ATOM     32  C   UNL     1      -5.996  14.492   5.303  1.00  0.00     0.010 A 
ATOM     33  C   UNL     1      -7.484  12.602   5.004  1.00  0.00     0.010 A 
ATOM     34  C   UNL     1      -7.300  13.979   5.208  1.00  0.00    -0.014 A 
BRANCH  34  35
ATOM     35  C   UNL     1      -8.484  14.867   5.301  1.00  0.00     0.031 A 
ATOM     36  C   UNL     1      -9.465  14.707   6.427  1.00  0.00     0.074 A 
ATOM     37  C   UNL     1      -8.720  15.764   4.325  1.00  0.00     0.049 A 
ATOM     38  N   UNL     1     -10.584  15.350   6.644  1.00  0.00    -0.248 NA
ATOM     39  C   UNL     1      -9.164  13.667   7.423  1.00  0.00     0.031 C 
ATOM     40  C   UNL     1      -7.875  15.979   3.148  1.00  0.00     0.029 A 
ATOM     41  N   UNL     1      -9.750  16.656   4.163  1.00  0.00    -0.354 N 
ATOM     42  C   UNL     1     -11.130  14.779   7.786  1.00  0.00     0.074 A 
ATOM     43  C   UNL     1     -10.246  13.705   8.184  1.00  0.00     0.031 C 
ATOM     44  C   UNL     1      -8.410  16.955   2.397  1.00  0.00     0.029 A 
ATOM     45  C   UNL     1      -9.650  17.409   3.019  1.00  0.00     0.049 A 
ATOM     46  H   UNL     1     -10.490  16.748   4.806  1.00  0.00     0.167 HD
ATOM     47  C   UNL     1     -12.255  15.127   8.454  1.00  0.00     0.031 A 
ATOM     48  C   UNL     1     -10.466  18.355   2.520  1.00  0.00     0.031 A 
ATOM     49  C   UNL     1     -13.131  16.198   8.060  1.00  0.00     0.049 A 
ATOM     50  C   UNL     1     -11.707  18.731   3.278  1.00  0.00     0.074 A 
ATOM     51  C   UNL     1     -14.256  16.676   8.709  1.00  0.00     0.029 A 
ATOM     52  N   UNL     1     -12.984  16.952   6.905  1.00  0.00    -0.354 N 
ATOM     53  N   UNL     1     -12.166  18.240   4.404  1.00  0.00    -0.248 NA
ATOM     54  C   UNL     1     -12.534  19.801   2.704  1.00  0.00     0.031 C 
ATOM     55  C   UNL     1     -14.820  17.684   7.918  1.00  0.00     0.029 A 
ATOM     56  C   UNL     1     -14.014  17.872   6.807  1.00  0.00     0.049 A 
ATOM     57  H   UNL     1     -12.255  16.848   6.252  1.00  0.00     0.167 HD
ATOM     58  C   UNL     1     -13.324  18.954   4.684  1.00  0.00     0.074 A 
ATOM     59  C   UNL     1     -13.487  19.922   3.618  1.00  0.00     0.031 C 
ATOM     60  C   UNL     1     -14.173  18.820   5.733  1.00  0.00     0.031 A 
BRANCH  47  61
ATOM     61  C   UNL     1     -12.604  14.319   9.674  1.00  0.00    -0.014 A 
ATOM     62  C   UNL     1     -11.821  14.380  10.839  1.00  0.00     0.009 A 
ATOM     63  C   UNL     1     -13.732  13.484   9.659  1.00  0.00     0.009 A 
ATOM     64  C   UNL     1     -12.129  13.580  11.942  1.00  0.00     0.001 A 
ATOM     65  C   UNL     1     -14.056  12.711  10.775  1.00  0.00     0.001 A 
ATOM     66  C   UNL     1     -13.247  12.748  11.910  1.00  0.00     0.000 A 
ENDBRANCH  47  61
BRANCH  48  67
ATOM     67  C   UNL     1     -10.115  19.026   1.242  1.00  0.00    -0.014 A 
ATOM     68  C   UNL     1      -9.643  20.347   1.239  1.00  0.00     0.009 A 
ATOM     69  C   UNL     1     -10.216  18.337   0.024  1.00  0.00     0.009 A 
ATOM     70  C   UNL     1      -9.291  20.969   0.039  1.00  0.00     0.001 A 
ATOM     71  C   UNL     1      -9.840  18.953  -1.171  1.00  0.00     0.001 A 
ATOM     72  C   UNL     1      -9.383  20.269  -1.164  1.00  0.00     0.000 A 
ENDBRANCH  48  67
BRANCH  60  73
ATOM     73  C   UNL     1     -15.346  19.757   5.790  1.00  0.00    -0.014 A 
ATOM     74  C   UNL     1     -16.434  19.618   4.913  1.00  0.00     0.009 A 
ATOM     75  C   UNL     1     -15.382  20.768   6.763  1.00  0.00     0.009 A 
ATOM     76  C   UNL     1     -17.520  20.492   4.992  1.00  0.00     0.001 A 
ATOM     77  C   UNL     1     -16.481  21.623   6.857  1.00  0.00     0.001 A 
ATOM     78  C   UNL     1     -17.545  21.490   5.967  1.00  0.00     0.000 A 
ENDBRANCH  60  73
ENDBRANCH  34  35
ENDBRANCH  26  29
ENDBRANCH  24  25
ENDBRANCH  23  24
ENDBRANCH   1  23
TORSDOF 14
