REMARK SMILES Cc1coc2c(C)c3oc(=O)c(CCC(=O)N[C@H](CC(C)C)C(=O)NCCCCNC(=O)c4ccc(-c5c6nc(c(-c7ccccc7)c7ccc([nH]7)c(-c7ccccc7)c7nc(c(-c8ccccc8)c8ccc5[nH]8)C=C7)C=C6)cc4)c(C)c3cc12
REMARK SMILES IDX 26 1 25 2 23 3 24 4 18 6 17 7 15 8 16 9 14 11 13 12 12 13
REMARK SMILES IDX 1 14 2 15 3 16 85 17 4 18 5 19 84 20 6 21 83 22 7 23 8 24
REMARK SMILES IDX 81 25 9 26 82 27 10 28 11 29 19 30 20 31 21 32 22 33 27 34
REMARK SMILES IDX 28 35 29 36 30 37 31 38 32 40 33 41 34 42 80 43 35 44 79 45
REMARK SMILES IDX 36 46 37 47 38 48 73 49 39 50 78 51 72 52 74 53 40 54 77 55
REMARK SMILES IDX 71 56 70 57 41 59 63 60 48 61 62 62 49 63 52 64 61 65 75 66
REMARK SMILES IDX 50 67 51 68 60 70 76 71 53 72 42 73 43 74 47 75 44 76 46 77
REMARK SMILES IDX 45 78 64 79 65 80 69 81 66 82 68 83 67 84 54 85 55 86 59 87
REMARK SMILES IDX 56 88 58 89 57 90
REMARK H PARENT 25 5 17 10 30 39 74 58 52 69
REMARK Flexibility Score: inf
ROOT
ATOM      1  C   UNL     1      -1.810   0.744  -0.100  1.00  0.00     0.116 C 
ENDROOT
BRANCH   1   2
ATOM      2  N   UNL     1      -2.842  -0.034  -0.756  1.00  0.00    -0.354 N 
ATOM      3  C   UNL     1      -3.721   0.543  -1.635  1.00  0.00     0.242 C 
ATOM      4  O   UNL     1      -4.893   0.648  -1.272  1.00  0.00    -0.273 OA
ATOM      5  H   UNL     1      -2.912  -0.998  -0.567  1.00  0.00     0.163 HD
BRANCH   3   6
ATOM      6  C   UNL     1      -3.212   1.218  -2.927  1.00  0.00     0.171 C 
BRANCH   6   7
ATOM      7  N   UNL     1      -1.947   0.638  -3.386  1.00  0.00    -0.344 N 
ATOM      8  C   UNL     1      -1.505   0.276  -4.620  1.00  0.00     0.220 C 
ATOM      9  O   UNL     1      -0.431  -0.328  -4.681  1.00  0.00    -0.275 OA
ATOM     10  H   UNL     1      -1.295   0.480  -2.665  1.00  0.00     0.164 HD
BRANCH   8  11
ATOM     11  C   UNL     1      -2.279   0.599  -5.883  1.00  0.00     0.105 C 
BRANCH  11  12
ATOM     12  C   UNL     1      -3.342  -0.405  -6.369  1.00  0.00     0.053 C 
BRANCH  12  13
ATOM     13  C   UNL     1      -4.338  -0.908  -5.341  1.00  0.00     0.042 A 
ATOM     14  C   UNL     1      -3.975  -4.109   0.795  1.00  0.00     0.048 C 
ATOM     15  C   UNL     1      -5.149  -3.355   0.293  1.00  0.00    -0.005 A 
ATOM     16  C   UNL     1      -6.254  -2.947   1.010  1.00  0.00     0.199 A 
ATOM     17  C   UNL     1      -5.346  -2.847  -1.025  1.00  0.00     0.024 A 
ATOM     18  O   UNL     1      -7.075  -2.181   0.245  1.00  0.00    -0.464 OA
ATOM     19  C   UNL     1      -6.508  -2.091  -0.994  1.00  0.00     0.140 A 
ATOM     20  C   UNL     1      -4.596  -2.884  -2.212  1.00  0.00     0.024 A 
ATOM     21  C   UNL     1      -6.978  -1.307  -2.056  1.00  0.00     0.036 A 
ATOM     22  C   UNL     1      -4.976  -2.091  -3.306  1.00  0.00     0.022 A 
ATOM     23  C   UNL     1      -8.141  -0.379  -1.891  1.00  0.00     0.052 C 
ATOM     24  C   UNL     1      -6.157  -1.345  -3.211  1.00  0.00     0.145 A 
ATOM     25  C   UNL     1      -4.050  -1.869  -4.437  1.00  0.00    -0.030 A 
ATOM     26  O   UNL     1      -6.521  -0.503  -4.287  1.00  0.00    -0.422 OA
ATOM     27  C   UNL     1      -2.743  -2.626  -4.417  1.00  0.00     0.046 C 
ATOM     28  C   UNL     1      -5.686  -0.267  -5.368  1.00  0.00     0.339 A 
ATOM     29  O   UNL     1      -6.034   0.468  -6.286  1.00  0.00    -0.246 OA
ENDBRANCH  12  13
ENDBRANCH  11  12
ENDBRANCH   8  11
ENDBRANCH   6   7
BRANCH   6  30
ATOM     30  C   UNL     1      -3.172   2.730  -2.696  1.00  0.00     0.038 C 
BRANCH  30  31
ATOM     31  C   UNL     1      -3.264   3.592  -3.966  1.00  0.00    -0.015 C 
ATOM     32  C   UNL     1      -4.525   3.317  -4.794  1.00  0.00     0.007 C 
ATOM     33  C   UNL     1      -3.258   5.069  -3.572  1.00  0.00     0.007 C 
ENDBRANCH  30  31
ENDBRANCH   6  30
ENDBRANCH   3   6
ENDBRANCH   1   2
BRANCH   1  34
ATOM     34  C   UNL     1      -2.419   1.767   0.868  1.00  0.00     0.023 C 
BRANCH  34  35
ATOM     35  C   UNL     1      -3.210   1.178   2.046  1.00  0.00     0.023 C 
BRANCH  35  36
ATOM     36  C   UNL     1      -2.404   0.218   2.904  1.00  0.00     0.116 C 
BRANCH  36  37
ATOM     37  N   UNL     1      -1.183   0.831   3.416  1.00  0.00    -0.352 N 
ATOM     38  C   UNL     1      -0.234   0.276   4.248  1.00  0.00     0.251 C 
ATOM     39  H   UNL     1      -1.015   1.758   3.131  1.00  0.00     0.163 HD
ATOM     40  O   UNL     1       0.566   0.971   4.852  1.00  0.00    -0.269 OA
BRANCH  38  41
ATOM     41  C   UNL     1      -0.203  -1.187   4.385  1.00  0.00     0.039 A 
ATOM     42  C   UNL     1      -0.071  -1.784   5.641  1.00  0.00     0.014 A 
ATOM     43  C   UNL     1      -0.333  -1.954   3.228  1.00  0.00     0.014 A 
ATOM     44  C   UNL     1      -0.136  -3.170   5.728  1.00  0.00     0.010 A 
ATOM     45  C   UNL     1      -0.526  -3.307   3.329  1.00  0.00     0.010 A 
ATOM     46  C   UNL     1      -0.378  -3.921   4.568  1.00  0.00    -0.014 A 
BRANCH  46  47
ATOM     47  C   UNL     1      -0.599  -5.356   4.647  1.00  0.00     0.031 A 
ATOM     48  C   UNL     1      -1.722  -5.764   5.534  1.00  0.00     0.074 A 
ATOM     49  C   UNL     1       0.021  -6.229   3.824  1.00  0.00     0.049 A 
ATOM     50  N   UNL     1      -1.643  -6.469   6.612  1.00  0.00    -0.248 NA
ATOM     51  C   UNL     1      -3.070  -5.233   5.268  1.00  0.00     0.031 C 
ATOM     52  C   UNL     1       0.931  -5.952   2.707  1.00  0.00     0.029 A 
ATOM     53  N   UNL     1      -0.140  -7.575   3.744  1.00  0.00    -0.354 N 
ATOM     54  C   UNL     1      -2.944  -6.622   7.079  1.00  0.00     0.074 A 
ATOM     55  C   UNL     1      -3.762  -5.728   6.297  1.00  0.00     0.031 C 
ATOM     56  C   UNL     1       1.030  -7.049   1.921  1.00  0.00     0.029 A 
ATOM     57  C   UNL     1       0.334  -8.145   2.569  1.00  0.00     0.049 A 
ATOM     58  H   UNL     1      -0.558  -8.104   4.462  1.00  0.00     0.167 HD
ATOM     59  C   UNL     1      -3.274  -7.630   7.933  1.00  0.00     0.031 A 
ATOM     60  C   UNL     1       0.132  -9.421   2.152  1.00  0.00     0.031 A 
ATOM     61  C   UNL     1      -2.104  -8.240   8.508  1.00  0.00     0.049 A 
ATOM     62  C   UNL     1      -0.228 -10.216   3.350  1.00  0.00     0.074 A 
ATOM     63  C   UNL     1      -1.071  -7.785   9.303  1.00  0.00     0.029 A 
ATOM     64  N   UNL     1      -1.654  -9.404   7.929  1.00  0.00    -0.354 N 
ATOM     65  N   UNL     1       0.607 -10.448   4.322  1.00  0.00    -0.248 NA
ATOM     66  C   UNL     1      -1.637 -10.330   3.694  1.00  0.00     0.031 C 
ATOM     67  C   UNL     1       0.096  -8.406   8.768  1.00  0.00     0.029 A 
ATOM     68  C   UNL     1      -0.302  -9.267   7.743  1.00  0.00     0.049 A 
ATOM     69  H   UNL     1      -2.200 -10.188   7.692  1.00  0.00     0.167 HD
ATOM     70  C   UNL     1      -0.145 -10.285   5.476  1.00  0.00     0.074 A 
ATOM     71  C   UNL     1      -1.539 -10.306   5.028  1.00  0.00     0.031 C 
ATOM     72  C   UNL     1       0.426  -9.848   6.637  1.00  0.00     0.031 A 
BRANCH  59  73
ATOM     73  C   UNL     1      -4.612  -8.318   7.954  1.00  0.00    -0.014 A 
ATOM     74  C   UNL     1      -4.846  -9.309   8.925  1.00  0.00     0.009 A 
ATOM     75  C   UNL     1      -5.532  -8.239   6.893  1.00  0.00     0.009 A 
ATOM     76  C   UNL     1      -5.901 -10.221   8.796  1.00  0.00     0.001 A 
ATOM     77  C   UNL     1      -6.609  -9.123   6.782  1.00  0.00     0.001 A 
ATOM     78  C   UNL     1      -6.776 -10.132   7.719  1.00  0.00     0.000 A 
ENDBRANCH  59  73
BRANCH  60  79
ATOM     79  C   UNL     1      -0.047  -9.935   0.776  1.00  0.00    -0.014 A 
ATOM     80  C   UNL     1       0.016 -11.313   0.509  1.00  0.00     0.009 A 
ATOM     81  C   UNL     1      -0.565  -9.101  -0.232  1.00  0.00     0.009 A 
ATOM     82  C   UNL     1      -0.466 -11.839  -0.698  1.00  0.00     0.001 A 
ATOM     83  C   UNL     1      -1.045  -9.625  -1.438  1.00  0.00     0.001 A 
ATOM     84  C   UNL     1      -1.012 -10.997  -1.664  1.00  0.00     0.000 A 
ENDBRANCH  60  79
BRANCH  72  85
ATOM     85  C   UNL     1       1.930  -9.710   6.690  1.00  0.00    -0.014 A 
ATOM     86  C   UNL     1       2.651  -8.828   5.863  1.00  0.00     0.009 A 
ATOM     87  C   UNL     1       2.615 -10.341   7.737  1.00  0.00     0.009 A 
ATOM     88  C   UNL     1       4.016  -8.600   6.072  1.00  0.00     0.001 A 
ATOM     89  C   UNL     1       3.972 -10.098   7.960  1.00  0.00     0.001 A 
ATOM     90  C   UNL     1       4.673  -9.229   7.127  1.00  0.00     0.000 A 
ENDBRANCH  72  85
ENDBRANCH  46  47
ENDBRANCH  38  41
ENDBRANCH  36  37
ENDBRANCH  35  36
ENDBRANCH  34  35
ENDBRANCH   1  34
TORSDOF 17
