REMARK SMILES [NH3+][C@@H](Cc1c[nH]c2ccccc12)C(=O)NCCC(=O)NCCCCNC(=O)c1ccc(-c2c3nc(c(-c4ccccc4)c4ccc([nH]4)c(-c4ccccc4)c4nc(c(-c5ccccc5)c5ccc2[nH]5)C=C4)C=C3)cc1
REMARK SMILES IDX 21 1 20 2 18 3 19 4 17 6 16 7 15 8 13 9 14 10 2 12 1 13 3 17
REMARK SMILES IDX 4 18 5 19 12 20 6 21 7 22 11 23 8 25 10 26 9 27 22 28 23 29
REMARK SMILES IDX 24 30 25 31 26 32 27 34 28 35 29 36 75 37 30 38 74 39 31 40
REMARK SMILES IDX 32 41 33 42 68 43 34 44 73 45 67 46 69 47 35 48 72 49 66 50
REMARK SMILES IDX 65 51 36 53 58 54 43 55 57 56 44 57 47 58 56 59 70 60 45 61
REMARK SMILES IDX 46 62 55 64 71 65 48 66 37 67 38 68 42 69 39 70 41 71 40 72
REMARK SMILES IDX 59 73 60 74 64 75 61 76 63 77 62 78 49 79 50 80 54 81 51 82
REMARK SMILES IDX 53 83 52 84
REMARK H PARENT 20 5 15 11 1 14 1 15 1 16 6 24 25 33 69 52 47 63
REMARK Flexibility Score: inf
ROOT
ATOM      1  C   UNL     1      -3.912   0.091   0.193  1.00  0.00     0.116 C 
ENDROOT
BRANCH   1   2
ATOM      2  N   UNL     1      -4.197  -0.947   1.154  1.00  0.00    -0.356 N 
ATOM      3  C   UNL     1      -3.427  -2.039   1.416  1.00  0.00     0.221 C 
ATOM      4  O   UNL     1      -3.931  -2.978   2.034  1.00  0.00    -0.275 OA
ATOM      5  H   UNL     1      -5.030  -0.857   1.671  1.00  0.00     0.163 HD
BRANCH   3   6
ATOM      6  C   UNL     1      -1.977  -2.055   0.977  1.00  0.00     0.121 C 
BRANCH   6   7
ATOM      7  C   UNL     1      -1.726  -2.536  -0.446  1.00  0.00     0.126 C 
BRANCH   7   8
ATOM      8  N   UNL     1      -1.451  -1.489  -1.424  1.00  0.00    -0.350 N 
ATOM      9  C   UNL     1      -0.415  -0.682  -1.724  1.00  0.00     0.278 C 
ATOM     10  O   UNL     1      -0.686   0.197  -2.561  1.00  0.00    -0.268 OA
ATOM     11  H   UNL     1      -2.221  -1.332  -2.017  1.00  0.00     0.163 HD
BRANCH   9  12
ATOM     12  C   UNL     1       0.994  -0.683  -1.102  1.00  0.00     0.275 C 
BRANCH  12  13
ATOM     13  N   UNL     1       1.073   0.302  -0.005  1.00  0.00    -0.347 N 
ATOM     14  H   UNL     1       2.011   0.290   0.396  1.00  0.00     0.345 HD
ATOM     15  H   UNL     1       0.392   0.064   0.715  1.00  0.00     0.345 HD
ATOM     16  H   UNL     1       0.871   1.234  -0.370  1.00  0.00     0.345 HD
ENDBRANCH  12  13
BRANCH  12  17
ATOM     17  C   UNL     1       1.790  -1.985  -0.956  1.00  0.00     0.113 C 
BRANCH  17  18
ATOM     18  C   UNL     1       1.506  -2.992   0.120  1.00  0.00    -0.016 A 
ATOM     19  C   UNL     1       1.508  -4.358  -0.126  1.00  0.00     0.087 A 
ATOM     20  C   UNL     1       1.203  -2.840   1.519  1.00  0.00     0.003 A 
ATOM     21  N   UNL     1       1.130  -5.014   1.009  1.00  0.00    -0.361 N 
ATOM     22  C   UNL     1       0.889  -4.112   2.014  1.00  0.00     0.046 A 
ATOM     23  C   UNL     1       1.080  -1.755   2.414  1.00  0.00     0.010 A 
ATOM     24  H   UNL     1       1.044  -5.991   1.095  1.00  0.00     0.166 HD
ATOM     25  C   UNL     1       0.391  -4.332   3.305  1.00  0.00     0.026 A 
ATOM     26  C   UNL     1       0.565  -1.953   3.703  1.00  0.00     0.001 A 
ATOM     27  C   UNL     1       0.209  -3.224   4.134  1.00  0.00     0.002 A 
ENDBRANCH  17  18
ENDBRANCH  12  17
ENDBRANCH   9  12
ENDBRANCH   7   8
ENDBRANCH   6   7
ENDBRANCH   3   6
ENDBRANCH   1   2
BRANCH   1  28
ATOM     28  C   UNL     1      -4.381  -0.354  -1.191  1.00  0.00     0.023 C 
BRANCH  28  29
ATOM     29  C   UNL     1      -5.887  -0.389  -1.374  1.00  0.00     0.023 C 
BRANCH  29  30
ATOM     30  C   UNL     1      -6.570   0.929  -1.089  1.00  0.00     0.116 C 
BRANCH  30  31
ATOM     31  N   UNL     1      -5.991   2.051  -1.818  1.00  0.00    -0.352 N 
ATOM     32  C   UNL     1      -6.660   3.092  -2.418  1.00  0.00     0.251 C 
ATOM     33  H   UNL     1      -5.009   2.065  -1.889  1.00  0.00     0.163 HD
ATOM     34  O   UNL     1      -6.081   3.940  -3.078  1.00  0.00    -0.269 OA
BRANCH  32  35
ATOM     35  C   UNL     1      -8.123   3.115  -2.267  1.00  0.00     0.039 A 
ATOM     36  C   UNL     1      -8.919   3.037  -3.409  1.00  0.00     0.014 A 
ATOM     37  C   UNL     1      -8.672   3.017  -0.986  1.00  0.00     0.014 A 
ATOM     38  C   UNL     1     -10.282   2.789  -3.263  1.00  0.00     0.010 A 
ATOM     39  C   UNL     1     -10.002   2.661  -0.852  1.00  0.00     0.010 A 
ATOM     40  C   UNL     1     -10.822   2.559  -1.987  1.00  0.00    -0.014 A 
BRANCH  40  41
ATOM     41  C   UNL     1     -12.258   2.252  -1.800  1.00  0.00     0.031 A 
ATOM     42  C   UNL     1     -13.106   3.196  -0.996  1.00  0.00     0.074 A 
ATOM     43  C   UNL     1     -12.773   1.104  -2.279  1.00  0.00     0.049 A 
ATOM     44  N   UNL     1     -14.358   3.083  -0.640  1.00  0.00    -0.248 NA
ATOM     45  C   UNL     1     -12.444   4.410  -0.485  1.00  0.00     0.031 C 
ATOM     46  C   UNL     1     -12.035   0.080  -3.024  1.00  0.00     0.029 A 
ATOM     47  N   UNL     1     -14.049   0.606  -2.208  1.00  0.00    -0.354 N 
ATOM     48  C   UNL     1     -14.615   4.181   0.169  1.00  0.00     0.074 A 
ATOM     49  C   UNL     1     -13.380   4.918   0.300  1.00  0.00     0.031 C 
ATOM     50  C   UNL     1     -12.882  -0.900  -3.381  1.00  0.00     0.029 A 
ATOM     51  C   UNL     1     -14.210  -0.592  -2.861  1.00  0.00     0.049 A 
ATOM     52  H   UNL     1     -14.780   1.064  -1.735  1.00  0.00     0.167 HD
ATOM     53  C   UNL     1     -15.785   4.562   0.732  1.00  0.00     0.031 A 
ATOM     54  C   UNL     1     -15.311  -1.347  -3.026  1.00  0.00     0.031 A 
ATOM     55  C   UNL     1     -17.023   3.860   0.550  1.00  0.00     0.049 A 
ATOM     56  C   UNL     1     -16.610  -0.880  -2.432  1.00  0.00     0.074 A 
ATOM     57  C   UNL     1     -18.285   4.207   0.994  1.00  0.00     0.029 A 
ATOM     58  N   UNL     1     -17.151   2.668  -0.146  1.00  0.00    -0.354 N 
ATOM     59  N   UNL     1     -16.857   0.202  -1.733  1.00  0.00    -0.248 NA
ATOM     60  C   UNL     1     -17.785  -1.733  -2.660  1.00  0.00     0.031 C 
ATOM     61  C   UNL     1     -19.175   3.205   0.594  1.00  0.00     0.029 A 
ATOM     62  C   UNL     1     -18.471   2.256  -0.132  1.00  0.00     0.049 A 
ATOM     63  H   UNL     1     -16.413   2.186  -0.584  1.00  0.00     0.167 HD
ATOM     64  C   UNL     1     -18.218   0.174  -1.461  1.00  0.00     0.074 A 
ATOM     65  C   UNL     1     -18.745  -1.025  -2.080  1.00  0.00     0.031 C 
ATOM     66  C   UNL     1     -18.967   1.062  -0.763  1.00  0.00     0.031 A 
BRANCH  53  67
ATOM     67  C   UNL     1     -15.764   5.796   1.587  1.00  0.00    -0.014 A 
ATOM     68  C   UNL     1     -15.577   7.070   1.026  1.00  0.00     0.009 A 
ATOM     69  C   UNL     1     -15.927   5.682   2.976  1.00  0.00     0.009 A 
ATOM     70  C   UNL     1     -15.506   8.199   1.843  1.00  0.00     0.001 A 
ATOM     71  C   UNL     1     -15.886   6.817   3.787  1.00  0.00     0.001 A 
ATOM     72  C   UNL     1     -15.664   8.072   3.222  1.00  0.00     0.000 A 
ENDBRANCH  53  67
BRANCH  54  73
ATOM     73  C   UNL     1     -15.249  -2.595  -3.829  1.00  0.00    -0.014 A 
ATOM     74  C   UNL     1     -15.824  -2.639  -5.109  1.00  0.00     0.009 A 
ATOM     75  C   UNL     1     -14.624  -3.746  -3.326  1.00  0.00     0.009 A 
ATOM     76  C   UNL     1     -15.797  -3.816  -5.859  1.00  0.00     0.001 A 
ATOM     77  C   UNL     1     -14.579  -4.916  -4.088  1.00  0.00     0.001 A 
ATOM     78  C   UNL     1     -15.171  -4.953  -5.350  1.00  0.00     0.000 A 
ENDBRANCH  54  73
BRANCH  66  79
ATOM     79  C   UNL     1     -20.438   0.785  -0.664  1.00  0.00    -0.014 A 
ATOM     80  C   UNL     1     -20.932  -0.213   0.189  1.00  0.00     0.009 A 
ATOM     81  C   UNL     1     -21.341   1.571  -1.396  1.00  0.00     0.009 A 
ATOM     82  C   UNL     1     -22.306  -0.437   0.285  1.00  0.00     0.001 A 
ATOM     83  C   UNL     1     -22.715   1.361  -1.278  1.00  0.00     0.001 A 
ATOM     84  C   UNL     1     -23.196   0.352  -0.444  1.00  0.00     0.000 A 
ENDBRANCH  66  79
ENDBRANCH  40  41
ENDBRANCH  32  35
ENDBRANCH  30  31
ENDBRANCH  29  30
ENDBRANCH  28  29
ENDBRANCH   1  28
TORSDOF 17
