REMARK SMILES COCCNC(=O)c1cccc(NC(=O)[C@@H]2CCCC[C@H]2C(=O)NCCCCNC(=O)c2ccc(-c3c4nc(c(-c5ccccc5)c5ccc([nH]5)c(-c5ccccc5)c5nc(c(-c6ccccc6)c6ccc3[nH]6)C=C5)C=C4)cc2)c1
REMARK SMILES IDX 22 1 23 2 24 3 21 5 16 6 17 7 18 8 20 9 19 10 14 11 13 12
REMARK SMILES IDX 15 14 12 15 8 16 9 17 80 18 10 19 11 20 6 21 5 22 7 24 4 25
REMARK SMILES IDX 3 26 2 27 1 28 25 29 26 30 27 31 28 32 29 33 30 34 31 36
REMARK SMILES IDX 32 37 33 38 79 39 34 40 78 41 35 42 36 43 37 44 72 45 38 46
REMARK SMILES IDX 77 47 71 48 73 49 39 50 76 51 70 52 69 53 40 55 62 56 47 57
REMARK SMILES IDX 61 58 48 59 51 60 60 61 74 62 49 63 50 64 59 66 75 67 52 68
REMARK SMILES IDX 41 69 42 70 46 71 43 72 45 73 44 74 63 75 64 76 68 77 65 78
REMARK SMILES IDX 67 79 66 80 53 81 54 82 58 83 55 84 57 85 56 86
REMARK H PARENT 24 4 13 13 5 23 29 35 73 54 51 65
REMARK Flexibility Score: inf
ROOT
ATOM      1  C   UNL     1       3.466  -6.375  -5.498  1.00  0.00     0.223 C 
ATOM      2  O   UNL     1       3.169  -5.225  -5.175  1.00  0.00    -0.275 OA
ATOM      3  N   UNL     1       3.698  -6.567  -6.813  1.00  0.00    -0.356 N 
ATOM      4  H   UNL     1       3.948  -5.752  -7.305  1.00  0.00     0.163 HD
ENDROOT
BRANCH   1   5
ATOM      5  C   UNL     1       3.600  -7.493  -4.471  1.00  0.00     0.091 C 
ATOM      6  C   UNL     1       2.341  -8.364  -4.348  1.00  0.00     0.091 C 
ATOM      7  C   UNL     1       2.602  -9.753  -3.718  1.00  0.00     0.014 C 
ATOM      8  C   UNL     1       3.921 -10.389  -4.121  1.00  0.00     0.001 C 
ATOM      9  C   UNL     1       4.963  -8.197  -4.614  1.00  0.00     0.014 C 
ATOM     10  C   UNL     1       5.066  -9.459  -3.779  1.00  0.00     0.001 C 
BRANCH   6  11
ATOM     11  C   UNL     1       1.059  -7.840  -3.647  1.00  0.00     0.228 C 
ATOM     12  N   UNL     1       0.824  -6.633  -3.080  1.00  0.00    -0.326 N 
ATOM     13  H   UNL     1      -0.132  -6.492  -2.893  1.00  0.00     0.169 HD
ATOM     14  O   UNL     1       0.055  -8.576  -3.681  1.00  0.00    -0.274 OA
BRANCH  12  15
ATOM     15  C   UNL     1       1.601  -5.540  -2.694  1.00  0.00     0.041 A 
ATOM     16  C   UNL     1       1.864  -3.142  -2.726  1.00  0.00     0.041 A 
ATOM     17  C   UNL     1       3.164  -3.253  -2.240  1.00  0.00     0.014 A 
ATOM     18  C   UNL     1       1.083  -4.275  -2.969  1.00  0.00     0.040 A 
ATOM     19  C   UNL     1       3.628  -4.507  -1.852  1.00  0.00     0.003 A 
ATOM     20  C   UNL     1       2.817  -5.637  -2.019  1.00  0.00     0.026 A 
BRANCH  16  21
ATOM     21  C   UNL     1       1.276  -1.808  -2.917  1.00  0.00     0.251 C 
ATOM     22  N   UNL     1       0.321  -1.402  -2.015  1.00  0.00    -0.350 N 
ATOM     23  H   UNL     1      -0.127  -0.548  -2.213  1.00  0.00     0.163 HD
ATOM     24  O   UNL     1       1.648  -1.079  -3.828  1.00  0.00    -0.269 OA
BRANCH  22  25
ATOM     25  C   UNL     1      -0.109  -2.088  -0.798  1.00  0.00     0.144 C 
BRANCH  25  26
ATOM     26  C   UNL     1       0.869  -1.923   0.373  1.00  0.00     0.181 C 
BRANCH  26  27
ATOM     27  O   UNL     1       0.605  -0.751   1.149  1.00  0.00    -0.383 OA
ATOM     28  C   UNL     1       1.034   0.450   0.524  1.00  0.00     0.194 C 
ENDBRANCH  26  27
ENDBRANCH  25  26
ENDBRANCH  22  25
ENDBRANCH  16  21
ENDBRANCH  12  15
ENDBRANCH   6  11
ENDBRANCH   1   5
BRANCH   3  29
ATOM     29  C   UNL     1       3.643  -7.760  -7.624  1.00  0.00     0.116 C 
BRANCH  29  30
ATOM     30  C   UNL     1       2.331  -7.817  -8.401  1.00  0.00     0.023 C 
BRANCH  30  31
ATOM     31  C   UNL     1       1.979  -6.551  -9.188  1.00  0.00     0.023 C 
BRANCH  31  32
ATOM     32  C   UNL     1       3.095  -5.951 -10.036  1.00  0.00     0.116 C 
BRANCH  32  33
ATOM     33  N   UNL     1       3.776  -6.922 -10.875  1.00  0.00    -0.352 N 
ATOM     34  C   UNL     1       4.209  -6.789 -12.169  1.00  0.00     0.251 C 
ATOM     35  H   UNL     1       3.952  -7.796 -10.456  1.00  0.00     0.163 HD
ATOM     36  O   UNL     1       4.746  -7.726 -12.748  1.00  0.00    -0.269 OA
BRANCH  34  37
ATOM     37  C   UNL     1       3.958  -5.522 -12.877  1.00  0.00     0.039 A 
ATOM     38  C   UNL     1       3.240  -5.571 -14.074  1.00  0.00     0.014 A 
ATOM     39  C   UNL     1       4.353  -4.300 -12.325  1.00  0.00     0.014 A 
ATOM     40  C   UNL     1       2.842  -4.383 -14.681  1.00  0.00     0.010 A 
ATOM     41  C   UNL     1       3.904  -3.116 -12.901  1.00  0.00     0.010 A 
ATOM     42  C   UNL     1       3.132  -3.151 -14.073  1.00  0.00    -0.014 A 
BRANCH  42  43
ATOM     43  C   UNL     1       2.595  -1.888 -14.629  1.00  0.00     0.031 A 
ATOM     44  C   UNL     1       3.524  -0.862 -15.205  1.00  0.00     0.074 A 
ATOM     45  C   UNL     1       1.272  -1.646 -14.551  1.00  0.00     0.049 A 
ATOM     46  N   UNL     1       3.246   0.323 -15.683  1.00  0.00    -0.248 NA
ATOM     47  C   UNL     1       4.955  -1.204 -15.228  1.00  0.00     0.031 C 
ATOM     48  C   UNL     1       0.275  -2.554 -13.977  1.00  0.00     0.029 A 
ATOM     49  N   UNL     1       0.539  -0.557 -14.947  1.00  0.00    -0.354 N 
ATOM     50  C   UNL     1       4.466   0.874 -16.051  1.00  0.00     0.074 A 
ATOM     51  C   UNL     1       5.489  -0.088 -15.703  1.00  0.00     0.031 C 
ATOM     52  C   UNL     1      -0.940  -1.992 -14.076  1.00  0.00     0.029 A 
ATOM     53  C   UNL     1      -0.804  -0.672 -14.682  1.00  0.00     0.049 A 
ATOM     54  H   UNL     1       0.937   0.233 -15.380  1.00  0.00     0.167 HD
ATOM     55  C   UNL     1       4.708   2.069 -16.638  1.00  0.00     0.031 A 
ATOM     56  C   UNL     1      -1.811   0.195 -14.892  1.00  0.00     0.031 A 
ATOM     57  C   UNL     1       3.688   3.021 -16.984  1.00  0.00     0.049 A 
ATOM     58  C   UNL     1      -1.510   1.526 -15.518  1.00  0.00     0.074 A 
ATOM     59  C   UNL     1       3.824   4.231 -17.640  1.00  0.00     0.029 A 
ATOM     60  N   UNL     1       2.341   2.872 -16.691  1.00  0.00    -0.354 N 
ATOM     61  N   UNL     1      -0.360   2.003 -15.929  1.00  0.00    -0.248 NA
ATOM     62  C   UNL     1      -2.646   2.438 -15.711  1.00  0.00     0.031 C 
ATOM     63  C   UNL     1       2.565   4.839 -17.700  1.00  0.00     0.029 A 
ATOM     64  C   UNL     1       1.639   3.984 -17.124  1.00  0.00     0.049 A 
ATOM     65  H   UNL     1       1.942   2.092 -16.242  1.00  0.00     0.167 HD
ATOM     66  C   UNL     1      -0.634   3.263 -16.441  1.00  0.00     0.074 A 
ATOM     67  C   UNL     1      -2.063   3.467 -16.309  1.00  0.00     0.031 C 
ATOM     68  C   UNL     1       0.220   4.173 -16.970  1.00  0.00     0.031 A 
BRANCH  55  69
ATOM     69  C   UNL     1       6.140   2.414 -16.933  1.00  0.00    -0.014 A 
ATOM     70  C   UNL     1       6.849   1.762 -17.955  1.00  0.00     0.009 A 
ATOM     71  C   UNL     1       6.780   3.424 -16.199  1.00  0.00     0.009 A 
ATOM     72  C   UNL     1       8.181   2.092 -18.213  1.00  0.00     0.001 A 
ATOM     73  C   UNL     1       8.104   3.770 -16.477  1.00  0.00     0.001 A 
ATOM     74  C   UNL     1       8.805   3.098 -17.477  1.00  0.00     0.000 A 
ENDBRANCH  55  69
BRANCH  56  75
ATOM     75  C   UNL     1      -3.198  -0.167 -14.503  1.00  0.00    -0.014 A 
ATOM     76  C   UNL     1      -4.162  -0.449 -15.483  1.00  0.00     0.009 A 
ATOM     77  C   UNL     1      -3.566  -0.232 -13.150  1.00  0.00     0.009 A 
ATOM     78  C   UNL     1      -5.471  -0.768 -15.116  1.00  0.00     0.001 A 
ATOM     79  C   UNL     1      -4.870  -0.576 -12.786  1.00  0.00     0.001 A 
ATOM     80  C   UNL     1      -5.823  -0.835 -13.769  1.00  0.00     0.000 A 
ENDBRANCH  56  75
BRANCH  68  81
ATOM     81  C   UNL     1      -0.374   5.465 -17.451  1.00  0.00    -0.014 A 
ATOM     82  C   UNL     1      -0.802   6.445 -16.542  1.00  0.00     0.009 A 
ATOM     83  C   UNL     1      -0.472   5.719 -18.827  1.00  0.00     0.009 A 
ATOM     84  C   UNL     1      -1.343   7.646 -17.005  1.00  0.00     0.001 A 
ATOM     85  C   UNL     1      -0.989   6.931 -19.286  1.00  0.00     0.001 A 
ATOM     86  C   UNL     1      -1.432   7.889 -18.375  1.00  0.00     0.000 A 
ENDBRANCH  68  81
ENDBRANCH  42  43
ENDBRANCH  34  37
ENDBRANCH  32  33
ENDBRANCH  31  32
ENDBRANCH  30  31
ENDBRANCH  29  30
ENDBRANCH   3  29
TORSDOF 17
