REMARK SMILES Cc1c(-c2nn(-c3ccccc3)cc2/C=N/O)nnn1-c1ccc(C(=O)NCCCCNC(=O)c2ccc(-c3c4nc(c(-c5ccccc5)c5ccc([nH]5)c(-c5ccccc5)c5nc(c(-c6ccccc6)c6ccc3[nH]6)C=C5)C=C4)cc2)cc1
REMARK SMILES IDX 28 1 27 2 25 3 26 4 24 6 21 7 22 8 84 9 23 10 83 11 20 12
REMARK SMILES IDX 1 13 2 14 3 15 18 16 19 17 4 18 5 19 14 20 6 21 13 22 15 23
REMARK SMILES IDX 16 24 17 25 7 27 8 28 12 29 9 30 11 31 10 32 29 33 30 34
REMARK SMILES IDX 31 35 32 36 33 37 34 39 35 40 36 41 82 42 37 43 81 44 38 45
REMARK SMILES IDX 39 46 40 47 75 48 41 49 80 50 74 51 76 52 42 53 79 54 73 55
REMARK SMILES IDX 72 56 43 58 65 59 50 60 64 61 51 62 54 63 63 64 77 65 52 66
REMARK SMILES IDX 53 67 62 69 78 70 55 71 44 72 45 73 49 74 46 75 48 76 47 77
REMARK SMILES IDX 66 78 67 79 71 80 68 81 70 82 69 83 56 84 57 85 61 86 58 87
REMARK SMILES IDX 60 88 59 89
REMARK H PARENT 27 5 17 26 32 38 76 57 54 68
REMARK Flexibility Score: inf
ROOT
ATOM      1  C   UNL     1       4.261   5.794   0.556  1.00  0.00     0.116 C 
ENDROOT
BRANCH   1   2
ATOM      2  N   UNL     1       3.140   6.601   0.117  1.00  0.00    -0.352 N 
ATOM      3  C   UNL     1       1.967   6.328  -0.538  1.00  0.00     0.251 C 
ATOM      4  O   UNL     1       1.209   7.285  -0.714  1.00  0.00    -0.269 OA
ATOM      5  H   UNL     1       3.245   7.555   0.337  1.00  0.00     0.163 HD
BRANCH   3   6
ATOM      6  C   UNL     1       1.536   4.973  -1.003  1.00  0.00     0.039 A 
ATOM      7  C   UNL     1       0.496   2.482  -1.827  1.00  0.00     0.067 A 
ATOM      8  C   UNL     1      -0.332   3.604  -1.811  1.00  0.00     0.029 A 
ATOM      9  C   UNL     1       1.848   2.608  -1.496  1.00  0.00     0.029 A 
ATOM     10  C   UNL     1       0.182   4.829  -1.368  1.00  0.00     0.016 A 
ATOM     11  C   UNL     1       2.368   3.858  -1.133  1.00  0.00     0.016 A 
BRANCH   7  12
ATOM     12  N   UNL     1      -0.021   1.231  -2.229  1.00  0.00    -0.217 N 
ATOM     13  C   UNL     1       0.900  -0.289  -0.413  1.00  0.00     0.069 C 
ATOM     14  C   UNL     1       0.250  -0.024  -1.718  1.00  0.00     0.071 A 
ATOM     15  C   UNL     1      -0.327  -0.871  -2.643  1.00  0.00     0.137 A 
ATOM     16  N   UNL     1      -1.013  -0.150  -3.576  1.00  0.00    -0.128 NA
ATOM     17  N   UNL     1      -0.887   1.135  -3.266  1.00  0.00    -0.061 NA
BRANCH  15  18
ATOM     18  C   UNL     1      -0.361  -2.327  -2.631  1.00  0.00     0.124 A 
ATOM     19  N   UNL     1      -1.205  -3.000  -1.840  1.00  0.00    -0.165 NA
ATOM     20  C   UNL     1       0.489  -3.183  -3.368  1.00  0.00     0.044 A 
ATOM     21  N   UNL     1      -0.837  -4.291  -1.974  1.00  0.00    -0.240 N 
ATOM     22  C   UNL     1       0.181  -4.442  -2.888  1.00  0.00     0.125 A 
BRANCH  20  23
ATOM     23  C   UNL     1       1.474  -2.914  -4.386  1.00  0.00     0.166 C 
ATOM     24  N   UNL     1       1.803  -1.697  -4.668  1.00  0.00    -0.097 NA
BRANCH  24  25
ATOM     25  O   UNL     1       2.746  -1.706  -5.703  1.00  0.00    -0.411 OA
ATOM     26  H   UNL     1       3.091  -0.898  -6.029  1.00  0.00     0.330 HD
ENDBRANCH  24  25
ENDBRANCH  20  23
BRANCH  21  27
ATOM     27  C   UNL     1      -1.449  -5.297  -1.192  1.00  0.00     0.065 A 
ATOM     28  C   UNL     1      -2.793  -5.153  -0.826  1.00  0.00     0.028 A 
ATOM     29  C   UNL     1      -0.714  -6.408  -0.761  1.00  0.00     0.028 A 
ATOM     30  C   UNL     1      -3.408  -6.133  -0.048  1.00  0.00     0.002 A 
ATOM     31  C   UNL     1      -1.324  -7.357   0.062  1.00  0.00     0.002 A 
ATOM     32  C   UNL     1      -2.670  -7.226   0.408  1.00  0.00     0.000 A 
ENDBRANCH  21  27
ENDBRANCH  15  18
ENDBRANCH   7  12
ENDBRANCH   3   6
ENDBRANCH   1   2
BRANCH   1  33
ATOM     33  C   UNL     1       5.406   5.807  -0.463  1.00  0.00     0.023 C 
BRANCH  33  34
ATOM     34  C   UNL     1       6.262   7.085  -0.471  1.00  0.00     0.023 C 
BRANCH  34  35
ATOM     35  C   UNL     1       7.139   7.297   0.762  1.00  0.00     0.116 C 
BRANCH  35  36
ATOM     36  N   UNL     1       8.106   6.216   0.974  1.00  0.00    -0.352 N 
ATOM     37  C   UNL     1       8.784   5.871   2.130  1.00  0.00     0.251 C 
ATOM     38  H   UNL     1       8.300   5.660   0.186  1.00  0.00     0.163 HD
ATOM     39  O   UNL     1       9.822   5.227   2.086  1.00  0.00    -0.269 OA
BRANCH  37  40
ATOM     40  C   UNL     1       8.215   6.266   3.430  1.00  0.00     0.039 A 
ATOM     41  C   UNL     1       9.010   6.720   4.487  1.00  0.00     0.014 A 
ATOM     42  C   UNL     1       6.834   6.184   3.564  1.00  0.00     0.014 A 
ATOM     43  C   UNL     1       8.388   7.172   5.650  1.00  0.00     0.010 A 
ATOM     44  C   UNL     1       6.218   6.777   4.631  1.00  0.00     0.010 A 
ATOM     45  C   UNL     1       6.987   7.209   5.706  1.00  0.00    -0.014 A 
BRANCH  45  46
ATOM     46  C   UNL     1       6.276   7.789   6.837  1.00  0.00     0.031 A 
ATOM     47  C   UNL     1       6.537   9.233   7.068  1.00  0.00     0.074 A 
ATOM     48  C   UNL     1       5.239   7.156   7.427  1.00  0.00     0.049 A 
ATOM     49  N   UNL     1       7.127   9.777   8.079  1.00  0.00    -0.248 NA
ATOM     50  C   UNL     1       6.206  10.180   5.989  1.00  0.00     0.031 C 
ATOM     51  C   UNL     1       4.636   5.869   7.053  1.00  0.00     0.029 A 
ATOM     52  N   UNL     1       4.400   7.604   8.398  1.00  0.00    -0.354 N 
ATOM     53  C   UNL     1       7.052  11.152   7.869  1.00  0.00     0.074 A 
ATOM     54  C   UNL     1       6.672  11.325   6.490  1.00  0.00     0.031 C 
ATOM     55  C   UNL     1       3.406   5.769   7.604  1.00  0.00     0.029 A 
ATOM     56  C   UNL     1       3.210   6.892   8.501  1.00  0.00     0.049 A 
ATOM     57  H   UNL     1       4.616   8.368   8.980  1.00  0.00     0.167 HD
ATOM     58  C   UNL     1       7.028  12.027   8.914  1.00  0.00     0.031 A 
ATOM     59  C   UNL     1       2.125   7.223   9.243  1.00  0.00     0.031 A 
ATOM     60  C   UNL     1       7.401  11.383  10.150  1.00  0.00     0.049 A 
ATOM     61  C   UNL     1       2.564   8.211  10.254  1.00  0.00     0.074 A 
ATOM     62  C   UNL     1       8.504  10.680  10.595  1.00  0.00     0.029 A 
ATOM     63  N   UNL     1       6.382  11.066  11.017  1.00  0.00    -0.354 N 
ATOM     64  N   UNL     1       3.363   7.921  11.238  1.00  0.00    -0.248 NA
ATOM     65  C   UNL     1       2.477   9.623   9.917  1.00  0.00     0.031 C 
ATOM     66  C   UNL     1       7.967   9.617  11.382  1.00  0.00     0.029 A 
ATOM     67  C   UNL     1       6.581   9.779  11.442  1.00  0.00     0.049 A 
ATOM     68  H   UNL     1       5.641  11.658  11.285  1.00  0.00     0.167 HD
ATOM     69  C   UNL     1       4.216   9.011  11.328  1.00  0.00     0.074 A 
ATOM     70  C   UNL     1       3.547  10.074  10.577  1.00  0.00     0.031 C 
ATOM     71  C   UNL     1       5.509   8.858  11.745  1.00  0.00     0.031 A 
BRANCH  58  72
ATOM     72  C   UNL     1       6.244  13.323   8.909  1.00  0.00    -0.014 A 
ATOM     73  C   UNL     1       6.288  14.135  10.058  1.00  0.00     0.009 A 
ATOM     74  C   UNL     1       5.252  13.634   7.960  1.00  0.00     0.009 A 
ATOM     75  C   UNL     1       5.330  15.130  10.287  1.00  0.00     0.001 A 
ATOM     76  C   UNL     1       4.322  14.657   8.164  1.00  0.00     0.001 A 
ATOM     77  C   UNL     1       4.339  15.383   9.345  1.00  0.00     0.000 A 
ENDBRANCH  58  72
BRANCH  59  78
ATOM     78  C   UNL     1       0.697   6.925   9.014  1.00  0.00    -0.014 A 
ATOM     79  C   UNL     1      -0.233   7.032  10.061  1.00  0.00     0.009 A 
ATOM     80  C   UNL     1       0.198   6.806   7.704  1.00  0.00     0.009 A 
ATOM     81  C   UNL     1      -1.609   7.070   9.801  1.00  0.00     0.001 A 
ATOM     82  C   UNL     1      -1.177   6.840   7.445  1.00  0.00     0.001 A 
ATOM     83  C   UNL     1      -2.079   6.991   8.493  1.00  0.00     0.000 A 
ENDBRANCH  59  78
BRANCH  71  84
ATOM     84  C   UNL     1       5.902   7.527  12.342  1.00  0.00    -0.014 A 
ATOM     85  C   UNL     1       5.784   6.303  11.657  1.00  0.00     0.009 A 
ATOM     86  C   UNL     1       6.525   7.521  13.598  1.00  0.00     0.009 A 
ATOM     87  C   UNL     1       6.228   5.109  12.234  1.00  0.00     0.001 A 
ATOM     88  C   UNL     1       6.992   6.333  14.164  1.00  0.00     0.001 A 
ATOM     89  C   UNL     1       6.834   5.125  13.488  1.00  0.00     0.000 A 
ENDBRANCH  71  84
ENDBRANCH  45  46
ENDBRANCH  37  40
ENDBRANCH  35  36
ENDBRANCH  34  35
ENDBRANCH  33  34
ENDBRANCH   1  33
TORSDOF 16
