REMARK SMILES CCCc1cc(OC(F)(F)F)cc2c1O[C@@H](C(F)(F)F)C(C(=O)NCCCCNC(=O)c1ccc(-c3c4nc(c(-c5ccccc5)c5ccc([nH]5)c(-c5ccccc5)c5nc(c(-c6ccccc6)c6ccc3[nH]6)C=C5)C=C4)cc1)=C2
REMARK SMILES IDX 26 1 25 2 24 3 22 4 23 5 21 7 4 8 5 9 14 10 6 11 13 12 15 13
REMARK SMILES IDX 12 14 80 15 16 16 3 17 2 18 1 19 7 20 8 21 9 22 10 23 11 24
REMARK SMILES IDX 17 25 18 26 19 27 20 28 27 29 28 30 29 31 30 32 31 34 32 35
REMARK SMILES IDX 33 36 79 37 34 38 78 39 35 40 36 41 37 42 72 43 38 44 77 45
REMARK SMILES IDX 71 46 73 47 39 48 76 49 70 50 69 51 40 53 62 54 47 55 61 56
REMARK SMILES IDX 48 57 51 58 60 59 74 60 49 61 50 62 59 64 75 65 52 66 41 67
REMARK SMILES IDX 42 68 46 69 43 70 45 71 44 72 63 73 64 74 68 75 65 76 67 77
REMARK SMILES IDX 66 78 53 79 54 80 58 81 55 82 57 83 56 84
REMARK H PARENT 24 6 29 33 73 52 51 63
REMARK Flexibility Score: inf
ROOT
ATOM      1  C   UNL     1       1.295  -9.384  -1.690  1.00  0.00     0.023 C 
ENDROOT
BRANCH   1   2
ATOM      2  C   UNL     1       2.577  -8.543  -1.734  1.00  0.00     0.116 C 
BRANCH   2   3
ATOM      3  N   UNL     1       2.891  -8.178  -3.105  1.00  0.00    -0.352 N 
ATOM      4  C   UNL     1       2.546  -7.107  -3.869  1.00  0.00     0.251 C 
ATOM      5  O   UNL     1       2.837  -7.135  -5.062  1.00  0.00    -0.270 OA
ATOM      6  H   UNL     1       3.462  -8.831  -3.570  1.00  0.00     0.163 HD
BRANCH   4   7
ATOM      7  C   UNL     1       1.895  -5.892  -3.312  1.00  0.00     0.067 C 
ATOM      8  C   UNL     1       0.390  -2.288  -1.719  1.00  0.00    -0.002 A 
ATOM      9  C   UNL     1      -0.618  -2.363  -0.739  1.00  0.00     0.054 A 
ATOM     10  C   UNL     1       0.881  -3.488  -2.267  1.00  0.00     0.131 A 
ATOM     11  C   UNL     1      -1.077  -3.593  -0.265  1.00  0.00     0.130 A 
ATOM     12  C   UNL     1       0.398  -4.718  -1.827  1.00  0.00     0.021 A 
ATOM     13  O   UNL     1       1.888  -3.399  -3.188  1.00  0.00    -0.475 OA
ATOM     14  C   UNL     1      -0.574  -4.767  -0.824  1.00  0.00     0.058 A 
ATOM     15  C   UNL     1       0.969  -5.949  -2.345  1.00  0.00     0.025 C 
ATOM     16  C   UNL     1       2.196  -4.567  -4.005  1.00  0.00     0.314 C 
BRANCH   8  17
ATOM     17  C   UNL     1       0.932  -0.965  -2.230  1.00  0.00     0.039 C 
BRANCH  17  18
ATOM     18  C   UNL     1       0.621   0.311  -1.436  1.00  0.00     0.001 C 
ATOM     19  C   UNL     1       1.314   0.364  -0.080  1.00  0.00     0.004 C 
ENDBRANCH  17  18
ENDBRANCH   8  17
BRANCH  11  20
ATOM     20  O   UNL     1      -1.993  -3.792   0.729  1.00  0.00    -0.406 OA
BRANCH  20  21
ATOM     21  C   UNL     1      -2.401  -2.665   1.486  1.00  0.00     0.573 C 
ATOM     22  F   UNL     1      -1.342  -2.016   2.016  1.00  0.00    -0.132 F 
ATOM     23  F   UNL     1      -3.121  -1.813   0.727  1.00  0.00    -0.132 F 
ATOM     24  F   UNL     1      -3.183  -3.088   2.503  1.00  0.00    -0.132 F 
ENDBRANCH  20  21
ENDBRANCH  11  20
BRANCH  16  25
ATOM     25  C   UNL     1       3.636  -4.376  -4.536  1.00  0.00     0.429 C 
ATOM     26  F   UNL     1       3.825  -4.928  -5.754  1.00  0.00    -0.167 F 
ATOM     27  F   UNL     1       3.922  -3.054  -4.691  1.00  0.00    -0.167 F 
ATOM     28  F   UNL     1       4.567  -4.879  -3.692  1.00  0.00    -0.167 F 
ENDBRANCH  16  25
ENDBRANCH   4   7
ENDBRANCH   2   3
ENDBRANCH   1   2
BRANCH   1  29
ATOM     29  C   UNL     1       1.485 -10.849  -2.090  1.00  0.00     0.023 C 
BRANCH  29  30
ATOM     30  C   UNL     1       2.361 -11.662  -1.144  1.00  0.00     0.116 C 
BRANCH  30  31
ATOM     31  N   UNL     1       1.869 -11.678   0.225  1.00  0.00    -0.352 N 
ATOM     32  C   UNL     1       1.959 -12.684   1.158  1.00  0.00     0.251 C 
ATOM     33  H   UNL     1       1.410 -10.859   0.523  1.00  0.00     0.163 HD
ATOM     34  O   UNL     1       1.405 -12.580   2.241  1.00  0.00    -0.269 OA
BRANCH  32  35
ATOM     35  C   UNL     1       2.696 -13.917   0.811  1.00  0.00     0.039 A 
ATOM     36  C   UNL     1       2.061 -15.148   0.994  1.00  0.00     0.014 A 
ATOM     37  C   UNL     1       3.979 -13.852   0.263  1.00  0.00     0.014 A 
ATOM     38  C   UNL     1       2.683 -16.313   0.546  1.00  0.00     0.010 A 
ATOM     39  C   UNL     1       4.570 -15.008  -0.238  1.00  0.00     0.010 A 
ATOM     40  C   UNL     1       3.920 -16.245  -0.115  1.00  0.00    -0.014 A 
BRANCH  40  41
ATOM     41  C   UNL     1       4.527 -17.450  -0.727  1.00  0.00     0.031 A 
ATOM     42  C   UNL     1       5.824 -17.998  -0.205  1.00  0.00     0.074 A 
ATOM     43  C   UNL     1       3.944 -18.003  -1.808  1.00  0.00     0.049 A 
ATOM     44  N   UNL     1       6.531 -19.004  -0.653  1.00  0.00    -0.248 NA
ATOM     45  C   UNL     1       6.414 -17.314   0.956  1.00  0.00     0.031 C 
ATOM     46  C   UNL     1       2.707 -17.534  -2.438  1.00  0.00     0.029 A 
ATOM     47  N   UNL     1       4.321 -19.076  -2.576  1.00  0.00    -0.354 N 
ATOM     48  C   UNL     1       7.654 -19.066   0.162  1.00  0.00     0.074 A 
ATOM     49  C   UNL     1       7.556 -17.971   1.103  1.00  0.00     0.031 C 
ATOM     50  C   UNL     1       2.416 -18.328  -3.480  1.00  0.00     0.029 A 
ATOM     51  C   UNL     1       3.463 -19.335  -3.616  1.00  0.00     0.049 A 
ATOM     52  H   UNL     1       5.130 -19.608  -2.398  1.00  0.00     0.167 HD
ATOM     53  C   UNL     1       8.667 -19.964   0.138  1.00  0.00     0.031 A 
ATOM     54  C   UNL     1       3.517 -20.274  -4.580  1.00  0.00     0.031 A 
ATOM     55  C   UNL     1       8.761 -21.056  -0.793  1.00  0.00     0.049 A 
ATOM     56  C   UNL     1       4.664 -21.243  -4.597  1.00  0.00     0.074 A 
ATOM     57  C   UNL     1       9.712 -22.060  -0.851  1.00  0.00     0.029 A 
ATOM     58  N   UNL     1       7.875 -21.281  -1.835  1.00  0.00    -0.354 N 
ATOM     59  N   UNL     1       5.677 -21.336  -3.771  1.00  0.00    -0.248 NA
ATOM     60  C   UNL     1       4.673 -22.237  -5.680  1.00  0.00     0.031 C 
ATOM     61  C   UNL     1       9.430 -22.864  -1.961  1.00  0.00     0.029 A 
ATOM     62  C   UNL     1       8.277 -22.388  -2.564  1.00  0.00     0.049 A 
ATOM     63  H   UNL     1       7.079 -20.735  -2.029  1.00  0.00     0.167 HD
ATOM     64  C   UNL     1       6.436 -22.406  -4.224  1.00  0.00     0.074 A 
ATOM     65  C   UNL     1       5.756 -22.943  -5.385  1.00  0.00     0.031 C 
ATOM     66  C   UNL     1       7.596 -22.899  -3.725  1.00  0.00     0.031 A 
BRANCH  53  67
ATOM     67  C   UNL     1       9.762 -19.795   1.153  1.00  0.00    -0.014 A 
ATOM     68  C   UNL     1       9.542 -20.070   2.512  1.00  0.00     0.009 A 
ATOM     69  C   UNL     1      11.040 -19.389   0.740  1.00  0.00     0.009 A 
ATOM     70  C   UNL     1      10.571 -19.909   3.442  1.00  0.00     0.001 A 
ATOM     71  C   UNL     1      12.074 -19.254   1.668  1.00  0.00     0.001 A 
ATOM     72  C   UNL     1      11.837 -19.505   3.019  1.00  0.00     0.000 A 
ENDBRANCH  53  67
BRANCH  54  73
ATOM     73  C   UNL     1       2.447 -20.346  -5.607  1.00  0.00    -0.014 A 
ATOM     74  C   UNL     1       1.517 -21.396  -5.590  1.00  0.00     0.009 A 
ATOM     75  C   UNL     1       2.351 -19.368  -6.609  1.00  0.00     0.009 A 
ATOM     76  C   UNL     1       0.524 -21.477  -6.570  1.00  0.00     0.001 A 
ATOM     77  C   UNL     1       1.342 -19.438  -7.572  1.00  0.00     0.001 A 
ATOM     78  C   UNL     1       0.435 -20.496  -7.556  1.00  0.00     0.000 A 
ENDBRANCH  54  73
BRANCH  66  79
ATOM     79  C   UNL     1       8.195 -24.081  -4.430  1.00  0.00    -0.014 A 
ATOM     80  C   UNL     1       8.832 -23.935  -5.672  1.00  0.00     0.009 A 
ATOM     81  C   UNL     1       8.155 -25.349  -3.829  1.00  0.00     0.009 A 
ATOM     82  C   UNL     1       9.393 -25.042  -6.311  1.00  0.00     0.001 A 
ATOM     83  C   UNL     1       8.739 -26.448  -4.458  1.00  0.00     0.001 A 
ATOM     84  C   UNL     1       9.351 -26.295  -5.702  1.00  0.00     0.000 A 
ENDBRANCH  66  79
ENDBRANCH  40  41
ENDBRANCH  32  35
ENDBRANCH  30  31
ENDBRANCH  29  30
ENDBRANCH   1  29
TORSDOF 16
