REMARK SMILES O=C(NCCCCNC(=O)c1cn(C2CN(C(=O)c3c[nH]nn3)C2)nn1)c1ccc(-c2c3nc(c(-c4ccccc4)c4ccc([nH]4)c(-c4ccccc4)c4nc(c(-c5ccccc5)c5ccc2[nH]5)C=C4)C=C3)cc1
REMARK SMILES IDX 5 1 4 2 3 3 1 4 2 5 27 7 28 8 74 9 29 10 73 11 30 12 31 13
REMARK SMILES IDX 32 14 67 15 33 16 72 17 66 18 68 19 34 20 71 21 65 22 64 23
REMARK SMILES IDX 35 25 57 26 42 27 56 28 43 29 46 30 55 31 69 32 44 33 45 34
REMARK SMILES IDX 54 36 70 37 47 38 36 39 37 40 41 41 38 42 40 43 39 44 58 45
REMARK SMILES IDX 59 46 63 47 60 48 62 49 61 50 48 51 49 52 53 53 50 54 52 55
REMARK SMILES IDX 51 56 6 57 7 58 8 59 9 60 10 62 11 63 12 64 26 65 13 66
REMARK SMILES IDX 25 67 14 68 15 69 24 70 16 71 17 72 18 73 19 74 20 75 23 76
REMARK SMILES IDX 21 77 22 78
REMARK H PARENT 3 6 68 24 46 35 8 61 21 79
REMARK Flexibility Score: inf
ROOT
ATOM      1  C   UNL     1       5.018   2.179  -1.452  1.00  0.00     0.023 C 
ENDROOT
BRANCH   1   2
ATOM      2  C   UNL     1       4.659   1.288  -0.271  1.00  0.00     0.116 C 
BRANCH   2   3
ATOM      3  N   UNL     1       3.224   1.147  -0.078  1.00  0.00    -0.352 N 
ATOM      4  O   UNL     1       1.240   0.072   0.007  1.00  0.00    -0.269 OA
ATOM      5  C   UNL     1       2.464   0.002  -0.026  1.00  0.00     0.251 C 
ATOM      6  H   UNL     1       2.727   1.989   0.031  1.00  0.00     0.163 HD
BRANCH   5   7
ATOM      7  C   UNL     1       3.131  -1.317  -0.040  1.00  0.00     0.039 A 
ATOM      8  C   UNL     1       4.248  -1.554   0.763  1.00  0.00     0.014 A 
ATOM      9  C   UNL     1       2.643  -2.321  -0.881  1.00  0.00     0.014 A 
ATOM     10  C   UNL     1       4.972  -2.728   0.607  1.00  0.00     0.010 A 
ATOM     11  C   UNL     1       3.316  -3.543  -0.961  1.00  0.00     0.010 A 
ATOM     12  C   UNL     1       4.504  -3.745  -0.242  1.00  0.00    -0.014 A 
BRANCH  12  13
ATOM     13  C   UNL     1       5.237  -5.035  -0.296  1.00  0.00     0.031 A 
ATOM     14  C   UNL     1       5.885  -5.517  -1.564  1.00  0.00     0.074 A 
ATOM     15  C   UNL     1       5.333  -5.764   0.833  1.00  0.00     0.049 A 
ATOM     16  N   UNL     1       6.573  -6.613  -1.768  1.00  0.00    -0.248 NA
ATOM     17  C   UNL     1       5.742  -4.669  -2.758  1.00  0.00     0.031 C 
ATOM     18  C   UNL     1       4.745  -5.399   2.126  1.00  0.00     0.029 A 
ATOM     19  N   UNL     1       5.974  -6.949   1.085  1.00  0.00    -0.354 N 
ATOM     20  C   UNL     1       6.928  -6.597  -3.111  1.00  0.00     0.074 A 
ATOM     21  C   UNL     1       6.359  -5.394  -3.681  1.00  0.00     0.031 C 
ATOM     22  C   UNL     1       5.093  -6.313   3.041  1.00  0.00     0.029 A 
ATOM     23  C   UNL     1       5.863  -7.364   2.389  1.00  0.00     0.049 A 
ATOM     24  H   UNL     1       6.467  -7.453   0.397  1.00  0.00     0.167 HD
ATOM     25  C   UNL     1       7.663  -7.501  -3.803  1.00  0.00     0.031 A 
ATOM     26  C   UNL     1       6.308  -8.480   2.994  1.00  0.00     0.031 A 
ATOM     27  C   UNL     1       8.222  -8.700  -3.231  1.00  0.00     0.049 A 
ATOM     28  C   UNL     1       7.075  -9.486   2.189  1.00  0.00     0.074 A 
ATOM     29  C   UNL     1       9.006  -9.663  -3.845  1.00  0.00     0.029 A 
ATOM     30  N   UNL     1       8.049  -9.106  -1.916  1.00  0.00    -0.354 N 
ATOM     31  N   UNL     1       7.434  -9.435   0.930  1.00  0.00    -0.248 NA
ATOM     32  C   UNL     1       7.500 -10.704   2.892  1.00  0.00     0.031 C 
ATOM     33  C   UNL     1       9.256 -10.681  -2.918  1.00  0.00     0.029 A 
ATOM     34  C   UNL     1       8.686 -10.319  -1.708  1.00  0.00     0.049 A 
ATOM     35  H   UNL     1       7.548  -8.606  -1.232  1.00  0.00     0.167 HD
ATOM     36  C   UNL     1       8.148 -10.601   0.694  1.00  0.00     0.074 A 
ATOM     37  C   UNL     1       8.190 -11.328   1.947  1.00  0.00     0.031 C 
ATOM     38  C   UNL     1       8.718 -11.032  -0.457  1.00  0.00     0.031 A 
BRANCH  25  39
ATOM     39  C   UNL     1       7.886  -7.250  -5.270  1.00  0.00    -0.014 A 
ATOM     40  C   UNL     1       8.734  -6.224  -5.717  1.00  0.00     0.009 A 
ATOM     41  C   UNL     1       7.286  -8.093  -6.219  1.00  0.00     0.009 A 
ATOM     42  C   UNL     1       8.953  -6.032  -7.084  1.00  0.00     0.001 A 
ATOM     43  C   UNL     1       7.529  -7.918  -7.582  1.00  0.00     0.001 A 
ATOM     44  C   UNL     1       8.356  -6.882  -8.014  1.00  0.00     0.000 A 
ENDBRANCH  25  39
BRANCH  26  45
ATOM     45  C   UNL     1       6.013  -8.711   4.432  1.00  0.00    -0.014 A 
ATOM     46  C   UNL     1       7.042  -8.707   5.385  1.00  0.00     0.009 A 
ATOM     47  C   UNL     1       4.694  -8.939   4.858  1.00  0.00     0.009 A 
ATOM     48  C   UNL     1       6.759  -8.954   6.730  1.00  0.00     0.001 A 
ATOM     49  C   UNL     1       4.410  -9.150   6.208  1.00  0.00     0.001 A 
ATOM     50  C   UNL     1       5.444  -9.170   7.141  1.00  0.00     0.000 A 
ENDBRANCH  26  45
BRANCH  38  51
ATOM     51  C   UNL     1       9.471 -12.332  -0.402  1.00  0.00    -0.014 A 
ATOM     52  C   UNL     1       8.805 -13.559  -0.261  1.00  0.00     0.009 A 
ATOM     53  C   UNL     1      10.870 -12.326  -0.519  1.00  0.00     0.009 A 
ATOM     54  C   UNL     1       9.528 -14.751  -0.200  1.00  0.00     0.001 A 
ATOM     55  C   UNL     1      11.588 -13.522  -0.491  1.00  0.00     0.001 A 
ATOM     56  C   UNL     1      10.918 -14.732  -0.321  1.00  0.00     0.000 A 
ENDBRANCH  38  51
ENDBRANCH  12  13
ENDBRANCH   5   7
ENDBRANCH   2   3
ENDBRANCH   1   2
BRANCH   1  57
ATOM     57  C   UNL     1       4.538   3.623  -1.338  1.00  0.00     0.023 C 
BRANCH  57  58
ATOM     58  C   UNL     1       4.938   4.334  -0.049  1.00  0.00     0.116 C 
BRANCH  58  59
ATOM     59  N   UNL     1       6.380   4.448   0.098  1.00  0.00    -0.351 N 
ATOM     60  C   UNL     1       7.157   5.584   0.143  1.00  0.00     0.273 C 
ATOM     61  H   UNL     1       6.867   3.597   0.175  1.00  0.00     0.163 HD
ATOM     62  O   UNL     1       8.380   5.468   0.091  1.00  0.00    -0.267 OA
BRANCH  60  63
ATOM     63  C   UNL     1       6.492   6.869   0.253  1.00  0.00     0.170 A 
ATOM     64  C   UNL     1       5.506   7.246   1.146  1.00  0.00     0.145 A 
ATOM     65  N   UNL     1       6.767   7.928  -0.574  1.00  0.00    -0.125 NA
ATOM     66  N   UNL     1       5.139   8.489   0.723  1.00  0.00    -0.245 N 
ATOM     67  N   UNL     1       5.921   8.908  -0.285  1.00  0.00    -0.066 NA
BRANCH  66  68
ATOM     68  C   UNL     1       4.045   9.285   1.187  1.00  0.00     0.148 C 
ATOM     69  C   UNL     1       2.734   8.498   1.427  1.00  0.00     0.149 C 
ATOM     70  C   UNL     1       4.065   9.520   2.714  1.00  0.00     0.149 C 
ATOM     71  N   UNL     1       2.645   9.251   2.661  1.00  0.00    -0.333 N 
ATOM     72  C   UNL     1       1.590   9.419   3.518  1.00  0.00     0.276 C 
ATOM     73  O   UNL     1       0.500   8.890   3.308  1.00  0.00    -0.267 OA
BRANCH  72  74
ATOM     74  C   UNL     1       1.843  10.258   4.677  1.00  0.00     0.170 A 
ATOM     75  C   UNL     1       2.390  11.527   4.713  1.00  0.00     0.141 A 
ATOM     76  N   UNL     1       1.519   9.886   5.958  1.00  0.00    -0.125 NA
ATOM     77  N   UNL     1       2.383  11.854   6.035  1.00  0.00    -0.265 N 
ATOM     78  N   UNL     1       1.882  10.861   6.782  1.00  0.00    -0.069 NA
ATOM     79  H   UNL     1       2.705  12.711   6.396  1.00  0.00     0.191 HD
ENDBRANCH  72  74
ENDBRANCH  66  68
ENDBRANCH  60  63
ENDBRANCH  58  59
ENDBRANCH  57  58
ENDBRANCH   1  57
TORSDOF 13
