REMARK SMILES O=C(NCCCCNC(=O)c1cc(S(=O)(=O)Nc2cccc(Cl)c2)ccc1O)c1ccc(-c2c3nc(c(-c4ccccc4)c4ccc([nH]4)c(-c4ccccc4)c4nc(c(-c5ccccc5)c5ccc2[nH]5)C=C4)C=C3)cc1
REMARK SMILES IDX 6 1 5 2 4 3 3 4 1 5 2 6 29 8 30 9 76 10 31 11 75 12 32 13
REMARK SMILES IDX 33 14 34 15 69 16 35 17 74 18 68 19 70 20 36 21 73 22 67 23
REMARK SMILES IDX 66 24 37 26 59 27 44 28 58 29 45 30 48 31 57 32 71 33 46 34
REMARK SMILES IDX 47 35 56 37 72 38 49 39 38 40 39 41 43 42 40 43 42 44 41 45
REMARK SMILES IDX 60 46 61 47 65 48 62 49 64 50 63 51 50 52 51 53 55 54 52 55
REMARK SMILES IDX 54 56 53 57 7 58 8 59 9 60 10 62 11 63 12 64 27 65 13 66
REMARK SMILES IDX 26 67 25 68 28 69 14 71 15 72 16 73 17 74 18 76 19 77 24 78
REMARK SMILES IDX 20 79 22 80 21 81 23 82
REMARK H PARENT 3 7 70 25 48 36 8 61 28 70 17 75
REMARK Flexibility Score: inf
ROOT
ATOM      1  C   UNL     1       4.664  -2.172   2.948  1.00  0.00     0.023 C 
ENDROOT
BRANCH   1   2
ATOM      2  C   UNL     1       5.119  -0.929   2.192  1.00  0.00     0.023 C 
BRANCH   2   3
ATOM      3  C   UNL     1       4.752  -0.892   0.713  1.00  0.00     0.116 C 
BRANCH   3   4
ATOM      4  N   UNL     1       3.316  -0.925   0.478  1.00  0.00    -0.352 N 
ATOM      5  O   UNL     1       1.277  -0.148  -0.091  1.00  0.00    -0.269 OA
ATOM      6  C   UNL     1       2.494   0.012  -0.100  1.00  0.00     0.251 C 
ATOM      7  H   UNL     1       2.864  -1.746   0.780  1.00  0.00     0.163 HD
BRANCH   6   8
ATOM      8  C   UNL     1       3.070   1.232  -0.703  1.00  0.00     0.039 A 
ATOM      9  C   UNL     1       4.173   1.163  -1.556  1.00  0.00     0.014 A 
ATOM     10  C   UNL     1       2.488   2.469  -0.408  1.00  0.00     0.014 A 
ATOM     11  C   UNL     1       4.791   2.333  -1.986  1.00  0.00     0.010 A 
ATOM     12  C   UNL     1       3.063   3.641  -0.905  1.00  0.00     0.010 A 
ATOM     13  C   UNL     1       4.242   3.584  -1.664  1.00  0.00    -0.014 A 
BRANCH  13  14
ATOM     14  C   UNL     1       4.894   4.825  -2.147  1.00  0.00     0.031 A 
ATOM     15  C   UNL     1       5.508   5.800  -1.182  1.00  0.00     0.074 A 
ATOM     16  C   UNL     1       4.933   5.073  -3.470  1.00  0.00     0.049 A 
ATOM     17  N   UNL     1       6.082   6.951  -1.427  1.00  0.00    -0.248 NA
ATOM     18  C   UNL     1       5.467   5.440   0.244  1.00  0.00     0.031 C 
ATOM     19  C   UNL     1       4.379   4.203  -4.509  1.00  0.00     0.029 A 
ATOM     20  N   UNL     1       5.465   6.128  -4.165  1.00  0.00    -0.354 N 
ATOM     21  C   UNL     1       6.447   7.465  -0.189  1.00  0.00     0.074 A 
ATOM     22  C   UNL     1       6.014   6.508   0.808  1.00  0.00     0.031 C 
ATOM     23  C   UNL     1       4.624   4.745  -5.711  1.00  0.00     0.029 A 
ATOM     24  C   UNL     1       5.300   6.025  -5.524  1.00  0.00     0.049 A 
ATOM     25  H   UNL     1       5.922   6.885  -3.733  1.00  0.00     0.167 HD
ATOM     26  C   UNL     1       7.085   8.626   0.092  1.00  0.00     0.031 A 
ATOM     27  C   UNL     1       5.633   6.874  -6.513  1.00  0.00     0.031 A 
ATOM     28  C   UNL     1       7.521   9.575  -0.898  1.00  0.00     0.049 A 
ATOM     29  C   UNL     1       6.310   8.168  -6.175  1.00  0.00     0.074 A 
ATOM     30  C   UNL     1       8.203  10.765  -0.712  1.00  0.00     0.029 A 
ATOM     31  N   UNL     1       7.314   9.442  -2.263  1.00  0.00    -0.354 N 
ATOM     32  N   UNL     1       6.664   8.629  -5.000  1.00  0.00    -0.248 NA
ATOM     33  C   UNL     1       6.633   9.057  -7.298  1.00  0.00     0.031 C 
ATOM     34  C   UNL     1       8.371  11.374  -1.961  1.00  0.00     0.029 A 
ATOM     35  C   UNL     1       7.835  10.539  -2.929  1.00  0.00     0.049 A 
ATOM     36  H   UNL     1       6.863   8.681  -2.694  1.00  0.00     0.167 HD
ATOM     37  C   UNL     1       7.268   9.854  -5.243  1.00  0.00     0.074 A 
ATOM     38  C   UNL     1       7.243  10.059  -6.677  1.00  0.00     0.031 C 
ATOM     39  C   UNL     1       7.798  10.730  -4.355  1.00  0.00     0.031 A 
BRANCH  26  40
ATOM     40  C   UNL     1       7.321   8.951   1.540  1.00  0.00    -0.014 A 
ATOM     41  C   UNL     1       8.295   8.275   2.292  1.00  0.00     0.009 A 
ATOM     42  C   UNL     1       6.577   9.972   2.153  1.00  0.00     0.009 A 
ATOM     43  C   UNL     1       8.495   8.592   3.638  1.00  0.00     0.001 A 
ATOM     44  C   UNL     1       6.796  10.303   3.492  1.00  0.00     0.001 A 
ATOM     45  C   UNL     1       7.747   9.607   4.235  1.00  0.00     0.000 A 
ENDBRANCH  26  40
BRANCH  27  46
ATOM     46  C   UNL     1       5.311   6.518  -7.917  1.00  0.00    -0.014 A 
ATOM     47  C   UNL     1       6.323   6.121  -8.801  1.00  0.00     0.009 A 
ATOM     48  C   UNL     1       3.980   6.534  -8.365  1.00  0.00     0.009 A 
ATOM     49  C   UNL     1       6.010   5.757 -10.112  1.00  0.00     0.001 A 
ATOM     50  C   UNL     1       3.668   6.145  -9.668  1.00  0.00     0.001 A 
ATOM     51  C   UNL     1       4.683   5.762 -10.542  1.00  0.00     0.000 A 
ENDBRANCH  27  46
BRANCH  39  52
ATOM     52  C   UNL     1       8.422  11.975  -4.914  1.00  0.00    -0.014 A 
ATOM     53  C   UNL     1       7.631  13.035  -5.383  1.00  0.00     0.009 A 
ATOM     54  C   UNL     1       9.819  12.103  -4.934  1.00  0.00     0.009 A 
ATOM     55  C   UNL     1       8.231  14.191  -5.886  1.00  0.00     0.001 A 
ATOM     56  C   UNL     1      10.415  13.268  -5.418  1.00  0.00     0.001 A 
ATOM     57  C   UNL     1       9.621  14.308  -5.899  1.00  0.00     0.000 A 
ENDBRANCH  39  52
ENDBRANCH  13  14
ENDBRANCH   6   8
ENDBRANCH   3   4
ENDBRANCH   2   3
ENDBRANCH   1   2
BRANCH   1  58
ATOM     58  C   UNL     1       5.016  -3.500   2.294  1.00  0.00     0.116 C 
BRANCH  58  59
ATOM     59  N   UNL     1       6.443  -3.734   2.132  1.00  0.00    -0.352 N 
ATOM     60  C   UNL     1       7.105  -4.941   2.228  1.00  0.00     0.255 C 
ATOM     61  H   UNL     1       6.996  -2.945   1.931  1.00  0.00     0.163 HD
ATOM     62  O   UNL     1       8.317  -5.013   2.058  1.00  0.00    -0.269 OA
BRANCH  60  63
ATOM     63  C   UNL     1       6.343  -6.128   2.667  1.00  0.00     0.082 A 
ATOM     64  C   UNL     1       6.735  -6.744   3.860  1.00  0.00     0.040 A 
ATOM     65  C   UNL     1       5.193  -6.559   1.999  1.00  0.00     0.128 A 
ATOM     66  C   UNL     1       5.882  -7.675   4.460  1.00  0.00     0.088 A 
ATOM     67  C   UNL     1       4.304  -7.409   2.642  1.00  0.00     0.048 A 
ATOM     68  C   UNL     1       4.620  -7.902   3.909  1.00  0.00     0.026 A 
BRANCH  65  69
ATOM     69  O   UNL     1       4.901  -6.104   0.746  1.00  0.00    -0.507 OA
ATOM     70  H   UNL     1       5.497  -5.530   0.305  1.00  0.00     0.293 HD
ENDBRANCH  65  69
BRANCH  66  71
ATOM     71  S   UNL     1       6.546  -8.604   5.830  1.00  0.00     0.261 S 
ATOM     72  O   UNL     1       7.736  -9.263   5.340  1.00  0.00    -0.201 OA
ATOM     73  O   UNL     1       6.596  -7.689   6.953  1.00  0.00    -0.201 OA
BRANCH  71  74
ATOM     74  N   UNL     1       5.457  -9.794   6.295  1.00  0.00    -0.280 N 
ATOM     75  H   UNL     1       5.336  -9.950   7.260  1.00  0.00     0.180 HD
BRANCH  74  76
ATOM     76  C   UNL     1       4.696 -10.593   5.400  1.00  0.00     0.050 A 
ATOM     77  C   UNL     1       5.163 -11.018   4.154  1.00  0.00     0.027 A 
ATOM     78  C   UNL     1       3.365 -10.825   5.761  1.00  0.00     0.047 A 
ATOM     79  C   UNL     1       4.263 -11.548   3.223  1.00  0.00     0.004 A 
ATOM     80  C   UNL     1       2.476 -11.356   4.831  1.00  0.00     0.043 A 
ATOM     81  C   UNL     1       2.913 -11.696   3.554  1.00  0.00     0.020 A 
ATOM     82  Cl  UNL     1       0.814 -11.514   5.242  1.00  0.00    -0.084 Cl
ENDBRANCH  74  76
ENDBRANCH  71  74
ENDBRANCH  66  71
ENDBRANCH  60  63
ENDBRANCH  58  59
ENDBRANCH   1  58
TORSDOF 15
