REMARK SMILES COc1ccc(N2C(=O)/C(=C/c3c(C(=O)NCCCCNC(=O)c4ccc(-c5c6nc(c(-c7ccccc7)c7ccc([nH]7)c(-c7ccccc7)c7nc(c(-c8ccccc8)c8ccc5[nH]8)C=C7)C=C6)cc4)[nH]c4cc(OC)ccc34)SC2=S)cc1
REMARK SMILES IDX 18 1 17 2 16 3 14 4 15 5 13 7 12 8 80 9 72 10 73 11 79 12
REMARK SMILES IDX 74 14 78 15 75 16 11 17 7 18 8 19 82 20 9 21 10 22 81 23
REMARK SMILES IDX 83 24 6 25 3 26 4 27 85 28 5 29 84 30 2 31 1 32 76 33 77 34
REMARK SMILES IDX 19 35 20 36 21 37 22 38 23 40 24 41 25 42 71 43 26 44 70 45
REMARK SMILES IDX 27 46 28 47 29 48 64 49 30 50 69 51 63 52 65 53 31 54 68 55
REMARK SMILES IDX 62 56 61 57 32 59 54 60 39 61 53 62 40 63 43 64 52 65 66 66
REMARK SMILES IDX 41 67 42 68 51 70 67 71 44 72 33 73 34 74 38 75 35 76 37 77
REMARK SMILES IDX 36 78 55 79 56 80 60 81 57 82 59 83 58 84 45 85 46 86 50 87
REMARK SMILES IDX 47 88 49 89 48 90
REMARK H PARENT 16 6 72 13 21 39 65 58 43 69
REMARK Flexibility Score: inf
ROOT
ATOM      1  C   UNL     1      -0.704   8.127  -2.877  1.00  0.00     0.023 C 
ENDROOT
BRANCH   1   2
ATOM      2  C   UNL     1       0.607   8.883  -2.628  1.00  0.00     0.116 C 
BRANCH   2   3
ATOM      3  N   UNL     1       1.607   8.790  -3.684  1.00  0.00    -0.351 N 
ATOM      4  C   UNL     1       2.623   9.671  -4.013  1.00  0.00     0.268 C 
ATOM      5  O   UNL     1       3.230   9.466  -5.064  1.00  0.00    -0.268 OA
ATOM      6  H   UNL     1       1.552   7.984  -4.246  1.00  0.00     0.163 HD
BRANCH   4   7
ATOM      7  C   UNL     1       2.927  10.821  -3.186  1.00  0.00     0.112 A 
ATOM      8  C   UNL     1       3.022  11.051  -1.809  1.00  0.00     0.014 A 
ATOM      9  C   UNL     1       2.884  12.488  -1.651  1.00  0.00     0.008 A 
ATOM     10  N   UNL     1       3.405  11.975  -3.754  1.00  0.00    -0.350 N 
ATOM     11  C   UNL     1       3.142  13.023  -2.917  1.00  0.00     0.050 A 
ATOM     12  C   UNL     1       2.566  13.436  -0.639  1.00  0.00     0.015 A 
ATOM     13  H   UNL     1       3.862  12.038  -4.624  1.00  0.00     0.167 HD
ATOM     14  C   UNL     1       3.101  14.381  -3.232  1.00  0.00     0.073 A 
ATOM     15  C   UNL     1       2.445  14.825  -0.965  1.00  0.00     0.047 A 
ATOM     16  C   UNL     1       2.706  15.286  -2.254  1.00  0.00     0.120 A 
BRANCH   8  17
ATOM     17  C   UNL     1       3.041   9.921  -0.901  1.00  0.00     0.032 C 
ATOM     18  N   UNL     1       3.758   6.632  -2.030  1.00  0.00    -0.261 N 
ATOM     19  C   UNL     1       3.282   7.426  -0.969  1.00  0.00     0.270 C 
ATOM     20  C   UNL     1       4.809   7.151  -2.761  1.00  0.00     0.152 C 
ATOM     21  O   UNL     1       2.497   7.112  -0.085  1.00  0.00    -0.268 OA
ATOM     22  C   UNL     1       3.815   8.825  -1.129  1.00  0.00     0.081 C 
ATOM     23  S   UNL     1       5.229   8.739  -2.126  1.00  0.00    -0.054 SA
ATOM     24  S   UNL     1       5.623   6.462  -4.046  1.00  0.00    -0.051 S 
BRANCH  18  25
ATOM     25  C   UNL     1       3.277   5.306  -2.225  1.00  0.00     0.051 A 
ATOM     26  C   UNL     1       1.923   2.851  -1.962  1.00  0.00     0.119 A 
ATOM     27  C   UNL     1       1.488   3.783  -2.904  1.00  0.00     0.048 A 
ATOM     28  C   UNL     1       3.236   3.030  -1.476  1.00  0.00     0.048 A 
ATOM     29  C   UNL     1       2.188   5.004  -3.053  1.00  0.00     0.030 A 
ATOM     30  C   UNL     1       3.871   4.270  -1.534  1.00  0.00     0.030 A 
BRANCH  26  31
ATOM     31  O   UNL     1       0.890   1.950  -1.439  1.00  0.00    -0.497 OA
ATOM     32  C   UNL     1       0.025   0.850   0.001  1.00  0.00     0.278 C 
ENDBRANCH  26  31
ENDBRANCH  18  25
ENDBRANCH   8  17
BRANCH  16  33
ATOM     33  O   UNL     1       2.558  16.549  -2.752  1.00  0.00    -0.497 OA
ATOM     34  C   UNL     1       2.595  17.653  -1.867  1.00  0.00     0.278 C 
ENDBRANCH  16  33
ENDBRANCH   4   7
ENDBRANCH   2   3
ENDBRANCH   1   2
BRANCH   1  35
ATOM     35  C   UNL     1      -0.792   6.618  -2.530  1.00  0.00     0.023 C 
BRANCH  35  36
ATOM     36  C   UNL     1      -0.318   6.181  -1.127  1.00  0.00     0.116 C 
BRANCH  36  37
ATOM     37  N   UNL     1      -1.210   5.247  -0.435  1.00  0.00    -0.352 N 
ATOM     38  C   UNL     1      -0.739   4.263   0.425  1.00  0.00     0.251 C 
ATOM     39  H   UNL     1      -2.180   5.318  -0.586  1.00  0.00     0.163 HD
ATOM     40  O   UNL     1      -1.016   4.263   1.619  1.00  0.00    -0.269 OA
BRANCH  38  41
ATOM     41  C   UNL     1      -0.114   3.061  -0.152  1.00  0.00     0.039 A 
ATOM     42  C   UNL     1      -1.063   2.207  -1.409  1.00  0.00     0.014 A 
ATOM     43  C   UNL     1       1.441   2.359   0.429  1.00  0.00     0.014 A 
ATOM     44  C   UNL     1      -0.444   0.708  -2.150  1.00  0.00     0.010 A 
ATOM     45  C   UNL     1       2.101   0.835  -0.371  1.00  0.00     0.010 A 
ATOM     46  C   UNL     1       1.181   0.035  -1.714  1.00  0.00    -0.014 A 
BRANCH  46  47
ATOM     47  C   UNL     1       1.746  -1.045  -2.607  1.00  0.00     0.031 A 
ATOM     48  C   UNL     1       2.647  -2.139  -2.089  1.00  0.00     0.074 A 
ATOM     49  C   UNL     1       1.494  -1.024  -3.941  1.00  0.00     0.049 A 
ATOM     50  N   UNL     1       3.270  -3.086  -2.753  1.00  0.00    -0.248 NA
ATOM     51  C   UNL     1       2.942  -2.142  -0.653  1.00  0.00     0.031 C 
ATOM     52  C   UNL     1       0.763   0.018  -4.666  1.00  0.00     0.029 A 
ATOM     53  N   UNL     1       1.807  -1.921  -4.945  1.00  0.00    -0.354 N 
ATOM     54  C   UNL     1       4.074  -3.739  -1.825  1.00  0.00     0.074 A 
ATOM     55  C   UNL     1       3.924  -3.026  -0.577  1.00  0.00     0.031 C 
ATOM     56  C   UNL     1       0.543  -0.362  -5.930  1.00  0.00     0.029 A 
ATOM     57  C   UNL     1       1.251  -1.608  -6.169  1.00  0.00     0.049 A 
ATOM     58  H   UNL     1       2.375  -2.711  -4.800  1.00  0.00     0.167 HD
ATOM     59  C   UNL     1       4.831  -4.857  -1.967  1.00  0.00     0.031 A 
ATOM     60  C   UNL     1       1.315  -2.217  -7.369  1.00  0.00     0.031 A 
ATOM     61  C   UNL     1       4.947  -5.610  -3.187  1.00  0.00     0.049 A 
ATOM     62  C   UNL     1       2.155  -3.451  -7.512  1.00  0.00     0.074 A 
ATOM     63  C   UNL     1       5.629  -6.793  -3.412  1.00  0.00     0.029 A 
ATOM     64  N   UNL     1       4.359  -5.252  -4.391  1.00  0.00    -0.354 N 
ATOM     65  N   UNL     1       2.832  -4.096  -6.595  1.00  0.00    -0.248 NA
ATOM     66  C   UNL     1       2.253  -4.034  -8.858  1.00  0.00     0.031 C 
ATOM     67  C   UNL     1       5.496  -7.124  -4.765  1.00  0.00     0.029 A 
ATOM     68  C   UNL     1       4.687  -6.176  -5.370  1.00  0.00     0.049 A 
ATOM     69  H   UNL     1       3.793  -4.459  -4.530  1.00  0.00     0.167 HD
ATOM     70  C   UNL     1       3.426  -5.165  -7.248  1.00  0.00     0.074 A 
ATOM     71  C   UNL     1       3.005  -5.103  -8.632  1.00  0.00     0.031 C 
ATOM     72  C   UNL     1       4.257  -6.108  -6.743  1.00  0.00     0.031 A 
BRANCH  59  73
ATOM     73  C   UNL     1       5.588  -5.324  -0.749  1.00  0.00    -0.014 A 
ATOM     74  C   UNL     1       4.913  -5.781   0.397  1.00  0.00     0.009 A 
ATOM     75  C   UNL     1       6.990  -5.267  -0.725  1.00  0.00     0.009 A 
ATOM     76  C   UNL     1       5.615  -6.077   1.566  1.00  0.00     0.001 A 
ATOM     77  C   UNL     1       7.694  -5.607   0.433  1.00  0.00     0.001 A 
ATOM     78  C   UNL     1       7.006  -5.987   1.584  1.00  0.00     0.000 A 
ENDBRANCH  59  73
BRANCH  60  79
ATOM     79  C   UNL     1       0.568  -1.672  -8.542  1.00  0.00    -0.014 A 
ATOM     80  C   UNL     1      -0.509  -2.389  -9.089  1.00  0.00     0.009 A 
ATOM     81  C   UNL     1       0.926  -0.448  -9.131  1.00  0.00     0.009 A 
ATOM     82  C   UNL     1      -1.191  -1.909 -10.210  1.00  0.00     0.001 A 
ATOM     83  C   UNL     1       0.220   0.048 -10.231  1.00  0.00     0.001 A 
ATOM     84  C   UNL     1      -0.830  -0.688 -10.777  1.00  0.00     0.000 A 
ENDBRANCH  60  79
BRANCH  72  85
ATOM     85  C   UNL     1       4.753  -7.167  -7.686  1.00  0.00    -0.014 A 
ATOM     86  C   UNL     1       5.715  -6.872  -8.664  1.00  0.00     0.009 A 
ATOM     87  C   UNL     1       4.307  -8.490  -7.544  1.00  0.00     0.009 A 
ATOM     88  C   UNL     1       6.211  -7.881  -9.491  1.00  0.00     0.001 A 
ATOM     89  C   UNL     1       4.827  -9.502  -8.351  1.00  0.00     0.001 A 
ATOM     90  C   UNL     1       5.775  -9.196  -9.326  1.00  0.00     0.000 A 
ENDBRANCH  72  85
ENDBRANCH  46  47
ENDBRANCH  38  41
ENDBRANCH  36  37
ENDBRANCH  35  36
ENDBRANCH   1  35
TORSDOF 15
