REMARK SMILES COc1ccccc1[C@@H]1CN(C(=O)Cc2csc(C)n2)C[C@H]1C(=O)NCCCCNC(=O)c1ccc(-c2c3nc(c(-c4ccccc4)c4ccc([nH]4)c(-c4ccccc4)c4nc(c(-c5ccccc5)c5ccc2[nH]5)C=C4)C=C3)cc1
REMARK SMILES IDX 27 1 26 2 25 3 23 4 24 5 22 7 9 8 10 9 11 10 21 11 8 12 3 13
REMARK SMILES IDX 4 14 5 15 7 16 6 17 2 18 1 19 12 20 13 21 14 22 15 23 16 24
REMARK SMILES IDX 20 25 17 26 18 27 19 28 28 29 29 30 30 31 31 32 32 34 33 35
REMARK SMILES IDX 34 36 80 37 35 38 79 39 36 40 37 41 38 42 73 43 39 44 78 45
REMARK SMILES IDX 72 46 74 47 40 48 77 49 71 50 70 51 41 53 63 54 48 55 62 56
REMARK SMILES IDX 49 57 52 58 61 59 75 60 50 61 51 62 60 64 76 65 53 66 42 67
REMARK SMILES IDX 43 68 47 69 44 70 46 71 45 72 64 73 65 74 69 75 66 76 68 77
REMARK SMILES IDX 67 78 54 79 55 80 59 81 56 82 58 83 57 84
REMARK H PARENT 25 6 30 33 74 52 52 63
REMARK Flexibility Score: inf
ROOT
ATOM      1  C   UNL     1       6.290  -2.846  -1.223  1.00  0.00     0.023 C 
ENDROOT
BRANCH   1   2
ATOM      2  C   UNL     1       5.709  -1.499  -1.644  1.00  0.00     0.116 C 
BRANCH   2   3
ATOM      3  N   UNL     1       4.518  -1.658  -2.457  1.00  0.00    -0.356 N 
ATOM      4  C   UNL     1       3.220  -1.344  -2.213  1.00  0.00     0.225 C 
ATOM      5  O   UNL     1       2.405  -1.594  -3.106  1.00  0.00    -0.275 OA
ATOM      6  H   UNL     1       4.679  -2.064  -3.340  1.00  0.00     0.163 HD
BRANCH   4   7
ATOM      7  C   UNL     1       2.759  -0.700  -0.919  1.00  0.00     0.107 C 
ATOM      8  C   UNL     1       3.021  -1.544   0.342  1.00  0.00     0.057 C 
ATOM      9  C   UNL     1       3.411  -0.526   1.412  1.00  0.00     0.128 C 
ATOM     10  N   UNL     1       3.993   0.578   0.664  1.00  0.00    -0.341 N 
ATOM     11  C   UNL     1       3.430   0.651  -0.673  1.00  0.00     0.133 C 
BRANCH   8  12
ATOM     12  C   UNL     1       1.931  -2.530   0.705  1.00  0.00    -0.000 A 
ATOM     13  C   UNL     1       0.690  -2.182   1.261  1.00  0.00     0.122 A 
ATOM     14  C   UNL     1      -0.251  -3.164   1.588  1.00  0.00     0.047 A 
ATOM     15  C   UNL     1       0.025  -4.510   1.355  1.00  0.00     0.004 A 
ATOM     16  C   UNL     1       2.184  -3.897   0.472  1.00  0.00     0.008 A 
ATOM     17  C   UNL     1       1.246  -4.878   0.802  1.00  0.00     0.001 A 
BRANCH  13  18
ATOM     18  O   UNL     1       0.411  -0.898   1.641  1.00  0.00    -0.496 OA
ATOM     19  C   UNL     1      -0.291  -0.165   0.640  1.00  0.00     0.278 C 
ENDBRANCH  13  18
ENDBRANCH   8  12
BRANCH  10  20
ATOM     20  C   UNL     1       4.859   1.541   1.138  1.00  0.00     0.228 C 
ATOM     21  O   UNL     1       5.227   2.477   0.423  1.00  0.00    -0.274 OA
BRANCH  20  22
ATOM     22  C   UNL     1       5.401   1.394   2.551  1.00  0.00     0.157 C 
BRANCH  22  23
ATOM     23  C   UNL     1       4.353   1.679   3.571  1.00  0.00     0.061 A 
ATOM     24  C   UNL     1       3.886   2.920   3.960  1.00  0.00     0.091 A 
ATOM     25  N   UNL     1       3.743   0.608   4.208  1.00  0.00    -0.246 NA
ATOM     26  S   UNL     1       2.608   2.740   5.087  1.00  0.00    -0.127 S 
ATOM     27  C   UNL     1       2.769   1.034   4.981  1.00  0.00     0.090 A 
ATOM     28  C   UNL     1       1.832   0.140   5.713  1.00  0.00     0.079 C 
ENDBRANCH  22  23
ENDBRANCH  20  22
ENDBRANCH  10  20
ENDBRANCH   4   7
ENDBRANCH   2   3
ENDBRANCH   1   2
BRANCH   1  29
ATOM     29  C   UNL     1       6.807  -3.700  -2.379  1.00  0.00     0.023 C 
BRANCH  29  30
ATOM     30  C   UNL     1       7.769  -2.986  -3.320  1.00  0.00     0.116 C 
BRANCH  30  31
ATOM     31  N   UNL     1       8.911  -2.404  -2.630  1.00  0.00    -0.352 N 
ATOM     32  C   UNL     1      10.242  -2.466  -2.970  1.00  0.00     0.251 C 
ATOM     33  H   UNL     1       8.703  -1.899  -1.811  1.00  0.00     0.163 HD
ATOM     34  O   UNL     1      11.104  -2.023  -2.229  1.00  0.00    -0.269 OA
BRANCH  32  35
ATOM     35  C   UNL     1      10.609  -3.121  -4.240  1.00  0.00     0.039 A 
ATOM     36  C   UNL     1      11.518  -4.179  -4.213  1.00  0.00     0.014 A 
ATOM     37  C   UNL     1       9.983  -2.742  -5.430  1.00  0.00     0.014 A 
ATOM     38  C   UNL     1      11.738  -4.920  -5.373  1.00  0.00     0.010 A 
ATOM     39  C   UNL     1      10.152  -3.523  -6.567  1.00  0.00     0.010 A 
ATOM     40  C   UNL     1      11.021  -4.626  -6.544  1.00  0.00    -0.014 A 
BRANCH  40  41
ATOM     41  C   UNL     1      11.133  -5.477  -7.753  1.00  0.00     0.031 A 
ATOM     42  C   UNL     1      11.689  -4.904  -9.025  1.00  0.00     0.074 A 
ATOM     43  C   UNL     1      10.641  -6.732  -7.730  1.00  0.00     0.049 A 
ATOM     44  N   UNL     1      11.762  -5.450 -10.211  1.00  0.00    -0.248 NA
ATOM     45  C   UNL     1      12.201  -3.525  -8.963  1.00  0.00     0.031 C 
ATOM     46  C   UNL     1      10.028  -7.385  -6.570  1.00  0.00     0.029 A 
ATOM     47  N   UNL     1      10.557  -7.675  -8.723  1.00  0.00    -0.354 N 
ATOM     48  C   UNL     1      12.299  -4.475 -11.041  1.00  0.00     0.074 A 
ATOM     49  C   UNL     1      12.503  -3.293 -10.232  1.00  0.00     0.031 C 
ATOM     50  C   UNL     1       9.640  -8.623  -6.916  1.00  0.00     0.029 A 
ATOM     51  C   UNL     1       9.939  -8.837  -8.328  1.00  0.00     0.049 A 
ATOM     52  H   UNL     1      10.907  -7.533  -9.632  1.00  0.00     0.167 HD
ATOM     53  C   UNL     1      12.605  -4.561 -12.356  1.00  0.00     0.031 A 
ATOM     54  C   UNL     1       9.629  -9.944  -9.030  1.00  0.00     0.031 A 
ATOM     55  C   UNL     1      12.429  -5.745 -13.152  1.00  0.00     0.049 A 
ATOM     56  C   UNL     1       9.992 -10.014 -10.487  1.00  0.00     0.074 A 
ATOM     57  C   UNL     1      12.794  -5.958 -14.469  1.00  0.00     0.029 A 
ATOM     58  N   UNL     1      11.833  -6.913 -12.705  1.00  0.00    -0.354 N 
ATOM     59  N   UNL     1      10.584  -9.115 -11.234  1.00  0.00    -0.248 NA
ATOM     60  C   UNL     1       9.649 -11.256 -11.195  1.00  0.00     0.031 C 
ATOM     61  C   UNL     1      12.374  -7.240 -14.836  1.00  0.00     0.029 A 
ATOM     62  C   UNL     1      11.792  -7.841 -13.732  1.00  0.00     0.049 A 
ATOM     63  H   UNL     1      11.490  -7.062 -11.794  1.00  0.00     0.167 HD
ATOM     64  C   UNL     1      10.704  -9.690 -12.492  1.00  0.00     0.074 A 
ATOM     65  C   UNL     1      10.142 -11.021 -12.402  1.00  0.00     0.031 C 
ATOM     66  C   UNL     1      11.230  -9.161 -13.623  1.00  0.00     0.031 A 
BRANCH  53  67
ATOM     67  C   UNL     1      13.158  -3.336 -13.025  1.00  0.00    -0.014 A 
ATOM     68  C   UNL     1      14.465  -2.894 -12.772  1.00  0.00     0.009 A 
ATOM     69  C   UNL     1      12.377  -2.647 -13.967  1.00  0.00     0.009 A 
ATOM     70  C   UNL     1      14.971  -1.771 -13.430  1.00  0.00     0.001 A 
ATOM     71  C   UNL     1      12.894  -1.541 -14.642  1.00  0.00     0.001 A 
ATOM     72  C   UNL     1      14.188  -1.100 -14.369  1.00  0.00     0.000 A 
ENDBRANCH  53  67
BRANCH  54  73
ATOM     73  C   UNL     1       8.927 -11.077  -8.372  1.00  0.00    -0.014 A 
ATOM     74  C   UNL     1       9.593 -12.289  -8.135  1.00  0.00     0.009 A 
ATOM     75  C   UNL     1       7.577 -10.961  -8.005  1.00  0.00     0.009 A 
ATOM     76  C   UNL     1       8.912 -13.372  -7.574  1.00  0.00     0.001 A 
ATOM     77  C   UNL     1       6.907 -12.036  -7.418  1.00  0.00     0.001 A 
ATOM     78  C   UNL     1       7.572 -13.245  -7.214  1.00  0.00     0.000 A 
ENDBRANCH  54  73
BRANCH  66  79
ATOM     79  C   UNL     1      11.248 -10.034 -14.845  1.00  0.00    -0.014 A 
ATOM     80  C   UNL     1      10.071 -10.306 -15.559  1.00  0.00     0.009 A 
ATOM     81  C   UNL     1      12.465 -10.554 -15.310  1.00  0.00     0.009 A 
ATOM     82  C   UNL     1      10.110 -11.109 -16.700  1.00  0.00     0.001 A 
ATOM     83  C   UNL     1      12.505 -11.333 -16.467  1.00  0.00     0.001 A 
ATOM     84  C   UNL     1      11.326 -11.617 -17.156  1.00  0.00     0.000 A 
ENDBRANCH  66  79
ENDBRANCH  40  41
ENDBRANCH  32  35
ENDBRANCH  30  31
ENDBRANCH  29  30
ENDBRANCH   1  29
TORSDOF 16
