REMARK SMILES O=C(C[C@@H]1CN(C(=O)C[NH2+]CC2CC2)CCO1)NCCCCNC(=O)c1ccc(-c2c3nc(c(-c4ccccc4)c4ccc([nH]4)c(-c4ccccc4)c4nc(c(-c5ccccc5)c5ccc2[nH]5)C=C4)C=C3)cc1
REMARK SMILES IDX 1 1 2 2 18 3 3 5 4 6 5 7 17 8 6 9 16 10 15 11 7 12 8 13 9 14
REMARK SMILES IDX 10 15 11 18 12 19 13 20 14 21 19 22 20 23 21 24 22 25 23 26
REMARK SMILES IDX 24 27 25 29 26 30 27 31 73 32 28 33 72 34 29 35 30 36 31 37
REMARK SMILES IDX 66 38 32 39 71 40 65 41 67 42 33 43 70 44 64 45 63 46 34 48
REMARK SMILES IDX 56 49 41 50 55 51 42 52 45 53 54 54 68 55 43 56 44 57 53 59
REMARK SMILES IDX 69 60 46 61 35 62 36 63 40 64 37 65 39 66 38 67 57 68 58 69
REMARK SMILES IDX 62 70 59 71 61 72 60 73 47 74 48 75 52 76 49 77 51 78 50 79
REMARK H PARENT 18 4 10 16 10 17 23 28 67 47 45 58
REMARK Flexibility Score: inf
ROOT
ATOM      1  O   UNL     1       0.989   0.095   0.380  1.00  0.00    -0.275 OA
ATOM      2  C   UNL     1       2.160  -0.030   0.032  1.00  0.00     0.222 C 
ATOM      3  N   UNL     1       2.831  -1.238   0.031  1.00  0.00    -0.356 N 
ATOM      4  H   UNL     1       3.746  -1.277  -0.329  1.00  0.00     0.163 HD
ENDROOT
BRANCH   2   5
ATOM      5  C   UNL     1       3.014   1.161  -0.356  1.00  0.00     0.133 C 
BRANCH   5   6
ATOM      6  C   UNL     1       3.708   1.849   0.831  1.00  0.00     0.147 C 
ATOM      7  C   UNL     1       3.613   1.094   2.173  1.00  0.00     0.152 C 
ATOM      8  O   UNL     1       3.170   3.187   0.971  1.00  0.00    -0.374 OA
ATOM      9  N   UNL     1       4.258   1.870   3.235  1.00  0.00    -0.333 N 
ATOM     10  C   UNL     1       3.856   3.930   1.998  1.00  0.00     0.182 C 
ATOM     11  C   UNL     1       3.747   3.231   3.355  1.00  0.00     0.148 C 
BRANCH   9  12
ATOM     12  C   UNL     1       5.260   1.433   4.076  1.00  0.00     0.277 C 
ATOM     13  O   UNL     1       5.713   2.136   4.983  1.00  0.00    -0.268 OA
BRANCH  12  14
ATOM     14  C   UNL     1       5.855   0.051   3.827  1.00  0.00     0.362 C 
BRANCH  14  15
ATOM     15  N   UNL     1       4.901  -1.004   4.199  1.00  0.00    -0.338 N 
ATOM     16  H   UNL     1       4.043  -0.876   3.663  1.00  0.00     0.346 HD
ATOM     17  H   UNL     1       4.723  -0.930   5.201  1.00  0.00     0.346 HD
BRANCH  15  18
ATOM     18  C   UNL     1       5.429  -2.330   3.932  1.00  0.00     0.264 C 
BRANCH  18  19
ATOM     19  C   UNL     1       6.526  -2.691   4.882  1.00  0.00     0.044 C 
ATOM     20  C   UNL     1       7.595  -3.624   4.397  1.00  0.00     0.010 C 
ATOM     21  C   UNL     1       7.958  -2.217   4.725  1.00  0.00     0.010 C 
ENDBRANCH  18  19
ENDBRANCH  15  18
ENDBRANCH  14  15
ENDBRANCH  12  14
ENDBRANCH   9  12
ENDBRANCH   5   6
ENDBRANCH   2   5
BRANCH   3  22
ATOM     22  C   UNL     1       2.224  -2.455   0.548  1.00  0.00     0.116 C 
BRANCH  22  23
ATOM     23  C   UNL     1       2.471  -3.678  -0.340  1.00  0.00     0.023 C 
BRANCH  23  24
ATOM     24  C   UNL     1       3.921  -4.175  -0.390  1.00  0.00     0.023 C 
BRANCH  24  25
ATOM     25  C   UNL     1       4.445  -4.835   0.889  1.00  0.00     0.116 C 
BRANCH  25  26
ATOM     26  N   UNL     1       3.892  -6.163   1.127  1.00  0.00    -0.352 N 
ATOM     27  C   UNL     1       4.503  -7.350   1.469  1.00  0.00     0.251 C 
ATOM     28  H   UNL     1       2.914  -6.221   1.025  1.00  0.00     0.163 HD
ATOM     29  O   UNL     1       3.827  -8.381   1.507  1.00  0.00    -0.269 OA
BRANCH  27  30
ATOM     30  C   UNL     1       5.956  -7.434   1.769  1.00  0.00     0.039 A 
ATOM     31  C   UNL     1       6.691  -8.554   1.354  1.00  0.00     0.014 A 
ATOM     32  C   UNL     1       6.609  -6.436   2.482  1.00  0.00     0.014 A 
ATOM     33  C   UNL     1       8.081  -8.619   1.564  1.00  0.00     0.010 A 
ATOM     34  C   UNL     1       8.000  -6.471   2.614  1.00  0.00     0.010 A 
ATOM     35  C   UNL     1       8.762  -7.545   2.153  1.00  0.00    -0.014 A 
BRANCH  35  36
ATOM     36  C   UNL     1      10.250  -7.419   2.189  1.00  0.00     0.031 A 
ATOM     37  C   UNL     1      11.015  -7.171   3.472  1.00  0.00     0.074 A 
ATOM     38  C   UNL     1      10.910  -7.297   1.018  1.00  0.00     0.049 A 
ATOM     39  N   UNL     1      12.301  -6.967   3.639  1.00  0.00    -0.248 NA
ATOM     40  C   UNL     1      10.236  -7.080   4.717  1.00  0.00     0.031 C 
ATOM     41  C   UNL     1      10.293  -7.323  -0.310  1.00  0.00     0.029 A 
ATOM     42  N   UNL     1      12.244  -7.092   0.758  1.00  0.00    -0.354 N 
ATOM     43  C   UNL     1      12.478  -6.696   4.992  1.00  0.00     0.074 A 
ATOM     44  C   UNL     1      11.160  -6.705   5.591  1.00  0.00     0.031 C 
ATOM     45  C   UNL     1      11.246  -7.178  -1.242  1.00  0.00     0.029 A 
ATOM     46  C   UNL     1      12.539  -7.032  -0.582  1.00  0.00     0.049 A 
ATOM     47  H   UNL     1      12.923  -6.998   1.465  1.00  0.00     0.167 HD
ATOM     48  C   UNL     1      13.628  -6.486   5.681  1.00  0.00     0.031 A 
ATOM     49  C   UNL     1      13.715  -6.896  -1.222  1.00  0.00     0.031 A 
ATOM     50  C   UNL     1      14.947  -6.519   5.100  1.00  0.00     0.049 A 
ATOM     51  C   UNL     1      14.988  -6.798  -0.437  1.00  0.00     0.074 A 
ATOM     52  C   UNL     1      16.174  -6.490   5.744  1.00  0.00     0.029 A 
ATOM     53  N   UNL     1      15.213  -6.579   3.743  1.00  0.00    -0.354 N 
ATOM     54  N   UNL     1      15.153  -6.728   0.860  1.00  0.00    -0.248 NA
ATOM     55  C   UNL     1      16.240  -6.794  -1.208  1.00  0.00     0.031 C 
ATOM     56  C   UNL     1      17.182  -6.490   4.773  1.00  0.00     0.029 A 
ATOM     57  C   UNL     1      16.583  -6.569   3.528  1.00  0.00     0.049 A 
ATOM     58  H   UNL     1      14.531  -6.623   3.035  1.00  0.00     0.167 HD
ATOM     59  C   UNL     1      16.526  -6.703   1.063  1.00  0.00     0.074 A 
ATOM     60  C   UNL     1      17.148  -6.776  -0.242  1.00  0.00     0.031 C 
ATOM     61  C   UNL     1      17.206  -6.633   2.233  1.00  0.00     0.031 A 
BRANCH  48  62
ATOM     62  C   UNL     1      13.532  -6.242   7.166  1.00  0.00    -0.014 A 
ATOM     63  C   UNL     1      13.130  -7.262   8.044  1.00  0.00     0.009 A 
ATOM     64  C   UNL     1      13.941  -5.011   7.706  1.00  0.00     0.009 A 
ATOM     65  C   UNL     1      13.103  -7.044   9.423  1.00  0.00     0.001 A 
ATOM     66  C   UNL     1      13.943  -4.806   9.088  1.00  0.00     0.001 A 
ATOM     67  C   UNL     1      13.516  -5.819   9.945  1.00  0.00     0.000 A 
ENDBRANCH  48  62
BRANCH  49  68
ATOM     68  C   UNL     1      13.743  -6.949  -2.704  1.00  0.00    -0.014 A 
ATOM     69  C   UNL     1      14.146  -8.127  -3.350  1.00  0.00     0.009 A 
ATOM     70  C   UNL     1      13.338  -5.849  -3.473  1.00  0.00     0.009 A 
ATOM     71  C   UNL     1      14.163  -8.197  -4.743  1.00  0.00     0.001 A 
ATOM     72  C   UNL     1      13.334  -5.931  -4.867  1.00  0.00     0.001 A 
ATOM     73  C   UNL     1      13.752  -7.102  -5.500  1.00  0.00     0.000 A 
ENDBRANCH  49  68
BRANCH  61  74
ATOM     74  C   UNL     1      18.706  -6.662   2.161  1.00  0.00    -0.014 A 
ATOM     75  C   UNL     1      19.436  -5.558   1.693  1.00  0.00     0.009 A 
ATOM     76  C   UNL     1      19.400  -7.803   2.591  1.00  0.00     0.009 A 
ATOM     77  C   UNL     1      20.830  -5.612   1.623  1.00  0.00     0.001 A 
ATOM     78  C   UNL     1      20.794  -7.845   2.544  1.00  0.00     0.001 A 
ATOM     79  C   UNL     1      21.508  -6.753   2.051  1.00  0.00     0.000 A 
ENDBRANCH  61  74
ENDBRANCH  35  36
ENDBRANCH  27  30
ENDBRANCH  25  26
ENDBRANCH  24  25
ENDBRANCH  23  24
ENDBRANCH  22  23
ENDBRANCH   3  22
TORSDOF 17
