REMARK SMILES CC1(C)O[C@H]2C[C@H]3[C@@H]4CCC5=CC(=O)C=C[C@]5(C)[C@@]4(F)[C@H](O)C[C@@]3(C)[C@@]2(C(=O)NCCCCNC(=O)c2ccc(-c3c4nc(c(-c5ccccc5)c5ccc([nH]5)c(-c5ccccc5)c5nc(c(-c6ccccc6)c6ccc3[nH]6)C=C5)C=C4)cc2)O1
REMARK SMILES IDX 32 1 31 2 30 3 29 4 27 5 28 6 26 8 1 9 2 10 3 11 4 12 85 13
REMARK SMILES IDX 5 14 6 15 24 16 7 17 23 18 25 19 8 20 21 21 9 22 19 23 10 24
REMARK SMILES IDX 17 25 20 26 11 27 16 28 18 29 12 30 15 31 13 32 14 33 22 34
REMARK SMILES IDX 33 36 34 37 35 38 36 40 37 41 38 42 84 43 39 44 83 45 40 46
REMARK SMILES IDX 41 47 42 48 77 49 43 50 82 51 76 52 78 53 44 54 81 55 75 56
REMARK SMILES IDX 74 57 45 59 67 60 52 61 66 62 53 63 56 64 65 65 79 66 54 67
REMARK SMILES IDX 55 68 64 70 80 71 57 72 46 73 47 74 51 75 48 76 50 77 49 78
REMARK SMILES IDX 68 79 69 80 73 81 70 82 72 83 71 84 58 85 59 86 63 87 60 88
REMARK SMILES IDX 62 89 61 90
REMARK H PARENT 29 7 22 35 34 39 78 58 56 69
REMARK Flexibility Score: inf
ROOT
ATOM      1  C   UNL     1      -4.017  -1.596   4.662  1.00  0.00     0.023 C 
ENDROOT
BRANCH   1   2
ATOM      2  C   UNL     1      -2.833  -1.339   3.738  1.00  0.00     0.023 C 
BRANCH   2   3
ATOM      3  C   UNL     1      -1.899  -2.516   3.518  1.00  0.00     0.116 C 
BRANCH   3   4
ATOM      4  N   UNL     1      -2.188  -3.475   2.476  1.00  0.00    -0.353 N 
ATOM      5  C   UNL     1      -1.260  -4.091   1.644  1.00  0.00     0.255 C 
ATOM      6  O   UNL     1      -1.621  -5.068   0.988  1.00  0.00    -0.272 OA
ATOM      7  H   UNL     1      -3.133  -3.716   2.342  1.00  0.00     0.163 HD
BRANCH   5   8
ATOM      8  C   UNL     1       0.174  -3.506   1.534  1.00  0.00     0.181 C 
ATOM      9  C   UNL     1       1.044  -0.650  -0.371  1.00  0.00     0.075 C 
ATOM     10  C   UNL     1       0.176  -1.896  -0.161  1.00  0.00     0.164 C 
ATOM     11  C   UNL     1      -1.164  -1.713  -0.859  1.00  0.00     0.075 C 
ATOM     12  O   UNL     1       0.825  -3.025  -0.742  1.00  0.00    -0.344 OA
ATOM     13  O   UNL     1      -0.024  -2.089   1.253  1.00  0.00    -0.331 OA
ATOM     14  C   UNL     1       1.044  -3.978   0.301  1.00  0.00     0.164 C 
ATOM     15  C   UNL     1       2.583  -3.880   0.749  1.00  0.00     0.040 C 
ATOM     16  C   UNL     1       1.199  -3.801   2.723  1.00  0.00     0.014 C 
ATOM     17  C   UNL     1       2.442  -3.115   2.070  1.00  0.00     0.008 C 
ATOM     18  C   UNL     1       1.075  -3.356   4.183  1.00  0.00     0.046 C 
ATOM     19  C   UNL     1       1.288  -5.363   2.859  1.00  0.00     0.015 C 
ATOM     20  C   UNL     1       3.113  -1.841   2.686  1.00  0.00     0.035 C 
ATOM     21  C   UNL     1       1.352  -1.898   4.487  1.00  0.00     0.154 C 
ATOM     22  C   UNL     1       4.560  -1.567   2.311  1.00  0.00     0.012 C 
ATOM     23  C   UNL     1       2.821  -1.508   4.168  1.00  0.00     0.152 C 
ATOM     24  C   UNL     1       4.782  -0.048   2.400  1.00  0.00     0.032 C 
ATOM     25  C   UNL     1       3.122   0.032   4.465  1.00  0.00     0.044 C 
ATOM     26  F   UNL     1       3.656  -2.289   4.919  1.00  0.00    -0.239 F 
ATOM     27  C   UNL     1       4.380   0.557   3.728  1.00  0.00    -0.053 C 
ATOM     28  C   UNL     1       3.262   0.322   5.960  1.00  0.00    -0.009 C 
ATOM     29  C   UNL     1       1.929   0.925   3.986  1.00  0.00     0.024 C 
ATOM     30  C   UNL     1       5.072   1.609   4.209  1.00  0.00     0.052 C 
ATOM     31  C   UNL     1       3.963   1.357   6.446  1.00  0.00     0.048 C 
ATOM     32  C   UNL     1       4.736   2.209   5.521  1.00  0.00     0.178 C 
ATOM     33  O   UNL     1       5.124   3.325   5.838  1.00  0.00    -0.290 OA
BRANCH  21  34
ATOM     34  O   UNL     1       1.010  -1.653   5.852  1.00  0.00    -0.390 OA
ATOM     35  H   UNL     1       1.553  -2.214   6.427  1.00  0.00     0.211 HD
ENDBRANCH  21  34
ENDBRANCH   5   8
ENDBRANCH   3   4
ENDBRANCH   2   3
ENDBRANCH   1   2
BRANCH   1  36
ATOM     36  C   UNL     1      -3.716  -2.248   6.011  1.00  0.00     0.116 C 
BRANCH  36  37
ATOM     37  N   UNL     1      -2.874  -1.473   6.911  1.00  0.00    -0.352 N 
ATOM     38  C   UNL     1      -3.045  -1.248   8.265  1.00  0.00     0.251 C 
ATOM     39  H   UNL     1      -2.081  -1.055   6.503  1.00  0.00     0.163 HD
ATOM     40  O   UNL     1      -2.242  -0.558   8.888  1.00  0.00    -0.269 OA
BRANCH  38  41
ATOM     41  C   UNL     1      -4.245  -1.780   8.947  1.00  0.00     0.039 A 
ATOM     42  C   UNL     1      -5.052  -0.897   9.669  1.00  0.00     0.014 A 
ATOM     43  C   UNL     1      -4.631  -3.112   8.785  1.00  0.00     0.014 A 
ATOM     44  C   UNL     1      -6.304  -1.320  10.124  1.00  0.00     0.010 A 
ATOM     45  C   UNL     1      -5.914  -3.503   9.156  1.00  0.00     0.010 A 
ATOM     46  C   UNL     1      -6.772  -2.607   9.814  1.00  0.00    -0.014 A 
BRANCH  46  47
ATOM     47  C   UNL     1      -8.159  -3.028  10.141  1.00  0.00     0.031 A 
ATOM     48  C   UNL     1      -8.402  -4.184  11.070  1.00  0.00     0.074 A 
ATOM     49  C   UNL     1      -9.204  -2.422   9.541  1.00  0.00     0.049 A 
ATOM     50  N   UNL     1      -9.534  -4.735  11.427  1.00  0.00    -0.248 NA
ATOM     51  C   UNL     1      -7.211  -4.823  11.651  1.00  0.00     0.031 C 
ATOM     52  C   UNL     1      -9.114  -1.314   8.588  1.00  0.00     0.029 A 
ATOM     53  N   UNL     1     -10.553  -2.657   9.648  1.00  0.00    -0.354 N 
ATOM     54  C   UNL     1      -9.191  -5.796  12.255  1.00  0.00     0.074 A 
ATOM     55  C   UNL     1      -7.746  -5.847  12.298  1.00  0.00     0.031 C 
ATOM     56  C   UNL     1     -10.353  -0.936   8.234  1.00  0.00     0.029 A 
ATOM     57  C   UNL     1     -11.323  -1.801   8.898  1.00  0.00     0.049 A 
ATOM     58  H   UNL     1     -10.933  -3.372  10.208  1.00  0.00     0.167 HD
ATOM     59  C   UNL     1     -10.001  -6.639  12.940  1.00  0.00     0.031 A 
ATOM     60  C   UNL     1     -12.660  -1.717   8.762  1.00  0.00     0.031 A 
ATOM     61  C   UNL     1     -11.438  -6.588  12.906  1.00  0.00     0.049 A 
ATOM     62  C   UNL     1     -13.540  -2.680   9.507  1.00  0.00     0.074 A 
ATOM     63  C   UNL     1     -12.346  -7.362  13.608  1.00  0.00     0.029 A 
ATOM     64  N   UNL     1     -12.177  -5.716  12.122  1.00  0.00    -0.354 N 
ATOM     65  N   UNL     1     -13.201  -3.636  10.337  1.00  0.00    -0.248 NA
ATOM     66  C   UNL     1     -14.989  -2.546   9.299  1.00  0.00     0.031 C 
ATOM     67  C   UNL     1     -13.635  -6.990  13.209  1.00  0.00     0.029 A 
ATOM     68  C   UNL     1     -13.530  -5.948  12.302  1.00  0.00     0.049 A 
ATOM     69  H   UNL     1     -11.795  -5.032  11.525  1.00  0.00     0.167 HD
ATOM     70  C   UNL     1     -14.394  -4.197  10.775  1.00  0.00     0.074 A 
ATOM     71  C   UNL     1     -15.464  -3.468  10.125  1.00  0.00     0.031 C 
ATOM     72  C   UNL     1     -14.585  -5.220  11.644  1.00  0.00     0.031 A 
BRANCH  59  73
ATOM     73  C   UNL     1      -9.331  -7.697  13.774  1.00  0.00    -0.014 A 
ATOM     74  C   UNL     1      -8.594  -7.362  14.922  1.00  0.00     0.009 A 
ATOM     75  C   UNL     1      -9.426  -9.046  13.399  1.00  0.00     0.009 A 
ATOM     76  C   UNL     1      -7.919  -8.348  15.644  1.00  0.00     0.001 A 
ATOM     77  C   UNL     1      -8.778 -10.034  14.143  1.00  0.00     0.001 A 
ATOM     78  C   UNL     1      -8.013  -9.683  15.254  1.00  0.00     0.000 A 
ENDBRANCH  59  73
BRANCH  60  79
ATOM     79  C   UNL     1     -13.255  -0.648   7.917  1.00  0.00    -0.014 A 
ATOM     80  C   UNL     1     -13.912   0.437   8.518  1.00  0.00     0.009 A 
ATOM     81  C   UNL     1     -13.166  -0.698   6.518  1.00  0.00     0.009 A 
ATOM     82  C   UNL     1     -14.482   1.443   7.734  1.00  0.00     0.001 A 
ATOM     83  C   UNL     1     -13.716   0.322   5.737  1.00  0.00     0.001 A 
ATOM     84  C   UNL     1     -14.379   1.387   6.345  1.00  0.00     0.000 A 
ENDBRANCH  60  79
BRANCH  72  85
ATOM     85  C   UNL     1     -16.005  -5.589  11.970  1.00  0.00    -0.014 A 
ATOM     86  C   UNL     1     -16.818  -6.255  11.041  1.00  0.00     0.009 A 
ATOM     87  C   UNL     1     -16.522  -5.296  13.241  1.00  0.00     0.009 A 
ATOM     88  C   UNL     1     -18.133  -6.592  11.369  1.00  0.00     0.001 A 
ATOM     89  C   UNL     1     -17.827  -5.659  13.576  1.00  0.00     0.001 A 
ATOM     90  C   UNL     1     -18.634  -6.299  12.637  1.00  0.00     0.000 A 
ENDBRANCH  72  85
ENDBRANCH  46  47
ENDBRANCH  38  41
ENDBRANCH  36  37
ENDBRANCH   1  36
TORSDOF 12
