REMARK SMILES COc1ccc(NC(=O)c2nn(C)cc2C(=O)NCCCCNC(=O)c2ccc(-c3c4nc(c(-c5ccccc5)c5ccc([nH]5)c(-c5ccccc5)c5nc(c(-c6ccccc6)c6ccc3[nH]6)C=C5)C=C4)cc2)c(C)c1
REMARK SMILES IDX 20 1 19 2 18 3 16 4 17 5 15 7 10 8 11 9 12 10 14 11 13 12
REMARK SMILES IDX 8 13 7 14 9 16 6 17 3 18 4 19 76 20 5 21 74 22 75 23 2 24
REMARK SMILES IDX 1 25 21 26 22 27 23 28 24 29 25 31 26 32 27 33 73 34 28 35
REMARK SMILES IDX 72 36 29 37 30 38 31 39 66 40 32 41 71 42 65 43 67 44 33 45
REMARK SMILES IDX 70 46 64 47 63 48 34 50 56 51 41 52 55 53 42 54 45 55 54 56
REMARK SMILES IDX 68 57 43 58 44 59 53 61 69 62 46 63 35 64 36 65 40 66 37 67
REMARK SMILES IDX 39 68 38 69 57 70 58 71 62 72 59 73 61 74 60 75 47 76 48 77
REMARK SMILES IDX 52 78 49 79 51 80 50 81
REMARK H PARENT 18 6 7 15 23 30 67 49 45 60
REMARK Flexibility Score: inf
ROOT
ATOM      1  C   UNL     1       4.568   0.427   1.620  1.00  0.00     0.023 C 
ENDROOT
BRANCH   1   2
ATOM      2  C   UNL     1       5.343   0.144   2.909  1.00  0.00     0.116 C 
BRANCH   2   3
ATOM      3  N   UNL     1       4.527  -0.336   4.010  1.00  0.00    -0.352 N 
ATOM      4  C   UNL     1       4.302  -1.580   4.567  1.00  0.00     0.255 C 
ATOM      5  O   UNL     1       3.584  -1.617   5.554  1.00  0.00    -0.269 OA
ATOM      6  H   UNL     1       4.024   0.382   4.458  1.00  0.00     0.163 HD
BRANCH   4   7
ATOM      7  C   UNL     1       4.845  -2.801   3.981  1.00  0.00     0.090 A 
ATOM      8  C   UNL     1       4.303  -4.129   4.145  1.00  0.00     0.163 A 
ATOM      9  N   UNL     1       4.999  -5.032   3.423  1.00  0.00    -0.167 NA
ATOM     10  N   UNL     1       5.963  -4.319   2.841  1.00  0.00    -0.274 N 
ATOM     11  C   UNL     1       5.972  -3.010   3.211  1.00  0.00     0.123 A 
ATOM     12  C   UNL     1       6.823  -4.947   1.867  1.00  0.00     0.173 C 
BRANCH   8  13
ATOM     13  C   UNL     1       3.145  -4.574   4.933  1.00  0.00     0.277 C 
ATOM     14  N   UNL     1       1.871  -4.109   4.670  1.00  0.00    -0.320 N 
ATOM     15  H   UNL     1       1.194  -4.426   5.310  1.00  0.00     0.170 HD
ATOM     16  O   UNL     1       3.273  -5.372   5.867  1.00  0.00    -0.267 OA
BRANCH  14  17
ATOM     17  C   UNL     1       1.352  -3.271   3.667  1.00  0.00     0.044 A 
ATOM     18  C   UNL     1       0.477  -1.325   1.816  1.00  0.00     0.119 A 
ATOM     19  C   UNL     1       1.596  -2.097   1.541  1.00  0.00     0.048 A 
ATOM     20  C   UNL     1      -0.265  -1.607   2.963  1.00  0.00     0.052 A 
ATOM     21  C   UNL     1       2.017  -3.067   2.453  1.00  0.00     0.030 A 
ATOM     22  C   UNL     1       0.135  -2.598   3.883  1.00  0.00    -0.024 A 
ATOM     23  C   UNL     1      -0.814  -2.882   5.017  1.00  0.00     0.047 C 
BRANCH  18  24
ATOM     24  O   UNL     1       0.004  -0.294   1.055  1.00  0.00    -0.497 OA
ATOM     25  C   UNL     1       0.659  -0.064  -0.185  1.00  0.00     0.278 C 
ENDBRANCH  18  24
ENDBRANCH  14  17
ENDBRANCH   8  13
ENDBRANCH   4   7
ENDBRANCH   2   3
ENDBRANCH   1   2
BRANCH   1  26
ATOM     26  C   UNL     1       3.623   1.626   1.671  1.00  0.00     0.023 C 
BRANCH  26  27
ATOM     27  C   UNL     1       4.295   2.967   1.918  1.00  0.00     0.116 C 
BRANCH  27  28
ATOM     28  N   UNL     1       5.050   3.505   0.789  1.00  0.00    -0.352 N 
ATOM     29  C   UNL     1       5.767   4.687   0.674  1.00  0.00     0.251 C 
ATOM     30  H   UNL     1       5.050   2.939  -0.017  1.00  0.00     0.163 HD
ATOM     31  O   UNL     1       6.276   4.979  -0.404  1.00  0.00    -0.269 OA
BRANCH  29  32
ATOM     32  C   UNL     1       6.086   5.498   1.881  1.00  0.00     0.039 A 
ATOM     33  C   UNL     1       7.397   5.984   1.986  1.00  0.00     0.014 A 
ATOM     34  C   UNL     1       5.285   5.424   3.009  1.00  0.00     0.014 A 
ATOM     35  C   UNL     1       8.002   6.021   3.234  1.00  0.00     0.010 A 
ATOM     36  C   UNL     1       5.913   5.285   4.219  1.00  0.00     0.010 A 
ATOM     37  C   UNL     1       7.287   5.513   4.310  1.00  0.00    -0.014 A 
BRANCH  37  38
ATOM     38  C   UNL     1       7.861   5.178   5.596  1.00  0.00     0.031 A 
ATOM     39  C   UNL     1       7.644   6.119   6.703  1.00  0.00     0.074 A 
ATOM     40  C   UNL     1       8.429   3.965   5.771  1.00  0.00     0.049 A 
ATOM     41  N   UNL     1       8.341   6.134   7.781  1.00  0.00    -0.248 NA
ATOM     42  C   UNL     1       6.651   7.192   6.645  1.00  0.00     0.031 C 
ATOM     43  C   UNL     1       8.760   3.299   7.026  1.00  0.00     0.029 A 
ATOM     44  N   UNL     1       9.010   3.160   4.794  1.00  0.00    -0.354 N 
ATOM     45  C   UNL     1       7.700   6.969   8.664  1.00  0.00     0.074 A 
ATOM     46  C   UNL     1       6.748   7.704   7.873  1.00  0.00     0.031 C 
ATOM     47  C   UNL     1       9.677   2.346   6.785  1.00  0.00     0.029 A 
ATOM     48  C   UNL     1      10.081   2.474   5.394  1.00  0.00     0.049 A 
ATOM     49  H   UNL     1       8.723   3.084   3.855  1.00  0.00     0.167 HD
ATOM     50  C   UNL     1       7.946   6.812   9.991  1.00  0.00     0.031 A 
ATOM     51  C   UNL     1      11.364   2.722   4.989  1.00  0.00     0.031 A 
ATOM     52  C   UNL     1       9.060   5.888  10.201  1.00  0.00     0.049 A 
ATOM     53  C   UNL     1      12.194   3.394   6.062  1.00  0.00     0.074 A 
ATOM     54  C   UNL     1       9.115   4.552  10.559  1.00  0.00     0.029 A 
ATOM     55  N   UNL     1      10.309   6.212   9.678  1.00  0.00    -0.354 N 
ATOM     56  N   UNL     1      11.688   4.067   7.061  1.00  0.00    -0.248 NA
ATOM     57  C   UNL     1      13.653   3.341   6.112  1.00  0.00     0.031 C 
ATOM     58  C   UNL     1      10.376   4.046  10.138  1.00  0.00     0.029 A 
ATOM     59  C   UNL     1      11.100   5.085   9.578  1.00  0.00     0.049 A 
ATOM     60  H   UNL     1      10.589   7.119   9.417  1.00  0.00     0.167 HD
ATOM     61  C   UNL     1      12.694   4.492   7.887  1.00  0.00     0.074 A 
ATOM     62  C   UNL     1      13.909   4.025   7.242  1.00  0.00     0.031 C 
ATOM     63  C   UNL     1      12.454   5.179   9.043  1.00  0.00     0.031 A 
BRANCH  50  64
ATOM     64  C   UNL     1       7.027   7.275  11.097  1.00  0.00    -0.014 A 
ATOM     65  C   UNL     1       7.285   6.856  12.415  1.00  0.00     0.009 A 
ATOM     66  C   UNL     1       5.847   8.020  10.914  1.00  0.00     0.009 A 
ATOM     67  C   UNL     1       6.405   7.133  13.471  1.00  0.00     0.001 A 
ATOM     68  C   UNL     1       4.968   8.312  11.966  1.00  0.00     0.001 A 
ATOM     69  C   UNL     1       5.243   7.859  13.245  1.00  0.00     0.000 A 
ENDBRANCH  50  64
BRANCH  51  70
ATOM     70  C   UNL     1      11.462   2.969   3.519  1.00  0.00    -0.014 A 
ATOM     71  C   UNL     1      11.263   1.867   2.661  1.00  0.00     0.009 A 
ATOM     72  C   UNL     1      11.274   4.259   3.000  1.00  0.00     0.009 A 
ATOM     73  C   UNL     1      10.732   2.043   1.379  1.00  0.00     0.001 A 
ATOM     74  C   UNL     1      10.750   4.429   1.711  1.00  0.00     0.001 A 
ATOM     75  C   UNL     1      10.433   3.323   0.922  1.00  0.00     0.000 A 
ENDBRANCH  51  70
BRANCH  63  76
ATOM     76  C   UNL     1      13.480   5.947   9.844  1.00  0.00    -0.014 A 
ATOM     77  C   UNL     1      14.716   6.372   9.341  1.00  0.00     0.009 A 
ATOM     78  C   UNL     1      13.136   6.406  11.137  1.00  0.00     0.009 A 
ATOM     79  C   UNL     1      15.580   7.168  10.105  1.00  0.00     0.001 A 
ATOM     80  C   UNL     1      13.967   7.246  11.879  1.00  0.00     0.001 A 
ATOM     81  C   UNL     1      15.200   7.616  11.367  1.00  0.00     0.000 A 
ENDBRANCH  63  76
ENDBRANCH  37  38
ENDBRANCH  29  32
ENDBRANCH  27  28
ENDBRANCH  26  27
ENDBRANCH   1  26
TORSDOF 14
