REMARK SMILES Nn1c(S[C@@H](C(=O)NCCCCNC(=O)c2ccc(-c3c4nc(c(-c5ccccc5)c5ccc([nH]5)c(-c5ccccc5)c5nc(c(-c6ccccc6)c6ccc3[nH]6)C=C5)C=C4)cc2)c2ccccc2)nc2ccc(Br)cc2c1=O
REMARK SMILES IDX 10 1 9 2 8 3 6 4 7 5 5 7 4 8 3 9 2 10 78 11 70 12 77 13
REMARK SMILES IDX 79 14 71 15 76 16 72 17 74 18 73 19 75 20 1 21 64 24 65 25
REMARK SMILES IDX 69 26 66 27 68 28 67 29 11 30 12 31 13 32 14 33 15 35 16 36
REMARK SMILES IDX 17 37 63 38 18 39 62 40 19 41 20 42 21 43 56 44 22 45 61 46
REMARK SMILES IDX 55 47 57 48 23 49 60 50 54 51 53 52 24 54 46 55 31 56 45 57
REMARK SMILES IDX 32 58 35 59 44 60 58 61 33 62 34 63 43 65 59 66 36 67 25 68
REMARK SMILES IDX 26 69 30 70 27 71 29 72 28 73 47 74 48 75 52 76 49 77 51 78
REMARK SMILES IDX 50 79 37 80 38 81 42 82 39 83 41 84 40 85
REMARK H PARENT 8 6 1 22 1 23 13 34 57 53 35 64
REMARK Flexibility Score: inf
ROOT
ATOM      1  C   UNL     1       4.838   2.652   1.580  1.00  0.00     0.023 C 
ENDROOT
BRANCH   1   2
ATOM      2  C   UNL     1       5.059   1.958   0.232  1.00  0.00     0.116 C 
BRANCH   2   3
ATOM      3  N   UNL     1       4.462   0.636   0.185  1.00  0.00    -0.355 N 
ATOM      4  C   UNL     1       3.326   0.170  -0.429  1.00  0.00     0.238 C 
ATOM      5  O   UNL     1       3.125  -1.036  -0.248  1.00  0.00    -0.273 OA
ATOM      6  H   UNL     1       4.962  -0.050   0.683  1.00  0.00     0.163 HD
BRANCH   4   7
ATOM      7  C   UNL     1       2.445   1.104  -1.306  1.00  0.00     0.174 C 
BRANCH   7   8
ATOM      8  S   UNL     1       1.811   2.492  -0.319  1.00  0.00    -0.068 SA
BRANCH   8   9
ATOM      9  C   UNL     1       0.556   2.037   0.806  1.00  0.00     0.191 A 
ATOM     10  N   UNL     1       0.075   0.751   1.038  1.00  0.00    -0.202 N 
ATOM     11  C   UNL     1      -0.944   0.497   1.963  1.00  0.00     0.280 A 
ATOM     12  N   UNL     1       0.095   3.069   1.446  1.00  0.00    -0.222 NA
ATOM     13  C   UNL     1      -1.492   1.664   2.662  1.00  0.00     0.069 A 
ATOM     14  O   UNL     1      -1.392  -0.626   2.195  1.00  0.00    -0.267 OA
ATOM     15  C   UNL     1      -0.938   2.906   2.370  1.00  0.00     0.079 A 
ATOM     16  C   UNL     1      -2.546   1.530   3.572  1.00  0.00     0.031 A 
ATOM     17  C   UNL     1      -1.447   4.037   3.011  1.00  0.00     0.030 A 
ATOM     18  C   UNL     1      -3.047   2.668   4.195  1.00  0.00     0.018 A 
ATOM     19  C   UNL     1      -2.501   3.922   3.922  1.00  0.00     0.018 A 
ATOM     20  Br  UNL     1      -4.482   2.514   5.413  1.00  0.00    -0.051 Br
BRANCH  10  21
ATOM     21  N   UNL     1       0.535  -0.373   0.347  1.00  0.00    -0.334 N 
ATOM     22  H   UNL     1       1.252  -0.281  -0.322  1.00  0.00     0.178 HD
ATOM     23  H   UNL     1       0.142  -1.257   0.528  1.00  0.00     0.178 HD
ENDBRANCH  10  21
ENDBRANCH   8   9
ENDBRANCH   7   8
BRANCH   7  24
ATOM     24  C   UNL     1       1.425   0.513  -2.296  1.00  0.00    -0.025 A 
ATOM     25  C   UNL     1       1.396  -0.847  -2.647  1.00  0.00     0.005 A 
ATOM     26  C   UNL     1       0.481   1.353  -2.930  1.00  0.00     0.005 A 
ATOM     27  C   UNL     1       0.402  -1.361  -3.489  1.00  0.00     0.000 A 
ATOM     28  C   UNL     1      -0.508   0.842  -3.775  1.00  0.00     0.000 A 
ATOM     29  C   UNL     1      -0.559  -0.520  -4.039  1.00  0.00     0.000 A 
ENDBRANCH   7  24
ENDBRANCH   4   7
ENDBRANCH   2   3
ENDBRANCH   1   2
BRANCH   1  30
ATOM     30  C   UNL     1       5.342   1.889   2.805  1.00  0.00     0.023 C 
BRANCH  30  31
ATOM     31  C   UNL     1       6.798   1.449   2.757  1.00  0.00     0.116 C 
BRANCH  31  32
ATOM     32  N   UNL     1       7.732   2.549   2.580  1.00  0.00    -0.352 N 
ATOM     33  C   UNL     1       8.924   2.805   3.220  1.00  0.00     0.251 C 
ATOM     34  H   UNL     1       7.473   3.211   1.899  1.00  0.00     0.163 HD
ATOM     35  O   UNL     1       9.528   3.845   2.990  1.00  0.00    -0.269 OA
BRANCH  33  36
ATOM     36  C   UNL     1       9.454   1.849   4.220  1.00  0.00     0.039 A 
ATOM     37  C   UNL     1       9.401   0.472   4.004  1.00  0.00     0.014 A 
ATOM     38  C   UNL     1      10.008   2.346   5.405  1.00  0.00     0.014 A 
ATOM     39  C   UNL     1       9.726  -0.401   5.036  1.00  0.00     0.010 A 
ATOM     40  C   UNL     1      10.428   1.462   6.405  1.00  0.00     0.010 A 
ATOM     41  C   UNL     1      10.242   0.082   6.251  1.00  0.00    -0.014 A 
BRANCH  41  42
ATOM     42  C   UNL     1      10.585  -0.890   7.323  1.00  0.00     0.031 A 
ATOM     43  C   UNL     1       9.845  -0.903   8.633  1.00  0.00     0.074 A 
ATOM     44  C   UNL     1      11.518  -1.830   7.073  1.00  0.00     0.049 A 
ATOM     45  N   UNL     1       9.929  -1.768   9.615  1.00  0.00    -0.248 NA
ATOM     46  C   UNL     1       8.892   0.190   8.881  1.00  0.00     0.031 C 
ATOM     47  C   UNL     1      12.305  -1.923   5.842  1.00  0.00     0.029 A 
ATOM     48  N   UNL     1      11.926  -2.912   7.812  1.00  0.00    -0.354 N 
ATOM     49  C   UNL     1       9.048  -1.323  10.592  1.00  0.00     0.074 A 
ATOM     50  C   UNL     1       8.471  -0.088  10.108  1.00  0.00     0.031 C 
ATOM     51  C   UNL     1      13.033  -3.048   5.872  1.00  0.00     0.029 A 
ATOM     52  C   UNL     1      12.816  -3.722   7.148  1.00  0.00     0.049 A 
ATOM     53  H   UNL     1      11.613  -3.091   8.728  1.00  0.00     0.167 HD
ATOM     54  C   UNL     1       8.734  -1.898  11.778  1.00  0.00     0.031 A 
ATOM     55  C   UNL     1      13.390  -4.884   7.512  1.00  0.00     0.031 A 
ATOM     56  C   UNL     1       9.311  -3.126  12.262  1.00  0.00     0.049 A 
ATOM     57  C   UNL     1      13.058  -5.480   8.849  1.00  0.00     0.074 A 
ATOM     58  C   UNL     1       9.038  -3.796  13.443  1.00  0.00     0.029 A 
ATOM     59  N   UNL     1      10.275  -3.868  11.597  1.00  0.00    -0.354 N 
ATOM     60  N   UNL     1      12.203  -5.059   9.748  1.00  0.00    -0.248 NA
ATOM     61  C   UNL     1      13.769  -6.710   9.220  1.00  0.00     0.031 C 
ATOM     62  C   UNL     1       9.883  -4.905  13.522  1.00  0.00     0.029 A 
ATOM     63  C   UNL     1      10.631  -4.970  12.357  1.00  0.00     0.049 A 
ATOM     64  H   UNL     1      10.651  -3.644  10.714  1.00  0.00     0.167 HD
ATOM     65  C   UNL     1      12.270  -5.972  10.792  1.00  0.00     0.074 A 
ATOM     66  C   UNL     1      13.226  -6.987  10.399  1.00  0.00     0.031 C 
ATOM     67  C   UNL     1      11.602  -5.962  11.971  1.00  0.00     0.031 A 
BRANCH  54  68
ATOM     68  C   UNL     1       7.721  -1.206  12.651  1.00  0.00    -0.014 A 
ATOM     69  C   UNL     1       8.117  -0.653  13.880  1.00  0.00     0.009 A 
ATOM     70  C   UNL     1       6.362  -1.170  12.299  1.00  0.00     0.009 A 
ATOM     71  C   UNL     1       7.174  -0.087  14.741  1.00  0.00     0.001 A 
ATOM     72  C   UNL     1       5.426  -0.576  13.149  1.00  0.00     0.001 A 
ATOM     73  C   UNL     1       5.831  -0.044  14.372  1.00  0.00     0.000 A 
ENDBRANCH  54  68
BRANCH  55  74
ATOM     74  C   UNL     1      14.315  -5.563   6.568  1.00  0.00    -0.014 A 
ATOM     75  C   UNL     1      15.555  -4.987   6.243  1.00  0.00     0.009 A 
ATOM     76  C   UNL     1      13.934  -6.753   5.932  1.00  0.00     0.009 A 
ATOM     77  C   UNL     1      16.376  -5.569   5.276  1.00  0.00     0.001 A 
ATOM     78  C   UNL     1      14.772  -7.350   4.987  1.00  0.00     0.001 A 
ATOM     79  C   UNL     1      15.986  -6.751   4.651  1.00  0.00     0.000 A 
ENDBRANCH  55  74
BRANCH  67  80
ATOM     80  C   UNL     1      11.887  -7.076  12.941  1.00  0.00    -0.014 A 
ATOM     81  C   UNL     1      10.893  -8.023  13.235  1.00  0.00     0.009 A 
ATOM     82  C   UNL     1      13.111  -7.144  13.625  1.00  0.00     0.009 A 
ATOM     83  C   UNL     1      11.113  -9.008  14.199  1.00  0.00     0.001 A 
ATOM     84  C   UNL     1      13.341  -8.149  14.566  1.00  0.00     0.001 A 
ATOM     85  C   UNL     1      12.339  -9.074  14.859  1.00  0.00     0.000 A 
ENDBRANCH  67  80
ENDBRANCH  41  42
ENDBRANCH  33  36
ENDBRANCH  31  32
ENDBRANCH  30  31
ENDBRANCH   1  30
TORSDOF 15
