REMARK SMILES Cc1ccc(OCCn2ccnc2)c(/C=C/C(=O)NCCCCNC(=O)c2ccc(-c3c4nc(c(-c5ccccc5)c5ccc([nH]5)c(-c5ccccc5)c5nc(c(-c6ccccc6)c6ccc3[nH]6)C=C5)C=C4)cc2)n1
REMARK SMILES IDX 20 1 19 2 17 3 18 4 16 6 15 7 14 8 1 9 2 10 3 11 75 12 4 13
REMARK SMILES IDX 5 14 6 15 7 16 8 17 9 18 10 19 13 20 11 21 12 22 21 23 22 24
REMARK SMILES IDX 23 25 24 26 25 27 26 29 27 30 28 31 74 32 29 33 73 34 30 35
REMARK SMILES IDX 31 36 32 37 67 38 33 39 72 40 66 41 68 42 34 43 71 44 65 45
REMARK SMILES IDX 64 46 35 48 57 49 42 50 56 51 43 52 46 53 55 54 69 55 44 56
REMARK SMILES IDX 45 57 54 59 70 60 47 61 36 62 37 63 41 64 38 65 40 66 39 67
REMARK SMILES IDX 58 68 59 69 63 70 60 71 62 72 61 73 48 74 49 75 53 76 50 77
REMARK SMILES IDX 52 78 51 79
REMARK H PARENT 19 5 24 28 68 47 46 58
REMARK Flexibility Score: inf
ROOT
ATOM      1  C   UNL     1      -4.031   4.276  -0.126  1.00  0.00     0.116 C 
ENDROOT
BRANCH   1   2
ATOM      2  N   UNL     1      -2.869   5.138  -0.029  1.00  0.00    -0.353 N 
ATOM      3  C   UNL     1      -1.531   4.910   0.002  1.00  0.00     0.244 C 
ATOM      4  O   UNL     1      -0.792   5.897  -0.010  1.00  0.00    -0.270 OA
ATOM      5  H   UNL     1      -3.100   6.093   0.026  1.00  0.00     0.163 HD
BRANCH   3   6
ATOM      6  C   UNL     1      -0.902   3.564   0.032  1.00  0.00     0.073 C 
ATOM      7  C   UNL     1      -1.485   2.379   0.248  1.00  0.00     0.038 C 
BRANCH   7   8
ATOM      8  C   UNL     1      -0.809   1.073   0.354  1.00  0.00     0.105 A 
ATOM      9  C   UNL     1       2.668  -0.139   0.263  1.00  0.00     0.067 C 
ATOM     10  C   UNL     1       1.184  -0.108   0.478  1.00  0.00     0.038 A 
ATOM     11  C   UNL     1       0.513  -1.259   0.871  1.00  0.00     0.027 A 
ATOM     12  N   UNL     1       0.546   1.070   0.275  1.00  0.00    -0.250 NA
ATOM     13  C   UNL     1      -0.878  -1.244   0.928  1.00  0.00     0.050 A 
ATOM     14  C   UNL     1      -1.568  -0.090   0.578  1.00  0.00     0.145 A 
BRANCH  14  15
ATOM     15  O   UNL     1      -2.928  -0.013   0.417  1.00  0.00    -0.489 OA
BRANCH  15  16
ATOM     16  C   UNL     1      -3.664  -1.206   0.119  1.00  0.00     0.251 C 
BRANCH  16  17
ATOM     17  C   UNL     1      -3.594  -1.652  -1.350  1.00  0.00     0.164 C 
BRANCH  17  18
ATOM     18  N   UNL     1      -2.335  -2.260  -1.728  1.00  0.00    -0.334 N 
ATOM     19  C   UNL     1      -1.296  -1.639  -2.362  1.00  0.00     0.107 A 
ATOM     20  C   UNL     1      -1.958  -3.550  -1.483  1.00  0.00     0.199 A 
ATOM     21  C   UNL     1      -0.282  -2.568  -2.371  1.00  0.00     0.130 A 
ATOM     22  N   UNL     1      -0.706  -3.754  -1.828  1.00  0.00    -0.245 NA
ENDBRANCH  17  18
ENDBRANCH  16  17
ENDBRANCH  15  16
ENDBRANCH  14  15
ENDBRANCH   7   8
ENDBRANCH   3   6
ENDBRANCH   1   2
BRANCH   1  23
ATOM     23  C   UNL     1      -4.639   3.937   1.241  1.00  0.00     0.023 C 
BRANCH  23  24
ATOM     24  C   UNL     1      -5.529   5.028   1.859  1.00  0.00     0.023 C 
BRANCH  24  25
ATOM     25  C   UNL     1      -6.789   5.382   1.069  1.00  0.00     0.116 C 
BRANCH  25  26
ATOM     26  N   UNL     1      -7.703   4.254   0.873  1.00  0.00    -0.352 N 
ATOM     27  C   UNL     1      -8.745   4.152  -0.040  1.00  0.00     0.251 C 
ATOM     28  H   UNL     1      -7.562   3.475   1.459  1.00  0.00     0.163 HD
ATOM     29  O   UNL     1      -9.669   3.378   0.123  1.00  0.00    -0.269 OA
BRANCH  27  30
ATOM     30  C   UNL     1      -8.678   4.994  -1.248  1.00  0.00     0.039 A 
ATOM     31  C   UNL     1      -9.763   5.737  -1.712  1.00  0.00     0.014 A 
ATOM     32  C   UNL     1      -7.438   5.075  -1.870  1.00  0.00     0.014 A 
ATOM     33  C   UNL     1      -9.552   6.641  -2.753  1.00  0.00     0.010 A 
ATOM     34  C   UNL     1      -7.191   6.092  -2.752  1.00  0.00     0.010 A 
ATOM     35  C   UNL     1      -8.252   6.837  -3.251  1.00  0.00    -0.014 A 
BRANCH  35  36
ATOM     36  C   UNL     1      -7.962   7.874  -4.238  1.00  0.00     0.031 A 
ATOM     37  C   UNL     1      -8.492   9.228  -3.915  1.00  0.00     0.074 A 
ATOM     38  C   UNL     1      -7.121   7.690  -5.281  1.00  0.00     0.049 A 
ATOM     39  N   UNL     1      -9.430   9.865  -4.532  1.00  0.00    -0.248 NA
ATOM     40  C   UNL     1      -8.008   9.909  -2.704  1.00  0.00     0.031 C 
ATOM     41  C   UNL     1      -6.271   6.533  -5.598  1.00  0.00     0.029 A 
ATOM     42  N   UNL     1      -6.771   8.578  -6.249  1.00  0.00    -0.354 N 
ATOM     43  C   UNL     1      -9.547  11.101  -3.904  1.00  0.00     0.074 A 
ATOM     44  C   UNL     1      -8.748  11.021  -2.707  1.00  0.00     0.031 C 
ATOM     45  C   UNL     1      -5.340   6.886  -6.513  1.00  0.00     0.029 A 
ATOM     46  C   UNL     1      -5.657   8.214  -6.995  1.00  0.00     0.049 A 
ATOM     47  H   UNL     1      -7.268   9.412  -6.408  1.00  0.00     0.167 HD
ATOM     48  C   UNL     1     -10.133  12.162  -4.528  1.00  0.00     0.031 A 
ATOM     49  C   UNL     1      -5.040   8.955  -7.946  1.00  0.00     0.031 A 
ATOM     50  C   UNL     1     -10.858  11.750  -5.702  1.00  0.00     0.049 A 
ATOM     51  C   UNL     1      -6.016   9.967  -8.406  1.00  0.00     0.074 A 
ATOM     52  C   UNL     1     -11.942  10.929  -5.938  1.00  0.00     0.029 A 
ATOM     53  N   UNL     1     -10.215  11.884  -6.910  1.00  0.00    -0.354 N 
ATOM     54  N   UNL     1      -7.108   9.663  -9.048  1.00  0.00    -0.248 NA
ATOM     55  C   UNL     1      -6.016  11.263  -7.748  1.00  0.00     0.031 C 
ATOM     56  C   UNL     1     -11.606  10.221  -7.130  1.00  0.00     0.029 A 
ATOM     57  C   UNL     1     -10.381  10.708  -7.593  1.00  0.00     0.049 A 
ATOM     58  H   UNL     1      -9.725  12.678  -7.226  1.00  0.00     0.167 HD
ATOM     59  C   UNL     1      -8.074  10.504  -8.517  1.00  0.00     0.074 A 
ATOM     60  C   UNL     1      -7.324  11.530  -7.792  1.00  0.00     0.031 C 
ATOM     61  C   UNL     1      -9.388  10.135  -8.475  1.00  0.00     0.031 A 
BRANCH  48  62
ATOM     62  C   UNL     1      -9.737  13.601  -4.318  1.00  0.00    -0.014 A 
ATOM     63  C   UNL     1     -10.449  14.603  -5.005  1.00  0.00     0.009 A 
ATOM     64  C   UNL     1      -8.527  13.985  -3.713  1.00  0.00     0.009 A 
ATOM     65  C   UNL     1      -9.933  15.897  -5.149  1.00  0.00     0.001 A 
ATOM     66  C   UNL     1      -8.028  15.287  -3.822  1.00  0.00     0.001 A 
ATOM     67  C   UNL     1      -8.717  16.234  -4.566  1.00  0.00     0.000 A 
ENDBRANCH  48  62
BRANCH  49  68
ATOM     68  C   UNL     1      -3.601   9.037  -8.270  1.00  0.00    -0.014 A 
ATOM     69  C   UNL     1      -3.169   9.569  -9.495  1.00  0.00     0.009 A 
ATOM     70  C   UNL     1      -2.643   8.864  -7.254  1.00  0.00     0.009 A 
ATOM     71  C   UNL     1      -1.834   9.958  -9.679  1.00  0.00     0.001 A 
ATOM     72  C   UNL     1      -1.312   9.254  -7.438  1.00  0.00     0.001 A 
ATOM     73  C   UNL     1      -0.911   9.817  -8.645  1.00  0.00     0.000 A 
ENDBRANCH  49  68
BRANCH  61  74
ATOM     74  C   UNL     1      -9.801   8.881  -9.209  1.00  0.00    -0.014 A 
ATOM     75  C   UNL     1      -9.334   7.598  -8.868  1.00  0.00     0.009 A 
ATOM     76  C   UNL     1     -10.833   8.982 -10.153  1.00  0.00     0.009 A 
ATOM     77  C   UNL     1      -9.878   6.455  -9.466  1.00  0.00     0.001 A 
ATOM     78  C   UNL     1     -11.389   7.841 -10.734  1.00  0.00     0.001 A 
ATOM     79  C   UNL     1     -10.911   6.578 -10.393  1.00  0.00     0.000 A 
ENDBRANCH  61  74
ENDBRANCH  35  36
ENDBRANCH  27  30
ENDBRANCH  25  26
ENDBRANCH  24  25
ENDBRANCH  23  24
ENDBRANCH   1  23
TORSDOF 16
