REMARK SMILES O=C(NCCCCNC(=O)[C@@H](Cc1ccccc1)N1C(=O)/C(=C/c2ccncc2)SC1=S)c1ccc(-c2c3nc(c(-c4ccccc4)c4ccc([nH]4)c(-c4ccccc4)c4nc(c(-c5ccccc5)c5ccc2[nH]5)C=C4)C=C3)cc1
REMARK SMILES IDX 5 1 4 2 3 3 1 4 2 5 33 7 34 8 80 9 35 10 79 11 36 12 37 13
REMARK SMILES IDX 38 14 73 15 39 16 78 17 72 18 74 19 40 20 77 21 71 22 70 23
REMARK SMILES IDX 41 25 63 26 48 27 62 28 49 29 52 30 61 31 75 32 50 33 51 34
REMARK SMILES IDX 60 36 76 37 53 38 42 39 43 40 47 41 44 42 46 43 45 44 64 45
REMARK SMILES IDX 65 46 69 47 66 48 68 49 67 50 54 51 55 52 59 53 56 54 58 55
REMARK SMILES IDX 57 56 6 57 7 58 8 59 9 60 10 62 11 63 12 64 13 65 14 66
REMARK SMILES IDX 18 67 15 68 17 69 16 70 19 71 20 72 31 73 21 74 22 75 30 76
REMARK SMILES IDX 32 77 23 78 24 79 25 80 29 81 26 82 28 83 27 84
REMARK H PARENT 3 6 74 24 52 35 8 61
REMARK Flexibility Score: inf
ROOT
ATOM      1  C   UNL     1       5.807   0.325   1.707  1.00  0.00     0.023 C 
ENDROOT
BRANCH   1   2
ATOM      2  C   UNL     1       5.055  -0.292   0.529  1.00  0.00     0.116 C 
BRANCH   2   3
ATOM      3  N   UNL     1       3.614  -0.426   0.718  1.00  0.00    -0.352 N 
ATOM      4  O   UNL     1       1.417  -0.101   0.239  1.00  0.00    -0.269 OA
ATOM      5  C   UNL     1       2.592   0.048  -0.076  1.00  0.00     0.251 C 
ATOM      6  H   UNL     1       3.334  -0.921   1.522  1.00  0.00     0.163 HD
BRANCH   5   7
ATOM      7  C   UNL     1       2.942   0.801  -1.296  1.00  0.00     0.039 A 
ATOM      8  C   UNL     1       3.874   0.278  -2.193  1.00  0.00     0.014 A 
ATOM      9  C   UNL     1       2.434   2.090  -1.464  1.00  0.00     0.014 A 
ATOM     10  C   UNL     1       4.468   1.123  -3.119  1.00  0.00     0.010 A 
ATOM     11  C   UNL     1       2.952   2.901  -2.475  1.00  0.00     0.010 A 
ATOM     12  C   UNL     1       4.016   2.444  -3.270  1.00  0.00    -0.014 A 
BRANCH  12  13
ATOM     13  C   UNL     1       4.649   3.329  -4.278  1.00  0.00     0.031 A 
ATOM     14  C   UNL     1       5.334   4.606  -3.872  1.00  0.00     0.074 A 
ATOM     15  C   UNL     1       4.604   2.970  -5.574  1.00  0.00     0.049 A 
ATOM     16  N   UNL     1       5.850   5.539  -4.631  1.00  0.00    -0.248 NA
ATOM     17  C   UNL     1       5.446   4.877  -2.429  1.00  0.00     0.031 C 
ATOM     18  C   UNL     1       3.983   1.747  -6.088  1.00  0.00     0.029 A 
ATOM     19  N   UNL     1       5.090   3.594  -6.692  1.00  0.00    -0.354 N 
ATOM     20  C   UNL     1       6.304   6.527  -3.765  1.00  0.00     0.074 A 
ATOM     21  C   UNL     1       6.001   6.081  -2.422  1.00  0.00     0.031 C 
ATOM     22  C   UNL     1       4.152   1.694  -7.415  1.00  0.00     0.029 A 
ATOM     23  C   UNL     1       4.815   2.916  -7.853  1.00  0.00     0.049 A 
ATOM     24  H   UNL     1       5.587   4.443  -6.666  1.00  0.00     0.167 HD
ATOM     25  C   UNL     1       6.911   7.701  -4.066  1.00  0.00     0.031 A 
ATOM     26  C   UNL     1       5.024   3.253  -9.137  1.00  0.00     0.031 A 
ATOM     27  C   UNL     1       7.226   8.128  -5.405  1.00  0.00     0.049 A 
ATOM     28  C   UNL     1       5.670   4.567  -9.448  1.00  0.00     0.074 A 
ATOM     29  C   UNL     1       7.875   9.280  -5.813  1.00  0.00     0.029 A 
ATOM     30  N   UNL     1       6.911   7.417  -6.554  1.00  0.00    -0.354 N 
ATOM     31  N   UNL     1       6.095   5.489  -8.619  1.00  0.00    -0.248 NA
ATOM     32  C   UNL     1       5.858   4.891 -10.867  1.00  0.00     0.031 C 
ATOM     33  C   UNL     1       7.911   9.289  -7.212  1.00  0.00     0.029 A 
ATOM     34  C   UNL     1       7.329   8.119  -7.672  1.00  0.00     0.049 A 
ATOM     35  H   UNL     1       6.457   6.544  -6.571  1.00  0.00     0.167 HD
ATOM     36  C   UNL     1       6.610   6.501  -9.413  1.00  0.00     0.074 A 
ATOM     37  C   UNL     1       6.457   6.073 -10.790  1.00  0.00     0.031 C 
ATOM     38  C   UNL     1       7.161   7.679  -9.034  1.00  0.00     0.031 A 
BRANCH  25  39
ATOM     39  C   UNL     1       7.231   8.630  -2.928  1.00  0.00    -0.014 A 
ATOM     40  C   UNL     1       8.274   8.363  -2.027  1.00  0.00     0.009 A 
ATOM     41  C   UNL     1       6.492   9.815  -2.776  1.00  0.00     0.009 A 
ATOM     42  C   UNL     1       8.544   9.244  -0.976  1.00  0.00     0.001 A 
ATOM     43  C   UNL     1       6.779  10.705  -1.740  1.00  0.00     0.001 A 
ATOM     44  C   UNL     1       7.798  10.415  -0.835  1.00  0.00     0.000 A 
ENDBRANCH  25  39
BRANCH  26  45
ATOM     45  C   UNL     1       4.565   2.331 -10.204  1.00  0.00    -0.014 A 
ATOM     46  C   UNL     1       5.483   1.549 -10.917  1.00  0.00     0.009 A 
ATOM     47  C   UNL     1       3.191   2.161 -10.444  1.00  0.00     0.009 A 
ATOM     48  C   UNL     1       5.033   0.613 -11.851  1.00  0.00     0.001 A 
ATOM     49  C   UNL     1       2.744   1.206 -11.357  1.00  0.00     0.001 A 
ATOM     50  C   UNL     1       3.666   0.435 -12.061  1.00  0.00     0.000 A 
ENDBRANCH  26  45
BRANCH  38  51
ATOM     51  C   UNL     1       7.662   8.578 -10.124  1.00  0.00    -0.014 A 
ATOM     52  C   UNL     1       6.775   9.342 -10.898  1.00  0.00     0.009 A 
ATOM     53  C   UNL     1       9.042   8.697 -10.346  1.00  0.00     0.009 A 
ATOM     54  C   UNL     1       7.263  10.195 -11.889  1.00  0.00     0.001 A 
ATOM     55  C   UNL     1       9.527   9.567 -11.323  1.00  0.00     0.001 A 
ATOM     56  C   UNL     1       8.638  10.310 -12.097  1.00  0.00     0.000 A 
ENDBRANCH  38  51
ENDBRANCH  12  13
ENDBRANCH   5   7
ENDBRANCH   2   3
ENDBRANCH   1   2
BRANCH   1  57
ATOM     57  C   UNL     1       5.601  -0.354   3.052  1.00  0.00     0.023 C 
BRANCH  57  58
ATOM     58  C   UNL     1       5.806  -1.857   3.029  1.00  0.00     0.116 C 
BRANCH  58  59
ATOM     59  N   UNL     1       6.995  -2.343   3.672  1.00  0.00    -0.354 N 
ATOM     60  C   UNL     1       7.128  -3.594   4.201  1.00  0.00     0.243 C 
ATOM     61  H   UNL     1       7.765  -1.733   3.736  1.00  0.00     0.163 HD
ATOM     62  O   UNL     1       8.218  -4.150   4.023  1.00  0.00    -0.273 OA
BRANCH  60  63
ATOM     63  C   UNL     1       5.991  -4.321   4.971  1.00  0.00     0.185 C 
BRANCH  63  64
ATOM     64  C   UNL     1       5.202  -3.554   6.074  1.00  0.00     0.071 C 
BRANCH  64  65
ATOM     65  C   UNL     1       4.020  -2.675   5.758  1.00  0.00    -0.045 A 
ATOM     66  C   UNL     1       4.111  -1.283   5.930  1.00  0.00     0.004 A 
ATOM     67  C   UNL     1       2.802  -3.211   5.328  1.00  0.00     0.004 A 
ATOM     68  C   UNL     1       3.045  -0.448   5.586  1.00  0.00     0.000 A 
ATOM     69  C   UNL     1       1.747  -2.374   4.956  1.00  0.00     0.000 A 
ATOM     70  C   UNL     1       1.874  -0.992   5.069  1.00  0.00     0.000 A 
ENDBRANCH  64  65
ENDBRANCH  63  64
BRANCH  63  71
ATOM     71  N   UNL     1       5.324  -5.489   4.324  1.00  0.00    -0.280 N 
ATOM     72  C   UNL     1       5.707  -6.769   4.741  1.00  0.00     0.266 C 
ATOM     73  C   UNL     1       4.362  -5.495   3.334  1.00  0.00     0.149 C 
ATOM     74  O   UNL     1       6.564  -7.056   5.564  1.00  0.00    -0.268 OA
ATOM     75  C   UNL     1       4.916  -7.803   4.024  1.00  0.00     0.081 C 
ATOM     76  S   UNL     1       3.560  -7.054   3.298  1.00  0.00    -0.054 SA
ATOM     77  S   UNL     1       3.918  -4.386   2.181  1.00  0.00    -0.052 S 
ATOM     78  C   UNL     1       5.268  -9.089   3.896  1.00  0.00     0.029 C 
BRANCH  78  79
ATOM     79  C   UNL     1       4.489 -10.024   3.072  1.00  0.00    -0.021 A 
ATOM     80  C   UNL     1       4.488  -9.908   1.678  1.00  0.00     0.028 A 
ATOM     81  C   UNL     1       3.641 -10.947   3.676  1.00  0.00     0.028 A 
ATOM     82  C   UNL     1       3.610 -10.695   0.954  1.00  0.00     0.111 A 
ATOM     83  C   UNL     1       2.809 -11.697   2.861  1.00  0.00     0.111 A 
ATOM     84  N   UNL     1       2.771 -11.590   1.515  1.00  0.00    -0.265 NA
ENDBRANCH  78  79
ENDBRANCH  63  71
ENDBRANCH  60  63
ENDBRANCH  58  59
ENDBRANCH  57  58
ENDBRANCH   1  57
TORSDOF 15
