REMARK SMILES CC1=C[C@@H](CNS(=O)(=O)c2cccs2)[C@H](C(C)C)C[C@H]1CC(=O)NCCCCNC(=O)c1ccc(-c2c3nc(c(-c4ccccc4)c4ccc([nH]4)c(-c4ccccc4)c4nc(c(-c5ccccc5)c5ccc2[nH]5)C=C4)C=C3)cc1
REMARK SMILES IDX 25 1 24 2 22 3 23 4 21 6 20 7 1 8 2 9 3 10 4 11 19 12 15 13
REMARK SMILES IDX 5 14 6 15 7 17 8 18 9 19 10 20 11 21 14 22 12 23 13 24 16 25
REMARK SMILES IDX 17 26 18 27 26 28 27 29 28 30 29 31 30 32 31 34 32 35 33 36
REMARK SMILES IDX 79 37 34 38 78 39 35 40 36 41 37 42 72 43 38 44 77 45 71 46
REMARK SMILES IDX 73 47 39 48 76 49 70 50 69 51 40 53 62 54 47 55 61 56 48 57
REMARK SMILES IDX 51 58 60 59 74 60 49 61 50 62 59 64 75 65 52 66 41 67 42 68
REMARK SMILES IDX 46 69 43 70 45 71 44 72 63 73 64 74 68 75 65 76 67 77 66 78
REMARK SMILES IDX 53 79 54 80 58 81 55 82 57 83 56 84
REMARK H PARENT 24 5 6 16 29 33 73 52 51 63
REMARK Flexibility Score: inf
ROOT
ATOM      1  C   UNL     1       2.775   0.496  -1.793  1.00  0.00     0.116 C 
ENDROOT
BRANCH   1   2
ATOM      2  N   UNL     1       3.120  -0.847  -1.351  1.00  0.00    -0.356 N 
ATOM      3  C   UNL     1       2.328  -1.913  -1.031  1.00  0.00     0.220 C 
ATOM      4  O   UNL     1       2.871  -2.951  -0.648  1.00  0.00    -0.275 OA
ATOM      5  H   UNL     1       4.087  -1.015  -1.268  1.00  0.00     0.163 HD
BRANCH   3   6
ATOM      6  C   UNL     1       0.820  -1.822  -1.141  1.00  0.00     0.108 C 
BRANCH   6   7
ATOM      7  C   UNL     1       0.081  -1.554   0.194  1.00  0.00     0.024 C 
ATOM      8  C   UNL     1       1.715  -0.481   1.865  1.00  0.00     0.039 C 
ATOM      9  C   UNL     1       0.576  -0.298   0.889  1.00  0.00    -0.073 C 
ATOM     10  C   UNL     1      -0.057   0.887   0.752  1.00  0.00    -0.023 C 
ATOM     11  C   UNL     1      -1.438   0.987   0.155  1.00  0.00     0.030 C 
ATOM     12  C   UNL     1      -1.457  -1.525  -0.052  1.00  0.00     0.013 C 
ATOM     13  C   UNL     1      -2.188  -0.314   0.595  1.00  0.00     0.000 C 
BRANCH  11  14
ATOM     14  C   UNL     1      -1.498   1.187  -1.376  1.00  0.00     0.107 C 
BRANCH  14  15
ATOM     15  N   UNL     1      -0.953   2.487  -1.826  1.00  0.00    -0.210 NA
ATOM     16  H   UNL     1       0.065   2.432  -1.787  1.00  0.00     0.141 HD
BRANCH  15  17
ATOM     17  S   UNL     1      -1.398   2.953  -3.408  1.00  0.00     0.250 S 
ATOM     18  O   UNL     1      -2.840   2.837  -3.487  1.00  0.00    -0.206 OA
ATOM     19  O   UNL     1      -0.724   4.201  -3.665  1.00  0.00    -0.206 OA
BRANCH  17  20
ATOM     20  C   UNL     1      -0.784   1.735  -4.562  1.00  0.00     0.134 A 
ATOM     21  C   UNL     1      -1.052   0.383  -4.705  1.00  0.00     0.033 A 
ATOM     22  S   UNL     1       0.290   2.278  -5.779  1.00  0.00    -0.131 S 
ATOM     23  C   UNL     1      -0.348  -0.207  -5.794  1.00  0.00     0.013 A 
ATOM     24  C   UNL     1       0.406   0.720  -6.476  1.00  0.00     0.066 A 
ENDBRANCH  17  20
ENDBRANCH  15  17
ENDBRANCH  14  15
ENDBRANCH  11  14
BRANCH  13  25
ATOM     25  C   UNL     1      -2.313  -0.442   2.161  1.00  0.00    -0.014 C 
ATOM     26  C   UNL     1      -3.018   0.767   2.790  1.00  0.00     0.007 C 
ATOM     27  C   UNL     1      -3.027  -1.723   2.593  1.00  0.00     0.007 C 
ENDBRANCH  13  25
ENDBRANCH   6   7
ENDBRANCH   3   6
ENDBRANCH   1   2
BRANCH   1  28
ATOM     28  C   UNL     1       2.925   1.549  -0.697  1.00  0.00     0.023 C 
BRANCH  28  29
ATOM     29  C   UNL     1       4.321   1.722  -0.119  1.00  0.00     0.023 C 
BRANCH  29  30
ATOM     30  C   UNL     1       5.287   2.379  -1.081  1.00  0.00     0.116 C 
BRANCH  30  31
ATOM     31  N   UNL     1       4.845   3.710  -1.479  1.00  0.00    -0.352 N 
ATOM     32  C   UNL     1       5.510   4.907  -1.399  1.00  0.00     0.251 C 
ATOM     33  H   UNL     1       3.939   3.757  -1.860  1.00  0.00     0.163 HD
ATOM     34  O   UNL     1       4.918   5.964  -1.588  1.00  0.00    -0.269 OA
BRANCH  32  35
ATOM     35  C   UNL     1       6.946   4.911  -1.069  1.00  0.00     0.039 A 
ATOM     36  C   UNL     1       7.442   5.869  -0.182  1.00  0.00     0.014 A 
ATOM     37  C   UNL     1       7.795   3.952  -1.626  1.00  0.00     0.014 A 
ATOM     38  C   UNL     1       8.786   5.829   0.187  1.00  0.00     0.010 A 
ATOM     39  C   UNL     1       9.099   3.845  -1.175  1.00  0.00     0.010 A 
ATOM     40  C   UNL     1       9.614   4.798  -0.285  1.00  0.00    -0.014 A 
BRANCH  40  41
ATOM     41  C   UNL     1      11.044   4.717   0.082  1.00  0.00     0.031 A 
ATOM     42  C   UNL     1      12.084   4.823  -1.000  1.00  0.00     0.074 A 
ATOM     43  C   UNL     1      11.396   4.459   1.354  1.00  0.00     0.049 A 
ATOM     44  N   UNL     1      13.378   4.655  -0.920  1.00  0.00    -0.248 NA
ATOM     45  C   UNL     1      11.599   5.111  -2.361  1.00  0.00     0.031 C 
ATOM     46  C   UNL     1      10.471   4.282   2.476  1.00  0.00     0.029 A 
ATOM     47  N   UNL     1      12.635   4.292   1.915  1.00  0.00    -0.354 N 
ATOM     48  C   UNL     1      13.850   4.776  -2.221  1.00  0.00     0.074 A 
ATOM     49  C   UNL     1      12.704   4.978  -3.077  1.00  0.00     0.031 C 
ATOM     50  C   UNL     1      11.177   4.062   3.597  1.00  0.00     0.029 A 
ATOM     51  C   UNL     1      12.598   4.045   3.266  1.00  0.00     0.049 A 
ATOM     52  H   UNL     1      13.472   4.343   1.400  1.00  0.00     0.167 HD
ATOM     53  C   UNL     1      15.129   4.746  -2.662  1.00  0.00     0.031 A 
ATOM     54  C   UNL     1      13.601   3.831   4.135  1.00  0.00     0.031 A 
ATOM     55  C   UNL     1      16.267   4.595  -1.799  1.00  0.00     0.049 A 
ATOM     56  C   UNL     1      15.016   3.852   3.630  1.00  0.00     0.074 A 
ATOM     57  C   UNL     1      17.610   4.627  -2.127  1.00  0.00     0.029 A 
ATOM     58  N   UNL     1      16.189   4.399  -0.429  1.00  0.00    -0.354 N 
ATOM     59  N   UNL     1      15.453   4.027   2.405  1.00  0.00    -0.248 NA
ATOM     60  C   UNL     1      16.077   3.660   4.628  1.00  0.00     0.031 C 
ATOM     61  C   UNL     1      18.346   4.420  -0.955  1.00  0.00     0.029 A 
ATOM     62  C   UNL     1      17.460   4.300   0.104  1.00  0.00     0.049 A 
ATOM     63  H   UNL     1      15.352   4.339   0.087  1.00  0.00     0.167 HD
ATOM     64  C   UNL     1      16.837   3.991   2.489  1.00  0.00     0.074 A 
ATOM     65  C   UNL     1      17.168   3.793   3.886  1.00  0.00     0.031 C 
ATOM     66  C   UNL     1      17.756   4.110   1.500  1.00  0.00     0.031 A 
BRANCH  53  67
ATOM     67  C   UNL     1      15.353   4.889  -4.141  1.00  0.00    -0.014 A 
ATOM     68  C   UNL     1      15.126   6.110  -4.796  1.00  0.00     0.009 A 
ATOM     69  C   UNL     1      15.809   3.792  -4.888  1.00  0.00     0.009 A 
ATOM     70  C   UNL     1      15.311   6.218  -6.176  1.00  0.00     0.001 A 
ATOM     71  C   UNL     1      16.021   3.912  -6.263  1.00  0.00     0.001 A 
ATOM     72  C   UNL     1      15.762   5.121  -6.907  1.00  0.00     0.000 A 
ENDBRANCH  53  67
BRANCH  54  73
ATOM     73  C   UNL     1      13.307   3.616   5.575  1.00  0.00    -0.014 A 
ATOM     74  C   UNL     1      13.591   4.621   6.512  1.00  0.00     0.009 A 
ATOM     75  C   UNL     1      12.740   2.412   6.020  1.00  0.00     0.009 A 
ATOM     76  C   UNL     1      13.337   4.415   7.870  1.00  0.00     0.001 A 
ATOM     77  C   UNL     1      12.463   2.219   7.375  1.00  0.00     0.001 A 
ATOM     78  C   UNL     1      12.771   3.216   8.300  1.00  0.00     0.000 A 
ENDBRANCH  54  73
BRANCH  66  79
ATOM     79  C   UNL     1      19.200   4.063   1.903  1.00  0.00    -0.014 A 
ATOM     80  C   UNL     1      19.815   2.852   2.253  1.00  0.00     0.009 A 
ATOM     81  C   UNL     1      19.963   5.240   1.885  1.00  0.00     0.009 A 
ATOM     82  C   UNL     1      21.165   2.827   2.607  1.00  0.00     0.001 A 
ATOM     83  C   UNL     1      21.317   5.208   2.215  1.00  0.00     0.001 A 
ATOM     84  C   UNL     1      21.915   4.003   2.583  1.00  0.00     0.000 A 
ENDBRANCH  66  79
ENDBRANCH  40  41
ENDBRANCH  32  35
ENDBRANCH  30  31
ENDBRANCH  29  30
ENDBRANCH  28  29
ENDBRANCH   1  28
TORSDOF 17
