REMARK SMILES O=C(NCCCCNC(=O)[C@@H]1CC(=O)N(c2ccc(Cl)cc2C(=O)c2ccccc2)C1)c1ccc(-c2c3nc(c(-c4ccccc4)c4ccc([nH]4)c(-c4ccccc4)c4nc(c(-c5ccccc5)c5ccc2[nH]5)C=C4)C=C3)cc1
REMARK SMILES IDX 6 1 5 2 4 3 3 4 1 5 2 6 32 8 33 9 79 10 34 11 78 12 35 13
REMARK SMILES IDX 36 14 37 15 72 16 38 17 77 18 71 19 73 20 39 21 76 22 70 23
REMARK SMILES IDX 69 24 40 26 62 27 47 28 61 29 48 30 51 31 60 32 74 33 49 34
REMARK SMILES IDX 50 35 59 37 75 38 52 39 41 40 42 41 46 42 43 43 45 44 44 45
REMARK SMILES IDX 63 46 64 47 68 48 65 49 67 50 66 51 53 52 54 53 58 54 55 55
REMARK SMILES IDX 57 56 56 57 7 58 8 59 9 60 10 62 11 63 12 64 31 65 13 66
REMARK SMILES IDX 15 67 14 68 16 69 17 70 22 71 18 72 21 73 19 74 20 75 23 76
REMARK SMILES IDX 24 77 25 78 26 79 30 80 27 81 29 82 28 83
REMARK H PARENT 3 7 73 25 51 36 8 61
REMARK Flexibility Score: inf
ROOT
ATOM      1  C   UNL     1       3.947   0.334  -3.985  1.00  0.00     0.023 C 
ENDROOT
BRANCH   1   2
ATOM      2  C   UNL     1       4.670  -0.190  -2.741  1.00  0.00     0.023 C 
BRANCH   2   3
ATOM      3  C   UNL     1       4.422   0.582  -1.448  1.00  0.00     0.116 C 
BRANCH   3   4
ATOM      4  N   UNL     1       3.029   0.570  -1.033  1.00  0.00    -0.352 N 
ATOM      5  O   UNL     1       1.187  -0.036   0.108  1.00  0.00    -0.269 OA
ATOM      6  C   UNL     1       2.413  -0.037   0.036  1.00  0.00     0.251 C 
ATOM      7  H   UNL     1       2.424   1.084  -1.615  1.00  0.00     0.163 HD
BRANCH   6   8
ATOM      8  C   UNL     1       3.204  -0.713   1.090  1.00  0.00     0.039 A 
ATOM      9  C   UNL     1       4.377  -0.145   1.586  1.00  0.00     0.014 A 
ATOM     10  C   UNL     1       2.740  -1.920   1.627  1.00  0.00     0.014 A 
ATOM     11  C   UNL     1       5.167  -0.857   2.482  1.00  0.00     0.010 A 
ATOM     12  C   UNL     1       3.484  -2.585   2.609  1.00  0.00     0.010 A 
ATOM     13  C   UNL     1       4.723  -2.076   3.022  1.00  0.00    -0.014 A 
BRANCH  13  14
ATOM     14  C   UNL     1       5.550  -2.738   4.066  1.00  0.00     0.031 A 
ATOM     15  C   UNL     1       6.173  -4.089   3.843  1.00  0.00     0.074 A 
ATOM     16  C   UNL     1       5.792  -2.068   5.211  1.00  0.00     0.049 A 
ATOM     17  N   UNL     1       6.999  -4.750   4.618  1.00  0.00    -0.248 NA
ATOM     18  C   UNL     1       5.827  -4.795   2.600  1.00  0.00     0.031 C 
ATOM     19  C   UNL     1       5.228  -0.760   5.556  1.00  0.00     0.029 A 
ATOM     20  N   UNL     1       6.598  -2.372   6.278  1.00  0.00    -0.354 N 
ATOM     21  C   UNL     1       7.269  -5.943   3.961  1.00  0.00     0.074 A 
ATOM     22  C   UNL     1       6.489  -5.936   2.741  1.00  0.00     0.031 C 
ATOM     23  C   UNL     1       5.755  -0.345   6.717  1.00  0.00     0.029 A 
ATOM     24  C   UNL     1       6.638  -1.384   7.232  1.00  0.00     0.049 A 
ATOM     25  H   UNL     1       7.100  -3.216   6.354  1.00  0.00     0.167 HD
ATOM     26  C   UNL     1       8.101  -6.948   4.332  1.00  0.00     0.031 A 
ATOM     27  C   UNL     1       7.301  -1.319   8.401  1.00  0.00     0.031 A 
ATOM     28  C   UNL     1       8.864  -6.964   5.554  1.00  0.00     0.049 A 
ATOM     29  C   UNL     1       8.188  -2.461   8.800  1.00  0.00     0.074 A 
ATOM     30  C   UNL     1       9.738  -7.936   6.013  1.00  0.00     0.029 A 
ATOM     31  N   UNL     1       8.843  -5.964   6.514  1.00  0.00    -0.354 N 
ATOM     32  N   UNL     1       8.458  -3.564   8.145  1.00  0.00    -0.248 NA
ATOM     33  C   UNL     1       8.867  -2.345  10.097  1.00  0.00     0.031 C 
ATOM     34  C   UNL     1      10.204  -7.548   7.274  1.00  0.00     0.029 A 
ATOM     35  C   UNL     1       9.672  -6.304   7.572  1.00  0.00     0.049 A 
ATOM     36  H   UNL     1       8.316  -5.134   6.454  1.00  0.00     0.167 HD
ATOM     37  C   UNL     1       9.348  -4.268   8.945  1.00  0.00     0.074 A 
ATOM     38  C   UNL     1       9.599  -3.449  10.113  1.00  0.00     0.031 C 
ATOM     39  C   UNL     1       9.902  -5.487   8.735  1.00  0.00     0.031 A 
BRANCH  26  40
ATOM     40  C   UNL     1       8.223  -8.130   3.407  1.00  0.00    -0.014 A 
ATOM     41  C   UNL     1       8.895  -8.025   2.179  1.00  0.00     0.009 A 
ATOM     42  C   UNL     1       7.716  -9.381   3.796  1.00  0.00     0.009 A 
ATOM     43  C   UNL     1       9.032  -9.139   1.348  1.00  0.00     0.001 A 
ATOM     44  C   UNL     1       7.880 -10.500   2.976  1.00  0.00     0.001 A 
ATOM     45  C   UNL     1       8.531 -10.377   1.750  1.00  0.00     0.000 A 
ENDBRANCH  26  40
BRANCH  27  46
ATOM     46  C   UNL     1       7.126  -0.139   9.290  1.00  0.00    -0.014 A 
ATOM     47  C   UNL     1       8.188   0.742   9.541  1.00  0.00     0.009 A 
ATOM     48  C   UNL     1       5.886   0.103   9.902  1.00  0.00     0.009 A 
ATOM     49  C   UNL     1       8.020   1.821  10.412  1.00  0.00     0.001 A 
ATOM     50  C   UNL     1       5.709   1.203  10.742  1.00  0.00     0.001 A 
ATOM     51  C   UNL     1       6.780   2.054  11.007  1.00  0.00     0.000 A 
ENDBRANCH  27  46
BRANCH  39  52
ATOM     52  C   UNL     1      10.853  -5.989   9.786  1.00  0.00    -0.014 A 
ATOM     53  C   UNL     1      10.397  -6.374  11.057  1.00  0.00     0.009 A 
ATOM     54  C   UNL     1      12.223  -6.077   9.499  1.00  0.00     0.009 A 
ATOM     55  C   UNL     1      11.303  -6.791  12.035  1.00  0.00     0.001 A 
ATOM     56  C   UNL     1      13.122  -6.527  10.468  1.00  0.00     0.001 A 
ATOM     57  C   UNL     1      12.663  -6.870  11.739  1.00  0.00     0.000 A 
ENDBRANCH  39  52
ENDBRANCH  13  14
ENDBRANCH   6   8
ENDBRANCH   3   4
ENDBRANCH   2   3
ENDBRANCH   1   2
BRANCH   1  58
ATOM     58  C   UNL     1       4.119   1.820  -4.279  1.00  0.00     0.116 C 
BRANCH  58  59
ATOM     59  N   UNL     1       5.502   2.252  -4.323  1.00  0.00    -0.356 N 
ATOM     60  C   UNL     1       5.780   3.553  -4.642  1.00  0.00     0.225 C 
ATOM     61  H   UNL     1       6.229   1.619  -4.127  1.00  0.00     0.163 HD
ATOM     62  O   UNL     1       6.037   4.330  -3.728  1.00  0.00    -0.275 OA
BRANCH  60  63
ATOM     63  C   UNL     1       5.630   3.988  -6.087  1.00  0.00     0.107 C 
ATOM     64  C   UNL     1       6.465   3.151  -7.061  1.00  0.00     0.116 C 
ATOM     65  C   UNL     1       6.185   5.396  -6.258  1.00  0.00     0.139 C 
ATOM     66  C   UNL     1       7.720   3.966  -7.275  1.00  0.00     0.227 C 
ATOM     67  N   UNL     1       7.566   5.178  -6.610  1.00  0.00    -0.311 N 
ATOM     68  O   UNL     1       8.687   3.596  -7.928  1.00  0.00    -0.274 OA
BRANCH  67  69
ATOM     69  C   UNL     1       8.469   6.251  -6.711  1.00  0.00     0.055 A 
ATOM     70  C   UNL     1       8.566   6.897  -7.955  1.00  0.00     0.028 A 
ATOM     71  C   UNL     1       9.185   6.756  -5.608  1.00  0.00     0.048 A 
ATOM     72  C   UNL     1       9.327   8.059  -8.098  1.00  0.00     0.023 A 
ATOM     73  C   UNL     1       9.949   7.929  -5.770  1.00  0.00     0.035 A 
ATOM     74  C   UNL     1      10.009   8.574  -7.002  1.00  0.00     0.041 A 
ATOM     75  Cl  UNL     1      10.919  10.024  -7.166  1.00  0.00    -0.084 Cl
BRANCH  71  76
ATOM     76  C   UNL     1       9.175   6.203  -4.224  1.00  0.00     0.195 C 
ATOM     77  O   UNL     1       9.174   7.017  -3.298  1.00  0.00    -0.289 OA
BRANCH  76  78
ATOM     78  C   UNL     1       9.213   4.755  -3.883  1.00  0.00     0.023 A 
ATOM     79  C   UNL     1       8.755   4.373  -2.611  1.00  0.00     0.012 A 
ATOM     80  C   UNL     1       9.701   3.772  -4.746  1.00  0.00     0.012 A 
ATOM     81  C   UNL     1       8.698   3.026  -2.244  1.00  0.00     0.001 A 
ATOM     82  C   UNL     1       9.627   2.421  -4.385  1.00  0.00     0.001 A 
ATOM     83  C   UNL     1       9.115   2.048  -3.142  1.00  0.00     0.000 A 
ENDBRANCH  76  78
ENDBRANCH  71  76
ENDBRANCH  67  69
ENDBRANCH  60  63
ENDBRANCH  58  59
ENDBRANCH   1  58
TORSDOF 14
