REMARK SMILES C#CCN(CC(=O)NCCCCNC(=O)c1ccc(-c2c3nc(c(-c4ccccc4)c4ccc([nH]4)c(-c4ccccc4)c4nc(c(-c5ccccc5)c5ccc2[nH]5)C=C4)C=C3)cc1)C(=O)[C@H](c1ccc(Cl)cc1)C(C)C
REMARK SMILES IDX 9 1 8 2 6 3 7 4 5 6 4 7 3 8 2 9 1 10 64 11 65 12 66 13 74 14
REMARK SMILES IDX 75 15 76 16 67 17 68 18 73 19 69 20 72 21 70 22 71 23 10 24
REMARK SMILES IDX 11 25 12 26 13 27 14 28 15 30 16 31 17 32 63 33 18 34 62 35
REMARK SMILES IDX 19 36 20 37 21 38 56 39 22 40 61 41 55 42 57 43 23 44 60 45
REMARK SMILES IDX 54 46 53 47 24 49 46 50 31 51 45 52 32 53 35 54 44 55 58 56
REMARK SMILES IDX 33 57 34 58 43 60 59 61 36 62 25 63 26 64 30 65 27 66 29 67
REMARK SMILES IDX 28 68 47 69 48 70 52 71 49 72 51 73 50 74 37 75 38 76 42 77
REMARK SMILES IDX 39 78 41 79 40 80
REMARK H PARENT 8 5 13 29 57 48 35 59
REMARK Flexibility Score: inf
ROOT
ATOM      1  C   UNL     1       1.848  -1.500   6.138  1.00  0.00     0.116 C 
ENDROOT
BRANCH   1   2
ATOM      2  N   UNL     1       1.398  -2.435   5.136  1.00  0.00    -0.355 N 
ATOM      3  C   UNL     1       0.790  -2.200   3.943  1.00  0.00     0.239 C 
ATOM      4  O   UNL     1       0.445  -3.186   3.288  1.00  0.00    -0.273 OA
ATOM      5  H   UNL     1       1.554  -3.384   5.348  1.00  0.00     0.163 HD
BRANCH   3   6
ATOM      6  C   UNL     1       0.605  -0.770   3.413  1.00  0.00     0.220 C 
BRANCH   6   7
ATOM      7  N   UNL     1      -0.354   0.081   4.127  1.00  0.00    -0.322 N 
BRANCH   7   8
ATOM      8  C   UNL     1       0.213   1.182   4.912  1.00  0.00     0.209 C 
BRANCH   8   9
ATOM      9  C   UNL     1      -0.429   2.532   4.638  1.00  0.00    -0.085 C 
ATOM     10  C   UNL     1      -0.981   3.690   4.404  1.00  0.00     0.006 C 
ENDBRANCH   8   9
ENDBRANCH   7   8
BRANCH   7  11
ATOM     11  C   UNL     1      -1.746  -0.086   4.120  1.00  0.00     0.231 C 
ATOM     12  O   UNL     1      -2.458   0.667   4.793  1.00  0.00    -0.274 OA
BRANCH  11  13
ATOM     13  C   UNL     1      -2.412  -1.235   3.300  1.00  0.00     0.111 C 
BRANCH  13  14
ATOM     14  C   UNL     1      -3.948  -1.382   3.609  1.00  0.00    -0.000 C 
ATOM     15  C   UNL     1      -4.593  -2.528   2.810  1.00  0.00     0.008 C 
ATOM     16  C   UNL     1      -4.247  -1.645   5.096  1.00  0.00     0.008 C 
ENDBRANCH  13  14
BRANCH  13  17
ATOM     17  C   UNL     1      -2.190  -1.035   1.798  1.00  0.00    -0.035 A 
ATOM     18  C   UNL     1      -1.517  -2.018   1.050  1.00  0.00     0.006 A 
ATOM     19  C   UNL     1      -2.618   0.130   1.143  1.00  0.00     0.006 A 
ATOM     20  C   UNL     1      -1.184  -1.796  -0.287  1.00  0.00     0.021 A 
ATOM     21  C   UNL     1      -2.320   0.334  -0.207  1.00  0.00     0.021 A 
ATOM     22  C   UNL     1      -1.580  -0.616  -0.908  1.00  0.00     0.041 A 
ATOM     23  Cl  UNL     1      -1.140  -0.325  -2.545  1.00  0.00    -0.084 Cl
ENDBRANCH  13  17
ENDBRANCH  11  13
ENDBRANCH   7  11
ENDBRANCH   6   7
ENDBRANCH   3   6
ENDBRANCH   1   2
BRANCH   1  24
ATOM     24  C   UNL     1       0.819  -1.356   7.257  1.00  0.00     0.023 C 
BRANCH  24  25
ATOM     25  C   UNL     1       0.565  -2.630   8.063  1.00  0.00     0.023 C 
BRANCH  25  26
ATOM     26  C   UNL     1       1.815  -3.358   8.531  1.00  0.00     0.116 C 
BRANCH  26  27
ATOM     27  N   UNL     1       2.747  -2.501   9.247  1.00  0.00    -0.352 N 
ATOM     28  C   UNL     1       3.634  -2.853  10.235  1.00  0.00     0.251 C 
ATOM     29  H   UNL     1       2.741  -1.550   8.991  1.00  0.00     0.163 HD
ATOM     30  O   UNL     1       4.316  -2.007  10.793  1.00  0.00    -0.269 OA
BRANCH  28  31
ATOM     31  C   UNL     1       3.708  -4.267  10.646  1.00  0.00     0.039 A 
ATOM     32  C   UNL     1       3.538  -4.575  11.996  1.00  0.00     0.014 A 
ATOM     33  C   UNL     1       3.881  -5.278   9.697  1.00  0.00     0.014 A 
ATOM     34  C   UNL     1       3.485  -5.911  12.391  1.00  0.00     0.010 A 
ATOM     35  C   UNL     1       3.760  -6.608  10.083  1.00  0.00     0.010 A 
ATOM     36  C   UNL     1       3.564  -6.935  11.434  1.00  0.00    -0.014 A 
BRANCH  36  37
ATOM     37  C   UNL     1       3.461  -8.358  11.832  1.00  0.00     0.031 A 
ATOM     38  C   UNL     1       4.649  -9.265  11.674  1.00  0.00     0.074 A 
ATOM     39  C   UNL     1       2.292  -8.840  12.294  1.00  0.00     0.049 A 
ATOM     40  N   UNL     1       4.747 -10.546  11.922  1.00  0.00    -0.248 NA
ATOM     41  C   UNL     1       5.882  -8.656  11.149  1.00  0.00     0.031 C 
ATOM     42  C   UNL     1       1.060  -8.065  12.466  1.00  0.00     0.029 A 
ATOM     43  N   UNL     1       1.949 -10.103  12.705  1.00  0.00    -0.354 N 
ATOM     44  C   UNL     1       6.046 -10.895  11.576  1.00  0.00     0.074 A 
ATOM     45  C   UNL     1       6.681  -9.708  11.049  1.00  0.00     0.031 C 
ATOM     46  C   UNL     1       0.108  -8.862  12.978  1.00  0.00     0.029 A 
ATOM     47  C   UNL     1       0.648 -10.209  13.134  1.00  0.00     0.049 A 
ATOM     48  H   UNL     1       2.576 -10.862  12.695  1.00  0.00     0.167 HD
ATOM     49  C   UNL     1       6.665 -12.092  11.710  1.00  0.00     0.031 A 
ATOM     50  C   UNL     1      -0.030 -11.274  13.599  1.00  0.00     0.031 A 
ATOM     51  C   UNL     1       6.036 -13.270  12.241  1.00  0.00     0.049 A 
ATOM     52  C   UNL     1       0.673 -12.598  13.709  1.00  0.00     0.074 A 
ATOM     53  C   UNL     1       6.585 -14.525  12.441  1.00  0.00     0.029 A 
ATOM     54  N   UNL     1       4.717 -13.336  12.660  1.00  0.00    -0.354 N 
ATOM     55  N   UNL     1       1.915 -12.901  13.422  1.00  0.00    -0.248 NA
ATOM     56  C   UNL     1      -0.121 -13.726  14.219  1.00  0.00     0.031 C 
ATOM     57  C   UNL     1       5.585 -15.361  12.949  1.00  0.00     0.029 A 
ATOM     58  C   UNL     1       4.429 -14.613  13.108  1.00  0.00     0.049 A 
ATOM     59  H   UNL     1       4.079 -12.586  12.641  1.00  0.00     0.167 HD
ATOM     60  C   UNL     1       2.062 -14.243  13.748  1.00  0.00     0.074 A 
ATOM     61  C   UNL     1       0.786 -14.691  14.266  1.00  0.00     0.031 C 
ATOM     62  C   UNL     1       3.155 -15.035  13.630  1.00  0.00     0.031 A 
BRANCH  49  63
ATOM     63  C   UNL     1       8.101 -12.175  11.277  1.00  0.00    -0.014 A 
ATOM     64  C   UNL     1       9.115 -11.544  12.015  1.00  0.00     0.009 A 
ATOM     65  C   UNL     1       8.449 -12.912  10.135  1.00  0.00     0.009 A 
ATOM     66  C   UNL     1      10.445 -11.621  11.600  1.00  0.00     0.001 A 
ATOM     67  C   UNL     1       9.784 -13.011   9.738  1.00  0.00     0.001 A 
ATOM     68  C   UNL     1      10.779 -12.358  10.464  1.00  0.00     0.000 A 
ENDBRANCH  49  63
BRANCH  50  69
ATOM     69  C   UNL     1      -1.450 -11.137  14.019  1.00  0.00    -0.014 A 
ATOM     70  C   UNL     1      -1.800 -11.229  15.375  1.00  0.00     0.009 A 
ATOM     71  C   UNL     1      -2.463 -10.942  13.068  1.00  0.00     0.009 A 
ATOM     72  C   UNL     1      -3.140 -11.164  15.766  1.00  0.00     0.001 A 
ATOM     73  C   UNL     1      -3.799 -10.849  13.465  1.00  0.00     0.001 A 
ATOM     74  C   UNL     1      -4.137 -10.972  14.811  1.00  0.00     0.000 A 
ENDBRANCH  50  69
BRANCH  62  75
ATOM     75  C   UNL     1       3.030 -16.451  14.114  1.00  0.00    -0.014 A 
ATOM     76  C   UNL     1       2.298 -17.406  13.394  1.00  0.00     0.009 A 
ATOM     77  C   UNL     1       3.689 -16.840  15.291  1.00  0.00     0.009 A 
ATOM     78  C   UNL     1       2.200 -18.717  13.862  1.00  0.00     0.001 A 
ATOM     79  C   UNL     1       3.611 -18.158  15.742  1.00  0.00     0.001 A 
ATOM     80  C   UNL     1       2.860 -19.093  15.032  1.00  0.00     0.000 A 
ENDBRANCH  62  75
ENDBRANCH  36  37
ENDBRANCH  28  31
ENDBRANCH  26  27
ENDBRANCH  25  26
ENDBRANCH  24  25
ENDBRANCH   1  24
TORSDOF 18
