REMARK SMILES Cc1cc2n(n1)[C@H](C(F)(F)F)CCN2C(=O)c1cnn([C@@H](C)C(=O)NCCCCNC(=O)c2ccc(-c3c4nc(c(-c5ccccc5)c5ccc([nH]5)c(-c5ccccc5)c5nc(c(-c6ccccc6)c6ccc3[nH]6)C=C5)C=C4)cc2)c1
REMARK SMILES IDX 26 1 25 2 23 3 24 4 21 6 22 7 20 8 17 9 18 10 81 11 19 12
REMARK SMILES IDX 15 13 16 14 14 15 1 16 2 17 3 18 6 19 4 20 5 21 7 22 13 23
REMARK SMILES IDX 12 24 8 25 9 26 10 27 11 28 27 29 28 30 29 31 30 32 31 33
REMARK SMILES IDX 32 35 33 36 34 37 80 38 35 39 79 40 36 41 37 42 38 43 73 44
REMARK SMILES IDX 39 45 78 46 72 47 74 48 40 49 77 50 71 51 70 52 41 54 63 55
REMARK SMILES IDX 48 56 62 57 49 58 52 59 61 60 75 61 50 62 51 63 60 65 76 66
REMARK SMILES IDX 53 67 42 68 43 69 47 70 44 71 46 72 45 73 64 74 65 75 69 76
REMARK SMILES IDX 66 77 68 78 67 79 54 80 55 81 59 82 56 83 58 84 57 85
REMARK H PARENT 25 5 30 34 74 53 52 64
REMARK Flexibility Score: inf
ROOT
ATOM      1  C   UNL     1      -0.507 -11.135   4.042  1.00  0.00     0.116 C 
ENDROOT
BRANCH   1   2
ATOM      2  N   UNL     1       0.686 -11.445   3.272  1.00  0.00    -0.354 N 
ATOM      3  C   UNL     1       1.884 -10.808   3.156  1.00  0.00     0.244 C 
ATOM      4  O   UNL     1       2.681 -11.299   2.345  1.00  0.00    -0.273 OA
ATOM      5  H   UNL     1       0.616 -12.268   2.736  1.00  0.00     0.163 HD
BRANCH   3   6
ATOM      6  C   UNL     1       2.311  -9.587   3.970  1.00  0.00     0.193 C 
ATOM      7  C   UNL     1       2.429  -9.826   5.471  1.00  0.00     0.044 C 
BRANCH   6   8
ATOM      8  N   UNL     1       1.569  -8.382   3.616  1.00  0.00    -0.260 N 
ATOM      9  C   UNL     1       0.983  -6.409   2.807  1.00  0.00     0.078 A 
ATOM     10  C   UNL     1      -0.094  -7.105   3.383  1.00  0.00     0.149 A 
ATOM     11  C   UNL     1       2.044  -7.291   2.935  1.00  0.00     0.123 A 
ATOM     12  N   UNL     1       0.298  -8.204   4.021  1.00  0.00    -0.180 NA
BRANCH   9  13
ATOM     13  C   UNL     1       1.009  -5.143   2.117  1.00  0.00     0.262 C 
ATOM     14  O   UNL     1       1.538  -4.991   1.028  1.00  0.00    -0.269 OA
BRANCH  13  15
ATOM     15  N   UNL     1       0.411  -4.032   2.853  1.00  0.00    -0.293 N 
ATOM     16  C   UNL     1       0.822   0.073  -0.030  1.00  0.00     0.069 C 
ATOM     17  C   UNL     1       0.510  -0.911   1.035  1.00  0.00     0.062 A 
ATOM     18  C   UNL     1       0.763  -2.308   1.024  1.00  0.00     0.072 A 
ATOM     19  N   UNL     1      -0.061  -0.523   2.181  1.00  0.00    -0.176 NA
ATOM     20  C   UNL     1       0.375  -2.757   2.265  1.00  0.00     0.134 A 
ATOM     21  N   UNL     1      -0.093  -1.641   2.911  1.00  0.00    -0.237 N 
ATOM     22  C   UNL     1      -0.626  -1.645   4.256  1.00  0.00     0.216 C 
ATOM     23  C   UNL     1       0.046  -4.108   4.294  1.00  0.00     0.130 C 
ATOM     24  C   UNL     1      -1.031  -3.074   4.640  1.00  0.00     0.059 C 
BRANCH  22  25
ATOM     25  C   UNL     1       0.384  -1.065   5.222  1.00  0.00     0.410 C 
ATOM     26  F   UNL     1      -0.121  -1.093   6.481  1.00  0.00    -0.169 F 
ATOM     27  F   UNL     1       1.522  -1.795   5.246  1.00  0.00    -0.169 F 
ATOM     28  F   UNL     1       0.711   0.212   4.956  1.00  0.00    -0.169 F 
ENDBRANCH  22  25
ENDBRANCH  13  15
ENDBRANCH   9  13
ENDBRANCH   6   8
ENDBRANCH   3   6
ENDBRANCH   1   2
BRANCH   1  29
ATOM     29  C   UNL     1      -1.605 -10.481   3.194  1.00  0.00     0.023 C 
BRANCH  29  30
ATOM     30  C   UNL     1      -2.374 -11.407   2.247  1.00  0.00     0.023 C 
BRANCH  30  31
ATOM     31  C   UNL     1      -3.260 -12.443   2.929  1.00  0.00     0.116 C 
BRANCH  31  32
ATOM     32  N   UNL     1      -4.301 -11.848   3.762  1.00  0.00    -0.352 N 
ATOM     33  C   UNL     1      -4.989 -12.441   4.801  1.00  0.00     0.251 C 
ATOM     34  H   UNL     1      -4.541 -10.915   3.558  1.00  0.00     0.163 HD
ATOM     35  O   UNL     1      -6.039 -11.974   5.223  1.00  0.00    -0.269 OA
BRANCH  33  36
ATOM     36  C   UNL     1      -4.425 -13.666   5.389  1.00  0.00     0.039 A 
ATOM     37  C   UNL     1      -5.157 -14.853   5.395  1.00  0.00     0.014 A 
ATOM     38  C   UNL     1      -3.103 -13.632   5.829  1.00  0.00     0.014 A 
ATOM     39  C   UNL     1      -4.514 -16.040   5.748  1.00  0.00     0.010 A 
ATOM     40  C   UNL     1      -2.448 -14.819   6.093  1.00  0.00     0.010 A 
ATOM     41  C   UNL     1      -3.146 -16.033   6.064  1.00  0.00    -0.014 A 
BRANCH  41  42
ATOM     42  C   UNL     1      -2.434 -17.305   6.250  1.00  0.00     0.031 A 
ATOM     43  C   UNL     1      -2.521 -18.318   5.149  1.00  0.00     0.074 A 
ATOM     44  C   UNL     1      -1.515 -17.517   7.216  1.00  0.00     0.049 A 
ATOM     45  N   UNL     1      -2.892 -19.556   5.229  1.00  0.00    -0.248 NA
ATOM     46  C   UNL     1      -2.138 -17.901   3.791  1.00  0.00     0.031 C 
ATOM     47  C   UNL     1      -0.998 -16.562   8.201  1.00  0.00     0.029 A 
ATOM     48  N   UNL     1      -0.737 -18.621   7.419  1.00  0.00    -0.354 N 
ATOM     49  C   UNL     1      -2.668 -20.122   3.972  1.00  0.00     0.074 A 
ATOM     50  C   UNL     1      -2.275 -19.038   3.106  1.00  0.00     0.031 C 
ATOM     51  C   UNL     1       0.164 -17.030   8.705  1.00  0.00     0.029 A 
ATOM     52  C   UNL     1       0.370 -18.381   8.216  1.00  0.00     0.049 A 
ATOM     53  H   UNL     1      -0.943 -19.504   7.035  1.00  0.00     0.167 HD
ATOM     54  C   UNL     1      -2.669 -21.469   3.758  1.00  0.00     0.031 A 
ATOM     55  C   UNL     1       1.411 -19.213   8.445  1.00  0.00     0.031 A 
ATOM     56  C   UNL     1      -3.243 -22.202   4.851  1.00  0.00     0.049 A 
ATOM     57  C   UNL     1       0.983 -20.589   8.124  1.00  0.00     0.074 A 
ATOM     58  C   UNL     1      -4.471 -22.239   5.479  1.00  0.00     0.029 A 
ATOM     59  N   UNL     1      -2.386 -22.885   5.678  1.00  0.00    -0.354 N 
ATOM     60  N   UNL     1       0.101 -21.250   8.816  1.00  0.00    -0.248 NA
ATOM     61  C   UNL     1       1.287 -21.140   6.814  1.00  0.00     0.031 C 
ATOM     62  C   UNL     1      -4.176 -22.499   6.850  1.00  0.00     0.029 A 
ATOM     63  C   UNL     1      -2.790 -22.624   6.960  1.00  0.00     0.049 A 
ATOM     64  H   UNL     1      -1.629 -23.450   5.403  1.00  0.00     0.167 HD
ATOM     65  C   UNL     1      -0.565 -22.031   7.885  1.00  0.00     0.074 A 
ATOM     66  C   UNL     1       0.302 -22.037   6.713  1.00  0.00     0.031 C 
ATOM     67  C   UNL     1      -1.882 -22.356   8.053  1.00  0.00     0.031 A 
BRANCH  54  68
ATOM     68  C   UNL     1      -1.863 -22.174   2.693  1.00  0.00    -0.014 A 
ATOM     69  C   UNL     1      -2.071 -23.552   2.477  1.00  0.00     0.009 A 
ATOM     70  C   UNL     1      -0.724 -21.606   2.096  1.00  0.00     0.009 A 
ATOM     71  C   UNL     1      -1.157 -24.327   1.752  1.00  0.00     0.001 A 
ATOM     72  C   UNL     1       0.169 -22.370   1.334  1.00  0.00     0.001 A 
ATOM     73  C   UNL     1      -0.034 -23.735   1.184  1.00  0.00     0.000 A 
ENDBRANCH  54  68
BRANCH  55  74
ATOM     74  C   UNL     1       2.803 -18.864   8.781  1.00  0.00    -0.014 A 
ATOM     75  C   UNL     1       3.640 -19.779   9.431  1.00  0.00     0.009 A 
ATOM     76  C   UNL     1       3.383 -17.694   8.255  1.00  0.00     0.009 A 
ATOM     77  C   UNL     1       5.017 -19.543   9.530  1.00  0.00     0.001 A 
ATOM     78  C   UNL     1       4.756 -17.455   8.359  1.00  0.00     0.001 A 
ATOM     79  C   UNL     1       5.575 -18.387   8.986  1.00  0.00     0.000 A 
ENDBRANCH  55  74
BRANCH  67  80
ATOM     80  C   UNL     1      -2.511 -22.093   9.399  1.00  0.00    -0.014 A 
ATOM     81  C   UNL     1      -2.581 -20.808   9.964  1.00  0.00     0.009 A 
ATOM     82  C   UNL     1      -3.186 -23.139  10.045  1.00  0.00     0.009 A 
ATOM     83  C   UNL     1      -3.268 -20.584  11.160  1.00  0.00     0.001 A 
ATOM     84  C   UNL     1      -3.893 -22.911  11.229  1.00  0.00     0.001 A 
ATOM     85  C   UNL     1      -3.927 -21.636  11.790  1.00  0.00     0.000 A 
ENDBRANCH  67  80
ENDBRANCH  41  42
ENDBRANCH  33  36
ENDBRANCH  31  32
ENDBRANCH  30  31
ENDBRANCH  29  30
ENDBRANCH   1  29
TORSDOF 15
