REMARK SMILES CC(=O)N1CCC[C@H]1COCC(=O)NCCCCNC(=O)c1ccc(-c2c3nc(c(-c4ccccc4)c4ccc([nH]4)c(-c4ccccc4)c4nc(c(-c5ccccc5)c5ccc2[nH]5)C=C4)C=C3)cc1
REMARK SMILES IDX 15 1 14 2 12 3 13 4 11 6 10 7 9 8 8 9 4 10 5 11 6 12 7 13
REMARK SMILES IDX 2 14 1 15 3 16 16 17 17 18 18 19 19 20 20 21 21 23 22 24
REMARK SMILES IDX 23 25 69 26 24 27 68 28 25 29 26 30 27 31 62 32 28 33 67 34
REMARK SMILES IDX 61 35 63 36 29 37 66 38 60 39 59 40 30 42 52 43 37 44 51 45
REMARK SMILES IDX 38 46 41 47 50 48 64 49 39 50 40 51 49 53 65 54 42 55 31 56
REMARK SMILES IDX 32 57 36 58 33 59 35 60 34 61 53 62 54 63 58 64 55 65 57 66
REMARK SMILES IDX 56 67 43 68 44 69 48 70 45 71 47 72 46 73
REMARK H PARENT 14 5 19 22 63 41 41 52
REMARK Flexibility Score: inf
ROOT
ATOM      1  C   UNL     1      -2.817  -6.469   0.083  1.00  0.00     0.116 C 
ENDROOT
BRANCH   1   2
ATOM      2  N   UNL     1      -2.963  -5.113   0.569  1.00  0.00    -0.354 N 
ATOM      3  C   UNL     1      -2.977  -3.958  -0.161  1.00  0.00     0.245 C 
ATOM      4  O   UNL     1      -3.365  -2.925   0.387  1.00  0.00    -0.272 OA
ATOM      5  H   UNL     1      -3.064  -5.011   1.543  1.00  0.00     0.163 HD
BRANCH   3   6
ATOM      6  C   UNL     1      -2.591  -3.999  -1.648  1.00  0.00     0.260 C 
BRANCH   6   7
ATOM      7  O   UNL     1      -1.401  -4.690  -2.021  1.00  0.00    -0.370 OA
BRANCH   7   8
ATOM      8  C   UNL     1      -0.211  -4.118  -1.466  1.00  0.00     0.185 C 
BRANCH   8   9
ATOM      9  C   UNL     1       0.248  -2.862  -2.231  1.00  0.00     0.111 C 
ATOM     10  N   UNL     1       1.121  -1.965  -1.471  1.00  0.00    -0.338 N 
ATOM     11  C   UNL     1       2.379  -1.743  -2.161  1.00  0.00     0.120 C 
ATOM     12  C   UNL     1       2.054  -2.063  -3.610  1.00  0.00     0.024 C 
ATOM     13  C   UNL     1       1.059  -3.213  -3.490  1.00  0.00     0.029 C 
BRANCH  10  14
ATOM     14  C   UNL     1       0.637  -1.274  -0.382  1.00  0.00     0.219 C 
ATOM     15  C   UNL     1       1.463  -0.125   0.128  1.00  0.00     0.114 C 
ATOM     16  O   UNL     1      -0.449  -1.537   0.129  1.00  0.00    -0.275 OA
ENDBRANCH  10  14
ENDBRANCH   8   9
ENDBRANCH   7   8
ENDBRANCH   6   7
ENDBRANCH   3   6
ENDBRANCH   1   2
BRANCH   1  17
ATOM     17  C   UNL     1      -1.540  -7.146   0.574  1.00  0.00     0.023 C 
BRANCH  17  18
ATOM     18  C   UNL     1      -1.390  -7.238   2.094  1.00  0.00     0.023 C 
BRANCH  18  19
ATOM     19  C   UNL     1      -2.578  -7.828   2.845  1.00  0.00     0.116 C 
BRANCH  19  20
ATOM     20  N   UNL     1      -2.887  -9.196   2.457  1.00  0.00    -0.352 N 
ATOM     21  C   UNL     1      -3.192 -10.271   3.259  1.00  0.00     0.251 C 
ATOM     22  H   UNL     1      -2.875  -9.377   1.489  1.00  0.00     0.163 HD
ATOM     23  O   UNL     1      -3.328 -11.390   2.774  1.00  0.00    -0.269 OA
BRANCH  21  24
ATOM     24  C   UNL     1      -3.320 -10.079   4.720  1.00  0.00     0.039 A 
ATOM     25  C   UNL     1      -2.629 -10.938   5.579  1.00  0.00     0.014 A 
ATOM     26  C   UNL     1      -4.095  -9.039   5.237  1.00  0.00     0.014 A 
ATOM     27  C   UNL     1      -2.649 -10.705   6.957  1.00  0.00     0.010 A 
ATOM     28  C   UNL     1      -4.062  -8.770   6.603  1.00  0.00     0.010 A 
ATOM     29  C   UNL     1      -3.334  -9.595   7.476  1.00  0.00    -0.014 A 
BRANCH  29  30
ATOM     30  C   UNL     1      -3.314  -9.261   8.924  1.00  0.00     0.031 A 
ATOM     31  C   UNL     1      -4.598  -9.274   9.707  1.00  0.00     0.074 A 
ATOM     32  C   UNL     1      -2.172  -8.844   9.506  1.00  0.00     0.049 A 
ATOM     33  N   UNL     1      -4.830  -8.843  10.921  1.00  0.00    -0.248 NA
ATOM     34  C   UNL     1      -5.784  -9.816   9.024  1.00  0.00     0.031 C 
ATOM     35  C   UNL     1      -0.862  -8.766   8.856  1.00  0.00     0.029 A 
ATOM     36  N   UNL     1      -1.938  -8.378  10.777  1.00  0.00    -0.354 N 
ATOM     37  C   UNL     1      -6.191  -9.027  11.131  1.00  0.00     0.074 A 
ATOM     38  C   UNL     1      -6.738  -9.585   9.914  1.00  0.00     0.031 C 
ATOM     39  C   UNL     1       0.036  -8.283   9.731  1.00  0.00     0.029 A 
ATOM     40  C   UNL     1      -0.641  -7.971  10.986  1.00  0.00     0.049 A 
ATOM     41  H   UNL     1      -2.633  -8.339  11.473  1.00  0.00     0.167 HD
ATOM     42  C   UNL     1      -6.917  -8.763  12.242  1.00  0.00     0.031 A 
ATOM     43  C   UNL     1      -0.068  -7.386  12.055  1.00  0.00     0.031 A 
ATOM     44  C   UNL     1      -6.368  -8.239  13.463  1.00  0.00     0.049 A 
ATOM     45  C   UNL     1      -0.903  -7.095  13.273  1.00  0.00     0.074 A 
ATOM     46  C   UNL     1      -7.016  -7.997  14.662  1.00  0.00     0.029 A 
ATOM     47  N   UNL     1      -5.043  -7.880  13.642  1.00  0.00    -0.354 N 
ATOM     48  N   UNL     1      -2.177  -7.328  13.476  1.00  0.00    -0.248 NA
ATOM     49  C   UNL     1      -0.219  -6.466  14.414  1.00  0.00     0.031 C 
ATOM     50  C   UNL     1      -6.091  -7.450  15.555  1.00  0.00     0.029 A 
ATOM     51  C   UNL     1      -4.857  -7.403  14.927  1.00  0.00     0.049 A 
ATOM     52  H   UNL     1      -4.339  -7.953  12.957  1.00  0.00     0.167 HD
ATOM     53  C   UNL     1      -2.435  -6.915  14.777  1.00  0.00     0.074 A 
ATOM     54  C   UNL     1      -1.187  -6.420  15.319  1.00  0.00     0.031 C 
ATOM     55  C   UNL     1      -3.602  -6.947  15.463  1.00  0.00     0.031 A 
BRANCH  42  56
ATOM     56  C   UNL     1      -8.395  -9.028  12.195  1.00  0.00    -0.014 A 
ATOM     57  C   UNL     1      -8.900 -10.337  12.208  1.00  0.00     0.009 A 
ATOM     58  C   UNL     1      -9.294  -7.951  12.212  1.00  0.00     0.009 A 
ATOM     59  C   UNL     1     -10.278 -10.561  12.216  1.00  0.00     0.001 A 
ATOM     60  C   UNL     1     -10.671  -8.178  12.247  1.00  0.00     0.001 A 
ATOM     61  C   UNL     1     -11.161  -9.482  12.243  1.00  0.00     0.000 A 
ENDBRANCH  42  56
BRANCH  43  62
ATOM     62  C   UNL     1       1.373  -7.018  12.032  1.00  0.00    -0.014 A 
ATOM     63  C   UNL     1       2.295  -7.697  12.844  1.00  0.00     0.009 A 
ATOM     64  C   UNL     1       1.829  -5.962  11.228  1.00  0.00     0.009 A 
ATOM     65  C   UNL     1       3.634  -7.300  12.881  1.00  0.00     0.001 A 
ATOM     66  C   UNL     1       3.174  -5.588  11.243  1.00  0.00     0.001 A 
ATOM     67  C   UNL     1       4.073  -6.248  12.079  1.00  0.00     0.000 A 
ENDBRANCH  43  62
BRANCH  55  68
ATOM     68  C   UNL     1      -3.582  -6.508  16.898  1.00  0.00    -0.014 A 
ATOM     69  C   UNL     1      -3.501  -5.152  17.249  1.00  0.00     0.009 A 
ATOM     70  C   UNL     1      -3.730  -7.468  17.912  1.00  0.00     0.009 A 
ATOM     71  C   UNL     1      -3.551  -4.770  18.591  1.00  0.00     0.001 A 
ATOM     72  C   UNL     1      -3.806  -7.081  19.249  1.00  0.00     0.001 A 
ATOM     73  C   UNL     1      -3.711  -5.732  19.588  1.00  0.00     0.000 A 
ENDBRANCH  55  68
ENDBRANCH  29  30
ENDBRANCH  21  24
ENDBRANCH  19  20
ENDBRANCH  18  19
ENDBRANCH  17  18
ENDBRANCH   1  17
TORSDOF 15
