REMARK SMILES CCOc1ccc(-c2cc(Cl)cc3c2O[C@H](C(F)(F)F)C(C(=O)NCCCCNC(=O)c2ccc(-c4c5nc(c(-c6ccccc6)c6ccc([nH]6)c(-c6ccccc6)c6nc(c(-c7ccccc7)c7ccc4[nH]7)C=C6)C=C5)cc2)=C3)cc1
REMARK SMILES IDX 26 1 25 2 24 3 22 4 23 5 21 7 8 8 9 9 14 10 10 11 13 12
REMARK SMILES IDX 15 13 11 14 12 15 80 16 16 17 7 18 4 19 5 20 82 21 6 22
REMARK SMILES IDX 81 23 3 24 2 25 1 26 17 27 18 28 19 29 20 30 27 31 28 32
REMARK SMILES IDX 29 33 30 34 31 36 32 37 33 38 79 39 34 40 78 41 35 42 36 43
REMARK SMILES IDX 37 44 72 45 38 46 77 47 71 48 73 49 39 50 76 51 70 52 69 53
REMARK SMILES IDX 40 55 62 56 47 57 61 58 48 59 51 60 60 61 74 62 49 63 50 64
REMARK SMILES IDX 59 66 75 67 52 68 41 69 42 70 46 71 43 72 45 73 44 74 63 75
REMARK SMILES IDX 64 76 68 77 65 78 67 79 66 80 53 81 54 82 58 83 55 84 57 85
REMARK SMILES IDX 56 86
REMARK H PARENT 24 6 29 35 73 54 51 65
REMARK Flexibility Score: inf
ROOT
ATOM      1  C   UNL     1      13.654  -1.365   7.408  1.00  0.00     0.023 C 
ENDROOT
BRANCH   1   2
ATOM      2  C   UNL     1      13.027  -0.763   6.142  1.00  0.00     0.116 C 
BRANCH   2   3
ATOM      3  N   UNL     1      12.420  -1.815   5.356  1.00  0.00    -0.352 N 
ATOM      4  C   UNL     1      11.211  -1.868   4.755  1.00  0.00     0.251 C 
ATOM      5  O   UNL     1      10.695  -2.972   4.612  1.00  0.00    -0.270 OA
ATOM      6  H   UNL     1      12.975  -2.620   5.242  1.00  0.00     0.163 HD
BRANCH   4   7
ATOM      7  C   UNL     1      10.622  -0.615   4.190  1.00  0.00     0.067 C 
ATOM      8  C   UNL     1       6.968  -2.057   3.093  1.00  0.00     0.026 A 
ATOM      9  C   UNL     1       7.210  -3.313   2.479  1.00  0.00     0.033 A 
ATOM     10  C   UNL     1       8.096  -1.240   3.301  1.00  0.00     0.135 A 
ATOM     11  C   UNL     1       8.440  -3.645   1.915  1.00  0.00     0.042 A 
ATOM     12  C   UNL     1       9.298  -1.539   2.613  1.00  0.00     0.019 A 
ATOM     13  O   UNL     1       8.123  -0.182   4.201  1.00  0.00    -0.475 OA
ATOM     14  Cl  UNL     1       8.664  -5.195   1.207  1.00  0.00    -0.084 Cl
ATOM     15  C   UNL     1       9.466  -2.722   1.900  1.00  0.00     0.032 A 
ATOM     16  C   UNL     1      10.468  -0.665   2.852  1.00  0.00     0.025 C 
ATOM     17  C   UNL     1       9.418  -0.061   4.948  1.00  0.00     0.314 C 
BRANCH   8  18
ATOM     18  C   UNL     1       5.528  -1.682   3.182  1.00  0.00    -0.014 A 
ATOM     19  C   UNL     1       2.799  -1.478   2.397  1.00  0.00     0.119 A 
ATOM     20  C   UNL     1       3.214  -2.512   3.231  1.00  0.00     0.047 A 
ATOM     21  C   UNL     1       3.709  -0.485   2.048  1.00  0.00     0.047 A 
ATOM     22  C   UNL     1       4.559  -2.606   3.629  1.00  0.00     0.013 A 
ATOM     23  C   UNL     1       5.057  -0.583   2.440  1.00  0.00     0.013 A 
BRANCH  19  24
ATOM     24  O   UNL     1       1.476  -1.431   2.056  1.00  0.00    -0.494 OA
BRANCH  24  25
ATOM     25  C   UNL     1       1.193  -1.462   0.649  1.00  0.00     0.226 C 
ATOM     26  C   UNL     1       1.004  -0.064   0.080  1.00  0.00     0.049 C 
ENDBRANCH  24  25
ENDBRANCH  19  24
ENDBRANCH   8  18
BRANCH  17  27
ATOM     27  C   UNL     1       9.726   1.406   5.330  1.00  0.00     0.429 C 
ATOM     28  F   UNL     1       8.994   2.297   4.626  1.00  0.00    -0.167 F 
ATOM     29  F   UNL     1       9.497   1.630   6.646  1.00  0.00    -0.167 F 
ATOM     30  F   UNL     1      11.031   1.732   5.119  1.00  0.00    -0.167 F 
ENDBRANCH  17  27
ENDBRANCH   4   7
ENDBRANCH   2   3
ENDBRANCH   1   2
BRANCH   1  31
ATOM     31  C   UNL     1      14.734  -2.431   7.166  1.00  0.00     0.023 C 
BRANCH  31  32
ATOM     32  C   UNL     1      15.886  -1.990   6.271  1.00  0.00     0.116 C 
BRANCH  32  33
ATOM     33  N   UNL     1      16.662  -0.919   6.873  1.00  0.00    -0.352 N 
ATOM     34  C   UNL     1      17.991  -0.890   7.213  1.00  0.00     0.251 C 
ATOM     35  H   UNL     1      16.161  -0.094   7.067  1.00  0.00     0.163 HD
ATOM     36  O   UNL     1      18.428   0.030   7.902  1.00  0.00    -0.269 OA
BRANCH  34  37
ATOM     37  C   UNL     1      18.896  -1.976   6.778  1.00  0.00     0.039 A 
ATOM     38  C   UNL     1      19.785  -2.524   7.707  1.00  0.00     0.014 A 
ATOM     39  C   UNL     1      18.871  -2.454   5.465  1.00  0.00     0.014 A 
ATOM     40  C   UNL     1      20.591  -3.603   7.340  1.00  0.00     0.010 A 
ATOM     41  C   UNL     1      19.624  -3.576   5.122  1.00  0.00     0.010 A 
ATOM     42  C   UNL     1      20.484  -4.169   6.058  1.00  0.00    -0.014 A 
BRANCH  42  43
ATOM     43  C   UNL     1      21.229  -5.406   5.703  1.00  0.00     0.031 A 
ATOM     44  C   UNL     1      22.263  -5.394   4.611  1.00  0.00     0.074 A 
ATOM     45  C   UNL     1      20.922  -6.562   6.325  1.00  0.00     0.049 A 
ATOM     46  N   UNL     1      22.973  -6.389   4.138  1.00  0.00    -0.248 NA
ATOM     47  C   UNL     1      22.522  -4.106   3.948  1.00  0.00     0.031 C 
ATOM     48  C   UNL     1      19.905  -6.720   7.369  1.00  0.00     0.029 A 
ATOM     49  N   UNL     1      21.428  -7.829   6.165  1.00  0.00    -0.354 N 
ATOM     50  C   UNL     1      23.746  -5.852   3.116  1.00  0.00     0.074 A 
ATOM     51  C   UNL     1      23.392  -4.453   3.010  1.00  0.00     0.031 C 
ATOM     52  C   UNL     1      19.878  -8.001   7.768  1.00  0.00     0.029 A 
ATOM     53  C   UNL     1      20.839  -8.766   6.981  1.00  0.00     0.049 A 
ATOM     54  H   UNL     1      22.144  -8.046   5.526  1.00  0.00     0.167 HD
ATOM     55  C   UNL     1      24.675  -6.465   2.346  1.00  0.00     0.031 A 
ATOM     56  C   UNL     1      21.037 -10.095   7.077  1.00  0.00     0.031 A 
ATOM     57  C   UNL     1      25.036  -7.854   2.459  1.00  0.00     0.049 A 
ATOM     58  C   UNL     1      22.065 -10.749   6.196  1.00  0.00     0.074 A 
ATOM     59  C   UNL     1      26.020  -8.545   1.772  1.00  0.00     0.029 A 
ATOM     60  N   UNL     1      24.424  -8.765   3.304  1.00  0.00    -0.354 N 
ATOM     61  N   UNL     1      22.854 -10.205   5.301  1.00  0.00    -0.248 NA
ATOM     62  C   UNL     1      22.238 -12.201   6.346  1.00  0.00     0.031 C 
ATOM     63  C   UNL     1      25.959  -9.888   2.153  1.00  0.00     0.029 A 
ATOM     64  C   UNL     1      24.982 -10.020   3.127  1.00  0.00     0.049 A 
ATOM     65  H   UNL     1      23.700  -8.553   3.936  1.00  0.00     0.167 HD
ATOM     66  C   UNL     1      23.631 -11.242   4.802  1.00  0.00     0.074 A 
ATOM     67  C   UNL     1      23.238 -12.441   5.511  1.00  0.00     0.031 C 
ATOM     68  C   UNL     1      24.582 -11.206   3.837  1.00  0.00     0.031 A 
BRANCH  55  69
ATOM     69  C   UNL     1      25.372  -5.645   1.296  1.00  0.00    -0.014 A 
ATOM     70  C   UNL     1      26.314  -4.664   1.642  1.00  0.00     0.009 A 
ATOM     71  C   UNL     1      25.142  -5.916  -0.063  1.00  0.00     0.009 A 
ATOM     72  C   UNL     1      26.995  -3.956   0.649  1.00  0.00     0.001 A 
ATOM     73  C   UNL     1      25.844  -5.226  -1.053  1.00  0.00     0.001 A 
ATOM     74  C   UNL     1      26.766  -4.243  -0.697  1.00  0.00     0.000 A 
ENDBRANCH  55  69
BRANCH  56  75
ATOM     75  C   UNL     1      20.233 -10.908   8.029  1.00  0.00    -0.014 A 
ATOM     76  C   UNL     1      20.838 -11.527   9.134  1.00  0.00     0.009 A 
ATOM     77  C   UNL     1      18.859 -11.102   7.815  1.00  0.00     0.009 A 
ATOM     78  C   UNL     1      20.094 -12.354   9.979  1.00  0.00     0.001 A 
ATOM     79  C   UNL     1      18.110 -11.900   8.682  1.00  0.00     0.001 A 
ATOM     80  C   UNL     1      18.731 -12.537   9.754  1.00  0.00     0.000 A 
ENDBRANCH  56  75
BRANCH  68  81
ATOM     81  C   UNL     1      25.285 -12.495   3.514  1.00  0.00    -0.014 A 
ATOM     82  C   UNL     1      24.626 -13.538   2.844  1.00  0.00     0.009 A 
ATOM     83  C   UNL     1      26.637 -12.654   3.854  1.00  0.00     0.009 A 
ATOM     84  C   UNL     1      25.298 -14.727   2.554  1.00  0.00     0.001 A 
ATOM     85  C   UNL     1      27.316 -13.830   3.533  1.00  0.00     0.001 A 
ATOM     86  C   UNL     1      26.643 -14.869   2.893  1.00  0.00     0.000 A 
ENDBRANCH  68  81
ENDBRANCH  42  43
ENDBRANCH  34  37
ENDBRANCH  32  33
ENDBRANCH  31  32
ENDBRANCH   1  31
TORSDOF 15
