REMARK SMILES Cc1ccnc(NC2(CC(=O)NCCCCNC(=O)c3ccc(-c4c5nc(c(-c6ccccc6)c6ccc([nH]6)c(-c6ccccc6)c6nc(c(-c7ccccc7)c7ccc4[nH]7)C=C6)C=C5)cc3)CCC2)n1
REMARK SMILES IDX 14 1 13 2 12 3 10 4 11 5 9 7 8 8 68 9 70 10 69 11 7 12 6 14
REMARK SMILES IDX 1 15 2 16 3 17 71 18 4 19 5 20 15 21 16 22 17 23 18 24 19 26
REMARK SMILES IDX 20 27 21 28 67 29 22 30 66 31 23 32 24 33 25 34 60 35 26 36
REMARK SMILES IDX 65 37 59 38 61 39 27 40 64 41 58 42 57 43 28 45 50 46 35 47
REMARK SMILES IDX 49 48 36 49 39 50 48 51 62 52 37 53 38 54 47 56 63 57 40 58
REMARK SMILES IDX 29 59 30 60 34 61 31 62 33 63 32 64 51 65 52 66 56 67 53 68
REMARK SMILES IDX 55 69 54 70 41 71 42 72 46 73 43 74 45 75 44 76
REMARK H PARENT 12 6 7 13 17 25 61 44 39 55
REMARK Flexibility Score: inf
ROOT
ATOM      1  C   UNL     1       0.501   4.332   3.316  1.00  0.00     0.023 C 
ENDROOT
BRANCH   1   2
ATOM      2  C   UNL     1       1.378   5.434   2.718  1.00  0.00     0.116 C 
BRANCH   2   3
ATOM      3  N   UNL     1       2.585   4.886   2.141  1.00  0.00    -0.356 N 
ATOM      4  C   UNL     1       2.795   4.451   0.869  1.00  0.00     0.222 C 
ATOM      5  O   UNL     1       3.847   3.857   0.621  1.00  0.00    -0.275 OA
ATOM      6  H   UNL     1       3.357   4.818   2.749  1.00  0.00     0.163 HD
BRANCH   4   7
ATOM      7  C   UNL     1       1.766   4.683  -0.220  1.00  0.00     0.128 C 
BRANCH   7   8
ATOM      8  C   UNL     1       0.693   3.593  -0.386  1.00  0.00     0.049 C 
ATOM      9  C   UNL     1      -0.031   3.634  -1.771  1.00  0.00     0.029 C 
ATOM     10  C   UNL     1      -0.696   3.922   0.245  1.00  0.00     0.029 C 
ATOM     11  C   UNL     1      -1.149   4.462  -1.120  1.00  0.00     0.005 C 
BRANCH   8  12
ATOM     12  N   UNL     1       1.226   2.293  -0.114  1.00  0.00    -0.348 N 
ATOM     13  H   UNL     1       2.194   2.291   0.063  1.00  0.00     0.164 HD
BRANCH  12  14
ATOM     14  C   UNL     1       0.643   1.034  -0.052  1.00  0.00     0.223 A 
ATOM     15  C   UNL     1      -2.678  -0.490  -0.003  1.00  0.00     0.067 C 
ATOM     16  C   UNL     1      -1.186  -0.369  -0.012  1.00  0.00     0.043 A 
ATOM     17  C   UNL     1      -0.375  -1.479   0.053  1.00  0.00     0.044 A 
ATOM     18  N   UNL     1      -0.687   0.882  -0.073  1.00  0.00    -0.218 NA
ATOM     19  C   UNL     1       0.974  -1.228   0.063  1.00  0.00     0.117 A 
ATOM     20  N   UNL     1       1.502   0.008   0.019  1.00  0.00    -0.222 NA
ENDBRANCH  12  14
ENDBRANCH   8  12
ENDBRANCH   7   8
ENDBRANCH   4   7
ENDBRANCH   2   3
ENDBRANCH   1   2
BRANCH   1  21
ATOM     21  C   UNL     1       0.914   3.852   4.705  1.00  0.00     0.023 C 
BRANCH  21  22
ATOM     22  C   UNL     1       0.910   4.927   5.783  1.00  0.00     0.116 C 
BRANCH  22  23
ATOM     23  N   UNL     1      -0.355   5.635   5.909  1.00  0.00    -0.352 N 
ATOM     24  C   UNL     1      -0.907   6.208   7.033  1.00  0.00     0.251 C 
ATOM     25  H   UNL     1      -0.885   5.716   5.083  1.00  0.00     0.163 HD
ATOM     26  O   UNL     1      -2.018   6.709   6.999  1.00  0.00    -0.269 OA
BRANCH  24  27
ATOM     27  C   UNL     1      -0.147   6.159   8.301  1.00  0.00     0.039 A 
ATOM     28  C   UNL     1      -0.788   5.683   9.447  1.00  0.00     0.014 A 
ATOM     29  C   UNL     1       1.201   6.519   8.339  1.00  0.00     0.014 A 
ATOM     30  C   UNL     1      -0.051   5.493  10.616  1.00  0.00     0.010 A 
ATOM     31  C   UNL     1       1.950   6.255   9.479  1.00  0.00     0.010 A 
ATOM     32  C   UNL     1       1.332   5.737  10.627  1.00  0.00    -0.014 A 
BRANCH  32  33
ATOM     33  C   UNL     1       2.155   5.454  11.827  1.00  0.00     0.031 A 
ATOM     34  C   UNL     1       2.854   6.576  12.541  1.00  0.00     0.074 A 
ATOM     35  C   UNL     1       2.332   4.180  12.229  1.00  0.00     0.049 A 
ATOM     36  N   UNL     1       3.668   6.523  13.565  1.00  0.00    -0.248 NA
ATOM     37  C   UNL     1       2.632   7.934  12.018  1.00  0.00     0.031 C 
ATOM     38  C   UNL     1       1.749   2.997  11.591  1.00  0.00     0.029 A 
ATOM     39  N   UNL     1       3.062   3.669  13.272  1.00  0.00    -0.354 N 
ATOM     40  C   UNL     1       4.070   7.832  13.792  1.00  0.00     0.074 A 
ATOM     41  C   UNL     1       3.452   8.650  12.772  1.00  0.00     0.031 C 
ATOM     42  C   UNL     1       2.118   1.902  12.276  1.00  0.00     0.029 A 
ATOM     43  C   UNL     1       2.990   2.301  13.375  1.00  0.00     0.049 A 
ATOM     44  H   UNL     1       3.588   4.229  13.887  1.00  0.00     0.167 HD
ATOM     45  C   UNL     1       4.866   8.315  14.775  1.00  0.00     0.031 A 
ATOM     46  C   UNL     1       3.563   1.462  14.258  1.00  0.00     0.031 A 
ATOM     47  C   UNL     1       5.464   7.506  15.802  1.00  0.00     0.049 A 
ATOM     48  C   UNL     1       4.435   2.024  15.345  1.00  0.00     0.074 A 
ATOM     49  C   UNL     1       6.237   7.909  16.876  1.00  0.00     0.029 A 
ATOM     50  N   UNL     1       5.350   6.127  15.882  1.00  0.00    -0.354 N 
ATOM     51  N   UNL     1       4.754   3.272  15.586  1.00  0.00    -0.248 NA
ATOM     52  C   UNL     1       5.016   1.059  16.290  1.00  0.00     0.031 C 
ATOM     53  C   UNL     1       6.623   6.768  17.587  1.00  0.00     0.029 A 
ATOM     54  C   UNL     1       6.052   5.660  16.980  1.00  0.00     0.049 A 
ATOM     55  H   UNL     1       4.846   5.564  15.252  1.00  0.00     0.167 HD
ATOM     56  C   UNL     1       5.550   3.247  16.723  1.00  0.00     0.074 A 
ATOM     57  C   UNL     1       5.654   1.861  17.132  1.00  0.00     0.031 C 
ATOM     58  C   UNL     1       6.142   4.279  17.372  1.00  0.00     0.031 A 
BRANCH  45  59
ATOM     59  C   UNL     1       5.131   9.794  14.780  1.00  0.00    -0.014 A 
ATOM     60  C   UNL     1       4.123  10.710  15.121  1.00  0.00     0.009 A 
ATOM     61  C   UNL     1       6.409  10.277  14.460  1.00  0.00     0.009 A 
ATOM     62  C   UNL     1       4.380  12.082  15.105  1.00  0.00     0.001 A 
ATOM     63  C   UNL     1       6.670  11.648  14.472  1.00  0.00     0.001 A 
ATOM     64  C   UNL     1       5.654  12.550  14.785  1.00  0.00     0.000 A 
ENDBRANCH  45  59
BRANCH  46  65
ATOM     65  C   UNL     1       3.307   0.002  14.173  1.00  0.00    -0.014 A 
ATOM     66  C   UNL     1       2.489  -0.630  15.123  1.00  0.00     0.009 A 
ATOM     67  C   UNL     1       3.880  -0.769  13.150  1.00  0.00     0.009 A 
ATOM     68  C   UNL     1       2.272  -2.008  15.066  1.00  0.00     0.001 A 
ATOM     69  C   UNL     1       3.640  -2.143  13.081  1.00  0.00     0.001 A 
ATOM     70  C   UNL     1       2.844  -2.763  14.043  1.00  0.00     0.000 A 
ENDBRANCH  46  65
BRANCH  58  71
ATOM     71  C   UNL     1       6.924   3.950  18.610  1.00  0.00    -0.014 A 
ATOM     72  C   UNL     1       8.180   3.329  18.534  1.00  0.00     0.009 A 
ATOM     73  C   UNL     1       6.410   4.301  19.868  1.00  0.00     0.009 A 
ATOM     74  C   UNL     1       8.893   3.039  19.699  1.00  0.00     0.001 A 
ATOM     75  C   UNL     1       7.138   4.034  21.028  1.00  0.00     0.001 A 
ATOM     76  C   UNL     1       8.374   3.396  20.943  1.00  0.00     0.000 A 
ENDBRANCH  58  71
ENDBRANCH  32  33
ENDBRANCH  24  27
ENDBRANCH  22  23
ENDBRANCH  21  22
ENDBRANCH   1  21
TORSDOF 14
