REMARK SMILES Cc1nc(CN(CC(=O)NCCCCNC(=O)c2ccc(-c3c4nc(c(-c5ccccc5)c5ccc([nH]5)c(-c5ccccc5)c5nc(c(-c6ccccc6)c6ccc3[nH]6)C=C5)C=C4)cc2)c2cccc(Cl)c2)sc1C
REMARK SMILES IDX 12 1 11 2 10 3 8 4 9 5 7 7 6 8 5 9 4 10 1 11 2 12 3 13 74 14
REMARK SMILES IDX 73 15 75 16 66 17 67 18 72 19 68 20 70 21 69 22 71 23 13 24
REMARK SMILES IDX 14 25 15 26 16 27 17 29 18 30 19 31 65 32 20 33 64 34 21 35
REMARK SMILES IDX 22 36 23 37 58 38 24 39 63 40 57 41 59 42 25 43 62 44 56 45
REMARK SMILES IDX 55 46 26 48 48 49 33 50 47 51 34 52 37 53 46 54 60 55 35 56
REMARK SMILES IDX 36 57 45 59 61 60 38 61 27 62 28 63 32 64 29 65 31 66 30 67
REMARK SMILES IDX 49 68 50 69 54 70 51 71 53 72 52 73 39 74 40 75 44 76 41 77
REMARK SMILES IDX 43 78 42 79
REMARK H PARENT 10 6 15 28 59 47 37 58
REMARK Flexibility Score: inf
ROOT
ATOM      1  C   UNL     1      -4.953   3.870   0.665  1.00  0.00     0.023 C 
ENDROOT
BRANCH   1   2
ATOM      2  C   UNL     1      -4.045   4.943   0.066  1.00  0.00     0.116 C 
BRANCH   2   3
ATOM      3  N   UNL     1      -3.439   5.785   1.071  1.00  0.00    -0.355 N 
ATOM      4  C   UNL     1      -2.184   5.719   1.609  1.00  0.00     0.239 C 
ATOM      5  O   UNL     1      -1.873   6.603   2.415  1.00  0.00    -0.273 OA
ATOM      6  H   UNL     1      -4.010   6.509   1.416  1.00  0.00     0.163 HD
BRANCH   4   7
ATOM      7  C   UNL     1      -1.187   4.621   1.200  1.00  0.00     0.217 C 
BRANCH   7   8
ATOM      8  N   UNL     1      -1.647   3.232   1.425  1.00  0.00    -0.355 N 
BRANCH   8   9
ATOM      9  C   UNL     1      -1.777   2.363   0.228  1.00  0.00     0.184 C 
BRANCH   9  10
ATOM     10  C   UNL     1      -0.761   1.284  -0.043  1.00  0.00     0.112 A 
ATOM     11  C   UNL     1       2.663   0.201  -0.056  1.00  0.00     0.068 C 
ATOM     12  C   UNL     1       1.178   0.217  -0.126  1.00  0.00     0.051 A 
ATOM     13  N   UNL     1       0.545   1.450  -0.077  1.00  0.00    -0.244 NA
ATOM     14  C   UNL     1       0.326  -0.874  -0.184  1.00  0.00     0.025 A 
ATOM     15  S   UNL     1      -1.296  -0.337  -0.277  1.00  0.00    -0.122 S 
ATOM     16  C   UNL     1       0.639  -2.328  -0.153  1.00  0.00     0.058 C 
ENDBRANCH   9  10
ENDBRANCH   8   9
BRANCH   8  17
ATOM     17  C   UNL     1      -1.673   2.727   2.723  1.00  0.00     0.039 A 
ATOM     18  C   UNL     1      -2.264   3.439   3.781  1.00  0.00     0.026 A 
ATOM     19  C   UNL     1      -1.104   1.493   3.070  1.00  0.00     0.046 A 
ATOM     20  C   UNL     1      -2.293   2.951   5.096  1.00  0.00     0.004 A 
ATOM     21  C   UNL     1      -1.135   0.993   4.377  1.00  0.00     0.043 A 
ATOM     22  C   UNL     1      -1.729   1.719   5.396  1.00  0.00     0.020 A 
ATOM     23  Cl  UNL     1      -0.412  -0.533   4.721  1.00  0.00    -0.084 Cl
ENDBRANCH   8  17
ENDBRANCH   7   8
ENDBRANCH   4   7
ENDBRANCH   2   3
ENDBRANCH   1   2
BRANCH   1  24
ATOM     24  C   UNL     1      -6.240   4.396   1.303  1.00  0.00     0.023 C 
BRANCH  24  25
ATOM     25  C   UNL     1      -7.110   5.264   0.401  1.00  0.00     0.116 C 
BRANCH  25  26
ATOM     26  N   UNL     1      -7.495   4.602  -0.836  1.00  0.00    -0.352 N 
ATOM     27  C   UNL     1      -8.700   4.625  -1.493  1.00  0.00     0.251 C 
ATOM     28  H   UNL     1      -6.792   4.061  -1.262  1.00  0.00     0.163 HD
ATOM     29  O   UNL     1      -8.879   3.906  -2.473  1.00  0.00    -0.269 OA
BRANCH  27  30
ATOM     30  C   UNL     1      -9.797   5.484  -0.998  1.00  0.00     0.039 A 
ATOM     31  C   UNL     1     -11.083   4.944  -0.912  1.00  0.00     0.014 A 
ATOM     32  C   UNL     1      -9.564   6.805  -0.607  1.00  0.00     0.014 A 
ATOM     33  C   UNL     1     -12.118   5.706  -0.368  1.00  0.00     0.010 A 
ATOM     34  C   UNL     1     -10.579   7.536   0.006  1.00  0.00     0.010 A 
ATOM     35  C   UNL     1     -11.865   6.994   0.134  1.00  0.00    -0.014 A 
BRANCH  35  36
ATOM     36  C   UNL     1     -12.934   7.766   0.818  1.00  0.00     0.031 A 
ATOM     37  C   UNL     1     -13.432   9.063   0.243  1.00  0.00     0.074 A 
ATOM     38  C   UNL     1     -13.426   7.316   1.990  1.00  0.00     0.049 A 
ATOM     39  N   UNL     1     -14.359   9.866   0.703  1.00  0.00    -0.248 NA
ATOM     40  C   UNL     1     -12.794   9.532  -0.998  1.00  0.00     0.031 C 
ATOM     41  C   UNL     1     -12.997   6.096   2.678  1.00  0.00     0.029 A 
ATOM     42  N   UNL     1     -14.401   7.832   2.808  1.00  0.00    -0.354 N 
ATOM     43  C   UNL     1     -14.406  10.936  -0.182  1.00  0.00     0.074 A 
ATOM     44  C   UNL     1     -13.381  10.706  -1.177  1.00  0.00     0.031 C 
ATOM     45  C   UNL     1     -13.733   5.935   3.789  1.00  0.00     0.029 A 
ATOM     46  C   UNL     1     -14.655   7.059   3.916  1.00  0.00     0.049 A 
ATOM     47  H   UNL     1     -14.873   8.674   2.619  1.00  0.00     0.167 HD
ATOM     48  C   UNL     1     -15.238  12.005  -0.178  1.00  0.00     0.031 A 
ATOM     49  C   UNL     1     -15.531   7.235   4.922  1.00  0.00     0.031 A 
ATOM     50  C   UNL     1     -16.261  12.232   0.809  1.00  0.00     0.049 A 
ATOM     51  C   UNL     1     -16.428   8.442   4.912  1.00  0.00     0.074 A 
ATOM     52  C   UNL     1     -17.196  13.251   0.861  1.00  0.00     0.029 A 
ATOM     53  N   UNL     1     -16.476  11.434   1.922  1.00  0.00    -0.354 N 
ATOM     54  N   UNL     1     -16.518   9.398   4.020  1.00  0.00    -0.248 NA
ATOM     55  C   UNL     1     -17.352   8.585   6.046  1.00  0.00     0.031 C 
ATOM     56  C   UNL     1     -17.936  13.106   2.039  1.00  0.00     0.029 A 
ATOM     57  C   UNL     1     -17.506  11.959   2.686  1.00  0.00     0.049 A 
ATOM     58  H   UNL     1     -15.972  10.617   2.138  1.00  0.00     0.167 HD
ATOM     59  C   UNL     1     -17.528  10.239   4.470  1.00  0.00     0.074 A 
ATOM     60  C   UNL     1     -18.033   9.668   5.700  1.00  0.00     0.031 C 
ATOM     61  C   UNL     1     -17.995  11.384   3.913  1.00  0.00     0.031 A 
BRANCH  48  62
ATOM     62  C   UNL     1     -15.070  13.023  -1.273  1.00  0.00    -0.014 A 
ATOM     63  C   UNL     1     -15.405  12.726  -2.604  1.00  0.00     0.009 A 
ATOM     64  C   UNL     1     -14.614  14.313  -0.962  1.00  0.00     0.009 A 
ATOM     65  C   UNL     1     -15.254  13.689  -3.604  1.00  0.00     0.001 A 
ATOM     66  C   UNL     1     -14.493  15.284  -1.958  1.00  0.00     0.001 A 
ATOM     67  C   UNL     1     -14.804  14.968  -3.279  1.00  0.00     0.000 A 
ENDBRANCH  48  62
BRANCH  49  68
ATOM     68  C   UNL     1     -15.622   6.236   6.021  1.00  0.00    -0.014 A 
ATOM     69  C   UNL     1     -16.766   5.435   6.162  1.00  0.00     0.009 A 
ATOM     70  C   UNL     1     -14.578   6.094   6.948  1.00  0.00     0.009 A 
ATOM     71  C   UNL     1     -16.876   4.537   7.226  1.00  0.00     0.001 A 
ATOM     72  C   UNL     1     -14.677   5.172   7.992  1.00  0.00     0.001 A 
ATOM     73  C   UNL     1     -15.830   4.404   8.137  1.00  0.00     0.000 A 
ENDBRANCH  49  68
BRANCH  61  74
ATOM     74  C   UNL     1     -19.131  12.074   4.617  1.00  0.00    -0.014 A 
ATOM     75  C   UNL     1     -18.944  12.719   5.850  1.00  0.00     0.009 A 
ATOM     76  C   UNL     1     -20.403  12.098   4.024  1.00  0.00     0.009 A 
ATOM     77  C   UNL     1     -20.019  13.335   6.494  1.00  0.00     0.001 A 
ATOM     78  C   UNL     1     -21.467  12.744   4.653  1.00  0.00     0.001 A 
ATOM     79  C   UNL     1     -21.278  13.351   5.894  1.00  0.00     0.000 A 
ENDBRANCH  61  74
ENDBRANCH  35  36
ENDBRANCH  27  30
ENDBRANCH  25  26
ENDBRANCH  24  25
ENDBRANCH   1  24
TORSDOF 15
