REMARK SMILES O=C(NCCCCNC(=O)[C@H]1Cc2[nH]cnc2CN1C(=O)c1ccncc1Cl)c1ccc(-c2c3nc(c(-c4ccccc4)c4ccc([nH]4)c(-c4ccccc4)c4nc(c(-c5ccccc5)c5ccc2[nH]5)C=C4)C=C3)cc1
REMARK SMILES IDX 5 1 4 2 3 3 1 4 2 5 29 7 30 8 76 9 31 10 75 11 32 12 33 13
REMARK SMILES IDX 34 14 69 15 35 16 74 17 68 18 70 19 36 20 73 21 67 22 66 23
REMARK SMILES IDX 37 25 59 26 44 27 58 28 45 29 48 30 57 31 71 32 46 33 47 34
REMARK SMILES IDX 56 36 72 37 49 38 38 39 39 40 43 41 40 42 42 43 41 44 60 45
REMARK SMILES IDX 61 46 65 47 62 48 64 49 63 50 50 51 51 52 55 53 52 54 54 55
REMARK SMILES IDX 53 56 6 57 7 58 8 59 9 60 10 62 11 63 12 64 19 65 13 66
REMARK SMILES IDX 18 67 14 68 17 69 15 70 16 72 20 73 21 74 22 75 23 76 27 77
REMARK SMILES IDX 24 78 26 79 28 80 25 81
REMARK H PARENT 3 6 70 24 48 35 8 61 14 71
REMARK Flexibility Score: inf
ROOT
ATOM      1  C   UNL     1       4.313   2.396   1.291  1.00  0.00     0.023 C 
ENDROOT
BRANCH   1   2
ATOM      2  C   UNL     1       4.028   0.908   1.135  1.00  0.00     0.116 C 
BRANCH   2   3
ATOM      3  N   UNL     1       2.639   0.522   1.075  1.00  0.00    -0.352 N 
ATOM      4  O   UNL     1       0.866  -0.470   0.167  1.00  0.00    -0.269 OA
ATOM      5  C   UNL     1       1.806   0.297   0.006  1.00  0.00     0.251 C 
ATOM      6  H   UNL     1       2.213   0.398   1.954  1.00  0.00     0.163 HD
BRANCH   5   7
ATOM      7  C   UNL     1       1.913   1.048  -1.272  1.00  0.00     0.039 A 
ATOM      8  C   UNL     1       3.092   1.532  -1.833  1.00  0.00     0.014 A 
ATOM      9  C   UNL     1       0.691   1.301  -1.923  1.00  0.00     0.014 A 
ATOM     10  C   UNL     1       3.045   2.333  -2.970  1.00  0.00     0.010 A 
ATOM     11  C   UNL     1       0.640   2.085  -3.071  1.00  0.00     0.010 A 
ATOM     12  C   UNL     1       1.818   2.626  -3.577  1.00  0.00    -0.014 A 
BRANCH  12  13
ATOM     13  C   UNL     1       1.849   3.385  -4.824  1.00  0.00     0.031 A 
ATOM     14  C   UNL     1       2.537   2.717  -5.963  1.00  0.00     0.074 A 
ATOM     15  C   UNL     1       1.201   4.545  -5.038  1.00  0.00     0.049 A 
ATOM     16  N   UNL     1       3.563   3.131  -6.633  1.00  0.00    -0.248 NA
ATOM     17  C   UNL     1       2.044   1.392  -6.369  1.00  0.00     0.031 C 
ATOM     18  C   UNL     1       0.213   5.198  -4.180  1.00  0.00     0.029 A 
ATOM     19  N   UNL     1       1.222   5.333  -6.154  1.00  0.00    -0.354 N 
ATOM     20  C   UNL     1       3.759   2.200  -7.651  1.00  0.00     0.074 A 
ATOM     21  C   UNL     1       2.866   1.101  -7.377  1.00  0.00     0.031 C 
ATOM     22  C   UNL     1      -0.427   6.152  -4.894  1.00  0.00     0.029 A 
ATOM     23  C   UNL     1       0.193   6.258  -6.206  1.00  0.00     0.049 A 
ATOM     24  H   UNL     1       1.906   5.250  -6.858  1.00  0.00     0.167 HD
ATOM     25  C   UNL     1       4.500   2.478  -8.759  1.00  0.00     0.031 A 
ATOM     26  C   UNL     1      -0.167   7.015  -7.269  1.00  0.00     0.031 A 
ATOM     27  C   UNL     1       5.364   3.612  -8.572  1.00  0.00     0.049 A 
ATOM     28  C   UNL     1       0.959   7.049  -8.227  1.00  0.00     0.074 A 
ATOM     29  C   UNL     1       6.381   3.941  -7.699  1.00  0.00     0.029 A 
ATOM     30  N   UNL     1       5.024   4.783  -9.203  1.00  0.00    -0.354 N 
ATOM     31  N   UNL     1       2.063   7.708  -8.034  1.00  0.00    -0.248 NA
ATOM     32  C   UNL     1       1.000   6.064  -9.296  1.00  0.00     0.031 C 
ATOM     33  C   UNL     1       6.271   5.350  -7.511  1.00  0.00     0.029 A 
ATOM     34  C   UNL     1       5.210   5.795  -8.300  1.00  0.00     0.049 A 
ATOM     35  H   UNL     1       4.707   4.878 -10.130  1.00  0.00     0.167 HD
ATOM     36  C   UNL     1       3.043   6.943  -8.645  1.00  0.00     0.074 A 
ATOM     37  C   UNL     1       2.315   6.028  -9.518  1.00  0.00     0.031 C 
ATOM     38  C   UNL     1       4.325   6.931  -8.173  1.00  0.00     0.031 A 
BRANCH  25  39
ATOM     39  C   UNL     1       4.162   1.957 -10.136  1.00  0.00    -0.014 A 
ATOM     40  C   UNL     1       5.014   2.277 -11.211  1.00  0.00     0.009 A 
ATOM     41  C   UNL     1       2.902   1.425 -10.468  1.00  0.00     0.009 A 
ATOM     42  C   UNL     1       4.591   2.155 -12.540  1.00  0.00     0.001 A 
ATOM     43  C   UNL     1       2.495   1.255 -11.795  1.00  0.00     0.001 A 
ATOM     44  C   UNL     1       3.328   1.652 -12.831  1.00  0.00     0.000 A 
ENDBRANCH  25  39
BRANCH  26  45
ATOM     45  C   UNL     1      -1.494   7.565  -7.613  1.00  0.00    -0.014 A 
ATOM     46  C   UNL     1      -1.616   8.616  -8.535  1.00  0.00     0.009 A 
ATOM     47  C   UNL     1      -2.665   6.891  -7.225  1.00  0.00     0.009 A 
ATOM     48  C   UNL     1      -2.863   8.956  -9.076  1.00  0.00     0.001 A 
ATOM     49  C   UNL     1      -3.911   7.236  -7.757  1.00  0.00     0.001 A 
ATOM     50  C   UNL     1      -4.007   8.259  -8.695  1.00  0.00     0.000 A 
ENDBRANCH  26  45
BRANCH  38  51
ATOM     51  C   UNL     1       4.739   8.007  -7.202  1.00  0.00    -0.014 A 
ATOM     52  C   UNL     1       4.079   8.235  -5.983  1.00  0.00     0.009 A 
ATOM     53  C   UNL     1       5.915   8.727  -7.466  1.00  0.00     0.009 A 
ATOM     54  C   UNL     1       4.552   9.189  -5.079  1.00  0.00     0.001 A 
ATOM     55  C   UNL     1       6.404   9.661  -6.550  1.00  0.00     0.001 A 
ATOM     56  C   UNL     1       5.717   9.899  -5.361  1.00  0.00     0.000 A 
ENDBRANCH  38  51
ENDBRANCH  12  13
ENDBRANCH   5   7
ENDBRANCH   2   3
ENDBRANCH   1   2
BRANCH   1  57
ATOM     57  C   UNL     1       3.964   2.993   2.664  1.00  0.00     0.023 C 
BRANCH  57  58
ATOM     58  C   UNL     1       4.582   2.308   3.889  1.00  0.00     0.116 C 
BRANCH  58  59
ATOM     59  N   UNL     1       6.029   2.220   3.818  1.00  0.00    -0.354 N 
ATOM     60  C   UNL     1       6.932   1.946   4.803  1.00  0.00     0.243 C 
ATOM     61  H   UNL     1       6.416   2.381   2.927  1.00  0.00     0.163 HD
ATOM     62  O   UNL     1       8.129   2.000   4.502  1.00  0.00    -0.273 OA
BRANCH  60  63
ATOM     63  C   UNL     1       6.511   1.753   6.274  1.00  0.00     0.181 C 
ATOM     64  C   UNL     1       6.351   3.220   6.800  1.00  0.00     0.091 C 
ATOM     65  N   UNL     1       5.385   0.780   6.528  1.00  0.00    -0.320 N 
ATOM     66  C   UNL     1       5.314   3.321   7.833  1.00  0.00     0.042 A 
ATOM     67  C   UNL     1       4.561   0.916   7.755  1.00  0.00     0.178 C 
ATOM     68  N   UNL     1       4.942   4.424   8.544  1.00  0.00    -0.348 N 
ATOM     69  C   UNL     1       4.495   2.308   8.247  1.00  0.00     0.081 A 
ATOM     70  C   UNL     1       3.916   4.034   9.363  1.00  0.00     0.197 A 
ATOM     71  H   UNL     1       5.334   5.325   8.481  1.00  0.00     0.167 HD
ATOM     72  N   UNL     1       3.626   2.759   9.206  1.00  0.00    -0.240 NA
BRANCH  65  73
ATOM     73  C   UNL     1       5.375  -0.550   6.054  1.00  0.00     0.256 C 
ATOM     74  O   UNL     1       4.563  -1.392   6.435  1.00  0.00    -0.269 OA
BRANCH  73  75
ATOM     75  C   UNL     1       6.261  -0.978   4.961  1.00  0.00     0.061 A 
ATOM     76  C   UNL     1       5.649  -1.200   3.725  1.00  0.00     0.035 A 
ATOM     77  C   UNL     1       7.619  -1.227   5.113  1.00  0.00     0.072 A 
ATOM     78  C   UNL     1       6.446  -1.521   2.643  1.00  0.00     0.112 A 
ATOM     79  C   UNL     1       8.333  -1.537   3.964  1.00  0.00     0.132 A 
ATOM     80  Cl  UNL     1       8.419  -1.226   6.633  1.00  0.00    -0.082 Cl
ATOM     81  N   UNL     1       7.782  -1.663   2.729  1.00  0.00    -0.263 NA
ENDBRANCH  73  75
ENDBRANCH  65  73
ENDBRANCH  60  63
ENDBRANCH  58  59
ENDBRANCH  57  58
ENDBRANCH   1  57
TORSDOF 13
