REMARK SMILES CCC[NH2+][C@@]1(C(=O)NCCCCNC(=O)c2ccc(-c3c4nc(c(-c5ccccc5)c5ccc([nH]5)c(-c5ccccc5)c5nc(c(-c6ccccc6)c6ccc3[nH]6)C=C5)C=C4)cc2)CC[C@@H](SC2CCCC2)C1
REMARK SMILES IDX 10 1 9 2 8 3 6 4 7 5 5 7 64 8 73 9 65 10 66 11 4 12 3 15
REMARK SMILES IDX 2 16 1 17 67 18 68 19 69 20 72 21 70 22 71 23 11 24 12 25
REMARK SMILES IDX 13 26 14 27 15 29 16 30 17 31 63 32 18 33 62 34 19 35 20 36
REMARK SMILES IDX 21 37 56 38 22 39 61 40 55 41 57 42 23 43 60 44 54 45 53 46
REMARK SMILES IDX 24 48 46 49 31 50 45 51 32 52 35 53 44 54 58 55 33 56 34 57
REMARK SMILES IDX 43 59 59 60 36 61 25 62 26 63 30 64 27 65 29 66 28 67 47 68
REMARK SMILES IDX 48 69 52 70 49 71 51 72 50 73 37 74 38 75 42 76 39 77 41 78
REMARK SMILES IDX 40 79
REMARK H PARENT 8 6 4 13 4 14 13 28 57 47 35 58
REMARK Flexibility Score: inf
ROOT
ATOM      1  C   UNL     1       2.700  -4.205   6.465  1.00  0.00     0.023 C 
ENDROOT
BRANCH   1   2
ATOM      2  C   UNL     1       1.261  -4.336   5.970  1.00  0.00     0.116 C 
BRANCH   2   3
ATOM      3  N   UNL     1       0.745  -3.081   5.496  1.00  0.00    -0.351 N 
ATOM      4  C   UNL     1       0.635  -2.541   4.260  1.00  0.00     0.281 C 
ATOM      5  O   UNL     1       0.269  -1.353   4.260  1.00  0.00    -0.268 OA
ATOM      6  H   UNL     1       0.404  -2.498   6.212  1.00  0.00     0.163 HD
BRANCH   4   7
ATOM      7  C   UNL     1       0.971  -3.266   2.878  1.00  0.00     0.176 C 
ATOM      8  C   UNL     1       0.226  -4.601   2.682  1.00  0.00     0.080 C 
ATOM      9  C   UNL     1       2.474  -3.593   2.769  1.00  0.00     0.093 C 
ATOM     10  C   UNL     1       1.232  -5.746   2.800  1.00  0.00     0.022 C 
ATOM     11  C   UNL     1       2.616  -5.114   2.860  1.00  0.00     0.054 C 
BRANCH   7  12
ATOM     12  N   UNL     1       0.443  -2.297   1.871  1.00  0.00    -0.334 N 
ATOM     13  H   UNL     1      -0.560  -2.470   1.794  1.00  0.00     0.347 HD
ATOM     14  H   UNL     1       0.735  -1.393   2.240  1.00  0.00     0.347 HD
BRANCH  12  15
ATOM     15  C   UNL     1       0.972  -2.294   0.521  1.00  0.00     0.261 C 
BRANCH  15  16
ATOM     16  C   UNL     1       0.300  -1.213  -0.336  1.00  0.00     0.058 C 
ATOM     17  C   UNL     1       0.749   0.197   0.032  1.00  0.00     0.010 C 
ENDBRANCH  15  16
ENDBRANCH  12  15
ENDBRANCH   7  12
BRANCH  11  18
ATOM     18  S   UNL     1       3.966  -5.891   1.892  1.00  0.00    -0.155 SA
BRANCH  18  19
ATOM     19  C   UNL     1       3.490  -5.905   0.126  1.00  0.00     0.047 C 
ATOM     20  C   UNL     1       2.098  -6.353  -0.288  1.00  0.00     0.014 C 
ATOM     21  C   UNL     1       3.704  -4.609  -0.652  1.00  0.00     0.014 C 
ATOM     22  C   UNL     1       2.094  -6.074  -1.782  1.00  0.00     0.001 C 
ATOM     23  C   UNL     1       2.843  -4.751  -1.916  1.00  0.00     0.001 C 
ENDBRANCH  18  19
ENDBRANCH  11  18
ENDBRANCH   4   7
ENDBRANCH   2   3
ENDBRANCH   1   2
BRANCH   1  24
ATOM     24  C   UNL     1       2.824  -3.974   7.970  1.00  0.00     0.023 C 
BRANCH  24  25
ATOM     25  C   UNL     1       2.177  -5.047   8.839  1.00  0.00     0.116 C 
BRANCH  25  26
ATOM     26  N   UNL     1       2.600  -6.405   8.530  1.00  0.00    -0.352 N 
ATOM     27  C   UNL     1       2.599  -7.493   9.371  1.00  0.00     0.251 C 
ATOM     28  H   UNL     1       2.925  -6.562   7.614  1.00  0.00     0.163 HD
ATOM     29  O   UNL     1       3.052  -8.573   9.011  1.00  0.00    -0.269 OA
BRANCH  27  30
ATOM     30  C   UNL     1       2.089  -7.316  10.744  1.00  0.00     0.039 A 
ATOM     31  C   UNL     1       2.919  -7.641  11.817  1.00  0.00     0.014 A 
ATOM     32  C   UNL     1       0.835  -6.737  10.959  1.00  0.00     0.014 A 
ATOM     33  C   UNL     1       2.518  -7.316  13.113  1.00  0.00     0.010 A 
ATOM     34  C   UNL     1       0.476  -6.341  12.241  1.00  0.00     0.010 A 
ATOM     35  C   UNL     1       1.313  -6.627  13.329  1.00  0.00    -0.014 A 
BRANCH  35  36
ATOM     36  C   UNL     1       0.913  -6.200  14.691  1.00  0.00     0.031 A 
ATOM     37  C   UNL     1      -0.323  -6.770  15.327  1.00  0.00     0.074 A 
ATOM     38  C   UNL     1       1.632  -5.257  15.332  1.00  0.00     0.049 A 
ATOM     39  N   UNL     1      -0.841  -6.511  16.501  1.00  0.00    -0.248 NA
ATOM     40  C   UNL     1      -1.097  -7.735  14.528  1.00  0.00     0.031 C 
ATOM     41  C   UNL     1       2.817  -4.581  14.797  1.00  0.00     0.029 A 
ATOM     42  N   UNL     1       1.470  -4.706  16.578  1.00  0.00    -0.354 N 
ATOM     43  C   UNL     1      -2.004  -7.266  16.572  1.00  0.00     0.074 A 
ATOM     44  C   UNL     1      -2.148  -7.946  15.305  1.00  0.00     0.031 C 
ATOM     45  C   UNL     1       3.296  -3.736  15.725  1.00  0.00     0.029 A 
ATOM     46  C   UNL     1       2.439  -3.789  16.904  1.00  0.00     0.049 A 
ATOM     47  H   UNL     1       0.730  -4.946  17.181  1.00  0.00     0.167 HD
ATOM     48  C   UNL     1      -2.864  -7.403  17.609  1.00  0.00     0.031 A 
ATOM     49  C   UNL     1       2.622  -3.079  18.033  1.00  0.00     0.031 A 
ATOM     50  C   UNL     1      -2.711  -6.743  18.877  1.00  0.00     0.049 A 
ATOM     51  C   UNL     1       1.667  -3.266  19.179  1.00  0.00     0.074 A 
ATOM     52  C   UNL     1      -3.492  -6.864  20.012  1.00  0.00     0.029 A 
ATOM     53  N   UNL     1      -1.703  -5.840  19.175  1.00  0.00    -0.354 N 
ATOM     54  N   UNL     1       0.615  -4.044  19.259  1.00  0.00    -0.248 NA
ATOM     55  C   UNL     1       1.938  -2.489  20.396  1.00  0.00     0.031 C 
ATOM     56  C   UNL     1      -2.978  -6.002  20.988  1.00  0.00     0.029 A 
ATOM     57  C   UNL     1      -1.851  -5.382  20.473  1.00  0.00     0.049 A 
ATOM     58  H   UNL     1      -0.989  -5.564  18.556  1.00  0.00     0.167 HD
ATOM     59  C   UNL     1       0.114  -3.871  20.543  1.00  0.00     0.074 A 
ATOM     60  C   UNL     1       0.988  -2.928  21.210  1.00  0.00     0.031 C 
ATOM     61  C   UNL     1      -0.972  -4.442  21.119  1.00  0.00     0.031 A 
BRANCH  48  62
ATOM     62  C   UNL     1      -4.045  -8.309  17.405  1.00  0.00    -0.014 A 
ATOM     63  C   UNL     1      -3.884  -9.701  17.314  1.00  0.00     0.009 A 
ATOM     64  C   UNL     1      -5.337  -7.767  17.320  1.00  0.00     0.009 A 
ATOM     65  C   UNL     1      -4.988 -10.529  17.099  1.00  0.00     0.001 A 
ATOM     66  C   UNL     1      -6.442  -8.600  17.134  1.00  0.00     0.001 A 
ATOM     67  C   UNL     1      -6.266  -9.978  17.014  1.00  0.00     0.000 A 
ENDBRANCH  48  62
BRANCH  49  68
ATOM     68  C   UNL     1       3.779  -2.156  18.155  1.00  0.00    -0.014 A 
ATOM     69  C   UNL     1       4.862  -2.482  18.986  1.00  0.00     0.009 A 
ATOM     70  C   UNL     1       3.806  -0.944  17.448  1.00  0.00     0.009 A 
ATOM     71  C   UNL     1       5.936  -1.600  19.129  1.00  0.00     0.001 A 
ATOM     72  C   UNL     1       4.894  -0.076  17.573  1.00  0.00     0.001 A 
ATOM     73  C   UNL     1       5.953  -0.401  18.420  1.00  0.00     0.000 A 
ENDBRANCH  49  68
BRANCH  61  74
ATOM     74  C   UNL     1      -1.253  -4.084  22.549  1.00  0.00    -0.014 A 
ATOM     75  C   UNL     1      -1.758  -2.822  22.898  1.00  0.00     0.009 A 
ATOM     76  C   UNL     1      -1.038  -5.036  23.558  1.00  0.00     0.009 A 
ATOM     77  C   UNL     1      -2.008  -2.509  24.235  1.00  0.00     0.001 A 
ATOM     78  C   UNL     1      -1.315  -4.729  24.890  1.00  0.00     0.001 A 
ATOM     79  C   UNL     1      -1.791  -3.463  25.229  1.00  0.00     0.000 A 
ENDBRANCH  61  74
ENDBRANCH  35  36
ENDBRANCH  27  30
ENDBRANCH  25  26
ENDBRANCH  24  25
ENDBRANCH   1  24
TORSDOF 16
