REMARK SMILES CC(=O)Nc1c(C)nn([C@H](C)C(=O)NCCCCNC(=O)c2ccc(-c3c4nc(c(-c5ccccc5)c5ccc([nH]5)c(-c5ccccc5)c5nc(c(-c6ccccc6)c6ccc3[nH]6)C=C5)C=C4)cc2)c1C
REMARK SMILES IDX 16 1 15 2 14 3 12 4 13 5 10 7 11 8 9 9 5 10 6 11 70 12 7 13
REMARK SMILES IDX 8 14 71 15 4 16 1 17 2 18 3 19 17 21 18 22 19 23 20 24 21 26
REMARK SMILES IDX 22 27 23 28 69 29 24 30 68 31 25 32 26 33 27 34 62 35 28 36
REMARK SMILES IDX 67 37 61 38 63 39 29 40 66 41 60 42 59 43 30 45 52 46 37 47
REMARK SMILES IDX 51 48 38 49 41 50 50 51 64 52 39 53 40 54 49 56 65 57 42 58
REMARK SMILES IDX 31 59 32 60 36 61 33 62 35 63 34 64 53 65 54 66 58 67 55 68
REMARK SMILES IDX 57 69 56 70 43 71 44 72 48 73 45 74 47 75 46 76
REMARK H PARENT 14 6 4 20 19 25 63 44 41 55
REMARK Flexibility Score: inf
ROOT
ATOM      1  C   UNL     1       2.050   1.415  -6.752  1.00  0.00     0.023 C 
ENDROOT
BRANCH   1   2
ATOM      2  C   UNL     1       3.533   1.380  -6.384  1.00  0.00     0.116 C 
BRANCH   2   3
ATOM      3  N   UNL     1       3.879   2.350  -5.359  1.00  0.00    -0.354 N 
ATOM      4  C   UNL     1       4.441   2.170  -4.129  1.00  0.00     0.244 C 
ATOM      5  O   UNL     1       4.751   3.196  -3.507  1.00  0.00    -0.273 OA
ATOM      6  H   UNL     1       3.676   3.286  -5.589  1.00  0.00     0.163 HD
BRANCH   4   7
ATOM      7  C   UNL     1       4.683   0.801  -3.499  1.00  0.00     0.193 C 
ATOM      8  C   UNL     1       3.450  -0.093  -3.384  1.00  0.00     0.044 C 
BRANCH   7   9
ATOM      9  N   UNL     1       5.869   0.150  -4.057  1.00  0.00    -0.255 N 
ATOM     10  C   UNL     1       7.846  -0.778  -4.342  1.00  0.00     0.085 A 
ATOM     11  C   UNL     1       7.081  -0.781  -5.535  1.00  0.00     0.083 A 
ATOM     12  C   UNL     1       7.082  -0.068  -3.434  1.00  0.00     0.060 A 
ATOM     13  C   UNL     1       7.439  -1.286  -6.884  1.00  0.00     0.071 C 
ATOM     14  N   UNL     1       5.858  -0.291  -5.329  1.00  0.00    -0.175 NA
ATOM     15  C   UNL     1       7.412   0.532  -2.113  1.00  0.00     0.069 C 
BRANCH  10  16
ATOM     16  N   UNL     1       9.130  -1.261  -4.194  1.00  0.00    -0.323 N 
ATOM     17  C   UNL     1       8.806  -2.404  -2.012  1.00  0.00     0.114 C 
ATOM     18  C   UNL     1       9.693  -1.876  -3.112  1.00  0.00     0.221 C 
ATOM     19  O   UNL     1      10.909  -2.075  -3.093  1.00  0.00    -0.275 OA
ATOM     20  H   UNL     1       9.720  -1.148  -4.974  1.00  0.00     0.170 HD
ENDBRANCH  10  16
ENDBRANCH   7   9
ENDBRANCH   4   7
ENDBRANCH   2   3
ENDBRANCH   1   2
BRANCH   1  21
ATOM     21  C   UNL     1       1.567   2.677  -7.475  1.00  0.00     0.023 C 
BRANCH  21  22
ATOM     22  C   UNL     1       2.301   2.972  -8.772  1.00  0.00     0.116 C 
BRANCH  22  23
ATOM     23  N   UNL     1       2.159   1.919  -9.780  1.00  0.00    -0.352 N 
ATOM     24  C   UNL     1       2.678   1.914 -11.060  1.00  0.00     0.251 C 
ATOM     25  H   UNL     1       1.636   1.128  -9.517  1.00  0.00     0.163 HD
ATOM     26  O   UNL     1       2.232   1.170 -11.935  1.00  0.00    -0.269 OA
BRANCH  24  27
ATOM     27  C   UNL     1       3.800   2.815 -11.354  1.00  0.00     0.039 A 
ATOM     28  C   UNL     1       3.845   3.606 -12.505  1.00  0.00     0.014 A 
ATOM     29  C   UNL     1       4.791   2.904 -10.382  1.00  0.00     0.014 A 
ATOM     30  C   UNL     1       4.862   4.551 -12.625  1.00  0.00     0.010 A 
ATOM     31  C   UNL     1       5.665   3.954 -10.412  1.00  0.00     0.010 A 
ATOM     32  C   UNL     1       5.758   4.731 -11.560  1.00  0.00    -0.014 A 
BRANCH  32  33
ATOM     33  C   UNL     1       6.752   5.796 -11.566  1.00  0.00     0.031 A 
ATOM     34  C   UNL     1       6.202   7.163 -11.768  1.00  0.00     0.074 A 
ATOM     35  C   UNL     1       8.028   5.586 -11.170  1.00  0.00     0.049 A 
ATOM     36  N   UNL     1       6.404   7.950 -12.771  1.00  0.00    -0.248 NA
ATOM     37  C   UNL     1       5.211   7.670 -10.804  1.00  0.00     0.031 C 
ATOM     38  C   UNL     1       8.630   4.351 -10.644  1.00  0.00     0.029 A 
ATOM     39  N   UNL     1       9.037   6.484 -11.026  1.00  0.00    -0.354 N 
ATOM     40  C   UNL     1       5.739   9.136 -12.472  1.00  0.00     0.074 A 
ATOM     41  C   UNL     1       4.882   8.842 -11.351  1.00  0.00     0.031 C 
ATOM     42  C   UNL     1       9.789   4.642 -10.012  1.00  0.00     0.029 A 
ATOM     43  C   UNL     1      10.102   6.036 -10.253  1.00  0.00     0.049 A 
ATOM     44  H   UNL     1       9.015   7.379 -11.436  1.00  0.00     0.167 HD
ATOM     45  C   UNL     1       6.151  10.325 -12.995  1.00  0.00     0.031 A 
ATOM     46  C   UNL     1      11.162   6.765  -9.825  1.00  0.00     0.031 A 
ATOM     47  C   UNL     1       7.051  10.129 -14.105  1.00  0.00     0.049 A 
ATOM     48  C   UNL     1      11.251   7.955 -10.701  1.00  0.00     0.074 A 
ATOM     49  C   UNL     1       6.970   9.502 -15.332  1.00  0.00     0.029 A 
ATOM     50  N   UNL     1       8.393  10.277 -13.848  1.00  0.00    -0.354 N 
ATOM     51  N   UNL     1      11.532   7.883 -11.970  1.00  0.00    -0.248 NA
ATOM     52  C   UNL     1      10.560   9.162 -10.279  1.00  0.00     0.031 C 
ATOM     53  C   UNL     1       8.239   8.871 -15.502  1.00  0.00     0.029 A 
ATOM     54  C   UNL     1       9.043   9.213 -14.413  1.00  0.00     0.049 A 
ATOM     55  H   UNL     1       8.812  11.015 -13.348  1.00  0.00     0.167 HD
ATOM     56  C   UNL     1      10.672   8.791 -12.571  1.00  0.00     0.074 A 
ATOM     57  C   UNL     1      10.173   9.621 -11.474  1.00  0.00     0.031 C 
ATOM     58  C   UNL     1      10.224   8.598 -13.847  1.00  0.00     0.031 A 
BRANCH  45  59
ATOM     59  C   UNL     1       6.127  11.628 -12.227  1.00  0.00    -0.014 A 
ATOM     60  C   UNL     1       6.632  12.782 -12.856  1.00  0.00     0.009 A 
ATOM     61  C   UNL     1       5.928  11.707 -10.836  1.00  0.00     0.009 A 
ATOM     62  C   UNL     1       7.024  13.905 -12.117  1.00  0.00     0.001 A 
ATOM     63  C   UNL     1       6.279  12.842 -10.100  1.00  0.00     0.001 A 
ATOM     64  C   UNL     1       6.862  13.927 -10.736  1.00  0.00     0.000 A 
ENDBRANCH  45  59
BRANCH  46  65
ATOM     65  C   UNL     1      11.918   6.649  -8.560  1.00  0.00    -0.014 A 
ATOM     66  C   UNL     1      13.191   7.224  -8.421  1.00  0.00     0.009 A 
ATOM     67  C   UNL     1      11.268   6.210  -7.391  1.00  0.00     0.009 A 
ATOM     68  C   UNL     1      13.774   7.387  -7.156  1.00  0.00     0.001 A 
ATOM     69  C   UNL     1      11.849   6.373  -6.129  1.00  0.00     0.001 A 
ATOM     70  C   UNL     1      13.097   6.975  -6.010  1.00  0.00     0.000 A 
ENDBRANCH  46  65
BRANCH  58  71
ATOM     71  C   UNL     1      10.842   7.479 -14.653  1.00  0.00    -0.014 A 
ATOM     72  C   UNL     1      10.711   6.121 -14.309  1.00  0.00     0.009 A 
ATOM     73  C   UNL     1      11.426   7.797 -15.887  1.00  0.00     0.009 A 
ATOM     74  C   UNL     1      11.170   5.115 -15.167  1.00  0.00     0.001 A 
ATOM     75  C   UNL     1      11.867   6.793 -16.751  1.00  0.00     0.001 A 
ATOM     76  C   UNL     1      11.742   5.452 -16.391  1.00  0.00     0.000 A 
ENDBRANCH  58  71
ENDBRANCH  32  33
ENDBRANCH  24  27
ENDBRANCH  22  23
ENDBRANCH  21  22
ENDBRANCH   1  21
TORSDOF 13
