REMARK SMILES CC1(C)[C@H](O)CC[C@@]2(C)[C@H]3Cc4c(oc(C(=O)NCCCCNC(=O)c5ccc(-c6c7nc(c(-c8ccccc8)c8ccc([nH]8)c(-c8ccccc8)c8nc(c(-c9ccccc9)c9ccc6[nH]9)C=C8)C=C7)cc5)cc4=O)O[C@@]3(C)CC[C@@H]12
REMARK SMILES IDX 21 1 20 2 19 3 18 4 16 5 17 6 15 8 1 9 2 10 3 11 4 12 82 13
REMARK SMILES IDX 6 14 8 15 81 16 7 17 9 18 10 19 80 20 78 21 11 22 79 23
REMARK SMILES IDX 77 24 12 25 13 26 75 27 14 28 74 29 76 30 5 31 22 33 23 34
REMARK SMILES IDX 24 35 25 37 26 38 27 39 73 40 28 41 72 42 29 43 30 44 31 45
REMARK SMILES IDX 66 46 32 47 71 48 65 49 67 50 33 51 70 52 64 53 63 54 34 56
REMARK SMILES IDX 56 57 41 58 55 59 42 60 45 61 54 62 68 63 43 64 44 65 53 67
REMARK SMILES IDX 69 68 46 69 35 70 36 71 40 72 37 73 39 74 38 75 57 76 58 77
REMARK SMILES IDX 62 78 59 79 61 80 60 81 47 82 48 83 52 84 49 85 51 86 50 87
REMARK H PARENT 18 7 5 32 23 36 67 55 45 66
REMARK Flexibility Score: inf
ROOT
ATOM      1  C   UNL     1      -6.496   2.058   0.221  1.00  0.00     0.023 C 
ENDROOT
BRANCH   1   2
ATOM      2  C   UNL     1      -5.190   1.551   0.834  1.00  0.00     0.023 C 
BRANCH   2   3
ATOM      3  C   UNL     1      -5.357   1.005   2.257  1.00  0.00     0.116 C 
BRANCH   3   4
ATOM      4  N   UNL     1      -5.604  -0.427   2.232  1.00  0.00    -0.349 N 
ATOM      5  C   UNL     1      -4.792  -1.498   2.476  1.00  0.00     0.287 C 
ATOM      6  O   UNL     1      -5.292  -2.621   2.425  1.00  0.00    -0.266 OA
ATOM      7  H   UNL     1      -6.529  -0.670   1.995  1.00  0.00     0.163 HD
BRANCH   5   8
ATOM      8  C   UNL     1      -3.349  -1.332   2.850  1.00  0.00     0.199 A 
ATOM      9  C   UNL     1       0.598  -1.301   0.271  1.00  0.00     0.014 C 
ATOM     10  C   UNL     1       1.072  -2.692  -0.200  1.00  0.00    -0.006 C 
ATOM     11  C   UNL     1      -0.107  -3.174  -1.073  1.00  0.00     0.014 C 
ATOM     12  C   UNL     1       2.365  -2.386  -0.997  1.00  0.00     0.120 C 
ATOM     13  C   UNL     1       1.551  -3.797   0.849  1.00  0.00     0.004 C 
ATOM     14  C   UNL     1       3.578  -2.164  -0.038  1.00  0.00     0.033 C 
ATOM     15  C   UNL     1       2.356  -3.224   2.052  1.00  0.00    -0.022 C 
ATOM     16  C   UNL     1       0.638  -4.960   1.237  1.00  0.00     0.009 C 
ATOM     17  C   UNL     1       3.267  -2.062   1.499  1.00  0.00     0.010 C 
ATOM     18  C   UNL     1       3.417  -4.287   2.507  1.00  0.00     0.012 C 
ATOM     19  C   UNL     1       1.401  -2.952   3.340  1.00  0.00     0.044 C 
ATOM     20  C   UNL     1      -0.382  -4.592   2.271  1.00  0.00     0.049 C 
ATOM     21  C   UNL     1       0.234  -4.027   3.570  1.00  0.00     0.113 C 
ATOM     22  C   UNL     1       0.867  -1.509   3.568  1.00  0.00     0.055 C 
ATOM     23  C   UNL     1       0.728  -5.196   4.452  1.00  0.00     0.057 C 
ATOM     24  O   UNL     1      -0.883  -3.518   4.358  1.00  0.00    -0.458 OA
ATOM     25  C   UNL     1      -0.615  -1.382   3.461  1.00  0.00     0.081 A 
ATOM     26  C   UNL     1      -1.431  -2.364   3.840  1.00  0.00     0.292 A 
ATOM     27  C   UNL     1      -1.216  -0.193   2.828  1.00  0.00     0.192 A 
ATOM     28  O   UNL     1      -2.811  -2.308   3.690  1.00  0.00    -0.420 OA
ATOM     29  C   UNL     1      -2.597  -0.352   2.343  1.00  0.00     0.105 A 
ATOM     30  O   UNL     1      -0.606   0.833   2.628  1.00  0.00    -0.289 OA
BRANCH  12  31
ATOM     31  O   UNL     1       2.637  -3.482  -1.877  1.00  0.00    -0.393 OA
ATOM     32  H   UNL     1       2.765  -4.290  -1.356  1.00  0.00     0.210 HD
ENDBRANCH  12  31
ENDBRANCH   5   8
ENDBRANCH   3   4
ENDBRANCH   2   3
ENDBRANCH   1   2
BRANCH   1  33
ATOM     33  C   UNL     1      -7.053   3.308   0.892  1.00  0.00     0.116 C 
BRANCH  33  34
ATOM     34  N   UNL     1      -6.188   4.470   0.752  1.00  0.00    -0.352 N 
ATOM     35  C   UNL     1      -6.572   5.786   0.656  1.00  0.00     0.251 C 
ATOM     36  H   UNL     1      -5.220   4.293   0.723  1.00  0.00     0.163 HD
ATOM     37  O   UNL     1      -5.758   6.679   0.462  1.00  0.00    -0.269 OA
BRANCH  35  38
ATOM     38  C   UNL     1      -8.010   6.093   0.750  1.00  0.00     0.039 A 
ATOM     39  C   UNL     1      -8.643   6.689  -0.341  1.00  0.00     0.014 A 
ATOM     40  C   UNL     1      -8.735   5.700   1.880  1.00  0.00     0.014 A 
ATOM     41  C   UNL     1     -10.028   6.845  -0.324  1.00  0.00     0.010 A 
ATOM     42  C   UNL     1     -10.120   5.814   1.875  1.00  0.00     0.010 A 
ATOM     43  C   UNL     1     -10.776   6.386   0.773  1.00  0.00    -0.014 A 
BRANCH  43  44
ATOM     44  C   UNL     1     -12.249   6.527   0.799  1.00  0.00     0.031 A 
ATOM     45  C   UNL     1     -12.879   7.515   1.735  1.00  0.00     0.074 A 
ATOM     46  C   UNL     1     -13.014   5.750   0.008  1.00  0.00     0.049 A 
ATOM     47  N   UNL     1     -14.148   7.768   1.928  1.00  0.00    -0.248 NA
ATOM     48  C   UNL     1     -11.969   8.317   2.571  1.00  0.00     0.031 C 
ATOM     49  C   UNL     1     -12.516   4.748  -0.937  1.00  0.00     0.029 A 
ATOM     50  N   UNL     1     -14.378   5.690  -0.130  1.00  0.00    -0.354 N 
ATOM     51  C   UNL     1     -14.187   8.749   2.909  1.00  0.00     0.074 A 
ATOM     52  C   UNL     1     -12.822   9.021   3.301  1.00  0.00     0.031 C 
ATOM     53  C   UNL     1     -13.559   4.200  -1.583  1.00  0.00     0.029 A 
ATOM     54  C   UNL     1     -14.796   4.787  -1.077  1.00  0.00     0.049 A 
ATOM     55  H   UNL     1     -14.998   6.242   0.399  1.00  0.00     0.167 HD
ATOM     56  C   UNL     1     -15.265   9.382   3.422  1.00  0.00     0.031 A 
ATOM     57  C   UNL     1     -16.038   4.474  -1.493  1.00  0.00     0.031 A 
ATOM     58  C   UNL     1     -16.618   9.135   3.014  1.00  0.00     0.049 A 
ATOM     59  C   UNL     1     -17.221   5.168  -0.878  1.00  0.00     0.074 A 
ATOM     60  C   UNL     1     -17.771   9.769   3.443  1.00  0.00     0.029 A 
ATOM     61  N   UNL     1     -17.000   8.187   2.081  1.00  0.00    -0.354 N 
ATOM     62  N   UNL     1     -17.239   6.118   0.024  1.00  0.00    -0.248 NA
ATOM     63  C   UNL     1     -18.554   4.749  -1.339  1.00  0.00     0.031 C 
ATOM     64  C   UNL     1     -18.857   9.178   2.795  1.00  0.00     0.029 A 
ATOM     65  C   UNL     1     -18.375   8.204   1.935  1.00  0.00     0.049 A 
ATOM     66  H   UNL     1     -16.386   7.591   1.594  1.00  0.00     0.167 HD
ATOM     67  C   UNL     1     -18.578   6.427   0.222  1.00  0.00     0.074 A 
ATOM     68  C   UNL     1     -19.344   5.566  -0.654  1.00  0.00     0.031 C 
ATOM     69  C   UNL     1     -19.120   7.346   1.054  1.00  0.00     0.031 A 
BRANCH  56  70
ATOM     70  C   UNL     1     -15.032  10.423   4.474  1.00  0.00    -0.014 A 
ATOM     71  C   UNL     1     -14.576  11.703   4.125  1.00  0.00     0.009 A 
ATOM     72  C   UNL     1     -15.365  10.152   5.810  1.00  0.00     0.009 A 
ATOM     73  C   UNL     1     -14.453  12.694   5.099  1.00  0.00     0.001 A 
ATOM     74  C   UNL     1     -15.257  11.151   6.778  1.00  0.00     0.001 A 
ATOM     75  C   UNL     1     -14.801  12.420   6.422  1.00  0.00     0.000 A 
ENDBRANCH  56  70
BRANCH  57  76
ATOM     76  C   UNL     1     -16.227   3.479  -2.579  1.00  0.00    -0.014 A 
ATOM     77  C   UNL     1     -16.576   3.907  -3.869  1.00  0.00     0.009 A 
ATOM     78  C   UNL     1     -16.051   2.108  -2.340  1.00  0.00     0.009 A 
ATOM     79  C   UNL     1     -16.756   2.979  -4.897  1.00  0.00     0.001 A 
ATOM     80  C   UNL     1     -16.214   1.184  -3.375  1.00  0.00     0.001 A 
ATOM     81  C   UNL     1     -16.571   1.620  -4.650  1.00  0.00     0.000 A 
ENDBRANCH  57  76
BRANCH  69  82
ATOM     82  C   UNL     1     -20.611   7.501   1.057  1.00  0.00    -0.014 A 
ATOM     83  C   UNL     1     -21.424   6.599   1.759  1.00  0.00     0.009 A 
ATOM     84  C   UNL     1     -21.193   8.631   0.462  1.00  0.00     0.009 A 
ATOM     85  C   UNL     1     -22.797   6.827   1.863  1.00  0.00     0.001 A 
ATOM     86  C   UNL     1     -22.562   8.866   0.585  1.00  0.00     0.001 A 
ATOM     87  C   UNL     1     -23.363   7.964   1.285  1.00  0.00     0.000 A 
ENDBRANCH  69  82
ENDBRANCH  43  44
ENDBRANCH  35  38
ENDBRANCH  33  34
ENDBRANCH   1  33
TORSDOF 12
