REMARK SMILES Cc1ccc(C(C)C)c(OCC(=O)Nc2nc(CC(=O)NCCCCNC(=O)c3ccc(-c4c5nc(c(-c6ccccc6)c6ccc([nH]6)c(-c6ccccc6)c6nc(c(-c7ccccc7)c7ccc4[nH]7)C=C6)C=C5)cc3)cs2)c1
REMARK SMILES IDX 19 1 20 2 21 3 18 5 17 6 15 7 16 8 78 9 77 10 14 11 12 12
REMARK SMILES IDX 13 13 11 15 10 16 9 17 1 18 2 19 3 20 79 21 4 22 5 23 6 24
REMARK SMILES IDX 7 25 8 26 22 27 23 28 24 29 25 30 26 31 27 32 28 34 29 35
REMARK SMILES IDX 30 36 76 37 31 38 75 39 32 40 33 41 34 42 69 43 35 44 74 45
REMARK SMILES IDX 68 46 70 47 36 48 73 49 67 50 66 51 37 53 59 54 44 55 58 56
REMARK SMILES IDX 45 57 48 58 57 59 71 60 46 61 47 62 56 64 72 65 49 66 38 67
REMARK SMILES IDX 39 68 43 69 40 70 42 71 41 72 60 73 61 74 65 75 62 76 64 77
REMARK SMILES IDX 63 78 50 79 51 80 55 81 52 82 54 83 53 84
REMARK H PARENT 21 4 14 14 26 33 70 52 48 63
REMARK Flexibility Score: inf
ROOT
ATOM      1  C   UNL     1      -6.155   1.412   3.110  1.00  0.00     0.226 C 
ATOM      2  O   UNL     1      -7.363   1.378   3.358  1.00  0.00    -0.275 OA
ATOM      3  N   UNL     1      -5.335   0.573   3.811  1.00  0.00    -0.356 N 
ATOM      4  H   UNL     1      -5.784   0.023   4.493  1.00  0.00     0.163 HD
ENDROOT
BRANCH   1   5
ATOM      5  C   UNL     1      -5.605   2.331   2.034  1.00  0.00     0.157 C 
BRANCH   5   6
ATOM      6  C   UNL     1      -4.627   3.320   2.571  1.00  0.00     0.063 A 
ATOM      7  C   UNL     1      -2.598   4.172   2.644  1.00  0.00     0.189 A 
ATOM      8  N   UNL     1      -3.397   3.420   1.942  1.00  0.00    -0.224 NA
ATOM      9  S   UNL     1      -3.278   4.926   4.013  1.00  0.00    -0.105 S 
ATOM     10  C   UNL     1      -4.771   4.144   3.674  1.00  0.00     0.093 A 
BRANCH   7  11
ATOM     11  N   UNL     1      -1.272   4.404   2.457  1.00  0.00    -0.299 N 
ATOM     12  C   UNL     1      -0.541   4.042   1.365  1.00  0.00     0.264 C 
ATOM     13  O   UNL     1       0.684   4.212   1.412  1.00  0.00    -0.271 OA
ATOM     14  H   UNL     1      -0.795   4.878   3.177  1.00  0.00     0.172 HD
BRANCH  12  15
ATOM     15  C   UNL     1      -1.215   3.546   0.076  1.00  0.00     0.329 C 
BRANCH  15  16
ATOM     16  O   UNL     1      -1.747   2.234   0.084  1.00  0.00    -0.483 OA
BRANCH  16  17
ATOM     17  C   UNL     1      -0.938   1.180  -0.238  1.00  0.00     0.123 A 
ATOM     18  C   UNL     1       2.727   0.150  -0.371  1.00  0.00     0.044 C 
ATOM     19  C   UNL     1       1.234   0.112  -0.513  1.00  0.00    -0.047 A 
ATOM     20  C   UNL     1       0.594  -1.071  -0.877  1.00  0.00     0.004 A 
ATOM     21  C   UNL     1       0.460   1.237  -0.207  1.00  0.00     0.050 A 
ATOM     22  C   UNL     1      -0.798  -1.149  -0.889  1.00  0.00     0.008 A 
ATOM     23  C   UNL     1      -1.585  -0.032  -0.562  1.00  0.00    -0.003 A 
BRANCH  23  24
ATOM     24  C   UNL     1      -3.104  -0.161  -0.537  1.00  0.00     0.017 C 
ATOM     25  C   UNL     1      -3.679  -0.549  -1.902  1.00  0.00     0.012 C 
ATOM     26  C   UNL     1      -3.547  -1.169   0.528  1.00  0.00     0.012 C 
ENDBRANCH  23  24
ENDBRANCH  16  17
ENDBRANCH  15  16
ENDBRANCH  12  15
ENDBRANCH   7  11
ENDBRANCH   5   6
ENDBRANCH   1   5
BRANCH   3  27
ATOM     27  C   UNL     1      -3.899   0.370   3.700  1.00  0.00     0.116 C 
BRANCH  27  28
ATOM     28  C   UNL     1      -3.103   0.945   4.880  1.00  0.00     0.023 C 
BRANCH  28  29
ATOM     29  C   UNL     1      -3.465   0.393   6.260  1.00  0.00     0.023 C 
BRANCH  29  30
ATOM     30  C   UNL     1      -3.162  -1.085   6.447  1.00  0.00     0.116 C 
BRANCH  30  31
ATOM     31  N   UNL     1      -1.815  -1.394   6.897  1.00  0.00    -0.352 N 
ATOM     32  C   UNL     1      -1.201  -2.625   7.086  1.00  0.00     0.251 C 
ATOM     33  H   UNL     1      -1.253  -0.612   7.098  1.00  0.00     0.163 HD
ATOM     34  O   UNL     1      -0.093  -2.665   7.594  1.00  0.00    -0.269 OA
BRANCH  32  35
ATOM     35  C   UNL     1      -1.811  -3.876   6.544  1.00  0.00     0.039 A 
ATOM     36  C   UNL     1      -0.943  -4.863   6.054  1.00  0.00     0.014 A 
ATOM     37  C   UNL     1      -3.177  -4.005   6.322  1.00  0.00     0.014 A 
ATOM     38  C   UNL     1      -1.409  -5.797   5.131  1.00  0.00     0.010 A 
ATOM     39  C   UNL     1      -3.619  -4.839   5.319  1.00  0.00     0.010 A 
ATOM     40  C   UNL     1      -2.718  -5.685   4.675  1.00  0.00    -0.014 A 
BRANCH  40  41
ATOM     41  C   UNL     1      -3.211  -6.308   3.457  1.00  0.00     0.031 A 
ATOM     42  C   UNL     1      -4.136  -7.450   3.521  1.00  0.00     0.074 A 
ATOM     43  C   UNL     1      -2.916  -5.731   2.272  1.00  0.00     0.049 A 
ATOM     44  N   UNL     1      -4.314  -8.289   2.558  1.00  0.00    -0.248 NA
ATOM     45  C   UNL     1      -4.914  -7.765   4.714  1.00  0.00     0.031 C 
ATOM     46  C   UNL     1      -3.542  -5.971   0.976  1.00  0.00     0.029 A 
ATOM     47  N   UNL     1      -1.802  -4.945   1.979  1.00  0.00    -0.354 N 
ATOM     48  C   UNL     1      -5.416  -9.046   2.875  1.00  0.00     0.074 A 
ATOM     49  C   UNL     1      -5.699  -8.746   4.260  1.00  0.00     0.031 C 
ATOM     50  C   UNL     1      -2.696  -5.577   0.008  1.00  0.00     0.029 A 
ATOM     51  C   UNL     1      -1.440  -5.229   0.653  1.00  0.00     0.049 A 
ATOM     52  H   UNL     1      -1.356  -4.312   2.586  1.00  0.00     0.167 HD
ATOM     53  C   UNL     1      -6.065  -9.729   1.891  1.00  0.00     0.031 A 
ATOM     54  C   UNL     1      -0.240  -5.819   0.374  1.00  0.00     0.031 A 
ATOM     55  C   UNL     1      -5.395  -9.585   0.600  1.00  0.00     0.049 A 
ATOM     56  C   UNL     1      -0.366  -7.159  -0.311  1.00  0.00     0.074 A 
ATOM     57  C   UNL     1      -5.649  -8.793  -0.509  1.00  0.00     0.029 A 
ATOM     58  N   UNL     1      -4.111 -10.091   0.437  1.00  0.00    -0.354 N 
ATOM     59  N   UNL     1      -1.437  -7.902  -0.271  1.00  0.00    -0.248 NA
ATOM     60  C   UNL     1       0.709  -7.772  -1.084  1.00  0.00     0.031 C 
ATOM     61  C   UNL     1      -4.484  -8.785  -1.319  1.00  0.00     0.029 A 
ATOM     62  C   UNL     1      -3.536  -9.594  -0.716  1.00  0.00     0.049 A 
ATOM     63  H   UNL     1      -3.672 -10.716   1.058  1.00  0.00     0.167 HD
ATOM     64  C   UNL     1      -1.229  -9.050  -0.991  1.00  0.00     0.074 A 
ATOM     65  C   UNL     1       0.130  -8.918  -1.486  1.00  0.00     0.031 C 
ATOM     66  C   UNL     1      -2.195 -10.008  -1.109  1.00  0.00     0.031 A 
BRANCH  53  67
ATOM     67  C   UNL     1      -7.466 -10.268   2.049  1.00  0.00    -0.014 A 
ATOM     68  C   UNL     1      -8.306 -10.361   0.923  1.00  0.00     0.009 A 
ATOM     69  C   UNL     1      -8.037 -10.650   3.274  1.00  0.00     0.009 A 
ATOM     70  C   UNL     1      -9.659 -10.709   1.031  1.00  0.00     0.001 A 
ATOM     71  C   UNL     1      -9.399 -10.959   3.397  1.00  0.00     0.001 A 
ATOM     72  C   UNL     1     -10.214 -10.977   2.274  1.00  0.00     0.000 A 
ENDBRANCH  53  67
BRANCH  54  73
ATOM     73  C   UNL     1       0.846  -5.439   1.322  1.00  0.00    -0.014 A 
ATOM     74  C   UNL     1       1.287  -4.103   1.309  1.00  0.00     0.009 A 
ATOM     75  C   UNL     1       1.148  -6.224   2.442  1.00  0.00     0.009 A 
ATOM     76  C   UNL     1       1.895  -3.526   2.426  1.00  0.00     0.001 A 
ATOM     77  C   UNL     1       1.775  -5.648   3.557  1.00  0.00     0.001 A 
ATOM     78  C   UNL     1       2.111  -4.293   3.564  1.00  0.00     0.000 A 
ENDBRANCH  54  73
BRANCH  66  79
ATOM     79  C   UNL     1      -2.025 -11.411  -1.653  1.00  0.00    -0.014 A 
ATOM     80  C   UNL     1      -0.796 -12.046  -1.866  1.00  0.00     0.009 A 
ATOM     81  C   UNL     1      -3.180 -12.207  -1.851  1.00  0.00     0.009 A 
ATOM     82  C   UNL     1      -0.724 -13.384  -2.281  1.00  0.00     0.001 A 
ATOM     83  C   UNL     1      -3.113 -13.553  -2.216  1.00  0.00     0.001 A 
ATOM     84  C   UNL     1      -1.880 -14.141  -2.442  1.00  0.00     0.000 A 
ENDBRANCH  66  79
ENDBRANCH  40  41
ENDBRANCH  32  35
ENDBRANCH  30  31
ENDBRANCH  29  30
ENDBRANCH  28  29
ENDBRANCH  27  28
ENDBRANCH   3  27
TORSDOF 17
