REMARK SMILES O=C(C[C@@H]1CN(C(=O)[C@H]2C[C@H](O)C[NH2+]2)CCO1)NCCCCNC(=O)c1ccc(-c2c3nc(c(-c4ccccc4)c4ccc([nH]4)c(-c4ccccc4)c4nc(c(-c5ccccc5)c5ccc2[nH]5)C=C4)C=C3)cc1
REMARK SMILES IDX 19 1 18 2 1 3 2 4 3 6 4 7 5 8 17 9 6 10 16 11 15 12 7 13
REMARK SMILES IDX 8 14 9 15 10 16 14 17 11 18 13 19 12 22 20 24 21 25 22 26
REMARK SMILES IDX 23 27 24 28 25 30 26 31 27 32 73 33 28 34 72 35 29 36 30 37
REMARK SMILES IDX 31 38 66 39 32 40 71 41 65 42 67 43 33 44 70 45 64 46 63 47
REMARK SMILES IDX 34 49 56 50 41 51 55 52 42 53 45 54 54 55 68 56 43 57 44 58
REMARK SMILES IDX 53 60 69 61 46 62 35 63 36 64 40 65 37 66 39 67 38 68 57 69
REMARK SMILES IDX 58 70 62 71 59 72 61 73 60 74 47 75 48 76 52 77 49 78 51 79
REMARK SMILES IDX 50 80
REMARK H PARENT 18 5 14 20 14 21 12 23 23 29 67 48 45 59
REMARK Flexibility Score: inf
ROOT
ATOM      1  C   UNL     1       2.109  -1.070  -2.140  1.00  0.00     0.116 C 
ENDROOT
BRANCH   1   2
ATOM      2  N   UNL     1       2.824  -0.147  -1.267  1.00  0.00    -0.356 N 
ATOM      3  O   UNL     1       1.236  -0.297   0.376  1.00  0.00    -0.275 OA
ATOM      4  C   UNL     1       2.296   0.174  -0.031  1.00  0.00     0.222 C 
ATOM      5  H   UNL     1       3.679   0.245  -1.556  1.00  0.00     0.163 HD
BRANCH   4   6
ATOM      6  C   UNL     1       3.133   1.086   0.846  1.00  0.00     0.133 C 
BRANCH   6   7
ATOM      7  C   UNL     1       3.923   0.358   1.951  1.00  0.00     0.147 C 
ATOM      8  C   UNL     1       3.459  -1.086   2.232  1.00  0.00     0.152 C 
ATOM      9  O   UNL     1       3.837   1.141   3.162  1.00  0.00    -0.374 OA
ATOM     10  N   UNL     1       4.200  -1.699   3.334  1.00  0.00    -0.333 N 
ATOM     11  C   UNL     1       4.619   0.562   4.223  1.00  0.00     0.182 C 
ATOM     12  C   UNL     1       4.181  -0.871   4.542  1.00  0.00     0.148 C 
BRANCH  10  13
ATOM     13  C   UNL     1       4.715  -2.985   3.417  1.00  0.00     0.281 C 
ATOM     14  O   UNL     1       5.120  -3.427   4.499  1.00  0.00    -0.268 OA
BRANCH  13  15
ATOM     15  C   UNL     1       4.837  -3.902   2.174  1.00  0.00     0.275 C 
ATOM     16  C   UNL     1       3.541  -4.500   1.644  1.00  0.00     0.113 C 
ATOM     17  N   UNL     1       5.559  -3.248   1.062  1.00  0.00    -0.334 N 
ATOM     18  C   UNL     1       3.351  -3.897   0.267  1.00  0.00     0.175 C 
ATOM     19  C   UNL     1       4.744  -3.410  -0.134  1.00  0.00     0.293 C 
ATOM     20  H   UNL     1       6.468  -3.690   0.928  1.00  0.00     0.347 HD
ATOM     21  H   UNL     1       5.715  -2.260   1.263  1.00  0.00     0.347 HD
BRANCH  18  22
ATOM     22  O   UNL     1       2.818  -4.821  -0.669  1.00  0.00    -0.387 OA
ATOM     23  H   UNL     1       3.414  -5.583  -0.745  1.00  0.00     0.211 HD
ENDBRANCH  18  22
ENDBRANCH  13  15
ENDBRANCH  10  13
ENDBRANCH   6   7
ENDBRANCH   4   6
ENDBRANCH   1   2
BRANCH   1  24
ATOM     24  C   UNL     1       2.535  -1.051  -3.611  1.00  0.00     0.023 C 
BRANCH  24  25
ATOM     25  C   UNL     1       3.975  -1.473  -3.920  1.00  0.00     0.023 C 
BRANCH  25  26
ATOM     26  C   UNL     1       4.364  -2.898  -3.531  1.00  0.00     0.116 C 
BRANCH  26  27
ATOM     27  N   UNL     1       3.880  -3.944  -4.407  1.00  0.00    -0.352 N 
ATOM     28  C   UNL     1       4.531  -5.043  -4.923  1.00  0.00     0.251 C 
ATOM     29  H   UNL     1       2.937  -3.856  -4.677  1.00  0.00     0.163 HD
ATOM     30  O   UNL     1       3.898  -5.858  -5.593  1.00  0.00    -0.269 OA
BRANCH  28  31
ATOM     31  C   UNL     1       5.994  -5.240  -4.753  1.00  0.00     0.039 A 
ATOM     32  C   UNL     1       6.739  -5.593  -5.883  1.00  0.00     0.014 A 
ATOM     33  C   UNL     1       6.646  -5.110  -3.524  1.00  0.00     0.014 A 
ATOM     34  C   UNL     1       8.130  -5.715  -5.803  1.00  0.00     0.010 A 
ATOM     35  C   UNL     1       8.044  -5.170  -3.454  1.00  0.00     0.010 A 
ATOM     36  C   UNL     1       8.804  -5.453  -4.599  1.00  0.00    -0.014 A 
BRANCH  36  37
ATOM     37  C   UNL     1      10.292  -5.410  -4.562  1.00  0.00     0.031 A 
ATOM     38  C   UNL     1      11.090  -6.416  -3.778  1.00  0.00     0.074 A 
ATOM     39  C   UNL     1      10.938  -4.426  -5.222  1.00  0.00     0.049 A 
ATOM     40  N   UNL     1      12.392  -6.527  -3.667  1.00  0.00    -0.248 NA
ATOM     41  C   UNL     1      10.334  -7.416  -3.012  1.00  0.00     0.031 C 
ATOM     42  C   UNL     1      10.293  -3.361  -5.993  1.00  0.00     0.029 A 
ATOM     43  N   UNL     1      12.280  -4.166  -5.356  1.00  0.00    -0.354 N 
ATOM     44  C   UNL     1      12.611  -7.603  -2.816  1.00  0.00     0.074 A 
ATOM     45  C   UNL     1      11.307  -8.085  -2.408  1.00  0.00     0.031 C 
ATOM     46  C   UNL     1      11.239  -2.585  -6.547  1.00  0.00     0.029 A 
ATOM     47  C   UNL     1      12.554  -3.073  -6.143  1.00  0.00     0.049 A 
ATOM     48  H   UNL     1      12.980  -4.711  -4.929  1.00  0.00     0.167 HD
ATOM     49  C   UNL     1      13.786  -8.152  -2.421  1.00  0.00     0.031 A 
ATOM     50  C   UNL     1      13.728  -2.520  -6.504  1.00  0.00     0.031 A 
ATOM     51  C   UNL     1      15.087  -7.681  -2.822  1.00  0.00     0.049 A 
ATOM     52  C   UNL     1      15.015  -3.132  -6.031  1.00  0.00     0.074 A 
ATOM     53  C   UNL     1      16.328  -8.216  -2.516  1.00  0.00     0.029 A 
ATOM     54  N   UNL     1      15.319  -6.561  -3.603  1.00  0.00    -0.354 N 
ATOM     55  N   UNL     1      15.201  -4.198  -5.292  1.00  0.00    -0.248 NA
ATOM     56  C   UNL     1      16.258  -2.466  -6.451  1.00  0.00     0.031 C 
ATOM     57  C   UNL     1      17.312  -7.389  -3.068  1.00  0.00     0.029 A 
ATOM     58  C   UNL     1      16.682  -6.370  -3.764  1.00  0.00     0.049 A 
ATOM     59  H   UNL     1      14.618  -5.985  -3.987  1.00  0.00     0.167 HD
ATOM     60  C   UNL     1      16.577  -4.348  -5.183  1.00  0.00     0.074 A 
ATOM     61  C   UNL     1      17.180  -3.272  -5.942  1.00  0.00     0.031 C 
ATOM     62  C   UNL     1      17.277  -5.296  -4.515  1.00  0.00     0.031 A 
BRANCH  49  63
ATOM     63  C   UNL     1      13.722  -9.331  -1.490  1.00  0.00    -0.014 A 
ATOM     64  C   UNL     1      13.289 -10.589  -1.939  1.00  0.00     0.009 A 
ATOM     65  C   UNL     1      14.150  -9.195  -0.160  1.00  0.00     0.009 A 
ATOM     66  C   UNL     1      13.254 -11.678  -1.065  1.00  0.00     0.001 A 
ATOM     67  C   UNL     1      14.139 -10.291   0.704  1.00  0.00     0.001 A 
ATOM     68  C   UNL     1      13.683 -11.529   0.254  1.00  0.00     0.000 A 
ENDBRANCH  49  63
BRANCH  50  69
ATOM     69  C   UNL     1      13.745  -1.319  -7.380  1.00  0.00    -0.014 A 
ATOM     70  C   UNL     1      14.184  -1.415  -8.709  1.00  0.00     0.009 A 
ATOM     71  C   UNL     1      13.336  -0.070  -6.888  1.00  0.00     0.009 A 
ATOM     72  C   UNL     1      14.238  -0.280  -9.520  1.00  0.00     0.001 A 
ATOM     73  C   UNL     1      13.364   1.058  -7.709  1.00  0.00     0.001 A 
ATOM     74  C   UNL     1      13.823   0.955  -9.021  1.00  0.00     0.000 A 
ENDBRANCH  50  69
BRANCH  62  75
ATOM     75  C   UNL     1      18.777  -5.233  -4.599  1.00  0.00    -0.014 A 
ATOM     76  C   UNL     1      19.505  -4.244  -3.919  1.00  0.00     0.009 A 
ATOM     77  C   UNL     1      19.473  -6.198  -5.344  1.00  0.00     0.009 A 
ATOM     78  C   UNL     1      20.898  -4.204  -4.010  1.00  0.00     0.001 A 
ATOM     79  C   UNL     1      20.867  -6.173  -5.410  1.00  0.00     0.001 A 
ATOM     80  C   UNL     1      21.578  -5.171  -4.751  1.00  0.00     0.000 A 
ENDBRANCH  62  75
ENDBRANCH  36  37
ENDBRANCH  28  31
ENDBRANCH  26  27
ENDBRANCH  25  26
ENDBRANCH  24  25
ENDBRANCH   1  24
TORSDOF 15
