REMARK SMILES Cc1ccc(C(=O)NCCCCNC(=O)c2ccc(-c3c4nc(c(-c5ccccc5)c5ccc([nH]5)c(-c5ccccc5)c5nc(c(-c6ccccc6)c6ccc3[nH]6)C=C5)C=C4)cc2)c(Oc2cccc(F)c2C(N)=O)c1
REMARK SMILES IDX 10 1 9 2 8 3 6 4 7 5 5 7 1 8 2 9 3 10 76 11 4 12 64 13 65 14
REMARK SMILES IDX 66 15 67 16 72 17 68 18 70 19 69 20 71 21 73 22 74 23 75 24
REMARK SMILES IDX 11 27 12 28 13 29 14 30 15 32 16 33 17 34 63 35 18 36 62 37
REMARK SMILES IDX 19 38 20 39 21 40 56 41 22 42 61 43 55 44 57 45 23 46 60 47
REMARK SMILES IDX 54 48 53 49 24 51 46 52 31 53 45 54 32 55 35 56 44 57 58 58
REMARK SMILES IDX 33 59 34 60 43 62 59 63 36 64 25 65 26 66 30 67 27 68 29 69
REMARK SMILES IDX 28 70 47 71 48 72 52 73 49 74 51 75 50 76 37 77 38 78 42 79
REMARK SMILES IDX 39 80 41 81 40 82
REMARK H PARENT 8 6 74 25 74 26 13 31 57 50 35 61
REMARK Flexibility Score: inf
ROOT
ATOM      1  C   UNL     1      -3.874   3.038  -2.136  1.00  0.00     0.023 C 
ENDROOT
BRANCH   1   2
ATOM      2  C   UNL     1      -3.502   2.630  -0.711  1.00  0.00     0.116 C 
BRANCH   2   3
ATOM      3  N   UNL     1      -3.778   1.257  -0.350  1.00  0.00    -0.352 N 
ATOM      4  C   UNL     1      -2.999   0.211   0.099  1.00  0.00     0.255 C 
ATOM      5  O   UNL     1      -3.619  -0.798   0.452  1.00  0.00    -0.269 OA
ATOM      6  H   UNL     1      -4.728   1.016  -0.447  1.00  0.00     0.163 HD
BRANCH   4   7
ATOM      7  C   UNL     1      -1.500   0.141   0.109  1.00  0.00     0.082 A 
ATOM      8  C   UNL     1       2.784  -0.589   0.037  1.00  0.00     0.044 C 
ATOM      9  C   UNL     1       1.303  -0.357   0.084  1.00  0.00    -0.047 A 
ATOM     10  C   UNL     1       0.405  -1.375  -0.227  1.00  0.00     0.004 A 
ATOM     11  C   UNL     1       0.798   0.881   0.481  1.00  0.00     0.051 A 
ATOM     12  C   UNL     1      -0.974  -1.130  -0.204  1.00  0.00     0.018 A 
ATOM     13  C   UNL     1      -0.584   1.146   0.458  1.00  0.00     0.140 A 
BRANCH  13  14
ATOM     14  O   UNL     1      -1.027   2.362   0.892  1.00  0.00    -0.456 OA
BRANCH  14  15
ATOM     15  C   UNL     1      -0.435   3.538   0.463  1.00  0.00     0.143 A 
ATOM     16  C   UNL     1      -0.607   4.555   1.424  1.00  0.00     0.048 A 
ATOM     17  C   UNL     1       0.166   3.847  -0.775  1.00  0.00     0.117 A 
ATOM     18  C   UNL     1      -0.175   5.857   1.187  1.00  0.00     0.007 A 
ATOM     19  C   UNL     1       0.574   5.173  -0.995  1.00  0.00     0.139 A 
ATOM     20  C   UNL     1       0.410   6.167  -0.031  1.00  0.00     0.040 A 
ATOM     21  F   UNL     1       1.103   5.544  -2.171  1.00  0.00    -0.206 F 
BRANCH  17  22
ATOM     22  C   UNL     1       0.495   2.925  -1.891  1.00  0.00     0.255 C 
ATOM     23  N   UNL     1      -0.463   2.106  -2.413  1.00  0.00    -0.365 N 
ATOM     24  O   UNL     1       1.624   2.907  -2.371  1.00  0.00    -0.269 OA
ATOM     25  H   UNL     1      -1.373   2.111  -2.037  1.00  0.00     0.159 HD
ATOM     26  H   UNL     1      -0.245   1.509  -3.165  1.00  0.00     0.159 HD
ENDBRANCH  17  22
ENDBRANCH  14  15
ENDBRANCH  13  14
ENDBRANCH   4   7
ENDBRANCH   2   3
ENDBRANCH   1   2
BRANCH   1  27
ATOM     27  C   UNL     1      -5.341   3.340  -2.400  1.00  0.00     0.023 C 
BRANCH  27  28
ATOM     28  C   UNL     1      -5.961   4.389  -1.493  1.00  0.00     0.116 C 
BRANCH  28  29
ATOM     29  N   UNL     1      -5.545   5.765  -1.699  1.00  0.00    -0.352 N 
ATOM     30  C   UNL     1      -5.936   6.919  -1.029  1.00  0.00     0.251 C 
ATOM     31  H   UNL     1      -4.889   5.901  -2.421  1.00  0.00     0.163 HD
ATOM     32  O   UNL     1      -5.566   8.002  -1.456  1.00  0.00    -0.269 OA
BRANCH  30  33
ATOM     33  C   UNL     1      -6.659   6.854   0.279  1.00  0.00     0.039 A 
ATOM     34  C   UNL     1      -6.473   7.909   1.189  1.00  0.00     0.014 A 
ATOM     35  C   UNL     1      -7.311   5.708   0.712  1.00  0.00     0.014 A 
ATOM     36  C   UNL     1      -6.678   7.695   2.552  1.00  0.00     0.010 A 
ATOM     37  C   UNL     1      -7.369   5.436   2.055  1.00  0.00     0.010 A 
ATOM     38  C   UNL     1      -6.994   6.412   2.976  1.00  0.00    -0.014 A 
BRANCH  38  39
ATOM     39  C   UNL     1      -6.910   5.929   4.342  1.00  0.00     0.031 A 
ATOM     40  C   UNL     1      -8.150   5.622   5.074  1.00  0.00     0.074 A 
ATOM     41  C   UNL     1      -5.701   5.519   4.782  1.00  0.00     0.049 A 
ATOM     42  N   UNL     1      -8.197   5.330   6.327  1.00  0.00    -0.248 NA
ATOM     43  C   UNL     1      -9.471   5.675   4.446  1.00  0.00     0.031 C 
ATOM     44  C   UNL     1      -5.395   4.606   5.879  1.00  0.00     0.029 A 
ATOM     45  N   UNL     1      -4.459   6.050   4.420  1.00  0.00    -0.354 N 
ATOM     46  C   UNL     1      -9.455   4.837   6.575  1.00  0.00     0.074 A 
ATOM     47  C   UNL     1     -10.245   5.207   5.429  1.00  0.00     0.031 C 
ATOM     48  C   UNL     1      -4.132   4.826   6.285  1.00  0.00     0.029 A 
ATOM     49  C   UNL     1      -3.668   6.016   5.586  1.00  0.00     0.049 A 
ATOM     50  H   UNL     1      -4.191   6.380   3.532  1.00  0.00     0.167 HD
ATOM     51  C   UNL     1      -9.634   4.020   7.648  1.00  0.00     0.031 A 
ATOM     52  C   UNL     1      -3.319   7.181   6.213  1.00  0.00     0.031 A 
ATOM     53  C   UNL     1      -8.475   4.061   8.538  1.00  0.00     0.049 A 
ATOM     54  C   UNL     1      -3.865   7.294   7.622  1.00  0.00     0.074 A 
ATOM     55  C   UNL     1      -7.439   3.179   8.791  1.00  0.00     0.029 A 
ATOM     56  N   UNL     1      -8.096   5.284   9.087  1.00  0.00    -0.354 N 
ATOM     57  N   UNL     1      -4.907   6.640   8.058  1.00  0.00    -0.248 NA
ATOM     58  C   UNL     1      -3.288   8.168   8.639  1.00  0.00     0.031 C 
ATOM     59  C   UNL     1      -6.375   3.922   9.376  1.00  0.00     0.029 A 
ATOM     60  C   UNL     1      -6.790   5.234   9.528  1.00  0.00     0.049 A 
ATOM     61  H   UNL     1      -8.680   6.074   9.151  1.00  0.00     0.167 HD
ATOM     62  C   UNL     1      -5.136   6.966   9.368  1.00  0.00     0.074 A 
ATOM     63  C   UNL     1      -4.097   7.929   9.687  1.00  0.00     0.031 C 
ATOM     64  C   UNL     1      -6.161   6.424  10.088  1.00  0.00     0.031 A 
BRANCH  51  65
ATOM     65  C   UNL     1     -10.748   3.003   7.765  1.00  0.00    -0.014 A 
ATOM     66  C   UNL     1     -10.764   2.125   8.863  1.00  0.00     0.009 A 
ATOM     67  C   UNL     1     -11.729   2.768   6.782  1.00  0.00     0.009 A 
ATOM     68  C   UNL     1     -11.688   1.073   8.962  1.00  0.00     0.001 A 
ATOM     69  C   UNL     1     -12.674   1.737   6.886  1.00  0.00     0.001 A 
ATOM     70  C   UNL     1     -12.647   0.881   7.974  1.00  0.00     0.000 A 
ENDBRANCH  51  65
BRANCH  52  71
ATOM     71  C   UNL     1      -3.170   8.332   5.272  1.00  0.00    -0.014 A 
ATOM     72  C   UNL     1      -2.157   8.270   4.292  1.00  0.00     0.009 A 
ATOM     73  C   UNL     1      -4.216   9.248   5.091  1.00  0.00     0.009 A 
ATOM     74  C   UNL     1      -2.262   9.001   3.104  1.00  0.00     0.001 A 
ATOM     75  C   UNL     1      -4.303   9.997   3.910  1.00  0.00     0.001 A 
ATOM     76  C   UNL     1      -3.354   9.840   2.901  1.00  0.00     0.000 A 
ENDBRANCH  52  71
BRANCH  64  77
ATOM     77  C   UNL     1      -6.642   6.923  11.428  1.00  0.00    -0.014 A 
ATOM     78  C   UNL     1      -6.459   8.235  11.888  1.00  0.00     0.009 A 
ATOM     79  C   UNL     1      -7.456   6.081  12.217  1.00  0.00     0.009 A 
ATOM     80  C   UNL     1      -7.016   8.665  13.100  1.00  0.00     0.001 A 
ATOM     81  C   UNL     1      -8.053   6.521  13.401  1.00  0.00     0.001 A 
ATOM     82  C   UNL     1      -7.819   7.812  13.851  1.00  0.00     0.000 A 
ENDBRANCH  64  77
ENDBRANCH  38  39
ENDBRANCH  30  33
ENDBRANCH  28  29
ENDBRANCH  27  28
ENDBRANCH   1  27
TORSDOF 14
