REMARK SMILES C[C@H]1[C@H](C(=O)NCCCCNC(=O)c2ccc(-c3c4nc(c(-c5ccccc5)c5ccc([nH]5)c(-c5ccccc5)c5nc(c(-c6ccccc6)c6ccc3[nH]6)C=C5)C=C4)cc2)CC[N@@H+]1[C@@H](c1ccccc1)c1ccco1
REMARK SMILES IDX 8 1 7 2 6 3 4 4 5 5 3 7 1 8 2 9 64 10 62 11 63 12 65 14
REMARK SMILES IDX 66 15 67 16 71 17 68 18 70 19 69 20 72 21 73 22 76 23 74 24
REMARK SMILES IDX 75 25 9 26 10 27 11 28 12 29 13 31 14 32 15 33 61 34 16 35
REMARK SMILES IDX 60 36 17 37 18 38 19 39 54 40 20 41 59 42 53 43 55 44 21 45
REMARK SMILES IDX 58 46 52 47 51 48 22 50 44 51 29 52 43 53 30 54 33 55 42 56
REMARK SMILES IDX 56 57 31 58 32 59 41 61 57 62 34 63 23 64 24 65 28 66 25 67
REMARK SMILES IDX 27 68 26 69 45 70 46 71 50 72 47 73 49 74 48 75 35 76 36 77
REMARK SMILES IDX 40 78 37 79 39 80 38 81
REMARK H PARENT 6 6 64 13 11 30 55 49 33 60
REMARK Flexibility Score: inf
ROOT
ATOM      1  C   UNL     1       0.580   0.818   4.235  1.00  0.00     0.023 C 
ENDROOT
BRANCH   1   2
ATOM      2  C   UNL     1      -0.383   1.371   3.178  1.00  0.00     0.116 C 
BRANCH   2   3
ATOM      3  N   UNL     1       0.226   2.382   2.339  1.00  0.00    -0.356 N 
ATOM      4  C   UNL     1       0.459   2.433   1.002  1.00  0.00     0.229 C 
ATOM      5  O   UNL     1       0.896   3.512   0.578  1.00  0.00    -0.275 OA
ATOM      6  H   UNL     1       0.527   3.182   2.829  1.00  0.00     0.163 HD
BRANCH   4   7
ATOM      7  C   UNL     1       0.186   1.307  -0.000  1.00  0.00     0.142 C 
ATOM      8  C   UNL     1       2.011  -0.374  -0.381  1.00  0.00     0.076 C 
ATOM      9  C   UNL     1       0.678  -0.111   0.331  1.00  0.00     0.194 C 
ATOM     10  N   UNL     1      -0.338  -1.060  -0.201  1.00  0.00    -0.319 N 
ATOM     11  C   UNL     1      -1.266   1.127  -0.404  1.00  0.00     0.081 C 
ATOM     12  C   UNL     1      -1.281  -0.282  -0.996  1.00  0.00     0.264 C 
ATOM     13  H   UNL     1       0.089  -1.740  -0.829  1.00  0.00     0.349 HD
BRANCH  10  14
ATOM     14  C   UNL     1      -0.872  -2.030   0.787  1.00  0.00     0.283 C 
BRANCH  14  15
ATOM     15  C   UNL     1      -1.813  -1.555   1.902  1.00  0.00     0.017 A 
ATOM     16  C   UNL     1      -1.605  -2.064   3.196  1.00  0.00     0.010 A 
ATOM     17  C   UNL     1      -2.977  -0.799   1.688  1.00  0.00     0.010 A 
ATOM     18  C   UNL     1      -2.495  -1.776   4.228  1.00  0.00     0.001 A 
ATOM     19  C   UNL     1      -3.814  -0.432   2.743  1.00  0.00     0.001 A 
ATOM     20  C   UNL     1      -3.567  -0.915   4.019  1.00  0.00     0.000 A 
ENDBRANCH  14  15
BRANCH  14  21
ATOM     21  C   UNL     1      -1.369  -3.346   0.222  1.00  0.00     0.165 A 
ATOM     22  C   UNL     1      -0.713  -4.471  -0.249  1.00  0.00     0.052 A 
ATOM     23  O   UNL     1      -2.688  -3.657   0.436  1.00  0.00    -0.463 OA
ATOM     24  C   UNL     1      -1.652  -5.535  -0.201  1.00  0.00     0.042 A 
ATOM     25  C   UNL     1      -2.835  -4.987   0.230  1.00  0.00     0.195 A 
ENDBRANCH  14  21
ENDBRANCH  10  14
ENDBRANCH   4   7
ENDBRANCH   2   3
ENDBRANCH   1   2
BRANCH   1  26
ATOM     26  C   UNL     1       0.472   1.457   5.626  1.00  0.00     0.023 C 
BRANCH  26  27
ATOM     27  C   UNL     1      -0.852   1.255   6.366  1.00  0.00     0.116 C 
BRANCH  27  28
ATOM     28  N   UNL     1      -1.173  -0.138   6.640  1.00  0.00    -0.352 N 
ATOM     29  C   UNL     1      -1.950  -0.691   7.636  1.00  0.00     0.251 C 
ATOM     30  H   UNL     1      -0.772  -0.786   6.018  1.00  0.00     0.163 HD
ATOM     31  O   UNL     1      -2.162  -1.896   7.667  1.00  0.00    -0.269 OA
BRANCH  29  32
ATOM     32  C   UNL     1      -2.439   0.162   8.736  1.00  0.00     0.039 A 
ATOM     33  C   UNL     1      -2.188  -0.268  10.043  1.00  0.00     0.014 A 
ATOM     34  C   UNL     1      -3.007   1.411   8.493  1.00  0.00     0.014 A 
ATOM     35  C   UNL     1      -2.358   0.621  11.099  1.00  0.00     0.010 A 
ATOM     36  C   UNL     1      -3.095   2.325   9.535  1.00  0.00     0.010 A 
ATOM     37  C   UNL     1      -2.730   1.947  10.836  1.00  0.00    -0.014 A 
BRANCH  37  38
ATOM     38  C   UNL     1      -2.663   2.974  11.898  1.00  0.00     0.031 A 
ATOM     39  C   UNL     1      -3.914   3.659  12.355  1.00  0.00     0.074 A 
ATOM     40  C   UNL     1      -1.455   3.337  12.373  1.00  0.00     0.049 A 
ATOM     41  N   UNL     1      -4.054   4.615  13.235  1.00  0.00    -0.248 NA
ATOM     42  C   UNL     1      -5.170   3.238  11.713  1.00  0.00     0.031 C 
ATOM     43  C   UNL     1      -0.170   2.775  11.939  1.00  0.00     0.029 A 
ATOM     44  N   UNL     1      -1.103   4.262  13.321  1.00  0.00    -0.354 N 
ATOM     45  C   UNL     1      -5.409   4.920  13.240  1.00  0.00     0.074 A 
ATOM     46  C   UNL     1      -6.037   4.091  12.236  1.00  0.00     0.031 C 
ATOM     47  C   UNL     1       0.821   3.338  12.648  1.00  0.00     0.029 A 
ATOM     48  C   UNL     1       0.250   4.323  13.557  1.00  0.00     0.049 A 
ATOM     49  H   UNL     1      -1.758   4.829  13.789  1.00  0.00     0.167 HD
ATOM     50  C   UNL     1      -6.069   5.800  14.028  1.00  0.00     0.031 A 
ATOM     51  C   UNL     1       0.947   5.088  14.418  1.00  0.00     0.031 A 
ATOM     52  C   UNL     1      -5.424   6.612  15.024  1.00  0.00     0.049 A 
ATOM     53  C   UNL     1       0.188   6.039  15.299  1.00  0.00     0.074 A 
ATOM     54  C   UNL     1      -5.992   7.503  15.915  1.00  0.00     0.029 A 
ATOM     55  N   UNL     1      -4.055   6.626  15.255  1.00  0.00    -0.354 N 
ATOM     56  N   UNL     1      -1.104   6.263  15.347  1.00  0.00    -0.248 NA
ATOM     57  C   UNL     1       0.976   6.829  16.252  1.00  0.00     0.031 C 
ATOM     58  C   UNL     1      -4.960   8.086  16.660  1.00  0.00     0.029 A 
ATOM     59  C   UNL     1      -3.756   7.521  16.266  1.00  0.00     0.049 A 
ATOM     60  H   UNL     1      -3.395   6.079  14.771  1.00  0.00     0.167 HD
ATOM     61  C   UNL     1      -1.288   7.203  16.350  1.00  0.00     0.074 A 
ATOM     62  C   UNL     1       0.024   7.490  16.897  1.00  0.00     0.031 C 
ATOM     63  C   UNL     1      -2.436   7.782  16.781  1.00  0.00     0.031 A 
BRANCH  50  64
ATOM     64  C   UNL     1      -7.554   5.920  13.828  1.00  0.00    -0.014 A 
ATOM     65  C   UNL     1      -8.421   4.867  14.168  1.00  0.00     0.009 A 
ATOM     66  C   UNL     1      -8.098   7.093  13.283  1.00  0.00     0.009 A 
ATOM     67  C   UNL     1      -9.791   4.967  13.921  1.00  0.00     0.001 A 
ATOM     68  C   UNL     1      -9.473   7.202  13.066  1.00  0.00     0.001 A 
ATOM     69  C   UNL     1     -10.317   6.136  13.372  1.00  0.00     0.000 A 
ENDBRANCH  50  64
BRANCH  51  70
ATOM     70  C   UNL     1       2.426   4.954  14.515  1.00  0.00    -0.014 A 
ATOM     71  C   UNL     1       3.014   4.370  15.648  1.00  0.00     0.009 A 
ATOM     72  C   UNL     1       3.259   5.394  13.475  1.00  0.00     0.009 A 
ATOM     73  C   UNL     1       4.403   4.252  15.748  1.00  0.00     0.001 A 
ATOM     74  C   UNL     1       4.646   5.250  13.564  1.00  0.00     0.001 A 
ATOM     75  C   UNL     1       5.218   4.687  14.704  1.00  0.00     0.000 A 
ENDBRANCH  51  70
BRANCH  63  76
ATOM     76  C   UNL     1      -2.316   8.760  17.913  1.00  0.00    -0.014 A 
ATOM     77  C   UNL     1      -1.776  10.039  17.711  1.00  0.00     0.009 A 
ATOM     78  C   UNL     1      -2.792   8.410  19.185  1.00  0.00     0.009 A 
ATOM     79  C   UNL     1      -1.687  10.939  18.773  1.00  0.00     0.001 A 
ATOM     80  C   UNL     1      -2.728   9.322  20.238  1.00  0.00     0.001 A 
ATOM     81  C   UNL     1      -2.167  10.582  20.033  1.00  0.00     0.000 A 
ENDBRANCH  63  76
ENDBRANCH  37  38
ENDBRANCH  29  32
ENDBRANCH  27  28
ENDBRANCH  26  27
ENDBRANCH   1  26
TORSDOF 14
