REMARK SMILES C[NH2+][C@@]1(C(=O)NCCCCNC(=O)c2ccc(-c3c4nc(c(-c5ccccc5)c5ccc([nH]5)c(-c5ccccc5)c5nc(c(-c6ccccc6)c6ccc3[nH]6)C=C5)C=C4)cc2)CCC[C@H]([NH+]2CCCCCC2)C1
REMARK SMILES IDX 7 1 6 2 4 3 5 4 3 6 62 7 73 8 63 9 65 10 64 11 2 12 1 13
REMARK SMILES IDX 66 16 67 18 68 19 69 20 72 22 71 23 70 24 8 26 9 27 10 28
REMARK SMILES IDX 11 29 12 30 13 32 14 33 15 34 61 35 16 36 60 37 17 38 18 39
REMARK SMILES IDX 19 40 54 41 20 42 59 43 53 44 55 45 21 46 58 47 52 48 51 49
REMARK SMILES IDX 22 51 44 52 29 53 43 54 30 55 33 56 42 57 56 58 31 59 32 60
REMARK SMILES IDX 41 62 57 63 34 64 23 65 24 66 28 67 25 68 27 69 26 70 45 71
REMARK SMILES IDX 46 72 50 73 47 74 49 75 48 76 35 77 36 78 40 79 37 80 39 81
REMARK SMILES IDX 38 82
REMARK H PARENT 6 5 2 14 2 15 66 17 11 31 55 50 33 61
REMARK Flexibility Score: 80.00
ROOT
ATOM      1  C   UNL     1      -2.945   1.793  -3.761  1.00  0.00     0.116 C 
ENDROOT
BRANCH   1   2
ATOM      2  N   UNL     1      -1.713   1.836  -2.976  1.00  0.00    -0.351 N 
ATOM      3  C   UNL     1      -1.271   0.768  -2.206  1.00  0.00     0.281 C 
ATOM      4  O   UNL     1      -1.435  -0.396  -2.569  1.00  0.00    -0.268 OA
ATOM      5  H   UNL     1      -1.173   2.659  -2.994  1.00  0.00     0.163 HD
BRANCH   3   6
ATOM      6  C   UNL     1      -0.666   1.179  -0.782  1.00  0.00     0.181 C 
ATOM      7  C   UNL     1      -0.535  -0.071   0.159  1.00  0.00     0.079 C 
ATOM      8  C   UNL     1      -1.557   2.316  -0.154  1.00  0.00     0.144 C 
ATOM      9  C   UNL     1      -1.564  -0.280   1.270  1.00  0.00     0.013 C 
ATOM     10  C   UNL     1      -2.634   1.951   0.894  1.00  0.00     0.190 C 
ATOM     11  C   UNL     1      -1.989   1.022   1.922  1.00  0.00     0.065 C 
BRANCH   6  12
ATOM     12  N   UNL     1       0.672   1.803  -1.103  1.00  0.00    -0.336 N 
ATOM     13  C   UNL     1       1.812   0.884  -1.104  1.00  0.00     0.331 C 
ATOM     14  H   UNL     1       0.608   2.225  -2.030  1.00  0.00     0.346 HD
ATOM     15  H   UNL     1       0.854   2.475  -0.358  1.00  0.00     0.346 HD
ENDBRANCH   6  12
BRANCH  10  16
ATOM     16  N   UNL     1      -3.939   1.365   0.551  1.00  0.00    -0.332 N 
ATOM     17  H   UNL     1      -3.865   0.585   1.204  1.00  0.00     0.348 HD
BRANCH  16  18
ATOM     18  C   UNL     1      -5.107   2.162   0.919  1.00  0.00     0.262 C 
BRANCH  18  19
ATOM     19  C   UNL     1      -6.217   1.321   1.556  1.00  0.00     0.061 C 
BRANCH  19  20
ATOM     20  C   UNL     1      -6.702   0.092   0.787  1.00  0.00     0.006 CG0
ATOM     21  G   UNL     1      -5.643  -0.986   0.605  1.00  0.00     0.000 G0
ENDBRANCH  19  20
ENDBRANCH  18  19
ENDBRANCH  16  18
BRANCH  16  22
ATOM     22  C   UNL     1      -4.126   0.645  -0.689  1.00  0.00     0.262 C 
BRANCH  22  23
ATOM     23  C   UNL     1      -4.757  -0.741  -0.603  1.00  0.00     0.061 C 
BRANCH  23  24
ATOM     24  C   UNL     1      -5.643  -0.986   0.605  1.00  0.00     0.006 CG0
ATOM     25  G   UNL     1      -6.702   0.092   0.787  1.00  0.00     0.000 G0
ENDBRANCH  23  24
ENDBRANCH  22  23
ENDBRANCH  16  22
ENDBRANCH  10  16
ENDBRANCH   3   6
ENDBRANCH   1   2
BRANCH   1  26
ATOM     26  C   UNL     1      -3.853   2.979  -3.372  1.00  0.00     0.023 C 
BRANCH  26  27
ATOM     27  C   UNL     1      -5.235   3.045  -4.035  1.00  0.00     0.023 C 
BRANCH  27  28
ATOM     28  C   UNL     1      -6.217   1.898  -3.785  1.00  0.00     0.116 C 
BRANCH  28  29
ATOM     29  N   UNL     1      -7.005   2.010  -2.560  1.00  0.00    -0.352 N 
ATOM     30  C   UNL     1      -8.342   1.726  -2.335  1.00  0.00     0.251 C 
ATOM     31  H   UNL     1      -6.510   2.338  -1.774  1.00  0.00     0.163 HD
ATOM     32  O   UNL     1      -8.843   1.915  -1.236  1.00  0.00    -0.269 OA
BRANCH  30  33
ATOM     33  C   UNL     1      -9.196   1.286  -3.462  1.00  0.00     0.039 A 
ATOM     34  C   UNL     1     -10.399   1.964  -3.679  1.00  0.00     0.014 A 
ATOM     35  C   UNL     1      -8.756   0.325  -4.371  1.00  0.00     0.014 A 
ATOM     36  C   UNL     1     -11.063   1.813  -4.896  1.00  0.00     0.010 A 
ATOM     37  C   UNL     1      -9.366   0.244  -5.618  1.00  0.00     0.010 A 
ATOM     38  C   UNL     1     -10.493   1.029  -5.911  1.00  0.00    -0.014 A 
BRANCH  38  39
ATOM     39  C   UNL     1     -10.989   1.105  -7.310  1.00  0.00     0.031 A 
ATOM     40  C   UNL     1     -11.502  -0.119  -8.009  1.00  0.00     0.074 A 
ATOM     41  C   UNL     1     -10.873   2.268  -7.986  1.00  0.00     0.049 A 
ATOM     42  N   UNL     1     -11.889  -0.256  -9.252  1.00  0.00    -0.248 NA
ATOM     43  C   UNL     1     -11.556  -1.358  -7.219  1.00  0.00     0.031 C 
ATOM     44  C   UNL     1     -10.328   3.518  -7.445  1.00  0.00     0.029 A 
ATOM     45  N   UNL     1     -11.201   2.589  -9.280  1.00  0.00    -0.354 N 
ATOM     46  C   UNL     1     -12.209  -1.599  -9.398  1.00  0.00     0.074 A 
ATOM     47  C   UNL     1     -11.925  -2.243  -8.134  1.00  0.00     0.031 C 
ATOM     48  C   UNL     1     -10.401   4.476  -8.384  1.00  0.00     0.029 A 
ATOM     49  C   UNL     1     -10.953   3.902  -9.605  1.00  0.00     0.049 A 
ATOM     50  H   UNL     1     -11.579   1.939  -9.916  1.00  0.00     0.167 HD
ATOM     51  C   UNL     1     -12.715  -2.236 -10.481  1.00  0.00     0.031 A 
ATOM     52  C   UNL     1     -11.148   4.571 -10.756  1.00  0.00     0.031 A 
ATOM     53  C   UNL     1     -13.014  -1.596 -11.733  1.00  0.00     0.049 A 
ATOM     54  C   UNL     1     -11.725   3.844 -11.937  1.00  0.00     0.074 A 
ATOM     55  C   UNL     1     -13.581  -2.145 -12.869  1.00  0.00     0.029 A 
ATOM     56  N   UNL     1     -12.773  -0.259 -12.011  1.00  0.00    -0.354 N 
ATOM     57  N   UNL     1     -12.085   2.588 -12.037  1.00  0.00    -0.248 NA
ATOM     58  C   UNL     1     -11.930   4.631 -13.162  1.00  0.00     0.031 C 
ATOM     59  C   UNL     1     -13.652  -1.148 -13.848  1.00  0.00     0.029 A 
ATOM     60  C   UNL     1     -13.170   0.032 -13.305  1.00  0.00     0.049 A 
ATOM     61  H   UNL     1     -12.379   0.387 -11.381  1.00  0.00     0.167 HD
ATOM     62  C   UNL     1     -12.586   2.441 -13.324  1.00  0.00     0.074 A 
ATOM     63  C   UNL     1     -12.495   3.738 -13.962  1.00  0.00     0.031 C 
ATOM     64  C   UNL     1     -13.077   1.329 -13.922  1.00  0.00     0.031 A 
BRANCH  51  65
ATOM     65  C   UNL     1     -12.977  -3.710 -10.346  1.00  0.00    -0.014 A 
ATOM     66  C   UNL     1     -14.021  -4.187  -9.537  1.00  0.00     0.009 A 
ATOM     67  C   UNL     1     -12.182  -4.631 -11.044  1.00  0.00     0.009 A 
ATOM     68  C   UNL     1     -14.235  -5.559  -9.394  1.00  0.00     0.001 A 
ATOM     69  C   UNL     1     -12.417  -6.002 -10.922  1.00  0.00     0.001 A 
ATOM     70  C   UNL     1     -13.435  -6.465 -10.089  1.00  0.00     0.000 A 
ENDBRANCH  51  65
BRANCH  52  71
ATOM     71  C   UNL     1     -10.830   6.021 -10.844  1.00  0.00    -0.014 A 
ATOM     72  C   UNL     1     -11.865   6.967 -10.908  1.00  0.00     0.009 A 
ATOM     73  C   UNL     1      -9.500   6.466 -10.876  1.00  0.00     0.009 A 
ATOM     74  C   UNL     1     -11.575   8.328 -11.031  1.00  0.00     0.001 A 
ATOM     75  C   UNL     1      -9.213   7.830 -10.973  1.00  0.00     0.001 A 
ATOM     76  C   UNL     1     -10.250   8.758 -11.060  1.00  0.00     0.000 A 
ENDBRANCH  52  71
BRANCH  64  77
ATOM     77  C   UNL     1     -13.590   1.477 -15.325  1.00  0.00    -0.014 A 
ATOM     78  C   UNL     1     -12.712   1.621 -16.410  1.00  0.00     0.009 A 
ATOM     79  C   UNL     1     -14.972   1.427 -15.567  1.00  0.00     0.009 A 
ATOM     80  C   UNL     1     -13.211   1.740 -17.709  1.00  0.00     0.001 A 
ATOM     81  C   UNL     1     -15.466   1.520 -16.868  1.00  0.00     0.001 A 
ATOM     82  C   UNL     1     -14.586   1.684 -17.937  1.00  0.00     0.000 A 
ENDBRANCH  64  77
ENDBRANCH  38  39
ENDBRANCH  30  33
ENDBRANCH  28  29
ENDBRANCH  27  28
ENDBRANCH  26  27
ENDBRANCH   1  26
TORSDOF 13
