REMARK SMILES NC(=O)C[C@@H](NC(=O)c1ccc(CO)cc1)C(=O)NCCCCNC(=O)c1ccc(-c2c3nc(c(-c4ccccc4)c4ccc([nH]4)c(-c4ccccc4)c4nc(c(-c5ccccc5)c5ccc2[nH]5)C=C4)C=C3)cc1
REMARK SMILES IDX 20 1 19 2 17 3 18 4 5 6 4 7 2 8 1 9 3 12 6 13 7 14 8 16 9 17
REMARK SMILES IDX 10 18 16 19 11 20 15 21 12 22 13 23 14 24 21 26 22 27 23 28
REMARK SMILES IDX 24 29 25 30 26 32 27 33 28 34 74 35 29 36 73 37 30 38 31 39
REMARK SMILES IDX 32 40 67 41 33 42 72 43 66 44 68 45 34 46 71 47 65 48 64 49
REMARK SMILES IDX 35 51 57 52 42 53 56 54 43 55 46 56 55 57 69 58 44 59 45 60
REMARK SMILES IDX 54 62 70 63 47 64 36 65 37 66 41 67 38 68 40 69 39 70 58 71
REMARK SMILES IDX 59 72 63 73 60 74 62 75 61 76 48 77 49 78 53 79 50 80 52 81
REMARK SMILES IDX 51 82
REMARK H PARENT 19 5 1 10 1 11 6 15 14 25 24 31 68 50 46 61
REMARK Flexibility Score: inf
ROOT
ATOM      1  C   UNL     1       3.422  -3.454  -1.627  1.00  0.00     0.116 C 
ENDROOT
BRANCH   1   2
ATOM      2  N   UNL     1       2.894  -3.333  -2.972  1.00  0.00    -0.354 N 
ATOM      3  C   UNL     1       2.256  -2.292  -3.573  1.00  0.00     0.243 C 
ATOM      4  O   UNL     1       1.789  -2.487  -4.700  1.00  0.00    -0.273 OA
ATOM      5  H   UNL     1       3.015  -4.129  -3.538  1.00  0.00     0.163 HD
BRANCH   3   6
ATOM      6  C   UNL     1       1.975  -0.972  -2.831  1.00  0.00     0.180 C 
BRANCH   6   7
ATOM      7  C   UNL     1       0.753  -1.273  -1.944  1.00  0.00     0.134 C 
BRANCH   7   8
ATOM      8  C   UNL     1       0.272  -0.076  -1.175  1.00  0.00     0.220 C 
ATOM      9  N   UNL     1       0.909   0.142   0.013  1.00  0.00    -0.370 N 
ATOM     10  H   UNL     1       0.651   0.906   0.577  1.00  0.00     0.159 HD
ATOM     11  H   UNL     1       1.626  -0.466   0.305  1.00  0.00     0.159 HD
ATOM     12  O   UNL     1      -0.615   0.669  -1.570  1.00  0.00    -0.275 OA
ENDBRANCH   7   8
ENDBRANCH   6   7
BRANCH   6  13
ATOM     13  N   UNL     1       3.099  -0.382  -2.074  1.00  0.00    -0.340 N 
ATOM     14  C   UNL     1       4.377  -0.061  -2.476  1.00  0.00     0.251 C 
ATOM     15  H   UNL     1       2.902  -0.186  -1.130  1.00  0.00     0.164 HD
ATOM     16  O   UNL     1       5.025   0.750  -1.821  1.00  0.00    -0.269 OA
BRANCH  14  17
ATOM     17  C   UNL     1       5.046  -0.828  -3.545  1.00  0.00     0.039 A 
ATOM     18  C   UNL     1       6.147  -1.606  -3.167  1.00  0.00     0.014 A 
ATOM     19  C   UNL     1       4.570  -0.877  -4.853  1.00  0.00     0.014 A 
ATOM     20  C   UNL     1       6.672  -2.545  -4.053  1.00  0.00     0.007 A 
ATOM     21  C   UNL     1       5.092  -1.828  -5.737  1.00  0.00     0.007 A 
ATOM     22  C   UNL     1       6.116  -2.698  -5.331  1.00  0.00    -0.023 A 
BRANCH  22  23
ATOM     23  C   UNL     1       6.549  -3.843  -6.209  1.00  0.00     0.191 C 
BRANCH  23  24
ATOM     24  O   UNL     1       7.963  -3.891  -6.314  1.00  0.00    -0.392 OA
ATOM     25  H   UNL     1       8.286  -3.066  -6.708  1.00  0.00     0.211 HD
ENDBRANCH  23  24
ENDBRANCH  22  23
ENDBRANCH  14  17
ENDBRANCH   6  13
ENDBRANCH   3   6
ENDBRANCH   1   2
BRANCH   1  26
ATOM     26  C   UNL     1       3.208  -4.862  -1.079  1.00  0.00     0.023 C 
BRANCH  26  27
ATOM     27  C   UNL     1       4.024  -5.948  -1.785  1.00  0.00     0.023 C 
BRANCH  27  28
ATOM     28  C   UNL     1       5.536  -5.741  -1.762  1.00  0.00     0.116 C 
BRANCH  28  29
ATOM     29  N   UNL     1       6.076  -5.695  -0.411  1.00  0.00    -0.352 N 
ATOM     30  C   UNL     1       7.101  -6.431   0.132  1.00  0.00     0.251 C 
ATOM     31  H   UNL     1       5.649  -5.048   0.196  1.00  0.00     0.163 HD
ATOM     32  O   UNL     1       7.342  -6.377   1.334  1.00  0.00    -0.269 OA
BRANCH  30  33
ATOM     33  C   UNL     1       7.887  -7.321  -0.743  1.00  0.00     0.039 A 
ATOM     34  C   UNL     1       7.994  -8.673  -0.408  1.00  0.00     0.014 A 
ATOM     35  C   UNL     1       8.459  -6.829  -1.920  1.00  0.00     0.014 A 
ATOM     36  C   UNL     1       8.598  -9.555  -1.304  1.00  0.00     0.010 A 
ATOM     37  C   UNL     1       9.013  -7.718  -2.835  1.00  0.00     0.010 A 
ATOM     38  C   UNL     1       9.067  -9.091  -2.545  1.00  0.00    -0.014 A 
BRANCH  38  39
ATOM     39  C   UNL     1       9.556 -10.032  -3.581  1.00  0.00     0.031 A 
ATOM     40  C   UNL     1      10.995 -10.020  -4.002  1.00  0.00     0.074 A 
ATOM     41  C   UNL     1       8.675 -10.840  -4.203  1.00  0.00     0.049 A 
ATOM     42  N   UNL     1      11.581 -10.709  -4.948  1.00  0.00    -0.248 NA
ATOM     43  C   UNL     1      11.889  -9.103  -3.279  1.00  0.00     0.031 C 
ATOM     44  C   UNL     1       7.242 -10.921  -3.907  1.00  0.00     0.029 A 
ATOM     45  N   UNL     1       8.854 -11.736  -5.226  1.00  0.00    -0.354 N 
ATOM     46  C   UNL     1      12.908 -10.302  -4.943  1.00  0.00     0.074 A 
ATOM     47  C   UNL     1      13.034  -9.281  -3.924  1.00  0.00     0.031 C 
ATOM     48  C   UNL     1       6.676 -11.827  -4.721  1.00  0.00     0.029 A 
ATOM     49  C   UNL     1       7.694 -12.358  -5.621  1.00  0.00     0.049 A 
ATOM     50  H   UNL     1       9.729 -11.917  -5.637  1.00  0.00     0.167 HD
ATOM     51  C   UNL     1      13.931 -10.747  -5.709  1.00  0.00     0.031 A 
ATOM     52  C   UNL     1       7.470 -13.243  -6.610  1.00  0.00     0.031 A 
ATOM     53  C   UNL     1      13.806 -11.762  -6.721  1.00  0.00     0.049 A 
ATOM     54  C   UNL     1       8.613 -13.684  -7.478  1.00  0.00     0.074 A 
ATOM     55  C   UNL     1      14.801 -12.330  -7.498  1.00  0.00     0.029 A 
ATOM     56  N   UNL     1      12.612 -12.352  -7.103  1.00  0.00    -0.354 N 
ATOM     57  N   UNL     1       9.877 -13.344  -7.410  1.00  0.00    -0.248 NA
ATOM     58  C   UNL     1       8.298 -14.629  -8.559  1.00  0.00     0.031 C 
ATOM     59  C   UNL     1      14.200 -13.227  -8.388  1.00  0.00     0.029 A 
ATOM     60  C   UNL     1      12.839 -13.250  -8.132  1.00  0.00     0.049 A 
ATOM     61  H   UNL     1      11.733 -12.161  -6.702  1.00  0.00     0.167 HD
ATOM     62  C   UNL     1      10.510 -14.041  -8.430  1.00  0.00     0.074 A 
ATOM     63  C   UNL     1       9.495 -14.836  -9.091  1.00  0.00     0.031 C 
ATOM     64  C   UNL     1      11.816 -14.022  -8.788  1.00  0.00     0.031 A 
BRANCH  51  65
ATOM     65  C   UNL     1      15.280 -10.126  -5.488  1.00  0.00    -0.014 A 
ATOM     66  C   UNL     1      16.035 -10.424  -4.343  1.00  0.00     0.009 A 
ATOM     67  C   UNL     1      15.819  -9.266  -6.456  1.00  0.00     0.009 A 
ATOM     68  C   UNL     1      17.293  -9.847  -4.157  1.00  0.00     0.001 A 
ATOM     69  C   UNL     1      17.087  -8.708  -6.278  1.00  0.00     0.001 A 
ATOM     70  C   UNL     1      17.819  -8.993  -5.126  1.00  0.00     0.000 A 
ENDBRANCH  51  65
BRANCH  52  71
ATOM     71  C   UNL     1       6.099 -13.764  -6.842  1.00  0.00    -0.014 A 
ATOM     72  C   UNL     1       5.775 -15.085  -6.502  1.00  0.00     0.009 A 
ATOM     73  C   UNL     1       5.108 -12.942  -7.402  1.00  0.00     0.009 A 
ATOM     74  C   UNL     1       4.490 -15.580  -6.735  1.00  0.00     0.001 A 
ATOM     75  C   UNL     1       3.818 -13.433  -7.613  1.00  0.00     0.001 A 
ATOM     76  C   UNL     1       3.512 -14.752  -7.286  1.00  0.00     0.000 A 
ENDBRANCH  52  71
BRANCH  64  77
ATOM     77  C   UNL     1      12.223 -14.891  -9.942  1.00  0.00    -0.014 A 
ATOM     78  C   UNL     1      11.925 -14.521 -11.262  1.00  0.00     0.009 A 
ATOM     79  C   UNL     1      12.954 -16.066  -9.709  1.00  0.00     0.009 A 
ATOM     80  C   UNL     1      12.334 -15.325 -12.328  1.00  0.00     0.001 A 
ATOM     81  C   UNL     1      13.381 -16.855 -10.778  1.00  0.00     0.001 A 
ATOM     82  C   UNL     1      13.066 -16.487 -12.085  1.00  0.00     0.000 A 
ENDBRANCH  64  77
ENDBRANCH  38  39
ENDBRANCH  30  33
ENDBRANCH  28  29
ENDBRANCH  27  28
ENDBRANCH  26  27
ENDBRANCH   1  26
TORSDOF 17
