REMARK SMILES O=C(NCCCCNC(=O)c1ccc(N2C(=O)/C(=C/C3=c4ccccc4=NC3)SC2=S)cc1O)c1ccc(-c2c3nc(c(-c4ccccc4)c4ccc([nH]4)c(-c4ccccc4)c4nc(c(-c5ccccc5)c5ccc2[nH]5)C=C4)C=C3)cc1
REMARK SMILES IDX 5 1 4 2 3 3 1 4 2 5 35 7 36 8 82 9 37 10 81 11 38 12 39 13
REMARK SMILES IDX 40 14 75 15 41 16 80 17 74 18 76 19 42 20 79 21 73 22 72 23
REMARK SMILES IDX 43 25 65 26 50 27 64 28 51 29 54 30 63 31 77 32 52 33 53 34
REMARK SMILES IDX 62 36 78 37 55 38 44 39 45 40 49 41 46 42 48 43 47 44 66 45
REMARK SMILES IDX 67 46 71 47 68 48 70 49 69 50 56 51 57 52 61 53 58 54 60 55
REMARK SMILES IDX 59 56 6 57 7 58 8 59 9 60 10 62 11 63 12 64 33 65 13 66
REMARK SMILES IDX 32 67 14 68 34 69 15 71 16 72 30 73 17 74 18 75 29 76 31 77
REMARK SMILES IDX 19 78 20 79 21 80 28 81 22 82 26 83 27 84 23 85 25 86 24 87
REMARK H PARENT 3 6 76 24 54 35 8 61 34 70
REMARK Flexibility Score: inf
ROOT
ATOM      1  C   UNL     1       4.944  -1.016   2.155  1.00  0.00     0.023 C 
ENDROOT
BRANCH   1   2
ATOM      2  C   UNL     1       4.573  -0.923   0.679  1.00  0.00     0.116 C 
BRANCH   2   3
ATOM      3  N   UNL     1       3.134  -0.926   0.473  1.00  0.00    -0.352 N 
ATOM      4  O   UNL     1       1.102  -0.066   0.035  1.00  0.00    -0.269 OA
ATOM      5  C   UNL     1       2.321   0.041  -0.061  1.00  0.00     0.251 C 
ATOM      6  H   UNL     1       2.673  -1.747   0.761  1.00  0.00     0.163 HD
BRANCH   5   7
ATOM      7  C   UNL     1       2.900   1.211  -0.758  1.00  0.00     0.039 A 
ATOM      8  C   UNL     1       2.308   2.466  -0.579  1.00  0.00     0.014 A 
ATOM      9  C   UNL     1       3.967   1.064  -1.648  1.00  0.00     0.014 A 
ATOM     10  C   UNL     1       2.791   3.572  -1.284  1.00  0.00     0.010 A 
ATOM     11  C   UNL     1       4.497   2.179  -2.289  1.00  0.00     0.010 A 
ATOM     12  C   UNL     1       3.888   3.435  -2.146  1.00  0.00    -0.014 A 
BRANCH  12  13
ATOM     13  C   UNL     1       4.348   4.551  -3.011  1.00  0.00     0.031 A 
ATOM     14  C   UNL     1       4.212   4.410  -4.505  1.00  0.00     0.074 A 
ATOM     15  C   UNL     1       4.919   5.649  -2.483  1.00  0.00     0.049 A 
ATOM     16  N   UNL     1       4.687   5.177  -5.452  1.00  0.00    -0.248 NA
ATOM     17  C   UNL     1       3.462   3.241  -5.001  1.00  0.00     0.031 C 
ATOM     18  C   UNL     1       5.089   5.912  -1.054  1.00  0.00     0.029 A 
ATOM     19  N   UNL     1       5.478   6.747  -3.093  1.00  0.00    -0.354 N 
ATOM     20  C   UNL     1       4.317   4.569  -6.646  1.00  0.00     0.074 A 
ATOM     21  C   UNL     1       3.617   3.352  -6.312  1.00  0.00     0.031 C 
ATOM     22  C   UNL     1       5.705   7.095  -0.897  1.00  0.00     0.029 A 
ATOM     23  C   UNL     1       6.025   7.649  -2.211  1.00  0.00     0.049 A 
ATOM     24  H   UNL     1       5.486   6.875  -4.069  1.00  0.00     0.167 HD
ATOM     25  C   UNL     1       4.524   5.004  -7.908  1.00  0.00     0.031 A 
ATOM     26  C   UNL     1       6.729   8.778  -2.434  1.00  0.00     0.031 A 
ATOM     27  C   UNL     1       5.180   6.239  -8.233  1.00  0.00     0.049 A 
ATOM     28  C   UNL     1       6.983   9.220  -3.853  1.00  0.00     0.074 A 
ATOM     29  C   UNL     1       5.393   6.785  -9.486  1.00  0.00     0.029 A 
ATOM     30  N   UNL     1       5.712   7.122  -7.309  1.00  0.00    -0.354 N 
ATOM     31  N   UNL     1       6.599   8.652  -4.972  1.00  0.00    -0.248 NA
ATOM     32  C   UNL     1       7.757  10.456  -4.048  1.00  0.00     0.031 C 
ATOM     33  C   UNL     1       6.117   7.963  -9.325  1.00  0.00     0.029 A 
ATOM     34  C   UNL     1       6.280   8.195  -7.969  1.00  0.00     0.049 A 
ATOM     35  H   UNL     1       5.690   7.003  -6.332  1.00  0.00     0.167 HD
ATOM     36  C   UNL     1       7.056   9.475  -5.995  1.00  0.00     0.074 A 
ATOM     37  C   UNL     1       7.737  10.587  -5.369  1.00  0.00     0.031 C 
ATOM     38  C   UNL     1       6.924   9.315  -7.333  1.00  0.00     0.031 A 
BRANCH  25  39
ATOM     39  C   UNL     1       4.027   4.168  -9.053  1.00  0.00    -0.014 A 
ATOM     40  C   UNL     1       4.950   3.589  -9.941  1.00  0.00     0.009 A 
ATOM     41  C   UNL     1       2.658   4.087  -9.347  1.00  0.00     0.009 A 
ATOM     42  C   UNL     1       4.514   2.981 -11.118  1.00  0.00     0.001 A 
ATOM     43  C   UNL     1       2.223   3.450 -10.511  1.00  0.00     0.001 A 
ATOM     44  C   UNL     1       3.152   2.914 -11.403  1.00  0.00     0.000 A 
ENDBRANCH  25  39
BRANCH  26  45
ATOM     45  C   UNL     1       7.252   9.562  -1.280  1.00  0.00    -0.014 A 
ATOM     46  C   UNL     1       8.230   9.017  -0.430  1.00  0.00     0.009 A 
ATOM     47  C   UNL     1       6.761  10.847  -1.001  1.00  0.00     0.009 A 
ATOM     48  C   UNL     1       8.686   9.727   0.683  1.00  0.00     0.001 A 
ATOM     49  C   UNL     1       7.247  11.571   0.092  1.00  0.00     0.001 A 
ATOM     50  C   UNL     1       8.199  11.007   0.939  1.00  0.00     0.000 A 
ENDBRANCH  26  45
BRANCH  38  51
ATOM     51  C   UNL     1       7.483  10.366  -8.251  1.00  0.00    -0.014 A 
ATOM     52  C   UNL     1       6.603  11.136  -9.032  1.00  0.00     0.009 A 
ATOM     53  C   UNL     1       8.861  10.453  -8.492  1.00  0.00     0.009 A 
ATOM     54  C   UNL     1       7.089  11.935 -10.067  1.00  0.00     0.001 A 
ATOM     55  C   UNL     1       9.346  11.279  -9.509  1.00  0.00     0.001 A 
ATOM     56  C   UNL     1       8.460  12.004 -10.306  1.00  0.00     0.000 A 
ENDBRANCH  38  51
ENDBRANCH  12  13
ENDBRANCH   5   7
ENDBRANCH   2   3
ENDBRANCH   1   2
BRANCH   1  57
ATOM     57  C   UNL     1       4.467  -2.283   2.861  1.00  0.00     0.023 C 
BRANCH  57  58
ATOM     58  C   UNL     1       4.883  -3.588   2.192  1.00  0.00     0.116 C 
BRANCH  58  59
ATOM     59  N   UNL     1       6.325  -3.744   2.128  1.00  0.00    -0.352 N 
ATOM     60  C   UNL     1       7.067  -4.858   2.433  1.00  0.00     0.255 C 
ATOM     61  H   UNL     1       6.832  -2.954   1.830  1.00  0.00     0.163 HD
ATOM     62  O   UNL     1       8.293  -4.820   2.402  1.00  0.00    -0.269 OA
BRANCH  60  63
ATOM     63  C   UNL     1       6.383  -6.087   2.879  1.00  0.00     0.081 A 
ATOM     64  C   UNL     1       6.676  -6.558   4.162  1.00  0.00     0.020 A 
ATOM     65  C   UNL     1       5.456  -6.761   2.082  1.00  0.00     0.130 A 
ATOM     66  C   UNL     1       6.006  -7.678   4.662  1.00  0.00     0.028 A 
ATOM     67  C   UNL     1       4.796  -7.885   2.579  1.00  0.00     0.073 A 
ATOM     68  C   UNL     1       5.070  -8.361   3.872  1.00  0.00     0.054 A 
BRANCH  65  69
ATOM     69  O   UNL     1       5.163  -6.313   0.824  1.00  0.00    -0.507 OA
ATOM     70  H   UNL     1       5.601  -5.559   0.481  1.00  0.00     0.293 HD
ENDBRANCH  65  69
BRANCH  68  71
ATOM     71  N   UNL     1       4.374  -9.496   4.383  1.00  0.00    -0.261 N 
ATOM     72  C   UNL     1       3.797  -9.438   5.653  1.00  0.00     0.270 C 
ATOM     73  C   UNL     1       4.199 -10.682   3.681  1.00  0.00     0.152 C 
ATOM     74  O   UNL     1       3.824  -8.509   6.445  1.00  0.00    -0.268 OA
ATOM     75  C   UNL     1       3.038 -10.692   5.924  1.00  0.00     0.081 C 
ATOM     76  S   UNL     1       3.156 -11.764   4.592  1.00  0.00    -0.054 SA
ATOM     77  S   UNL     1       4.884 -11.188   2.239  1.00  0.00    -0.051 S 
ATOM     78  C   UNL     1       2.326 -10.869   7.045  1.00  0.00     0.027 C 
BRANCH  78  79
ATOM     79  C   UNL     1       1.537 -12.032   7.371  1.00  0.00    -0.016 C 
ATOM     80  C   UNL     1       0.215 -12.077   7.516  1.00  0.00     0.005 A 
ATOM     81  C   UNL     1       2.139 -13.391   7.594  1.00  0.00     0.179 C 
ATOM     82  C   UNL     1      -0.853 -11.133   7.430  1.00  0.00     0.011 A 
ATOM     83  C   UNL     1      -0.030 -13.500   7.807  1.00  0.00     0.065 A 
ATOM     84  N   UNL     1       0.995 -14.293   7.877  1.00  0.00    -0.280 NA
ATOM     85  C   UNL     1      -2.112 -11.566   7.615  1.00  0.00     0.001 A 
ATOM     86  C   UNL     1      -1.442 -13.900   7.989  1.00  0.00     0.028 A 
ATOM     87  C   UNL     1      -2.401 -12.964   7.889  1.00  0.00     0.002 A 
ENDBRANCH  78  79
ENDBRANCH  68  71
ENDBRANCH  60  63
ENDBRANCH  58  59
ENDBRANCH  57  58
ENDBRANCH   1  57
TORSDOF 14
