REMARK SMILES O=C(NCCCCNC(=O)[C@@H]1CCCCC[C@H]1NC(=O)[C@@H]1CCOC1)c1ccc(-c2c3nc(c(-c4ccccc4)c4ccc([nH]4)c(-c4ccccc4)c4nc(c(-c5ccccc5)c5ccc2[nH]5)C=C4)C=C3)cc1
REMARK SMILES IDX 6 1 5 2 4 3 3 4 1 5 2 6 26 8 27 9 73 10 28 11 72 12 29 13
REMARK SMILES IDX 30 14 31 15 66 16 32 17 71 18 65 19 67 20 33 21 70 22 64 23
REMARK SMILES IDX 63 24 34 26 56 27 41 28 55 29 42 30 45 31 54 32 68 33 43 34
REMARK SMILES IDX 44 35 53 37 69 38 46 39 35 40 36 41 40 42 37 43 39 44 38 45
REMARK SMILES IDX 57 46 58 47 62 48 59 49 61 50 60 51 47 52 48 53 52 54 49 55
REMARK SMILES IDX 51 56 50 57 7 58 8 59 9 60 10 62 11 63 12 64 13 65 14 66
REMARK SMILES IDX 17 68 16 69 15 70 18 72 19 73 20 75 21 76 22 77 25 78 23 79
REMARK SMILES IDX 24 80
REMARK H PARENT 3 7 67 25 45 36 8 61 18 74
REMARK Flexibility Score: 100.00
ROOT
ATOM      1  C   UNL     1       4.646   1.732  -3.272  1.00  0.00     0.023 C 
ENDROOT
BRANCH   1   2
ATOM      2  C   UNL     1       4.910   0.340  -2.709  1.00  0.00     0.023 C 
BRANCH   2   3
ATOM      3  C   UNL     1       4.458   0.146  -1.273  1.00  0.00     0.116 C 
BRANCH   3   4
ATOM      4  N   UNL     1       3.034   0.356  -1.056  1.00  0.00    -0.352 N 
ATOM      5  O   UNL     1       1.058   0.011   0.010  1.00  0.00    -0.269 OA
ATOM      6  C   UNL     1       2.262  -0.180  -0.045  1.00  0.00     0.251 C 
ATOM      7  H   UNL     1       2.572   0.943  -1.699  1.00  0.00     0.163 HD
BRANCH   6   8
ATOM      8  C   UNL     1       2.941  -1.041   0.945  1.00  0.00     0.039 A 
ATOM      9  C   UNL     1       4.087  -0.574   1.587  1.00  0.00     0.014 A 
ATOM     10  C   UNL     1       2.508  -2.358   1.121  1.00  0.00     0.014 A 
ATOM     11  C   UNL     1       4.901  -1.473   2.256  1.00  0.00     0.010 A 
ATOM     12  C   UNL     1       3.279  -3.236   1.887  1.00  0.00     0.010 A 
ATOM     13  C   UNL     1       4.504  -2.812   2.423  1.00  0.00    -0.014 A 
BRANCH  13  14
ATOM     14  C   UNL     1       5.381  -3.712   3.213  1.00  0.00     0.031 A 
ATOM     15  C   UNL     1       6.064  -4.898   2.592  1.00  0.00     0.074 A 
ATOM     16  C   UNL     1       5.623  -3.385   4.497  1.00  0.00     0.049 A 
ATOM     17  N   UNL     1       6.925  -5.723   3.136  1.00  0.00    -0.248 NA
ATOM     18  C   UNL     1       5.745  -5.206   1.189  1.00  0.00     0.031 C 
ATOM     19  C   UNL     1       5.009  -2.259   5.208  1.00  0.00     0.029 A 
ATOM     20  N   UNL     1       6.481  -3.929   5.416  1.00  0.00    -0.354 N 
ATOM     21  C   UNL     1       7.229  -6.660   2.156  1.00  0.00     0.074 A 
ATOM     22  C   UNL     1       6.454  -6.310   0.985  1.00  0.00     0.031 C 
ATOM     23  C   UNL     1       5.572  -2.144   6.418  1.00  0.00     0.029 A 
ATOM     24  C   UNL     1       6.529  -3.228   6.596  1.00  0.00     0.049 A 
ATOM     25  H   UNL     1       7.011  -4.741   5.247  1.00  0.00     0.167 HD
ATOM     26  C   UNL     1       8.078  -7.714   2.229  1.00  0.00     0.031 A 
ATOM     27  C   UNL     1       7.256  -3.435   7.707  1.00  0.00     0.031 A 
ATOM     28  C   UNL     1       8.852  -8.056   3.394  1.00  0.00     0.049 A 
ATOM     29  C   UNL     1       8.196  -4.600   7.752  1.00  0.00     0.074 A 
ATOM     30  C   UNL     1       9.736  -9.108   3.566  1.00  0.00     0.029 A 
ATOM     31  N   UNL     1       8.841  -7.347   4.586  1.00  0.00    -0.354 N 
ATOM     32  N   UNL     1       8.462  -5.478   6.816  1.00  0.00    -0.248 NA
ATOM     33  C   UNL     1       8.928  -4.806   9.008  1.00  0.00     0.031 C 
ATOM     34  C   UNL     1      10.235  -9.055   4.873  1.00  0.00     0.029 A 
ATOM     35  C   UNL     1       9.695  -7.944   5.499  1.00  0.00     0.049 A 
ATOM     36  H   UNL     1       8.306  -6.538   4.757  1.00  0.00     0.167 HD
ATOM     37  C   UNL     1       9.385  -6.350   7.373  1.00  0.00     0.074 A 
ATOM     38  C   UNL     1       9.664  -5.868   8.711  1.00  0.00     0.031 C 
ATOM     39  C   UNL     1       9.940  -7.461   6.832  1.00  0.00     0.031 A 
BRANCH  26  40
ATOM     40  C   UNL     1       8.200  -8.597   1.019  1.00  0.00    -0.014 A 
ATOM     41  C   UNL     1       8.925  -8.188  -0.110  1.00  0.00     0.009 A 
ATOM     42  C   UNL     1       7.636  -9.883   1.035  1.00  0.00     0.009 A 
ATOM     43  C   UNL     1       9.068  -9.043  -1.207  1.00  0.00     0.001 A 
ATOM     44  C   UNL     1       7.798 -10.743  -0.054  1.00  0.00     0.001 A 
ATOM     45  C   UNL     1       8.509 -10.320  -1.176  1.00  0.00     0.000 A 
ENDBRANCH  26  40
BRANCH  27  46
ATOM     46  C   UNL     1       7.098  -2.525   8.868  1.00  0.00    -0.014 A 
ATOM     47  C   UNL     1       8.121  -1.635   9.227  1.00  0.00     0.009 A 
ATOM     48  C   UNL     1       5.903  -2.524   9.606  1.00  0.00     0.009 A 
ATOM     49  C   UNL     1       7.954  -0.772  10.313  1.00  0.00     0.001 A 
ATOM     50  C   UNL     1       5.729  -1.639  10.670  1.00  0.00     0.001 A 
ATOM     51  C   UNL     1       6.757  -0.770  11.028  1.00  0.00     0.000 A 
ENDBRANCH  27  46
BRANCH  39  52
ATOM     52  C   UNL     1      10.897  -8.220   7.702  1.00  0.00    -0.014 A 
ATOM     53  C   UNL     1      10.431  -9.000   8.772  1.00  0.00     0.009 A 
ATOM     54  C   UNL     1      12.276  -8.150   7.455  1.00  0.00     0.009 A 
ATOM     55  C   UNL     1      11.334  -9.664   9.604  1.00  0.00     0.001 A 
ATOM     56  C   UNL     1      13.174  -8.834   8.275  1.00  0.00     0.001 A 
ATOM     57  C   UNL     1      12.703  -9.580   9.355  1.00  0.00     0.000 A 
ENDBRANCH  39  52
ENDBRANCH  13  14
ENDBRANCH   6   8
ENDBRANCH   3   4
ENDBRANCH   2   3
ENDBRANCH   1   2
BRANCH   1  58
ATOM     58  C   UNL     1       5.422   2.867  -2.594  1.00  0.00     0.116 C 
BRANCH  58  59
ATOM     59  N   UNL     1       6.634   3.179  -3.319  1.00  0.00    -0.356 N 
ATOM     60  C   UNL     1       6.896   4.041  -4.333  1.00  0.00     0.225 C 
ATOM     61  H   UNL     1       7.420   2.667  -3.019  1.00  0.00     0.163 HD
ATOM     62  O   UNL     1       8.043   3.992  -4.794  1.00  0.00    -0.275 OA
BRANCH  60  63
ATOM     63  C   UNL     1       5.922   5.113  -4.856  1.00  0.00     0.101 C 
BRANCH  63  64
ATOM     64  C   UNL     1       6.083   6.373  -3.996  1.00  0.00     0.015 C 
BRANCH  64  65
ATOM     65  C   UNL     1       5.385   7.598  -4.586  1.00  0.00     0.001 C 
BRANCH  65  66
ATOM     66  C   UNL     1       3.960   7.773  -4.080  1.00  0.00     0.000 CG0
ATOM     67  G   UNL     1       2.967   6.733  -4.579  1.00  0.00     0.000 G0
ENDBRANCH  65  66
ENDBRANCH  64  65
ENDBRANCH  63  64
BRANCH  63  68
ATOM     68  C   UNL     1       4.477   4.660  -5.152  1.00  0.00     0.094 C 
BRANCH  68  69
ATOM     69  C   UNL     1       3.351   5.281  -4.293  1.00  0.00     0.026 C 
BRANCH  69  70
ATOM     70  C   UNL     1       2.967   6.733  -4.579  1.00  0.00     0.002 CG0
ATOM     71  G   UNL     1       3.960   7.773  -4.080  1.00  0.00     0.000 G0
ENDBRANCH  69  70
ENDBRANCH  68  69
BRANCH  68  72
ATOM     72  N   UNL     1       4.139   4.811  -6.574  1.00  0.00    -0.352 N 
ATOM     73  C   UNL     1       4.159   3.920  -7.603  1.00  0.00     0.225 C 
ATOM     74  H   UNL     1       3.846   5.716  -6.827  1.00  0.00     0.163 HD
ATOM     75  O   UNL     1       3.681   4.290  -8.676  1.00  0.00    -0.275 OA
BRANCH  73  76
ATOM     76  C   UNL     1       4.792   2.550  -7.428  1.00  0.00     0.106 C 
ATOM     77  C   UNL     1       5.906   2.360  -8.438  1.00  0.00     0.044 C 
ATOM     78  C   UNL     1       3.812   1.440  -7.775  1.00  0.00     0.173 C 
ATOM     79  C   UNL     1       5.190   1.739  -9.616  1.00  0.00     0.161 C 
ATOM     80  O   UNL     1       4.187   0.891  -9.049  1.00  0.00    -0.381 OA
ENDBRANCH  73  76
ENDBRANCH  68  72
ENDBRANCH  63  68
ENDBRANCH  60  63
ENDBRANCH  58  59
ENDBRANCH   1  58
TORSDOF 13
