REMARK SMILES Cc1ccc(C)c(NC(=O)/C=C/C(=O)NCCCCNC(=O)c2ccc(-c3c4nc(c(-c5ccccc5)c5ccc([nH]5)c(-c5ccccc5)c5nc(c(-c6ccccc6)c6ccc3[nH]6)C=C5)C=C4)cc2)c1
REMARK SMILES IDX 17 1 16 2 15 3 13 4 14 5 12 7 11 8 9 9 8 10 10 12 7 13 1 14
REMARK SMILES IDX 2 15 3 16 71 17 4 18 5 19 6 20 18 21 19 22 20 23 21 24 22 26
REMARK SMILES IDX 23 27 24 28 70 29 25 30 69 31 26 32 27 33 28 34 63 35 29 36
REMARK SMILES IDX 68 37 62 38 64 39 30 40 67 41 61 42 60 43 31 45 53 46 38 47
REMARK SMILES IDX 52 48 39 49 42 50 51 51 65 52 40 53 41 54 50 56 66 57 43 58
REMARK SMILES IDX 32 59 33 60 37 61 34 62 36 63 35 64 54 65 55 66 59 67 56 68
REMARK SMILES IDX 58 69 57 70 44 71 45 72 49 73 46 74 48 75 47 76
REMARK H PARENT 15 6 8 11 20 25 64 44 42 55
REMARK Flexibility Score: inf
ROOT
ATOM      1  C   UNL     1      -7.471   0.448  -1.623  1.00  0.00     0.023 C 
ENDROOT
BRANCH   1   2
ATOM      2  C   UNL     1      -7.099   0.449  -0.142  1.00  0.00     0.116 C 
BRANCH   2   3
ATOM      3  N   UNL     1      -6.258  -0.684   0.157  1.00  0.00    -0.353 N 
ATOM      4  C   UNL     1      -4.916  -0.700  -0.056  1.00  0.00     0.244 C 
ATOM      5  O   UNL     1      -4.380  -1.729  -0.431  1.00  0.00    -0.270 OA
ATOM      6  H   UNL     1      -6.678  -1.489   0.537  1.00  0.00     0.163 HD
BRANCH   4   7
ATOM      7  C   UNL     1      -4.180   0.543   0.266  1.00  0.00     0.077 C 
ATOM      8  C   UNL     1      -3.242   1.021  -0.565  1.00  0.00     0.077 C 
BRANCH   8   9
ATOM      9  C   UNL     1      -2.391   2.111  -0.068  1.00  0.00     0.248 C 
ATOM     10  N   UNL     1      -1.041   1.960   0.063  1.00  0.00    -0.322 N 
ATOM     11  H   UNL     1      -0.596   2.821   0.234  1.00  0.00     0.170 HD
ATOM     12  O   UNL     1      -2.904   3.206   0.171  1.00  0.00    -0.270 OA
BRANCH  10  13
ATOM     13  C   UNL     1      -0.108   0.892   0.018  1.00  0.00     0.044 A 
ATOM     14  C   UNL     1       3.729   0.782  -0.163  1.00  0.00     0.044 C 
ATOM     15  C   UNL     1       2.291   0.362  -0.190  1.00  0.00    -0.049 A 
ATOM     16  C   UNL     1       1.998  -0.995  -0.237  1.00  0.00     0.004 A 
ATOM     17  C   UNL     1       1.240   1.292  -0.104  1.00  0.00     0.029 A 
ATOM     18  C   UNL     1       0.691  -1.410  -0.069  1.00  0.00     0.006 A 
ATOM     19  C   UNL     1      -0.346  -0.483   0.155  1.00  0.00    -0.027 A 
ATOM     20  C   UNL     1      -1.613  -1.113   0.617  1.00  0.00     0.046 C 
ENDBRANCH  10  13
ENDBRANCH   8   9
ENDBRANCH   4   7
ENDBRANCH   2   3
ENDBRANCH   1   2
BRANCH   1  21
ATOM     21  C   UNL     1      -8.223  -0.782  -2.158  1.00  0.00     0.023 C 
BRANCH  21  22
ATOM     22  C   UNL     1      -9.583  -1.139  -1.554  1.00  0.00     0.116 C 
BRANCH  22  23
ATOM     23  N   UNL     1     -10.359   0.004  -1.089  1.00  0.00    -0.352 N 
ATOM     24  C   UNL     1     -10.914   0.420   0.101  1.00  0.00     0.251 C 
ATOM     25  H   UNL     1     -10.532   0.646  -1.815  1.00  0.00     0.163 HD
ATOM     26  O   UNL     1     -11.695   1.371   0.056  1.00  0.00    -0.269 OA
BRANCH  24  27
ATOM     27  C   UNL     1     -10.587  -0.154   1.430  1.00  0.00     0.039 A 
ATOM     28  C   UNL     1     -11.125   0.400   2.608  1.00  0.00     0.014 A 
ATOM     29  C   UNL     1      -9.708  -1.204   1.567  1.00  0.00     0.014 A 
ATOM     30  C   UNL     1     -10.609   0.038   3.865  1.00  0.00     0.010 A 
ATOM     31  C   UNL     1      -9.385  -1.702   2.793  1.00  0.00     0.010 A 
ATOM     32  C   UNL     1      -9.652  -0.968   3.931  1.00  0.00    -0.014 A 
BRANCH  32  33
ATOM     33  C   UNL     1      -8.921  -1.399   5.118  1.00  0.00     0.031 A 
ATOM     34  C   UNL     1      -9.432  -2.679   5.672  1.00  0.00     0.074 A 
ATOM     35  C   UNL     1      -7.662  -1.012   5.426  1.00  0.00     0.049 A 
ATOM     36  N   UNL     1     -10.368  -2.820   6.553  1.00  0.00    -0.248 NA
ATOM     37  C   UNL     1      -9.083  -3.929   4.960  1.00  0.00     0.031 C 
ATOM     38  C   UNL     1      -6.751  -0.118   4.705  1.00  0.00     0.029 A 
ATOM     39  N   UNL     1      -6.882  -1.467   6.449  1.00  0.00    -0.354 N 
ATOM     40  C   UNL     1     -10.557  -4.193   6.631  1.00  0.00     0.074 A 
ATOM     41  C   UNL     1     -10.078  -4.708   5.381  1.00  0.00     0.031 C 
ATOM     42  C   UNL     1      -5.497  -0.246   5.213  1.00  0.00     0.029 A 
ATOM     43  C   UNL     1      -5.532  -1.147   6.356  1.00  0.00     0.049 A 
ATOM     44  H   UNL     1      -7.249  -1.986   7.200  1.00  0.00     0.167 HD
ATOM     45  C   UNL     1     -10.665  -4.847   7.824  1.00  0.00     0.031 A 
ATOM     46  C   UNL     1      -4.536  -1.644   7.138  1.00  0.00     0.031 A 
ATOM     47  C   UNL     1     -10.729  -3.901   8.919  1.00  0.00     0.049 A 
ATOM     48  C   UNL     1      -5.173  -2.290   8.316  1.00  0.00     0.074 A 
ATOM     49  C   UNL     1     -11.525  -2.818   9.236  1.00  0.00     0.029 A 
ATOM     50  N   UNL     1      -9.580  -3.755   9.666  1.00  0.00    -0.354 N 
ATOM     51  N   UNL     1      -5.779  -1.635   9.262  1.00  0.00    -0.248 NA
ATOM     52  C   UNL     1      -5.514  -3.702   8.222  1.00  0.00     0.031 C 
ATOM     53  C   UNL     1     -10.635  -1.852   9.794  1.00  0.00     0.029 A 
ATOM     54  C   UNL     1      -9.361  -2.419   9.865  1.00  0.00     0.049 A 
ATOM     55  H   UNL     1      -9.013  -4.487  10.001  1.00  0.00     0.167 HD
ATOM     56  C   UNL     1      -6.888  -2.410   9.573  1.00  0.00     0.074 A 
ATOM     57  C   UNL     1      -6.610  -3.719   8.986  1.00  0.00     0.031 C 
ATOM     58  C   UNL     1      -8.047  -1.830  10.005  1.00  0.00     0.031 A 
BRANCH  45  59
ATOM     59  C   UNL     1     -10.225  -6.286   8.052  1.00  0.00    -0.014 A 
ATOM     60  C   UNL     1     -10.297  -6.792   9.361  1.00  0.00     0.009 A 
ATOM     61  C   UNL     1      -9.540  -7.090   7.121  1.00  0.00     0.009 A 
ATOM     62  C   UNL     1      -9.602  -7.946   9.742  1.00  0.00     0.001 A 
ATOM     63  C   UNL     1      -8.871  -8.261   7.486  1.00  0.00     0.001 A 
ATOM     64  C   UNL     1      -8.870  -8.668   8.808  1.00  0.00     0.000 A 
ENDBRANCH  45  59
BRANCH  46  65
ATOM     65  C   UNL     1      -3.085  -1.822   6.885  1.00  0.00    -0.014 A 
ATOM     66  C   UNL     1      -2.198  -2.057   7.953  1.00  0.00     0.009 A 
ATOM     67  C   UNL     1      -2.604  -2.042   5.584  1.00  0.00     0.009 A 
ATOM     68  C   UNL     1      -0.902  -2.544   7.729  1.00  0.00     0.001 A 
ATOM     69  C   UNL     1      -1.307  -2.523   5.360  1.00  0.00     0.001 A 
ATOM     70  C   UNL     1      -0.463  -2.792   6.433  1.00  0.00     0.000 A 
ENDBRANCH  46  65
BRANCH  58  71
ATOM     71  C   UNL     1      -8.000  -0.383  10.431  1.00  0.00    -0.014 A 
ATOM     72  C   UNL     1      -7.591   0.664   9.586  1.00  0.00     0.009 A 
ATOM     73  C   UNL     1      -8.521  -0.054  11.691  1.00  0.00     0.009 A 
ATOM     74  C   UNL     1      -7.669   1.996  10.008  1.00  0.00     0.001 A 
ATOM     75  C   UNL     1      -8.621   1.276  12.102  1.00  0.00     0.001 A 
ATOM     76  C   UNL     1      -8.189   2.300  11.264  1.00  0.00     0.000 A 
ENDBRANCH  58  71
ENDBRANCH  32  33
ENDBRANCH  24  27
ENDBRANCH  22  23
ENDBRANCH  21  22
ENDBRANCH   1  21
TORSDOF 13
