REMARK SMILES CN1N=C(CC(=O)NCCCCNC(=O)c2ccc(-c3c4nc(c(-c5ccccc5)c5ccc([nH]5)c(-c5ccccc5)c5nc(c(-c6ccccc6)c6ccc3[nH]6)C=C5)C=C4)cc2)CC1=O
REMARK SMILES IDX 11 1 10 2 9 3 8 4 6 5 7 6 5 8 4 9 1 10 2 11 3 12 65 13 64 14
REMARK SMILES IDX 66 15 12 16 13 17 14 18 15 20 16 21 17 22 63 23 18 24 62 25
REMARK SMILES IDX 19 26 20 27 21 28 56 29 22 30 61 31 55 32 57 33 23 34 60 35
REMARK SMILES IDX 54 36 53 37 24 39 46 40 31 41 45 42 32 43 35 44 44 45 58 46
REMARK SMILES IDX 33 47 34 48 43 50 59 51 36 52 25 53 26 54 30 55 27 56 29 57
REMARK SMILES IDX 28 58 47 59 48 60 52 61 49 62 51 63 50 64 37 65 38 66 42 67
REMARK SMILES IDX 39 68 41 69 40 70
REMARK H PARENT 8 7 13 19 57 38 35 49
REMARK Flexibility Score: inf
ROOT
ATOM      1  C   UNL     1      -2.511  -3.133   3.020  1.00  0.00     0.023 C 
ENDROOT
BRANCH   1   2
ATOM      2  C   UNL     1      -1.609  -3.531   1.849  1.00  0.00     0.023 C 
BRANCH   2   3
ATOM      3  C   UNL     1      -2.289  -4.413   0.804  1.00  0.00     0.116 C 
BRANCH   3   4
ATOM      4  N   UNL     1      -3.293  -3.684   0.058  1.00  0.00    -0.356 N 
ATOM      5  C   UNL     1      -3.200  -3.120  -1.182  1.00  0.00     0.225 C 
ATOM      6  O   UNL     1      -4.178  -2.522  -1.630  1.00  0.00    -0.275 OA
ATOM      7  H   UNL     1      -4.163  -3.580   0.506  1.00  0.00     0.163 HD
BRANCH   5   8
ATOM      8  C   UNL     1      -1.952  -3.323  -2.003  1.00  0.00     0.153 C 
BRANCH   8   9
ATOM      9  C   UNL     1      -0.727  -2.664  -1.469  1.00  0.00     0.057 C 
ATOM     10  C   UNL     1       1.058   0.066  -0.183  1.00  0.00     0.177 C 
ATOM     11  N   UNL     1       0.641  -1.214  -0.696  1.00  0.00    -0.237 N 
ATOM     12  N   UNL     1      -0.658  -1.421  -1.100  1.00  0.00    -0.179 NA
ATOM     13  C   UNL     1       1.460  -2.334  -0.793  1.00  0.00     0.248 C 
ATOM     14  C   UNL     1       0.574  -3.405  -1.346  1.00  0.00     0.156 C 
ATOM     15  O   UNL     1       2.635  -2.457  -0.489  1.00  0.00    -0.273 OA
ENDBRANCH   8   9
ENDBRANCH   5   8
ENDBRANCH   3   4
ENDBRANCH   2   3
ENDBRANCH   1   2
BRANCH   1  16
ATOM     16  C   UNL     1      -3.112  -4.299   3.796  1.00  0.00     0.116 C 
BRANCH  16  17
ATOM     17  N   UNL     1      -2.106  -5.183   4.365  1.00  0.00    -0.352 N 
ATOM     18  C   UNL     1      -2.074  -5.761   5.610  1.00  0.00     0.251 C 
ATOM     19  H   UNL     1      -1.345  -5.396   3.777  1.00  0.00     0.163 HD
ATOM     20  O   UNL     1      -1.080  -6.378   5.980  1.00  0.00    -0.269 OA
BRANCH  18  21
ATOM     21  C   UNL     1      -3.230  -5.605   6.517  1.00  0.00     0.039 A 
ATOM     22  C   UNL     1      -2.999  -5.239   7.845  1.00  0.00     0.014 A 
ATOM     23  C   UNL     1      -4.535  -5.793   6.053  1.00  0.00     0.014 A 
ATOM     24  C   UNL     1      -4.082  -4.995   8.690  1.00  0.00     0.010 A 
ATOM     25  C   UNL     1      -5.611  -5.470   6.873  1.00  0.00     0.010 A 
ATOM     26  C   UNL     1      -5.397  -5.070   8.200  1.00  0.00    -0.014 A 
BRANCH  26  27
ATOM     27  C   UNL     1      -6.557  -4.724   9.061  1.00  0.00     0.031 A 
ATOM     28  C   UNL     1      -7.589  -5.764   9.399  1.00  0.00     0.074 A 
ATOM     29  C   UNL     1      -6.709  -3.457   9.495  1.00  0.00     0.049 A 
ATOM     30  N   UNL     1      -8.685  -5.640  10.106  1.00  0.00    -0.248 NA
ATOM     31  C   UNL     1      -7.376  -7.114   8.855  1.00  0.00     0.031 C 
ATOM     32  C   UNL     1      -5.801  -2.345   9.206  1.00  0.00     0.029 A 
ATOM     33  N   UNL     1      -7.688  -2.891  10.273  1.00  0.00    -0.354 N 
ATOM     34  C   UNL     1      -9.293  -6.888  10.080  1.00  0.00     0.074 A 
ATOM     35  C   UNL     1      -8.478  -7.739   9.242  1.00  0.00     0.031 C 
ATOM     36  C   UNL     1      -6.245  -1.241   9.827  1.00  0.00     0.029 A 
ATOM     37  C   UNL     1      -7.492  -1.553  10.518  1.00  0.00     0.049 A 
ATOM     38  H   UNL     1      -8.458  -3.395  10.622  1.00  0.00     0.167 HD
ATOM     39  C   UNL     1     -10.417  -7.298  10.715  1.00  0.00     0.031 A 
ATOM     40  C   UNL     1      -8.234  -0.673  11.216  1.00  0.00     0.031 A 
ATOM     41  C   UNL     1     -11.230  -6.451  11.547  1.00  0.00     0.049 A 
ATOM     42  C   UNL     1      -9.497  -1.145  11.882  1.00  0.00     0.074 A 
ATOM     43  C   UNL     1     -12.362  -6.785  12.271  1.00  0.00     0.029 A 
ATOM     44  N   UNL     1     -11.002  -5.100  11.761  1.00  0.00    -0.354 N 
ATOM     45  N   UNL     1     -10.021  -2.347  11.906  1.00  0.00    -0.248 NA
ATOM     46  C   UNL     1     -10.265  -0.138  12.628  1.00  0.00     0.031 C 
ATOM     47  C   UNL     1     -12.855  -5.622  12.872  1.00  0.00     0.029 A 
ATOM     48  C   UNL     1     -11.990  -4.580  12.581  1.00  0.00     0.049 A 
ATOM     49  H   UNL     1     -10.251  -4.588  11.386  1.00  0.00     0.167 HD
ATOM     50  C   UNL     1     -11.161  -2.247  12.694  1.00  0.00     0.074 A 
ATOM     51  C   UNL     1     -11.241  -0.872  13.143  1.00  0.00     0.031 C 
ATOM     52  C   UNL     1     -12.060  -3.209  13.018  1.00  0.00     0.031 A 
BRANCH  39  53
ATOM     53  C   UNL     1     -10.839  -8.729  10.521  1.00  0.00    -0.014 A 
ATOM     54  C   UNL     1     -10.087  -9.790  11.053  1.00  0.00     0.009 A 
ATOM     55  C   UNL     1     -12.024  -9.021   9.828  1.00  0.00     0.009 A 
ATOM     56  C   UNL     1     -10.491 -11.113  10.859  1.00  0.00     0.001 A 
ATOM     57  C   UNL     1     -12.444 -10.343   9.665  1.00  0.00     0.001 A 
ATOM     58  C   UNL     1     -11.672 -11.388  10.171  1.00  0.00     0.000 A 
ENDBRANCH  39  53
BRANCH  40  59
ATOM     59  C   UNL     1      -7.800   0.745  11.334  1.00  0.00    -0.014 A 
ATOM     60  C   UNL     1      -7.377   1.262  12.568  1.00  0.00     0.009 A 
ATOM     61  C   UNL     1      -7.818   1.593  10.215  1.00  0.00     0.009 A 
ATOM     62  C   UNL     1      -7.013   2.605  12.687  1.00  0.00     0.001 A 
ATOM     63  C   UNL     1      -7.420   2.927  10.329  1.00  0.00     0.001 A 
ATOM     64  C   UNL     1      -7.030   3.435  11.567  1.00  0.00     0.000 A 
ENDBRANCH  40  59
BRANCH  52  65
ATOM     65  C   UNL     1     -13.187  -2.817  13.935  1.00  0.00    -0.014 A 
ATOM     66  C   UNL     1     -14.219  -1.967  13.508  1.00  0.00     0.009 A 
ATOM     67  C   UNL     1     -13.232  -3.339  15.238  1.00  0.00     0.009 A 
ATOM     68  C   UNL     1     -15.251  -1.616  14.381  1.00  0.00     0.001 A 
ATOM     69  C   UNL     1     -14.283  -3.014  16.096  1.00  0.00     0.001 A 
ATOM     70  C   UNL     1     -15.286  -2.145  15.671  1.00  0.00     0.000 A 
ENDBRANCH  52  65
ENDBRANCH  26  27
ENDBRANCH  18  21
ENDBRANCH  16  17
ENDBRANCH   1  16
TORSDOF 12
