REMARK SMILES O=C(NCCCCNC(=O)c1cccc(S(=O)(=O)NC[C@@H]2COc3ccccc3O2)c1)c1ccc(-c2c3nc(c(-c4ccccc4)c4ccc([nH]4)c(-c4ccccc4)c4nc(c(-c5ccccc5)c5ccc2[nH]5)C=C4)C=C3)cc1
REMARK SMILES IDX 6 1 5 2 4 3 3 4 1 5 2 6 32 8 33 9 79 10 34 11 78 12 35 13
REMARK SMILES IDX 36 14 37 15 72 16 38 17 77 18 71 19 73 20 39 21 76 22 70 23
REMARK SMILES IDX 69 24 40 26 62 27 47 28 61 29 48 30 51 31 60 32 74 33 49 34
REMARK SMILES IDX 50 35 59 37 75 38 52 39 41 40 42 41 46 42 43 43 45 44 44 45
REMARK SMILES IDX 63 46 64 47 68 48 65 49 67 50 66 51 53 52 54 53 58 54 55 55
REMARK SMILES IDX 57 56 56 57 7 58 8 59 9 60 10 62 11 63 12 64 31 65 13 66
REMARK SMILES IDX 15 67 14 68 16 69 17 70 18 71 19 72 20 74 21 75 22 76 30 77
REMARK SMILES IDX 23 78 29 79 24 80 28 81 25 82 27 83 26 84
REMARK H PARENT 3 7 73 25 51 36 8 61 19 73
REMARK Flexibility Score: inf
ROOT
ATOM      1  C   UNL     1       4.373  -3.760  -1.048  1.00  0.00     0.023 C 
ENDROOT
BRANCH   1   2
ATOM      2  C   UNL     1       4.927  -2.653  -0.156  1.00  0.00     0.023 C 
BRANCH   2   3
ATOM      3  C   UNL     1       4.644  -1.233  -0.629  1.00  0.00     0.116 C 
BRANCH   3   4
ATOM      4  N   UNL     1       3.222  -0.931  -0.724  1.00  0.00    -0.352 N 
ATOM      5  O   UNL     1       1.248   0.017  -0.179  1.00  0.00    -0.269 OA
ATOM      6  C   UNL     1       2.468   0.001  -0.049  1.00  0.00     0.251 C 
ATOM      7  H   UNL     1       2.723  -1.480  -1.371  1.00  0.00     0.163 HD
BRANCH   6   8
ATOM      8  C   UNL     1       3.125   0.958   0.867  1.00  0.00     0.039 A 
ATOM      9  C   UNL     1       4.294   1.616   0.489  1.00  0.00     0.014 A 
ATOM     10  C   UNL     1       2.578   1.173   2.135  1.00  0.00     0.014 A 
ATOM     11  C   UNL     1       5.022   2.322   1.439  1.00  0.00     0.010 A 
ATOM     12  C   UNL     1       3.261   1.972   3.059  1.00  0.00     0.010 A 
ATOM     13  C   UNL     1       4.518   2.504   2.738  1.00  0.00    -0.014 A 
BRANCH  13  14
ATOM     14  C   UNL     1       5.329   3.261   3.727  1.00  0.00     0.031 A 
ATOM     15  C   UNL     1       5.858   2.598   4.972  1.00  0.00     0.074 A 
ATOM     16  C   UNL     1       5.644   4.545   3.466  1.00  0.00     0.049 A 
ATOM     17  N   UNL     1       6.642   3.094   5.898  1.00  0.00    -0.248 NA
ATOM     18  C   UNL     1       5.453   1.205   5.218  1.00  0.00     0.031 C 
ATOM     19  C   UNL     1       5.192   5.303   2.296  1.00  0.00     0.029 A 
ATOM     20  N   UNL     1       6.446   5.426   4.144  1.00  0.00    -0.354 N 
ATOM     21  C   UNL     1       6.798   2.089   6.845  1.00  0.00     0.074 A 
ATOM     22  C   UNL     1       6.012   0.961   6.395  1.00  0.00     0.031 C 
ATOM     23  C   UNL     1       5.779   6.508   2.301  1.00  0.00     0.029 A 
ATOM     24  C   UNL     1       6.596   6.632   3.502  1.00  0.00     0.049 A 
ATOM     25  H   UNL     1       6.872   5.216   5.005  1.00  0.00     0.167 HD
ATOM     26  C   UNL     1       7.533   2.101   7.984  1.00  0.00     0.031 A 
ATOM     27  C   UNL     1       7.309   7.721   3.841  1.00  0.00     0.031 A 
ATOM     28  C   UNL     1       8.331   3.215   8.426  1.00  0.00     0.049 A 
ATOM     29  C   UNL     1       8.109   7.708   5.109  1.00  0.00     0.074 A 
ATOM     30  C   UNL     1       9.138   3.307   9.548  1.00  0.00     0.029 A 
ATOM     31  N   UNL     1       8.423   4.431   7.768  1.00  0.00    -0.354 N 
ATOM     32  N   UNL     1       8.268   6.737   5.975  1.00  0.00    -0.248 NA
ATOM     33  C   UNL     1       8.830   8.943   5.444  1.00  0.00     0.031 C 
ATOM     34  C   UNL     1       9.683   4.595   9.592  1.00  0.00     0.029 A 
ATOM     35  C   UNL     1       9.257   5.287   8.470  1.00  0.00     0.049 A 
ATOM     36  H   UNL     1       7.964   4.654   6.926  1.00  0.00     0.167 HD
ATOM     37  C   UNL     1       9.123   7.236   6.947  1.00  0.00     0.074 A 
ATOM     38  C   UNL     1       9.464   8.588   6.552  1.00  0.00     0.031 C 
ATOM     39  C   UNL     1       9.585   6.629   8.067  1.00  0.00     0.031 A 
BRANCH  26  40
ATOM     40  C   UNL     1       7.486   0.876   8.856  1.00  0.00    -0.014 A 
ATOM     41  C   UNL     1       8.135  -0.312   8.486  1.00  0.00     0.009 A 
ATOM     42  C   UNL     1       6.816   0.928  10.089  1.00  0.00     0.009 A 
ATOM     43  C   UNL     1       8.088  -1.433   9.320  1.00  0.00     0.001 A 
ATOM     44  C   UNL     1       6.792  -0.185  10.932  1.00  0.00     0.001 A 
ATOM     45  C   UNL     1       7.420  -1.367  10.543  1.00  0.00     0.000 A 
ENDBRANCH  26  40
BRANCH  27  46
ATOM     46  C   UNL     1       7.301   8.913   2.956  1.00  0.00    -0.014 A 
ATOM     47  C   UNL     1       8.445   9.266   2.225  1.00  0.00     0.009 A 
ATOM     48  C   UNL     1       6.143   9.696   2.829  1.00  0.00     0.009 A 
ATOM     49  C   UNL     1       8.435  10.393   1.401  1.00  0.00     0.001 A 
ATOM     50  C   UNL     1       6.128  10.805   1.981  1.00  0.00     0.001 A 
ATOM     51  C   UNL     1       7.276  11.157   1.275  1.00  0.00     0.000 A 
ENDBRANCH  27  46
BRANCH  39  52
ATOM     52  C   UNL     1      10.537   7.414   8.922  1.00  0.00    -0.014 A 
ATOM     53  C   UNL     1      10.094   8.489   9.708  1.00  0.00     0.009 A 
ATOM     54  C   UNL     1      11.895   7.062   8.950  1.00  0.00     0.009 A 
ATOM     55  C   UNL     1      11.001   9.221  10.476  1.00  0.00     0.001 A 
ATOM     56  C   UNL     1      12.795   7.779   9.740  1.00  0.00     0.001 A 
ATOM     57  C   UNL     1      12.349   8.864  10.493  1.00  0.00     0.000 A 
ENDBRANCH  39  52
ENDBRANCH  13  14
ENDBRANCH   6   8
ENDBRANCH   3   4
ENDBRANCH   2   3
ENDBRANCH   1   2
BRANCH   1  58
ATOM     58  C   UNL     1       4.741  -3.651  -2.523  1.00  0.00     0.116 C 
BRANCH  58  59
ATOM     59  N   UNL     1       6.177  -3.702  -2.740  1.00  0.00    -0.352 N 
ATOM     60  C   UNL     1       6.908  -4.542  -3.542  1.00  0.00     0.251 C 
ATOM     61  H   UNL     1       6.702  -3.037  -2.239  1.00  0.00     0.163 HD
ATOM     62  O   UNL     1       8.133  -4.551  -3.465  1.00  0.00    -0.269 OA
BRANCH  60  63
ATOM     63  C   UNL     1       6.237  -5.398  -4.544  1.00  0.00     0.041 A 
ATOM     64  C   UNL     1       6.681  -6.702  -4.763  1.00  0.00     0.014 A 
ATOM     65  C   UNL     1       5.238  -4.864  -5.356  1.00  0.00     0.035 A 
ATOM     66  C   UNL     1       6.095  -7.476  -5.771  1.00  0.00     0.002 A 
ATOM     67  C   UNL     1       4.691  -5.615  -6.391  1.00  0.00     0.083 A 
ATOM     68  C   UNL     1       5.102  -6.933  -6.594  1.00  0.00     0.022 A 
BRANCH  67  69
ATOM     69  S   UNL     1       3.493  -4.879  -7.474  1.00  0.00     0.240 S 
ATOM     70  O   UNL     1       4.068  -4.790  -8.793  1.00  0.00    -0.207 OA
ATOM     71  O   UNL     1       2.238  -5.548  -7.208  1.00  0.00    -0.207 OA
BRANCH  69  72
ATOM     72  N   UNL     1       3.304  -3.312  -6.854  1.00  0.00    -0.207 NA
ATOM     73  H   UNL     1       3.633  -3.340  -5.889  1.00  0.00     0.141 HD
BRANCH  72  74
ATOM     74  C   UNL     1       3.978  -2.150  -7.500  1.00  0.00     0.147 C 
BRANCH  74  75
ATOM     75  C   UNL     1       5.514  -2.232  -7.627  1.00  0.00     0.226 C 
ATOM     76  C   UNL     1       6.286  -1.654  -6.436  1.00  0.00     0.276 C 
ATOM     77  O   UNL     1       5.917  -1.577  -8.848  1.00  0.00    -0.482 OA
ATOM     78  O   UNL     1       6.039  -0.256  -6.275  1.00  0.00    -0.486 OA
ATOM     79  C   UNL     1       6.233  -0.254  -8.694  1.00  0.00     0.161 A 
ATOM     80  C   UNL     1       6.284   0.392  -7.456  1.00  0.00     0.161 A 
ATOM     81  C   UNL     1       6.533   0.452  -9.855  1.00  0.00     0.050 A 
ATOM     82  C   UNL     1       6.596   1.746  -7.379  1.00  0.00     0.050 A 
ATOM     83  C   UNL     1       6.873   1.804  -9.779  1.00  0.00     0.004 A 
ATOM     84  C   UNL     1       6.900   2.452  -8.543  1.00  0.00     0.004 A 
ENDBRANCH  74  75
ENDBRANCH  72  74
ENDBRANCH  69  72
ENDBRANCH  67  69
ENDBRANCH  60  63
ENDBRANCH  58  59
ENDBRANCH   1  58
TORSDOF 15
