REMARK SMILES CC[NH2+][C@@]1(C(=O)NCCCCNC(=O)c2ccc(-c3c4nc(c(-c5ccccc5)c5ccc([nH]5)c(-c5ccccc5)c5nc(c(-c6ccccc6)c6ccc3[nH]6)C=C5)C=C4)cc2)CCC[C@H]1CC[NH+]1CCCCC1
REMARK SMILES IDX 9 1 8 2 7 3 5 4 6 5 4 7 63 8 66 9 64 10 65 11 3 12 2 15 1 16
REMARK SMILES IDX 67 17 68 18 69 19 70 20 74 21 71 23 73 24 72 25 10 26 11 27
REMARK SMILES IDX 12 28 13 29 14 31 15 32 16 33 62 34 17 35 61 36 18 37 19 38
REMARK SMILES IDX 20 39 55 40 21 41 60 42 54 43 56 44 22 45 59 46 53 47 52 48
REMARK SMILES IDX 23 50 45 51 30 52 44 53 31 54 34 55 43 56 57 57 32 58 33 59
REMARK SMILES IDX 42 61 58 62 35 63 24 64 25 65 29 66 26 67 28 68 27 69 46 70
REMARK SMILES IDX 47 71 51 72 48 73 50 74 49 75 36 76 37 77 41 78 38 79 40 80
REMARK SMILES IDX 39 81
REMARK H PARENT 7 6 3 13 3 14 69 22 12 30 56 49 34 60
REMARK Flexibility Score: inf
ROOT
ATOM      1  C   UNL     1       0.940  -3.767   6.620  1.00  0.00     0.023 C 
ENDROOT
BRANCH   1   2
ATOM      2  C   UNL     1       0.029  -2.627   6.169  1.00  0.00     0.116 C 
BRANCH   2   3
ATOM      3  N   UNL     1       0.793  -1.556   5.577  1.00  0.00    -0.351 N 
ATOM      4  C   UNL     1       0.962  -1.113   4.306  1.00  0.00     0.281 C 
ATOM      5  O   UNL     1       1.843  -0.241   4.201  1.00  0.00    -0.268 OA
ATOM      6  H   UNL     1       1.302  -1.034   6.238  1.00  0.00     0.163 HD
BRANCH   4   7
ATOM      7  C   UNL     1       0.184  -1.642   3.001  1.00  0.00     0.178 C 
ATOM      8  C   UNL     1      -1.319  -1.865   3.266  1.00  0.00     0.079 C 
ATOM      9  C   UNL     1       0.790  -3.042   2.619  1.00  0.00     0.066 C 
ATOM     10  C   UNL     1      -1.590  -3.360   3.142  1.00  0.00     0.008 C 
ATOM     11  C   UNL     1      -0.245  -4.066   3.128  1.00  0.00     0.011 C 
BRANCH   7  12
ATOM     12  N   UNL     1       0.392  -0.519   2.061  1.00  0.00    -0.334 N 
ATOM     13  H   UNL     1       0.208   0.332   2.593  1.00  0.00     0.347 HD
ATOM     14  H   UNL     1       1.335  -0.707   1.719  1.00  0.00     0.347 HD
BRANCH  12  15
ATOM     15  C   UNL     1      -0.347  -0.388   0.826  1.00  0.00     0.257 C 
ATOM     16  C   UNL     1       0.330   0.644  -0.075  1.00  0.00     0.071 C 
ENDBRANCH  12  15
ENDBRANCH   7  12
BRANCH   9  17
ATOM     17  C   UNL     1       1.098  -3.413   1.150  1.00  0.00     0.072 C 
BRANCH  17  18
ATOM     18  C   UNL     1       2.217  -2.647   0.439  1.00  0.00     0.262 C 
BRANCH  18  19
ATOM     19  N   UNL     1       3.525  -2.699   1.112  1.00  0.00    -0.335 N 
ATOM     20  C   UNL     1       4.241  -3.936   0.754  1.00  0.00     0.262 C 
ATOM     21  C   UNL     1       4.308  -1.506   0.737  1.00  0.00     0.262 C 
ATOM     22  H   UNL     1       3.389  -2.705   2.123  1.00  0.00     0.348 HD
ATOM     23  C   UNL     1       5.642  -3.995   1.367  1.00  0.00     0.062 C 
ATOM     24  C   UNL     1       5.704  -1.504   1.354  1.00  0.00     0.062 C 
ATOM     25  C   UNL     1       6.463  -2.770   0.986  1.00  0.00     0.012 C 
ENDBRANCH  18  19
ENDBRANCH  17  18
ENDBRANCH   9  17
ENDBRANCH   4   7
ENDBRANCH   2   3
ENDBRANCH   1   2
BRANCH   1  26
ATOM     26  C   UNL     1       1.447  -3.629   8.055  1.00  0.00     0.023 C 
BRANCH  26  27
ATOM     27  C   UNL     1       0.354  -3.540   9.115  1.00  0.00     0.116 C 
BRANCH  27  28
ATOM     28  N   UNL     1      -0.606  -4.633   9.064  1.00  0.00    -0.352 N 
ATOM     29  C   UNL     1      -1.287  -5.219  10.106  1.00  0.00     0.251 C 
ATOM     30  H   UNL     1      -0.791  -4.999   8.169  1.00  0.00     0.163 HD
ATOM     31  O   UNL     1      -1.995  -6.196   9.918  1.00  0.00    -0.269 OA
BRANCH  29  32
ATOM     32  C   UNL     1      -1.113  -4.671  11.467  1.00  0.00     0.039 A 
ATOM     33  C   UNL     1      -0.811  -5.547  12.511  1.00  0.00     0.014 A 
ATOM     34  C   UNL     1      -1.201  -3.296  11.697  1.00  0.00     0.014 A 
ATOM     35  C   UNL     1      -0.540  -5.033  13.779  1.00  0.00     0.010 A 
ATOM     36  C   UNL     1      -0.842  -2.781  12.936  1.00  0.00     0.010 A 
ATOM     37  C   UNL     1      -0.522  -3.645  13.994  1.00  0.00    -0.014 A 
BRANCH  37  38
ATOM     38  C   UNL     1      -0.199  -3.084  15.328  1.00  0.00     0.031 A 
ATOM     39  C   UNL     1      -1.233  -2.296  16.085  1.00  0.00     0.074 A 
ATOM     40  C   UNL     1       1.036  -3.248  15.841  1.00  0.00     0.049 A 
ATOM     41  N   UNL     1      -1.142  -1.732  17.263  1.00  0.00    -0.248 NA
ATOM     42  C   UNL     1      -2.530  -2.089  15.420  1.00  0.00     0.031 C 
ATOM     43  C   UNL     1       2.147  -3.940  15.182  1.00  0.00     0.029 A 
ATOM     44  N   UNL     1       1.563  -2.846  17.043  1.00  0.00    -0.354 N 
ATOM     45  C   UNL     1      -2.358  -1.093  17.468  1.00  0.00     0.074 A 
ATOM     46  C   UNL     1      -3.146  -1.283  16.271  1.00  0.00     0.031 C 
ATOM     47  C   UNL     1       3.208  -3.951  16.005  1.00  0.00     0.029 A 
ATOM     48  C   UNL     1       2.864  -3.242  17.233  1.00  0.00     0.049 A 
ATOM     49  H   UNL     1       1.056  -2.323  17.705  1.00  0.00     0.167 HD
ATOM     50  C   UNL     1      -2.796  -0.432  18.566  1.00  0.00     0.031 A 
ATOM     51  C   UNL     1       3.684  -3.063  18.285  1.00  0.00     0.031 A 
ATOM     52  C   UNL     1      -2.020  -0.258  19.764  1.00  0.00     0.049 A 
ATOM     53  C   UNL     1       3.171  -2.339  19.499  1.00  0.00     0.074 A 
ATOM     54  C   UNL     1      -2.392   0.344  20.953  1.00  0.00     0.029 A 
ATOM     55  N   UNL     1      -0.712  -0.687  19.922  1.00  0.00    -0.354 N 
ATOM     56  N   UNL     1       1.989  -1.812  19.710  1.00  0.00    -0.248 NA
ATOM     57  C   UNL     1       4.102  -2.204  20.628  1.00  0.00     0.031 C 
ATOM     58  C   UNL     1      -1.291   0.319  21.816  1.00  0.00     0.029 A 
ATOM     59  C   UNL     1      -0.254  -0.348  21.184  1.00  0.00     0.049 A 
ATOM     60  H   UNL     1      -0.186  -1.163  19.239  1.00  0.00     0.167 HD
ATOM     61  C   UNL     1       2.024  -1.310  21.004  1.00  0.00     0.074 A 
ATOM     62  C   UNL     1       3.337  -1.614  21.535  1.00  0.00     0.031 C 
ATOM     63  C   UNL     1       1.057  -0.656  21.693  1.00  0.00     0.031 A 
BRANCH  50  64
ATOM     64  C   UNL     1      -4.182   0.148  18.513  1.00  0.00    -0.014 A 
ATOM     65  C   UNL     1      -5.317  -0.680  18.498  1.00  0.00     0.009 A 
ATOM     66  C   UNL     1      -4.358   1.540  18.495  1.00  0.00     0.009 A 
ATOM     67  C   UNL     1      -6.597  -0.126  18.422  1.00  0.00     0.001 A 
ATOM     68  C   UNL     1      -5.640   2.091  18.452  1.00  0.00     0.001 A 
ATOM     69  C   UNL     1      -6.757   1.258  18.404  1.00  0.00     0.000 A 
ENDBRANCH  50  64
BRANCH  51  70
ATOM     70  C   UNL     1       5.066  -3.611  18.258  1.00  0.00    -0.014 A 
ATOM     71  C   UNL     1       5.415  -4.701  19.071  1.00  0.00     0.009 A 
ATOM     72  C   UNL     1       6.045  -3.042  17.430  1.00  0.00     0.009 A 
ATOM     73  C   UNL     1       6.724  -5.189  19.080  1.00  0.00     0.001 A 
ATOM     74  C   UNL     1       7.346  -3.550  17.419  1.00  0.00     0.001 A 
ATOM     75  C   UNL     1       7.687  -4.615  18.251  1.00  0.00     0.000 A 
ENDBRANCH  51  70
BRANCH  63  76
ATOM     76  C   UNL     1       1.375  -0.259  23.108  1.00  0.00    -0.014 A 
ATOM     77  C   UNL     1       2.288   0.768  23.391  1.00  0.00     0.009 A 
ATOM     78  C   UNL     1       0.732  -0.911  24.171  1.00  0.00     0.009 A 
ATOM     79  C   UNL     1       2.582   1.105  24.714  1.00  0.00     0.001 A 
ATOM     80  C   UNL     1       1.003  -0.550  25.491  1.00  0.00     0.001 A 
ATOM     81  C   UNL     1       1.937   0.449  25.762  1.00  0.00     0.000 A 
ENDBRANCH  63  76
ENDBRANCH  37  38
ENDBRANCH  29  32
ENDBRANCH  27  28
ENDBRANCH  26  27
ENDBRANCH   1  26
TORSDOF 16
