REMARK SMILES NS(=O)(=O)c1ccc(/N=C/c2ccc(O)c(C(=O)NCCCCNC(=O)c3ccc(-c4c5nc(c(-c6ccccc6)c6ccc([nH]6)c(-c6ccccc6)c6nc(c(-c7ccccc7)c7ccc4[nH]7)C=C6)C=C5)cc3)c2)cc1
REMARK SMILES IDX 20 1 19 2 17 3 18 4 16 6 11 7 12 8 75 9 13 10 14 11 10 12
REMARK SMILES IDX 9 13 8 14 5 15 6 16 77 17 7 18 76 19 2 20 3 21 4 22 1 23
REMARK SMILES IDX 15 26 21 28 22 29 23 30 24 31 25 32 26 34 27 35 28 36 74 37
REMARK SMILES IDX 29 38 73 39 30 40 31 41 32 42 67 43 33 44 72 45 66 46 68 47
REMARK SMILES IDX 34 48 71 49 65 50 64 51 35 53 57 54 42 55 56 56 43 57 46 58
REMARK SMILES IDX 55 59 69 60 44 61 45 62 54 64 70 65 47 66 36 67 37 68 41 69
REMARK SMILES IDX 38 70 40 71 39 72 58 73 59 74 63 75 60 76 62 77 61 78 48 79
REMARK SMILES IDX 49 80 53 81 50 82 52 83 51 84
REMARK H PARENT 19 5 1 24 1 25 15 27 24 33 68 52 46 63
REMARK Flexibility Score: inf
ROOT
ATOM      1  C   UNL     1       0.750  -2.523  -9.619  1.00  0.00     0.116 C 
ENDROOT
BRANCH   1   2
ATOM      2  N   UNL     1       1.421  -2.479 -10.912  1.00  0.00    -0.352 N 
ATOM      3  C   UNL     1       2.493  -1.727 -11.345  1.00  0.00     0.255 C 
ATOM      4  O   UNL     1       2.854  -1.814 -12.520  1.00  0.00    -0.269 OA
ATOM      5  H   UNL     1       1.046  -3.087 -11.590  1.00  0.00     0.163 HD
BRANCH   3   6
ATOM      6  C   UNL     1       3.185  -0.743 -10.474  1.00  0.00     0.082 A 
ATOM      7  C   UNL     1       3.676   0.115  -8.267  1.00  0.00    -0.006 A 
ATOM      8  C   UNL     1       4.133   1.317  -8.806  1.00  0.00     0.013 A 
ATOM      9  C   UNL     1       3.305  -0.942  -9.102  1.00  0.00     0.027 A 
ATOM     10  C   UNL     1       4.169   1.466 -10.195  1.00  0.00     0.047 A 
ATOM     11  C   UNL     1       3.680   0.450 -11.021  1.00  0.00     0.128 A 
BRANCH   7  12
ATOM     12  C   UNL     1       3.381   0.002  -6.822  1.00  0.00     0.119 C 
ATOM     13  N   UNL     1       2.569  -0.923  -6.421  1.00  0.00    -0.256 NA
BRANCH  13  14
ATOM     14  C   UNL     1       2.151  -0.983  -5.088  1.00  0.00     0.063 A 
ATOM     15  C   UNL     1       1.099  -1.267  -2.509  1.00  0.00     0.082 A 
ATOM     16  C   UNL     1       1.522  -2.396  -3.209  1.00  0.00     0.024 A 
ATOM     17  C   UNL     1       1.190   0.003  -3.084  1.00  0.00     0.024 A 
ATOM     18  C   UNL     1       2.039  -2.247  -4.498  1.00  0.00     0.030 A 
ATOM     19  C   UNL     1       1.709   0.138  -4.376  1.00  0.00     0.030 A 
BRANCH  15  20
ATOM     20  S   UNL     1       0.439  -1.450  -0.880  1.00  0.00     0.238 S 
ATOM     21  O   UNL     1       0.978  -2.655  -0.285  1.00  0.00    -0.207 OA
ATOM     22  O   UNL     1      -0.970  -1.155  -0.916  1.00  0.00    -0.207 OA
BRANCH  20  23
ATOM     23  N   UNL     1       1.162  -0.191  -0.030  1.00  0.00    -0.225 NA
ATOM     24  H   UNL     1       0.843  -0.208   0.938  1.00  0.00     0.137 HD
ATOM     25  H   UNL     1       0.906   0.699  -0.458  1.00  0.00     0.137 HD
ENDBRANCH  20  23
ENDBRANCH  15  20
ENDBRANCH  13  14
ENDBRANCH   7  12
BRANCH  11  26
ATOM     26  O   UNL     1       3.694   0.700 -12.367  1.00  0.00    -0.507 OA
ATOM     27  H   UNL     1       4.035   1.512 -12.689  1.00  0.00     0.293 HD
ENDBRANCH  11  26
ENDBRANCH   3   6
ENDBRANCH   1   2
BRANCH   1  28
ATOM     28  C   UNL     1      -0.772  -2.526  -9.687  1.00  0.00     0.023 C 
BRANCH  28  29
ATOM     29  C   UNL     1      -1.423  -3.688 -10.425  1.00  0.00     0.023 C 
BRANCH  29  30
ATOM     30  C   UNL     1      -0.942  -5.083 -10.046  1.00  0.00     0.116 C 
BRANCH  30  31
ATOM     31  N   UNL     1      -1.071  -5.394  -8.631  1.00  0.00    -0.352 N 
ATOM     32  C   UNL     1      -1.654  -6.478  -8.015  1.00  0.00     0.251 C 
ATOM     33  H   UNL     1      -0.682  -4.728  -8.020  1.00  0.00     0.163 HD
ATOM     34  O   UNL     1      -1.706  -6.535  -6.790  1.00  0.00    -0.269 OA
BRANCH  32  35
ATOM     35  C   UNL     1      -2.264  -7.556  -8.824  1.00  0.00     0.039 A 
ATOM     36  C   UNL     1      -3.541  -8.010  -8.481  1.00  0.00     0.014 A 
ATOM     37  C   UNL     1      -1.601  -8.100  -9.926  1.00  0.00     0.014 A 
ATOM     38  C   UNL     1      -4.191  -8.938  -9.298  1.00  0.00     0.010 A 
ATOM     39  C   UNL     1      -2.280  -8.962 -10.784  1.00  0.00     0.010 A 
ATOM     40  C   UNL     1      -3.584  -9.384 -10.484  1.00  0.00    -0.014 A 
BRANCH  40  41
ATOM     41  C   UNL     1      -4.301 -10.276 -11.430  1.00  0.00     0.031 A 
ATOM     42  C   UNL     1      -3.776 -11.654 -11.721  1.00  0.00     0.074 A 
ATOM     43  C   UNL     1      -5.382  -9.816 -12.092  1.00  0.00     0.049 A 
ATOM     44  N   UNL     1      -4.220 -12.545 -12.571  1.00  0.00    -0.248 NA
ATOM     45  C   UNL     1      -2.575 -12.075 -10.981  1.00  0.00     0.031 C 
ATOM     46  C   UNL     1      -5.966  -8.481 -11.945  1.00  0.00     0.029 A 
ATOM     47  N   UNL     1      -6.176 -10.423 -13.034  1.00  0.00    -0.354 N 
ATOM     48  C   UNL     1      -3.341 -13.617 -12.487  1.00  0.00     0.074 A 
ATOM     49  C   UNL     1      -2.313 -13.248 -11.537  1.00  0.00     0.031 C 
ATOM     50  C   UNL     1      -7.039  -8.380 -12.746  1.00  0.00     0.029 A 
ATOM     51  C   UNL     1      -7.198  -9.625 -13.490  1.00  0.00     0.049 A 
ATOM     52  H   UNL     1      -6.028 -11.342 -13.352  1.00  0.00     0.167 HD
ATOM     53  C   UNL     1      -3.391 -14.809 -13.127  1.00  0.00     0.031 A 
ATOM     54  C   UNL     1      -8.154  -9.866 -14.406  1.00  0.00     0.031 A 
ATOM     55  C   UNL     1      -4.423 -15.189 -14.054  1.00  0.00     0.049 A 
ATOM     56  C   UNL     1      -8.199 -11.202 -15.092  1.00  0.00     0.074 A 
ATOM     57  C   UNL     1      -4.599 -16.401 -14.699  1.00  0.00     0.029 A 
ATOM     58  N   UNL     1      -5.455 -14.361 -14.467  1.00  0.00    -0.354 N 
ATOM     59  N   UNL     1      -7.401 -12.231 -14.946  1.00  0.00    -0.248 NA
ATOM     60  C   UNL     1      -9.285 -11.412 -16.060  1.00  0.00     0.031 C 
ATOM     61  C   UNL     1      -5.715 -16.292 -15.535  1.00  0.00     0.029 A 
ATOM     62  C   UNL     1      -6.260 -15.029 -15.374  1.00  0.00     0.049 A 
ATOM     63  H   UNL     1      -5.594 -13.436 -14.161  1.00  0.00     0.167 HD
ATOM     64  C   UNL     1      -7.902 -13.219 -15.784  1.00  0.00     0.074 A 
ATOM     65  C   UNL     1      -9.081 -12.670 -16.423  1.00  0.00     0.031 C 
ATOM     66  C   UNL     1      -7.428 -14.469 -16.002  1.00  0.00     0.031 A 
BRANCH  53  67
ATOM     67  C   UNL     1      -2.287 -15.789 -12.845  1.00  0.00    -0.014 A 
ATOM     68  C   UNL     1      -2.192 -16.440 -11.605  1.00  0.00     0.009 A 
ATOM     69  C   UNL     1      -1.342 -16.081 -13.840  1.00  0.00     0.009 A 
ATOM     70  C   UNL     1      -1.150 -17.334 -11.353  1.00  0.00     0.001 A 
ATOM     71  C   UNL     1      -0.316 -16.996 -13.595  1.00  0.00     0.001 A 
ATOM     72  C   UNL     1      -0.215 -17.614 -12.349  1.00  0.00     0.000 A 
ENDBRANCH  53  67
BRANCH  54  73
ATOM     73  C   UNL     1      -9.166  -8.823 -14.714  1.00  0.00    -0.014 A 
ATOM     74  C   UNL     1     -10.489  -8.966 -14.267  1.00  0.00     0.009 A 
ATOM     75  C   UNL     1      -8.818  -7.683 -15.454  1.00  0.00     0.009 A 
ATOM     76  C   UNL     1     -11.448  -7.999 -14.575  1.00  0.00     0.001 A 
ATOM     77  C   UNL     1      -9.774  -6.705 -15.738  1.00  0.00     0.001 A 
ATOM     78  C   UNL     1     -11.089  -6.867 -15.306  1.00  0.00     0.000 A 
ENDBRANCH  54  73
BRANCH  66  79
ATOM     79  C   UNL     1      -8.203 -15.340 -16.949  1.00  0.00    -0.014 A 
ATOM     80  C   UNL     1      -8.160 -15.126 -18.335  1.00  0.00     0.009 A 
ATOM     81  C   UNL     1      -8.954 -16.415 -16.447  1.00  0.00     0.009 A 
ATOM     82  C   UNL     1      -8.879 -15.954 -19.198  1.00  0.00     0.001 A 
ATOM     83  C   UNL     1      -9.651 -17.256 -17.315  1.00  0.00     0.001 A 
ATOM     84  C   UNL     1      -9.620 -17.020 -18.689  1.00  0.00     0.000 A 
ENDBRANCH  66  79
ENDBRANCH  40  41
ENDBRANCH  32  35
ENDBRANCH  30  31
ENDBRANCH  29  30
ENDBRANCH  28  29
ENDBRANCH   1  28
TORSDOF 16
