REMARK SMILES Cc1cccc(-c2ccc(Cl)c(C(=O)NCCCCNC(=O)c3ccc(-c4c5nc(c(-c6ccccc6)c6ccc([nH]6)c(-c6ccccc6)c6nc(c(-c7ccccc7)c7ccc4[nH]7)C=C6)C=C5)cc3)c2)c1
REMARK SMILES IDX 18 1 17 2 16 3 15 4 13 5 14 6 12 8 7 9 8 10 71 11 9 12 10 13
REMARK SMILES IDX 11 14 6 15 1 16 2 17 3 18 72 19 4 20 5 21 19 22 20 23 21 24
REMARK SMILES IDX 22 26 23 27 24 28 70 29 25 30 69 31 26 32 27 33 28 34 63 35
REMARK SMILES IDX 29 36 68 37 62 38 64 39 30 40 67 41 61 42 60 43 31 45 53 46
REMARK SMILES IDX 38 47 52 48 39 49 42 50 51 51 65 52 40 53 41 54 50 56 66 57
REMARK SMILES IDX 43 58 32 59 33 60 37 61 34 62 36 63 35 64 54 65 55 66 59 67
REMARK SMILES IDX 56 68 58 69 57 70 44 71 45 72 49 73 46 74 48 75 47 76
REMARK H PARENT 15 7 20 25 64 44 42 55
REMARK Flexibility Score: inf
ROOT
ATOM      1  C   UNL     1      -7.923   6.595   1.025  1.00  0.00     0.023 C 
ENDROOT
BRANCH   1   2
ATOM      2  C   UNL     1      -6.864   6.169   0.017  1.00  0.00     0.023 C 
BRANCH   2   3
ATOM      3  C   UNL     1      -5.405   6.294   0.454  1.00  0.00     0.116 C 
BRANCH   3   4
ATOM      4  N   UNL     1      -5.047   5.538   1.645  1.00  0.00    -0.352 N 
ATOM      5  C   UNL     1      -3.969   4.717   1.903  1.00  0.00     0.252 C 
ATOM      6  O   UNL     1      -3.865   4.220   3.024  1.00  0.00    -0.269 OA
ATOM      7  H   UNL     1      -5.681   5.628   2.393  1.00  0.00     0.163 HD
BRANCH   5   8
ATOM      8  C   UNL     1      -2.987   4.333   0.857  1.00  0.00     0.059 A 
ATOM      9  C   UNL     1      -1.708   2.496  -0.157  1.00  0.00    -0.017 A 
ATOM     10  C   UNL     1      -1.257   3.401  -1.131  1.00  0.00     0.010 A 
ATOM     11  C   UNL     1      -2.629   2.966   0.795  1.00  0.00     0.024 A 
ATOM     12  C   UNL     1      -1.545   4.760  -1.034  1.00  0.00     0.022 A 
ATOM     13  C   UNL     1      -2.336   5.237   0.012  1.00  0.00     0.053 A 
ATOM     14  Cl  UNL     1      -2.312   6.948   0.273  1.00  0.00    -0.083 Cl
BRANCH   9  15
ATOM     15  C   UNL     1      -1.097   1.156  -0.080  1.00  0.00    -0.018 A 
ATOM     16  C   UNL     1       2.471  -0.237   0.033  1.00  0.00     0.044 C 
ATOM     17  C   UNL     1       0.972  -0.177   0.018  1.00  0.00    -0.051 A 
ATOM     18  C   UNL     1       0.208  -1.344   0.059  1.00  0.00     0.003 A 
ATOM     19  C   UNL     1       0.311   1.055  -0.049  1.00  0.00     0.012 A 
ATOM     20  C   UNL     1      -1.187  -1.270   0.044  1.00  0.00     0.001 A 
ATOM     21  C   UNL     1      -1.837  -0.030  -0.021  1.00  0.00     0.009 A 
ENDBRANCH   9  15
ENDBRANCH   5   8
ENDBRANCH   3   4
ENDBRANCH   2   3
ENDBRANCH   1   2
BRANCH   1  22
ATOM     22  C   UNL     1      -7.858   8.037   1.510  1.00  0.00     0.116 C 
BRANCH  22  23
ATOM     23  N   UNL     1      -8.363   9.039   0.582  1.00  0.00    -0.352 N 
ATOM     24  C   UNL     1      -8.493  10.414   0.737  1.00  0.00     0.251 C 
ATOM     25  H   UNL     1      -8.658   8.689  -0.290  1.00  0.00     0.163 HD
ATOM     26  O   UNL     1      -8.991  11.075  -0.162  1.00  0.00    -0.269 OA
BRANCH  24  27
ATOM     27  C   UNL     1      -7.901  11.107   1.917  1.00  0.00     0.039 A 
ATOM     28  C   UNL     1      -7.289  12.352   1.709  1.00  0.00     0.014 A 
ATOM     29  C   UNL     1      -7.753  10.475   3.145  1.00  0.00     0.014 A 
ATOM     30  C   UNL     1      -6.316  12.800   2.601  1.00  0.00     0.010 A 
ATOM     31  C   UNL     1      -6.709  10.844   3.964  1.00  0.00     0.010 A 
ATOM     32  C   UNL     1      -5.941  11.965   3.648  1.00  0.00    -0.014 A 
BRANCH  32  33
ATOM     33  C   UNL     1      -4.678  12.075   4.365  1.00  0.00     0.031 A 
ATOM     34  C   UNL     1      -4.641  12.459   5.784  1.00  0.00     0.074 A 
ATOM     35  C   UNL     1      -3.557  11.628   3.758  1.00  0.00     0.049 A 
ATOM     36  N   UNL     1      -3.583  12.871   6.394  1.00  0.00    -0.248 NA
ATOM     37  C   UNL     1      -5.827  12.447   6.631  1.00  0.00     0.031 C 
ATOM     38  C   UNL     1      -2.279  11.284   4.373  1.00  0.00     0.029 A 
ATOM     39  N   UNL     1      -3.302  11.588   2.387  1.00  0.00    -0.354 N 
ATOM     40  C   UNL     1      -3.855  12.844   7.741  1.00  0.00     0.074 A 
ATOM     41  C   UNL     1      -5.288  12.690   7.828  1.00  0.00     0.031 C 
ATOM     42  C   UNL     1      -1.324  11.318   3.430  1.00  0.00     0.029 A 
ATOM     43  C   UNL     1      -1.928  11.852   2.221  1.00  0.00     0.049 A 
ATOM     44  H   UNL     1      -3.956  11.410   1.673  1.00  0.00     0.167 HD
ATOM     45  C   UNL     1      -2.819  12.797   8.628  1.00  0.00     0.031 A 
ATOM     46  C   UNL     1      -1.528  12.998   1.593  1.00  0.00     0.031 A 
ATOM     47  C   UNL     1      -1.517  12.941   7.966  1.00  0.00     0.049 A 
ATOM     48  C   UNL     1      -0.779  13.977   2.481  1.00  0.00     0.074 A 
ATOM     49  C   UNL     1      -0.464  12.084   7.691  1.00  0.00     0.029 A 
ATOM     50  N   UNL     1      -1.278  14.083   7.215  1.00  0.00    -0.354 N 
ATOM     51  N   UNL     1      -0.542  13.799   3.751  1.00  0.00    -0.248 NA
ATOM     52  C   UNL     1      -0.325  15.289   2.015  1.00  0.00     0.031 C 
ATOM     53  C   UNL     1       0.404  12.726   6.758  1.00  0.00     0.029 A 
ATOM     54  C   UNL     1      -0.114  13.976   6.480  1.00  0.00     0.049 A 
ATOM     55  H   UNL     1      -1.866  14.872   7.207  1.00  0.00     0.167 HD
ATOM     56  C   UNL     1       0.005  14.937   4.280  1.00  0.00     0.074 A 
ATOM     57  C   UNL     1       0.134  15.840   3.152  1.00  0.00     0.031 C 
ATOM     58  C   UNL     1       0.267  15.079   5.612  1.00  0.00     0.031 A 
BRANCH  45  59
ATOM     59  C   UNL     1      -2.978  12.369  10.071  1.00  0.00    -0.014 A 
ATOM     60  C   UNL     1      -1.870  11.857  10.771  1.00  0.00     0.009 A 
ATOM     61  C   UNL     1      -4.189  12.385  10.785  1.00  0.00     0.009 A 
ATOM     62  C   UNL     1      -1.987  11.306  12.056  1.00  0.00     0.001 A 
ATOM     63  C   UNL     1      -4.325  11.806  12.054  1.00  0.00     0.001 A 
ATOM     64  C   UNL     1      -3.223  11.253  12.686  1.00  0.00     0.000 A 
ENDBRANCH  45  59
BRANCH  46  65
ATOM     65  C   UNL     1      -2.435  13.389   0.475  1.00  0.00    -0.014 A 
ATOM     66  C   UNL     1      -2.490  12.554  -0.660  1.00  0.00     0.009 A 
ATOM     67  C   UNL     1      -3.473  14.308   0.681  1.00  0.00     0.009 A 
ATOM     68  C   UNL     1      -3.611  12.555  -1.495  1.00  0.00     0.001 A 
ATOM     69  C   UNL     1      -4.588  14.313  -0.167  1.00  0.00     0.001 A 
ATOM     70  C   UNL     1      -4.674  13.413  -1.228  1.00  0.00     0.000 A 
ENDBRANCH  46  65
BRANCH  58  71
ATOM     71  C   UNL     1       0.881  16.311   6.218  1.00  0.00    -0.014 A 
ATOM     72  C   UNL     1       1.931  17.011   5.608  1.00  0.00     0.009 A 
ATOM     73  C   UNL     1       0.494  16.735   7.507  1.00  0.00     0.009 A 
ATOM     74  C   UNL     1       2.522  18.119   6.230  1.00  0.00     0.001 A 
ATOM     75  C   UNL     1       1.097  17.823   8.141  1.00  0.00     0.001 A 
ATOM     76  C   UNL     1       2.105  18.524   7.495  1.00  0.00     0.000 A 
ENDBRANCH  58  71
ENDBRANCH  32  33
ENDBRANCH  24  27
ENDBRANCH  22  23
ENDBRANCH   1  22
TORSDOF 12
