REMARK SMILES O=C(NCCCCNC(=O)c1cccc2cccc(C(=O)NC3COC3)c12)c1ccc(-c2c3nc(c(-c4ccccc4)c4ccc([nH]4)c(-c4ccccc4)c4nc(c(-c5ccccc5)c5ccc2[nH]5)C=C4)C=C3)cc1
REMARK SMILES IDX 5 1 4 2 3 3 1 4 2 5 28 7 29 8 75 9 30 10 74 11 31 12 32 13
REMARK SMILES IDX 33 14 68 15 34 16 73 17 67 18 69 19 35 20 72 21 66 22 65 23
REMARK SMILES IDX 36 25 58 26 43 27 57 28 44 29 47 30 56 31 70 32 45 33 46 34
REMARK SMILES IDX 55 36 71 37 48 38 37 39 38 40 42 41 39 42 41 43 40 44 59 45
REMARK SMILES IDX 60 46 64 47 61 48 63 49 62 50 49 51 50 52 54 53 51 54 53 55
REMARK SMILES IDX 52 56 6 57 7 58 8 59 9 60 10 62 11 63 12 64 27 65 13 66
REMARK SMILES IDX 15 67 19 68 14 69 16 70 18 71 17 72 20 73 21 74 22 75 23 77
REMARK SMILES IDX 24 78 26 79 25 80
REMARK H PARENT 3 6 69 24 47 35 8 61 22 76
REMARK Flexibility Score: inf
ROOT
ATOM      1  C   UNL     1       4.643  -2.379   0.603  1.00  0.00     0.023 C 
ENDROOT
BRANCH   1   2
ATOM      2  C   UNL     1       4.289  -1.276  -0.382  1.00  0.00     0.116 C 
BRANCH   2   3
ATOM      3  N   UNL     1       2.865  -0.981  -0.440  1.00  0.00    -0.352 N 
ATOM      4  O   UNL     1       0.984   0.249  -0.254  1.00  0.00    -0.269 OA
ATOM      5  C   UNL     1       2.208   0.222  -0.297  1.00  0.00     0.251 C 
ATOM      6  H   UNL     1       2.283  -1.758  -0.607  1.00  0.00     0.163 HD
BRANCH   5   7
ATOM      7  C   UNL     1       2.975   1.485  -0.180  1.00  0.00     0.039 A 
ATOM      8  C   UNL     1       4.107   1.708  -0.963  1.00  0.00     0.014 A 
ATOM      9  C   UNL     1       2.539   2.475   0.708  1.00  0.00     0.014 A 
ATOM     10  C   UNL     1       4.887   2.837  -0.752  1.00  0.00     0.010 A 
ATOM     11  C   UNL     1       3.262   3.666   0.837  1.00  0.00     0.010 A 
ATOM     12  C   UNL     1       4.454   3.849   0.120  1.00  0.00    -0.014 A 
BRANCH  12  13
ATOM     13  C   UNL     1       5.210   5.126   0.166  1.00  0.00     0.031 A 
ATOM     14  C   UNL     1       5.878   5.603   1.423  1.00  0.00     0.074 A 
ATOM     15  C   UNL     1       5.307   5.846  -0.970  1.00  0.00     0.049 A 
ATOM     16  N   UNL     1       6.591   6.686   1.613  1.00  0.00    -0.248 NA
ATOM     17  C   UNL     1       5.725   4.767   2.623  1.00  0.00     0.031 C 
ATOM     18  C   UNL     1       4.695   5.483  -2.252  1.00  0.00     0.029 A 
ATOM     19  N   UNL     1       5.972   7.013  -1.242  1.00  0.00    -0.354 N 
ATOM     20  C   UNL     1       6.953   6.674   2.954  1.00  0.00     0.074 A 
ATOM     21  C   UNL     1       6.361   5.488   3.538  1.00  0.00     0.031 C 
ATOM     22  C   UNL     1       5.064   6.370  -3.185  1.00  0.00     0.029 A 
ATOM     23  C   UNL     1       5.863   7.411  -2.552  1.00  0.00     0.049 A 
ATOM     24  H   UNL     1       6.478   7.518  -0.564  1.00  0.00     0.167 HD
ATOM     25  C   UNL     1       7.710   7.570   3.633  1.00  0.00     0.031 A 
ATOM     26  C   UNL     1       6.329   8.506  -3.178  1.00  0.00     0.031 A 
ATOM     27  C   UNL     1       8.283   8.755   3.045  1.00  0.00     0.049 A 
ATOM     28  C   UNL     1       7.117   9.506  -2.388  1.00  0.00     0.074 A 
ATOM     29  C   UNL     1       9.086   9.712   3.641  1.00  0.00     0.029 A 
ATOM     30  N   UNL     1       8.104   9.150   1.727  1.00  0.00    -0.354 N 
ATOM     31  N   UNL     1       7.479   9.462  -1.129  1.00  0.00    -0.248 NA
ATOM     32  C   UNL     1       7.559  10.709  -3.105  1.00  0.00     0.031 C 
ATOM     33  C   UNL     1       9.338  10.719   2.703  1.00  0.00     0.029 A 
ATOM     34  C   UNL     1       8.753  10.354   1.501  1.00  0.00     0.049 A 
ATOM     35  H   UNL     1       7.592   8.650   1.052  1.00  0.00     0.167 HD
ATOM     36  C   UNL     1       8.207  10.621  -0.905  1.00  0.00     0.074 A 
ATOM     37  C   UNL     1       8.256  11.333  -2.167  1.00  0.00     0.031 C 
ATOM     38  C   UNL     1       8.782  11.056   0.242  1.00  0.00     0.031 A 
BRANCH  25  39
ATOM     39  C   UNL     1       7.929   7.326   5.103  1.00  0.00    -0.014 A 
ATOM     40  C   UNL     1       8.726   6.266   5.563  1.00  0.00     0.009 A 
ATOM     41  C   UNL     1       7.356   8.197   6.045  1.00  0.00     0.009 A 
ATOM     42  C   UNL     1       8.911   6.060   6.933  1.00  0.00     0.001 A 
ATOM     43  C   UNL     1       7.568   8.007   7.412  1.00  0.00     0.001 A 
ATOM     44  C   UNL     1       8.336   6.933   7.856  1.00  0.00     0.000 A 
ENDBRANCH  25  39
BRANCH  26  45
ATOM     45  C   UNL     1       6.034   8.717  -4.619  1.00  0.00    -0.014 A 
ATOM     46  C   UNL     1       7.059   8.667  -5.576  1.00  0.00     0.009 A 
ATOM     47  C   UNL     1       4.717   8.951  -5.048  1.00  0.00     0.009 A 
ATOM     48  C   UNL     1       6.773   8.870  -6.928  1.00  0.00     0.001 A 
ATOM     49  C   UNL     1       4.429   9.117  -6.403  1.00  0.00     0.001 A 
ATOM     50  C   UNL     1       5.459   9.087  -7.341  1.00  0.00     0.000 A 
ENDBRANCH  26  45
BRANCH  38  51
ATOM     51  C   UNL     1       9.541  12.352   0.171  1.00  0.00    -0.014 A 
ATOM     52  C   UNL     1       8.880  13.580   0.011  1.00  0.00     0.009 A 
ATOM     53  C   UNL     1      10.940  12.343   0.289  1.00  0.00     0.009 A 
ATOM     54  C   UNL     1       9.609  14.768  -0.070  1.00  0.00     0.001 A 
ATOM     55  C   UNL     1      11.663  13.535   0.243  1.00  0.00     0.001 A 
ATOM     56  C   UNL     1      10.998  14.745   0.052  1.00  0.00     0.000 A 
ENDBRANCH  38  51
ENDBRANCH  12  13
ENDBRANCH   5   7
ENDBRANCH   2   3
ENDBRANCH   1   2
BRANCH   1  57
ATOM     57  C   UNL     1       4.111  -3.765   0.260  1.00  0.00     0.023 C 
BRANCH  57  58
ATOM     58  C   UNL     1       4.577  -4.386  -1.060  1.00  0.00     0.116 C 
BRANCH  58  59
ATOM     59  N   UNL     1       6.025  -4.522  -1.238  1.00  0.00    -0.352 N 
ATOM     60  C   UNL     1       6.876  -5.619  -1.234  1.00  0.00     0.251 C 
ATOM     61  H   UNL     1       6.485  -3.666  -1.391  1.00  0.00     0.163 HD
ATOM     62  O   UNL     1       8.067  -5.448  -1.467  1.00  0.00    -0.269 OA
BRANCH  60  63
ATOM     63  C   UNL     1       6.365  -6.982  -0.963  1.00  0.00     0.048 A 
ATOM     64  C   UNL     1       5.302  -7.366  -1.804  1.00  0.00     0.014 A 
ATOM     65  C   UNL     1       6.908  -7.883   0.038  1.00  0.00     0.007 A 
ATOM     66  C   UNL     1       4.622  -8.549  -1.596  1.00  0.00     0.001 A 
ATOM     67  C   UNL     1       6.171  -9.102   0.195  1.00  0.00    -0.017 A 
ATOM     68  C   UNL     1       8.064  -7.774   0.906  1.00  0.00     0.048 A 
ATOM     69  C   UNL     1       5.044  -9.394  -0.586  1.00  0.00     0.009 A 
ATOM     70  C   UNL     1       6.535 -10.086   1.128  1.00  0.00     0.009 A 
ATOM     71  C   UNL     1       8.419  -8.808   1.808  1.00  0.00     0.014 A 
ATOM     72  C   UNL     1       7.655  -9.951   1.928  1.00  0.00     0.001 A 
BRANCH  68  73
ATOM     73  C   UNL     1       9.068  -6.685   0.978  1.00  0.00     0.252 C 
ATOM     74  O   UNL     1      10.240  -6.935   0.699  1.00  0.00    -0.269 OA
ATOM     75  N   UNL     1       8.765  -5.501   1.611  1.00  0.00    -0.345 N 
ATOM     76  H   UNL     1       9.530  -4.998   1.973  1.00  0.00     0.164 HD
BRANCH  75  77
ATOM     77  C   UNL     1       7.451  -4.897   1.811  1.00  0.00     0.134 C 
ATOM     78  C   UNL     1       6.377  -5.674   2.571  1.00  0.00     0.187 C 
ATOM     79  C   UNL     1       7.295  -3.880   2.939  1.00  0.00     0.187 C 
ATOM     80  O   UNL     1       6.029  -4.483   3.330  1.00  0.00    -0.377 OA
ENDBRANCH  75  77
ENDBRANCH  68  73
ENDBRANCH  60  63
ENDBRANCH  58  59
ENDBRANCH  57  58
ENDBRANCH   1  57
TORSDOF 13
