REMARK SMILES Cc1ccc(S(=O)(=O)n2cc(C(=O)C(=O)NCC(=O)NCCCCNC(=O)c3ccc(-c4c5nc(c(-c6ccccc6)c6ccc([nH]6)c(-c6ccccc6)c6nc(c(-c7ccccc7)c7ccc4[nH]7)C=C6)C=C5)cc3)c3ccccc32)cc1
REMARK SMILES IDX 21 1 20 2 18 3 19 4 17 6 16 7 14 8 15 9 12 11 13 12 11 13
REMARK SMILES IDX 9 14 10 15 81 16 76 17 80 18 77 19 79 20 78 21 6 22 7 23
REMARK SMILES IDX 8 24 5 25 1 26 2 27 3 28 83 29 4 30 82 31 22 32 23 33 24 34
REMARK SMILES IDX 25 35 26 36 27 38 28 39 29 40 75 41 30 42 74 43 31 44 32 45
REMARK SMILES IDX 33 46 68 47 34 48 73 49 67 50 69 51 35 52 72 53 66 54 65 55
REMARK SMILES IDX 36 57 58 58 43 59 57 60 44 61 47 62 56 63 70 64 45 65 46 66
REMARK SMILES IDX 55 68 71 69 48 70 37 71 38 72 42 73 39 74 41 75 40 76 59 77
REMARK SMILES IDX 60 78 64 79 61 80 63 81 62 82 49 83 50 84 54 85 51 86 53 87
REMARK SMILES IDX 52 88
REMARK H PARENT 20 5 16 10 25 37 69 56 47 67
REMARK Flexibility Score: inf
ROOT
ATOM      1  C   UNL     1      -9.340   4.763   0.974  1.00  0.00     0.116 C 
ENDROOT
BRANCH   1   2
ATOM      2  N   UNL     1      -9.878   5.783   1.851  1.00  0.00    -0.355 N 
ATOM      3  C   UNL     1      -9.259   6.508   2.828  1.00  0.00     0.239 C 
ATOM      4  O   UNL     1      -9.914   7.385   3.397  1.00  0.00    -0.273 OA
ATOM      5  H   UNL     1     -10.834   5.983   1.724  1.00  0.00     0.163 HD
BRANCH   3   6
ATOM      6  C   UNL     1      -7.763   6.332   3.108  1.00  0.00     0.216 C 
BRANCH   6   7
ATOM      7  N   UNL     1      -7.380   4.963   3.434  1.00  0.00    -0.340 N 
ATOM      8  C   UNL     1      -6.479   4.102   2.846  1.00  0.00     0.292 C 
ATOM      9  O   UNL     1      -6.341   2.985   3.334  1.00  0.00    -0.265 OA
ATOM     10  H   UNL     1      -7.850   4.586   4.213  1.00  0.00     0.164 HD
BRANCH   8  11
ATOM     11  C   UNL     1      -5.684   4.507   1.576  1.00  0.00     0.252 C 
ATOM     12  O   UNL     1      -5.596   5.700   1.303  1.00  0.00    -0.283 OA
BRANCH  11  13
ATOM     13  C   UNL     1      -5.058   3.506   0.696  1.00  0.00     0.054 A 
ATOM     14  N   UNL     1      -4.172   1.613  -0.100  1.00  0.00    -0.240 N 
ATOM     15  C   UNL     1      -4.850   2.163   0.960  1.00  0.00     0.117 A 
ATOM     16  C   UNL     1      -3.951   2.546  -1.089  1.00  0.00     0.065 A 
ATOM     17  C   UNL     1      -4.497   3.746  -0.612  1.00  0.00     0.012 A 
ATOM     18  C   UNL     1      -3.294   2.468  -2.331  1.00  0.00     0.028 A 
ATOM     19  C   UNL     1      -4.391   4.897  -1.427  1.00  0.00     0.011 A 
ATOM     20  C   UNL     1      -3.182   3.631  -3.096  1.00  0.00     0.002 A 
ATOM     21  C   UNL     1      -3.728   4.830  -2.655  1.00  0.00     0.001 A 
BRANCH  14  22
ATOM     22  S   UNL     1      -3.588   0.012  -0.107  1.00  0.00     0.268 S 
ATOM     23  O   UNL     1      -3.930  -0.504  -1.428  1.00  0.00    -0.201 OA
ATOM     24  O   UNL     1      -4.083  -0.597   1.103  1.00  0.00    -0.201 OA
BRANCH  22  25
ATOM     25  C   UNL     1      -1.818   0.069   0.006  1.00  0.00     0.088 A 
ATOM     26  C   UNL     1       2.484  -0.042   0.022  1.00  0.00     0.044 C 
ATOM     27  C   UNL     1       0.984   0.002   0.038  1.00  0.00    -0.051 A 
ATOM     28  C   UNL     1       0.251  -1.188  -0.040  1.00  0.00     0.005 A 
ATOM     29  C   UNL     1       0.301   1.220   0.131  1.00  0.00     0.005 A 
ATOM     30  C   UNL     1      -1.145  -1.157  -0.061  1.00  0.00     0.022 A 
ATOM     31  C   UNL     1      -1.097   1.258   0.127  1.00  0.00     0.022 A 
ENDBRANCH  22  25
ENDBRANCH  14  22
ENDBRANCH  11  13
ENDBRANCH   8  11
ENDBRANCH   6   7
ENDBRANCH   3   6
ENDBRANCH   1   2
BRANCH   1  32
ATOM     32  C   UNL     1      -9.668   3.347   1.458  1.00  0.00     0.023 C 
BRANCH  32  33
ATOM     33  C   UNL     1     -11.159   3.018   1.480  1.00  0.00     0.023 C 
BRANCH  33  34
ATOM     34  C   UNL     1     -11.812   2.960   0.109  1.00  0.00     0.116 C 
BRANCH  34  35
ATOM     35  N   UNL     1     -11.649   1.690  -0.588  1.00  0.00    -0.352 N 
ATOM     36  C   UNL     1     -12.218   1.238  -1.769  1.00  0.00     0.251 C 
ATOM     37  H   UNL     1     -11.040   1.052  -0.150  1.00  0.00     0.163 HD
ATOM     38  O   UNL     1     -12.015   0.083  -2.134  1.00  0.00    -0.269 OA
BRANCH  36  39
ATOM     39  C   UNL     1     -12.891   2.189  -2.693  1.00  0.00     0.039 A 
ATOM     40  C   UNL     1     -12.531   2.084  -4.044  1.00  0.00     0.014 A 
ATOM     41  C   UNL     1     -13.443   3.366  -2.212  1.00  0.00     0.014 A 
ATOM     42  C   UNL     1     -12.351   3.243  -4.779  1.00  0.00     0.010 A 
ATOM     43  C   UNL     1     -13.106   4.523  -2.859  1.00  0.00     0.010 A 
ATOM     44  C   UNL     1     -12.486   4.448  -4.106  1.00  0.00    -0.014 A 
BRANCH  44  45
ATOM     45  C   UNL     1     -12.061   5.724  -4.626  1.00  0.00     0.031 A 
ATOM     46  C   UNL     1     -13.090   6.542  -5.270  1.00  0.00     0.074 A 
ATOM     47  C   UNL     1     -10.816   6.155  -4.329  1.00  0.00     0.049 A 
ATOM     48  N   UNL     1     -12.843   7.535  -6.037  1.00  0.00    -0.248 NA
ATOM     49  C   UNL     1     -14.518   6.253  -5.139  1.00  0.00     0.031 C 
ATOM     50  C   UNL     1     -10.254   7.496  -4.433  1.00  0.00     0.029 A 
ATOM     51  N   UNL     1      -9.713   5.346  -4.055  1.00  0.00    -0.354 N 
ATOM     52  C   UNL     1     -14.031   8.203  -6.223  1.00  0.00     0.074 A 
ATOM     53  C   UNL     1     -15.056   7.309  -5.753  1.00  0.00     0.031 C 
ATOM     54  C   UNL     1      -8.913   7.399  -4.508  1.00  0.00     0.029 A 
ATOM     55  C   UNL     1      -8.595   5.984  -4.624  1.00  0.00     0.049 A 
ATOM     56  H   UNL     1      -9.716   4.495  -3.559  1.00  0.00     0.167 HD
ATOM     57  C   UNL     1     -13.971   9.507  -6.601  1.00  0.00     0.031 A 
ATOM     58  C   UNL     1      -7.981   5.414  -5.706  1.00  0.00     0.031 A 
ATOM     59  C   UNL     1     -12.586   9.884  -6.887  1.00  0.00     0.049 A 
ATOM     60  C   UNL     1      -8.121   6.256  -6.961  1.00  0.00     0.074 A 
ATOM     61  C   UNL     1     -11.614  10.530  -6.142  1.00  0.00     0.029 A 
ATOM     62  N   UNL     1     -11.920   9.217  -7.907  1.00  0.00    -0.354 N 
ATOM     63  N   UNL     1      -9.050   7.156  -7.155  1.00  0.00    -0.248 NA
ATOM     64  C   UNL     1      -7.202   6.159  -8.087  1.00  0.00     0.031 C 
ATOM     65  C   UNL     1     -10.346  10.197  -6.700  1.00  0.00     0.029 A 
ATOM     66  C   UNL     1     -10.553   9.382  -7.801  1.00  0.00     0.049 A 
ATOM     67  H   UNL     1     -12.364   8.694  -8.614  1.00  0.00     0.167 HD
ATOM     68  C   UNL     1      -8.855   7.779  -8.366  1.00  0.00     0.074 A 
ATOM     69  C   UNL     1      -7.687   7.106  -8.909  1.00  0.00     0.031 C 
ATOM     70  C   UNL     1      -9.671   8.789  -8.806  1.00  0.00     0.031 A 
BRANCH  57  71
ATOM     71  C   UNL     1     -15.099  10.493  -6.446  1.00  0.00    -0.014 A 
ATOM     72  C   UNL     1     -14.797  11.867  -6.429  1.00  0.00     0.009 A 
ATOM     73  C   UNL     1     -16.451  10.160  -6.253  1.00  0.00     0.009 A 
ATOM     74  C   UNL     1     -15.772  12.842  -6.183  1.00  0.00     0.001 A 
ATOM     75  C   UNL     1     -17.431  11.128  -5.989  1.00  0.00     0.001 A 
ATOM     76  C   UNL     1     -17.089  12.471  -5.948  1.00  0.00     0.000 A 
ENDBRANCH  57  71
BRANCH  58  77
ATOM     77  C   UNL     1      -8.008   3.915  -5.649  1.00  0.00    -0.014 A 
ATOM     78  C   UNL     1      -7.393   3.293  -4.537  1.00  0.00     0.009 A 
ATOM     79  C   UNL     1      -8.962   3.185  -6.371  1.00  0.00     0.009 A 
ATOM     80  C   UNL     1      -7.865   2.072  -4.044  1.00  0.00     0.001 A 
ATOM     81  C   UNL     1      -9.401   1.940  -5.895  1.00  0.00     0.001 A 
ATOM     82  C   UNL     1      -8.900   1.416  -4.702  1.00  0.00     0.000 A 
ENDBRANCH  58  77
BRANCH  70  83
ATOM     83  C   UNL     1      -9.746   9.372 -10.213  1.00  0.00    -0.014 A 
ATOM     84  C   UNL     1      -8.948   8.995 -11.295  1.00  0.00     0.009 A 
ATOM     85  C   UNL     1     -10.751  10.331 -10.507  1.00  0.00     0.009 A 
ATOM     86  C   UNL     1      -9.142   9.526 -12.581  1.00  0.00     0.001 A 
ATOM     87  C   UNL     1     -10.983  10.829 -11.791  1.00  0.00     0.001 A 
ATOM     88  C   UNL     1     -10.170  10.427 -12.833  1.00  0.00     0.000 A 
ENDBRANCH  70  83
ENDBRANCH  44  45
ENDBRANCH  36  39
ENDBRANCH  34  35
ENDBRANCH  33  34
ENDBRANCH  32  33
ENDBRANCH   1  32
TORSDOF 16
