REMARK SMILES O=C(NCCCCNC(=O)c1cc(NS(=O)(=O)c2ccc3c(c2)OCCCO3)ccc1N1CCSCC1)c1ccc(-c2c3nc(c(-c4ccccc4)c4ccc([nH]4)c(-c4ccccc4)c4nc(c(-c5ccccc5)c5ccc2[nH]5)C=C4)C=C3)cc1
REMARK SMILES IDX 8 1 9 2 10 3 7 5 6 6 5 7 4 8 3 9 1 10 2 11 38 13 39 14 85 15
REMARK SMILES IDX 40 16 84 17 41 18 42 19 43 20 78 21 44 22 83 23 77 24 79 25
REMARK SMILES IDX 45 26 82 27 76 28 75 29 46 31 68 32 53 33 67 34 54 35 57 36
REMARK SMILES IDX 66 37 80 38 55 39 56 40 65 42 81 43 58 44 47 45 48 46 52 47
REMARK SMILES IDX 49 48 51 49 50 50 69 51 70 52 74 53 71 54 73 55 72 56 59 57
REMARK SMILES IDX 60 58 64 59 61 60 63 61 62 62 11 63 12 64 31 65 13 66 30 67
REMARK SMILES IDX 29 68 32 69 33 70 37 71 34 72 36 73 35 74 14 75 15 77 16 78
REMARK SMILES IDX 17 79 18 80 19 81 23 82 20 83 22 84 21 85 24 86 25 87 28 89
REMARK SMILES IDX 27 90 26 91
REMARK H PARENT 8 4 3 12 79 30 57 41 14 76
REMARK Flexibility Score: 80.00
ROOT
ATOM      1  N   UNL     1       5.197  -4.315  -0.064  1.00  0.00    -0.352 N 
ATOM      2  C   UNL     1       5.657  -5.530   0.331  1.00  0.00     0.253 C 
ATOM      3  O   UNL     1       6.544  -5.555   1.182  1.00  0.00    -0.269 OA
ATOM      4  H   UNL     1       5.803  -3.679  -0.509  1.00  0.00     0.163 HD
ENDROOT
BRANCH   1   5
ATOM      5  C   UNL     1       3.828  -3.959   0.170  1.00  0.00     0.116 C 
BRANCH   5   6
ATOM      6  C   UNL     1       3.684  -3.246   1.512  1.00  0.00     0.023 C 
BRANCH   6   7
ATOM      7  C   UNL     1       4.444  -1.921   1.592  1.00  0.00     0.023 C 
BRANCH   7   8
ATOM      8  C   UNL     1       4.268  -1.024   0.374  1.00  0.00     0.116 C 
BRANCH   8   9
ATOM      9  N   UNL     1       2.867  -0.870  -0.007  1.00  0.00    -0.352 N 
ATOM     10  O   UNL     1       0.922   0.226  -0.356  1.00  0.00    -0.269 OA
ATOM     11  C   UNL     1       2.131   0.271  -0.158  1.00  0.00     0.251 C 
ATOM     12  H   UNL     1       2.383  -1.710  -0.181  1.00  0.00     0.163 HD
BRANCH  11  13
ATOM     13  C   UNL     1       2.829   1.554  -0.040  1.00  0.00     0.039 A 
ATOM     14  C   UNL     1       3.983   1.777  -0.794  1.00  0.00     0.014 A 
ATOM     15  C   UNL     1       2.376   2.484   0.895  1.00  0.00     0.014 A 
ATOM     16  C   UNL     1       4.769   2.878  -0.507  1.00  0.00     0.010 A 
ATOM     17  C   UNL     1       3.118   3.640   1.110  1.00  0.00     0.010 A 
ATOM     18  C   UNL     1       4.331   3.829   0.429  1.00  0.00    -0.014 A 
BRANCH  18  19
ATOM     19  C   UNL     1       5.118   5.065   0.613  1.00  0.00     0.031 A 
ATOM     20  C   UNL     1       5.784   5.377   1.918  1.00  0.00     0.074 A 
ATOM     21  C   UNL     1       5.228   5.896  -0.440  1.00  0.00     0.049 A 
ATOM     22  N   UNL     1       6.499   6.424   2.241  1.00  0.00    -0.248 NA
ATOM     23  C   UNL     1       5.621   4.399   3.005  1.00  0.00     0.031 C 
ATOM     24  C   UNL     1       4.615   5.675  -1.755  1.00  0.00     0.029 A 
ATOM     25  N   UNL     1       5.907   7.074  -0.583  1.00  0.00    -0.354 N 
ATOM     26  C   UNL     1       6.848   6.247   3.573  1.00  0.00     0.074 A 
ATOM     27  C   UNL     1       6.253   5.000   4.004  1.00  0.00     0.031 C 
ATOM     28  C   UNL     1       4.996   6.653  -2.586  1.00  0.00     0.029 A 
ATOM     29  C   UNL     1       5.809   7.606  -1.844  1.00  0.00     0.049 A 
ATOM     30  H   UNL     1       6.415   7.497   0.146  1.00  0.00     0.167 HD
ATOM     31  C   UNL     1       7.595   7.058   4.359  1.00  0.00     0.031 A 
ATOM     32  C   UNL     1       6.302   8.751  -2.345  1.00  0.00     0.031 A 
ATOM     33  C   UNL     1       8.176   8.298   3.912  1.00  0.00     0.049 A 
ATOM     34  C   UNL     1       7.095   9.643  -1.442  1.00  0.00     0.074 A 
ATOM     35  C   UNL     1       8.973   9.182   4.617  1.00  0.00     0.029 A 
ATOM     36  N   UNL     1       8.017   8.830   2.640  1.00  0.00    -0.354 N 
ATOM     37  N   UNL     1       7.432   9.456  -0.189  1.00  0.00    -0.248 NA
ATOM     38  C   UNL     1       7.570  10.904  -2.020  1.00  0.00     0.031 C 
ATOM     39  C   UNL     1       9.254  10.274   3.787  1.00  0.00     0.029 A 
ATOM     40  C   UNL     1       8.678  10.044   2.547  1.00  0.00     0.049 A 
ATOM     41  H   UNL     1       7.510   8.406   1.910  1.00  0.00     0.167 HD
ATOM     42  C   UNL     1       8.168  10.572   0.173  1.00  0.00     0.074 A 
ATOM     43  C   UNL     1       8.248  11.419  -1.003  1.00  0.00     0.031 C 
ATOM     44  C   UNL     1       8.727  10.873   1.370  1.00  0.00     0.031 A 
BRANCH  31  45
ATOM     45  C   UNL     1       7.787   6.649   5.793  1.00  0.00    -0.014 A 
ATOM     46  C   UNL     1       8.605   5.563   6.145  1.00  0.00     0.009 A 
ATOM     47  C   UNL     1       7.160   7.382   6.814  1.00  0.00     0.009 A 
ATOM     48  C   UNL     1       8.760   5.199   7.485  1.00  0.00     0.001 A 
ATOM     49  C   UNL     1       7.338   7.032   8.154  1.00  0.00     0.001 A 
ATOM     50  C   UNL     1       8.130   5.935   8.488  1.00  0.00     0.000 A 
ENDBRANCH  31  45
BRANCH  32  51
ATOM     51  C   UNL     1       6.036   9.103  -3.760  1.00  0.00    -0.014 A 
ATOM     52  C   UNL     1       7.065   9.055  -4.711  1.00  0.00     0.009 A 
ATOM     53  C   UNL     1       4.737   9.436  -4.179  1.00  0.00     0.009 A 
ATOM     54  C   UNL     1       6.801   9.345  -6.051  1.00  0.00     0.001 A 
ATOM     55  C   UNL     1       4.470   9.695  -5.523  1.00  0.00     0.001 A 
ATOM     56  C   UNL     1       5.504   9.657  -6.457  1.00  0.00     0.000 A 
ENDBRANCH  32  51
BRANCH  44  57
ATOM     57  C   UNL     1       9.488  12.165   1.449  1.00  0.00    -0.014 A 
ATOM     58  C   UNL     1       8.820  13.399   1.469  1.00  0.00     0.009 A 
ATOM     59  C   UNL     1      10.889  12.142   1.519  1.00  0.00     0.009 A 
ATOM     60  C   UNL     1       9.546  14.590   1.522  1.00  0.00     0.001 A 
ATOM     61  C   UNL     1      11.610  13.333   1.600  1.00  0.00     0.001 A 
ATOM     62  C   UNL     1      10.939  14.556   1.591  1.00  0.00     0.000 A 
ENDBRANCH  44  57
ENDBRANCH  18  19
ENDBRANCH  11  13
ENDBRANCH   8   9
ENDBRANCH   7   8
ENDBRANCH   6   7
ENDBRANCH   5   6
ENDBRANCH   1   5
BRANCH   2  63
ATOM     63  C   UNL     1       5.103  -6.788  -0.245  1.00  0.00     0.065 A 
ATOM     64  C   UNL     1       5.313  -7.884   0.617  1.00  0.00     0.042 A 
ATOM     65  C   UNL     1       4.659  -7.004  -1.571  1.00  0.00     0.050 A 
ATOM     66  C   UNL     1       5.306  -9.185   0.139  1.00  0.00     0.050 A 
ATOM     67  C   UNL     1       4.580  -8.350  -2.001  1.00  0.00     0.029 A 
ATOM     68  C   UNL     1       4.947  -9.428  -1.181  1.00  0.00     0.029 A 
BRANCH  65  69
ATOM     69  N   UNL     1       4.308  -6.053  -2.524  1.00  0.00    -0.369 N 
ATOM     70  C   UNL     1       5.316  -5.163  -3.112  1.00  0.00     0.127 C 
ATOM     71  C   UNL     1       2.890  -5.672  -2.615  1.00  0.00     0.127 C 
ATOM     72  C   UNL     1       5.046  -4.905  -4.603  1.00  0.00     0.091 C 
ATOM     73  C   UNL     1       2.424  -5.452  -4.055  1.00  0.00     0.091 C 
ATOM     74  S   UNL     1       3.403  -4.169  -4.902  1.00  0.00    -0.158 SA
ENDBRANCH  65  69
BRANCH  66  75
ATOM     75  N   UNL     1       5.860 -10.196   0.987  1.00  0.00    -0.280 N 
ATOM     76  H   UNL     1       5.280 -10.728   1.578  1.00  0.00     0.180 HD
BRANCH  75  77
ATOM     77  S   UNL     1       7.554 -10.464   0.956  1.00  0.00     0.262 S 
ATOM     78  O   UNL     1       7.860 -11.154   2.193  1.00  0.00    -0.201 OA
ATOM     79  O   UNL     1       7.843 -11.094  -0.317  1.00  0.00    -0.201 OA
BRANCH  77  80
ATOM     80  C   UNL     1       8.437  -8.920   0.961  1.00  0.00     0.091 A 
ATOM     81  C   UNL     1       9.473  -8.691   1.882  1.00  0.00     0.026 A 
ATOM     82  C   UNL     1       8.238  -8.029  -0.092  1.00  0.00     0.072 A 
ATOM     83  C   UNL     1      10.373  -7.638   1.658  1.00  0.00     0.052 A 
ATOM     84  C   UNL     1       9.027  -6.904  -0.205  1.00  0.00     0.162 A 
ATOM     85  C   UNL     1      10.176  -6.802   0.562  1.00  0.00     0.161 A 
BRANCH  84  86
ATOM     86  O   UNL     1       8.709  -5.922  -1.098  1.00  0.00    -0.490 OA
BRANCH  86  87
ATOM     87  C   UNL     1       9.285  -6.189  -2.364  1.00  0.00     0.233 CG0
ATOM     88  G   UNL     1      10.797  -5.988  -2.389  1.00  0.00     0.000 G0
ENDBRANCH  86  87
ENDBRANCH  84  86
BRANCH  85  89
ATOM     89  O   UNL     1      11.224  -6.058   0.070  1.00  0.00    -0.490 OA
BRANCH  89  90
ATOM     90  C   UNL     1      11.574  -6.611  -1.223  1.00  0.00     0.233 C 
BRANCH  90  91
ATOM     91  C   UNL     1      10.797  -5.988  -2.389  1.00  0.00     0.083 CG0
ATOM     92  G   UNL     1       9.285  -6.189  -2.364  1.00  0.00     0.000 G0
ENDBRANCH  90  91
ENDBRANCH  89  90
ENDBRANCH  85  89
ENDBRANCH  77  80
ENDBRANCH  75  77
ENDBRANCH  66  75
ENDBRANCH   2  63
TORSDOF 15
