REMARK SMILES C[C@@H]1[C@H](C(=O)NCCCCNC(=O)c2ccc(-c3c4nc(c(-c5ccccc5)c5ccc([nH]5)c(-c5ccccc5)c5nc(c(-c6ccccc6)c6ccc3[nH]6)C=C5)C=C4)cc2)CC[N@H+]1Cc1cnn(-c2ccccc2)c1
REMARK SMILES IDX 8 1 7 2 6 3 4 4 5 5 3 7 1 8 2 9 64 10 62 11 63 12 65 14
REMARK SMILES IDX 66 15 67 16 76 17 68 18 69 19 70 20 71 21 75 22 72 23 74 24
REMARK SMILES IDX 73 25 9 26 10 27 11 28 12 29 13 31 14 32 15 33 61 34 16 35
REMARK SMILES IDX 60 36 17 37 18 38 19 39 54 40 20 41 59 42 53 43 55 44 21 45
REMARK SMILES IDX 58 46 52 47 51 48 22 50 44 51 29 52 43 53 30 54 33 55 42 56
REMARK SMILES IDX 56 57 31 58 32 59 41 61 57 62 34 63 23 64 24 65 28 66 25 67
REMARK SMILES IDX 27 68 26 69 45 70 46 71 50 72 47 73 49 74 48 75 35 76 36 77
REMARK SMILES IDX 40 78 37 79 39 80 38 81
REMARK H PARENT 6 6 64 13 11 30 55 49 33 60
REMARK Flexibility Score: inf
ROOT
ATOM      1  C   UNL     1       2.789   1.511   2.331  1.00  0.00     0.023 C 
ENDROOT
BRANCH   1   2
ATOM      2  C   UNL     1       1.343   1.848   1.983  1.00  0.00     0.116 C 
BRANCH   2   3
ATOM      3  N   UNL     1       1.261   2.652   0.785  1.00  0.00    -0.356 N 
ATOM      4  C   UNL     1       0.704   2.380  -0.422  1.00  0.00     0.229 C 
ATOM      5  O   UNL     1       0.863   3.228  -1.308  1.00  0.00    -0.275 OA
ATOM      6  H   UNL     1       1.677   3.541   0.856  1.00  0.00     0.163 HD
BRANCH   4   7
ATOM      7  C   UNL     1      -0.104   1.122  -0.721  1.00  0.00     0.142 C 
ATOM      8  C   UNL     1       2.098  -0.315  -0.542  1.00  0.00     0.076 C 
ATOM      9  C   UNL     1       0.601  -0.250  -0.788  1.00  0.00     0.193 C 
ATOM     10  N   UNL     1      -0.221  -1.065   0.089  1.00  0.00    -0.328 N 
ATOM     11  C   UNL     1      -1.345   0.924   0.162  1.00  0.00     0.081 C 
ATOM     12  C   UNL     1      -1.576  -0.578   0.147  1.00  0.00     0.263 C 
ATOM     13  H   UNL     1       0.412  -1.432   0.799  1.00  0.00     0.348 HD
BRANCH  10  14
ATOM     14  C   UNL     1       0.180  -2.279   0.745  1.00  0.00     0.302 C 
BRANCH  14  15
ATOM     15  C   UNL     1       0.564  -1.976   2.159  1.00  0.00     0.045 A 
ATOM     16  C   UNL     1      -0.281  -1.604   3.227  1.00  0.00     0.145 A 
ATOM     17  C   UNL     1       1.816  -2.007   2.744  1.00  0.00     0.124 A 
ATOM     18  N   UNL     1       0.370  -1.435   4.377  1.00  0.00    -0.176 NA
ATOM     19  N   UNL     1       1.671  -1.660   4.072  1.00  0.00    -0.240 N 
BRANCH  19  20
ATOM     20  C   UNL     1       2.691  -1.465   5.043  1.00  0.00     0.065 A 
ATOM     21  C   UNL     1       2.350  -1.455   6.402  1.00  0.00     0.028 A 
ATOM     22  C   UNL     1       4.019  -1.230   4.661  1.00  0.00     0.028 A 
ATOM     23  C   UNL     1       3.331  -1.225   7.368  1.00  0.00     0.002 A 
ATOM     24  C   UNL     1       4.985  -0.949   5.632  1.00  0.00     0.002 A 
ATOM     25  C   UNL     1       4.643  -0.957   6.983  1.00  0.00     0.000 A 
ENDBRANCH  19  20
ENDBRANCH  14  15
ENDBRANCH  10  14
ENDBRANCH   4   7
ENDBRANCH   2   3
ENDBRANCH   1   2
BRANCH   1  26
ATOM     26  C   UNL     1       3.612   2.617   2.962  1.00  0.00     0.023 C 
BRANCH  26  27
ATOM     27  C   UNL     1       2.991   3.264   4.184  1.00  0.00     0.116 C 
BRANCH  27  28
ATOM     28  N   UNL     1       2.608   2.337   5.241  1.00  0.00    -0.352 N 
ATOM     29  C   UNL     1       2.873   2.439   6.588  1.00  0.00     0.251 C 
ATOM     30  H   UNL     1       2.099   1.544   4.958  1.00  0.00     0.163 HD
ATOM     31  O   UNL     1       2.397   1.681   7.417  1.00  0.00    -0.269 OA
BRANCH  29  32
ATOM     32  C   UNL     1       3.759   3.520   7.032  1.00  0.00     0.039 A 
ATOM     33  C   UNL     1       4.969   3.212   7.660  1.00  0.00     0.014 A 
ATOM     34  C   UNL     1       3.395   4.837   6.755  1.00  0.00     0.014 A 
ATOM     35  C   UNL     1       5.842   4.246   7.991  1.00  0.00     0.010 A 
ATOM     36  C   UNL     1       4.306   5.848   6.989  1.00  0.00     0.010 A 
ATOM     37  C   UNL     1       5.517   5.566   7.645  1.00  0.00    -0.014 A 
BRANCH  37  38
ATOM     38  C   UNL     1       6.340   6.720   8.063  1.00  0.00     0.031 A 
ATOM     39  C   UNL     1       5.723   7.716   9.005  1.00  0.00     0.074 A 
ATOM     40  C   UNL     1       7.554   6.930   7.525  1.00  0.00     0.049 A 
ATOM     41  N   UNL     1       6.133   8.912   9.335  1.00  0.00    -0.248 NA
ATOM     42  C   UNL     1       4.436   7.330   9.613  1.00  0.00     0.031 C 
ATOM     43  C   UNL     1       8.242   6.037   6.592  1.00  0.00     0.029 A 
ATOM     44  N   UNL     1       8.414   7.986   7.675  1.00  0.00    -0.354 N 
ATOM     45  C   UNL     1       5.130   9.436  10.140  1.00  0.00     0.074 A 
ATOM     46  C   UNL     1       4.071   8.455  10.204  1.00  0.00     0.031 C 
ATOM     47  C   UNL     1       9.426   6.580   6.261  1.00  0.00     0.029 A 
ATOM     48  C   UNL     1       9.555   7.876   6.919  1.00  0.00     0.049 A 
ATOM     49  H   UNL     1       8.231   8.751   8.268  1.00  0.00     0.167 HD
ATOM     50  C   UNL     1       5.102  10.624  10.787  1.00  0.00     0.031 A 
ATOM     51  C   UNL     1      10.576   8.739   6.768  1.00  0.00     0.031 A 
ATOM     52  C   UNL     1       6.180  11.572  10.742  1.00  0.00     0.049 A 
ATOM     53  C   UNL     1      10.533  10.049   7.506  1.00  0.00     0.074 A 
ATOM     54  C   UNL     1       6.295  12.782  11.401  1.00  0.00     0.029 A 
ATOM     55  N   UNL     1       7.341  11.402  10.002  1.00  0.00    -0.354 N 
ATOM     56  N   UNL     1       9.596  10.525   8.293  1.00  0.00    -0.248 NA
ATOM     57  C   UNL     1      11.693  10.935   7.345  1.00  0.00     0.031 C 
ATOM     58  C   UNL     1       7.510  13.364  11.025  1.00  0.00     0.029 A 
ATOM     59  C   UNL     1       8.175  12.490  10.180  1.00  0.00     0.049 A 
ATOM     60  H   UNL     1       7.540  10.623   9.434  1.00  0.00     0.167 HD
ATOM     61  C   UNL     1      10.069  11.748   8.749  1.00  0.00     0.074 A 
ATOM     62  C   UNL     1      11.380  11.934   8.158  1.00  0.00     0.031 C 
ATOM     63  C   UNL     1       9.478  12.639   9.583  1.00  0.00     0.031 A 
BRANCH  50  64
ATOM     64  C   UNL     1       3.866  10.950  11.579  1.00  0.00    -0.014 A 
ATOM     65  C   UNL     1       3.523  10.227  12.733  1.00  0.00     0.009 A 
ATOM     66  C   UNL     1       3.027  11.994  11.161  1.00  0.00     0.009 A 
ATOM     67  C   UNL     1       2.341  10.508  13.422  1.00  0.00     0.001 A 
ATOM     68  C   UNL     1       1.864  12.298  11.873  1.00  0.00     0.001 A 
ATOM     69  C   UNL     1       1.516  11.546  12.994  1.00  0.00     0.000 A 
ENDBRANCH  50  64
BRANCH  51  70
ATOM     70  C   UNL     1      11.733   8.382   5.906  1.00  0.00    -0.014 A 
ATOM     71  C   UNL     1      12.979   8.085   6.482  1.00  0.00     0.009 A 
ATOM     72  C   UNL     1      11.604   8.328   4.510  1.00  0.00     0.009 A 
ATOM     73  C   UNL     1      14.076   7.767   5.678  1.00  0.00     0.001 A 
ATOM     74  C   UNL     1      12.696   7.981   3.709  1.00  0.00     0.001 A 
ATOM     75  C   UNL     1      13.932   7.710   4.293  1.00  0.00     0.000 A 
ENDBRANCH  51  70
BRANCH  63  76
ATOM     76  C   UNL     1      10.269  13.863   9.949  1.00  0.00    -0.014 A 
ATOM     77  C   UNL     1      10.482  14.899   9.028  1.00  0.00     0.009 A 
ATOM     78  C   UNL     1      10.767  13.995  11.255  1.00  0.00     0.009 A 
ATOM     79  C   UNL     1      11.211  16.030   9.400  1.00  0.00     0.001 A 
ATOM     80  C   UNL     1      11.467  15.140  11.632  1.00  0.00     0.001 A 
ATOM     81  C   UNL     1      11.698  16.152  10.702  1.00  0.00     0.000 A 
ENDBRANCH  63  76
ENDBRANCH  37  38
ENDBRANCH  29  32
ENDBRANCH  27  28
ENDBRANCH  26  27
ENDBRANCH   1  26
TORSDOF 14
