REMARK SMILES C[C@@H](CO)CS[C@@H](C)C[C@@](C)([NH3+])C(=O)NCCCCNC(=O)c1ccc(-c2c3nc(c(-c4ccccc4)c4ccc([nH]4)c(-c4ccccc4)c4nc(c(-c5ccccc5)c5ccc2[nH]5)C=C4)C=C3)cc1
REMARK SMILES IDX 13 1 14 2 15 3 10 5 11 6 9 7 7 8 8 9 6 10 5 11 2 12 1 13
REMARK SMILES IDX 3 14 4 15 12 17 16 21 17 22 18 23 19 24 20 25 21 26 22 28
REMARK SMILES IDX 23 29 24 30 70 31 25 32 69 33 26 34 27 35 28 36 63 37 29 38
REMARK SMILES IDX 68 39 62 40 64 41 30 42 67 43 61 44 60 45 31 47 53 48 38 49
REMARK SMILES IDX 52 50 39 51 42 52 51 53 65 54 40 55 41 56 50 58 66 59 43 60
REMARK SMILES IDX 32 61 33 62 37 63 34 64 36 65 35 66 54 67 55 68 59 69 56 70
REMARK SMILES IDX 58 71 57 72 44 73 45 74 49 75 46 76 48 77 47 78
REMARK H PARENT 15 4 4 16 12 18 12 19 12 20 20 27 64 46 42 57
REMARK Flexibility Score: inf
ROOT
ATOM      1  C   UNL     1       0.767  -0.132  -3.299  1.00  0.00     0.281 C 
ATOM      2  O   UNL     1       0.422  -1.090  -2.614  1.00  0.00    -0.268 OA
ATOM      3  N   UNL     1       1.100  -0.493  -4.568  1.00  0.00    -0.351 N 
ATOM      4  H   UNL     1       0.534  -1.201  -4.953  1.00  0.00     0.163 HD
ENDROOT
BRANCH   1   5
ATOM      5  C   UNL     1       0.901   1.338  -2.778  1.00  0.00     0.172 C 
ATOM      6  C   UNL     1       0.340   2.321  -3.822  1.00  0.00     0.090 C 
BRANCH   5   7
ATOM      7  C   UNL     1       0.263   1.679  -1.389  1.00  0.00     0.093 C 
BRANCH   7   8
ATOM      8  C   UNL     1      -1.195   1.343  -1.000  1.00  0.00     0.050 C 
ATOM      9  C   UNL     1      -1.518   1.952   0.373  1.00  0.00     0.019 C 
BRANCH   8  10
ATOM     10  S   UNL     1      -1.815  -0.388  -1.047  1.00  0.00    -0.158 SA
BRANCH  10  11
ATOM     11  C   UNL     1      -1.040  -1.272   0.379  1.00  0.00     0.075 C 
BRANCH  11  12
ATOM     12  C   UNL     1       0.401  -1.833   0.287  1.00  0.00     0.021 C 
ATOM     13  C   UNL     1       1.492  -0.783   0.482  1.00  0.00     0.011 C 
BRANCH  12  14
ATOM     14  C   UNL     1       0.612  -2.942   1.331  1.00  0.00     0.160 C 
BRANCH  14  15
ATOM     15  O   UNL     1       0.348  -2.479   2.648  1.00  0.00    -0.396 OA
ATOM     16  H   UNL     1       0.956  -1.754   2.863  1.00  0.00     0.210 HD
ENDBRANCH  14  15
ENDBRANCH  12  14
ENDBRANCH  11  12
ENDBRANCH  10  11
ENDBRANCH   8  10
ENDBRANCH   7   8
ENDBRANCH   5   7
BRANCH   5  17
ATOM     17  N   UNL     1       2.353   1.606  -2.560  1.00  0.00    -0.345 N 
ATOM     18  H   UNL     1       2.475   2.560  -2.220  1.00  0.00     0.345 HD
ATOM     19  H   UNL     1       2.856   1.492  -3.441  1.00  0.00     0.345 HD
ATOM     20  H   UNL     1       2.720   0.949  -1.872  1.00  0.00     0.345 HD
ENDBRANCH   5  17
ENDBRANCH   1   5
BRANCH   3  21
ATOM     21  C   UNL     1       2.143  -0.016  -5.449  1.00  0.00     0.116 C 
BRANCH  21  22
ATOM     22  C   UNL     1       3.333  -0.982  -5.437  1.00  0.00     0.023 C 
BRANCH  22  23
ATOM     23  C   UNL     1       3.006  -2.416  -5.872  1.00  0.00     0.023 C 
BRANCH  23  24
ATOM     24  C   UNL     1       2.194  -2.535  -7.157  1.00  0.00     0.116 C 
BRANCH  24  25
ATOM     25  N   UNL     1       2.823  -1.855  -8.279  1.00  0.00    -0.352 N 
ATOM     26  C   UNL     1       3.039  -2.310  -9.554  1.00  0.00     0.251 C 
ATOM     27  H   UNL     1       3.136  -0.940  -8.098  1.00  0.00     0.163 HD
ATOM     28  O   UNL     1       3.712  -1.650 -10.341  1.00  0.00    -0.269 OA
BRANCH  26  29
ATOM     29  C   UNL     1       2.486  -3.614  -9.964  1.00  0.00     0.039 A 
ATOM     30  C   UNL     1       3.319  -4.526 -10.614  1.00  0.00     0.014 A 
ATOM     31  C   UNL     1       1.157  -3.943  -9.684  1.00  0.00     0.014 A 
ATOM     32  C   UNL     1       2.836  -5.796 -10.932  1.00  0.00     0.010 A 
ATOM     33  C   UNL     1       0.702  -5.234  -9.930  1.00  0.00     0.010 A 
ATOM     34  C   UNL     1       1.534  -6.171 -10.561  1.00  0.00    -0.014 A 
BRANCH  34  35
ATOM     35  C   UNL     1       1.015  -7.533 -10.838  1.00  0.00     0.031 A 
ATOM     36  C   UNL     1      -0.158  -7.714 -11.761  1.00  0.00     0.074 A 
ATOM     37  C   UNL     1       1.557  -8.598 -10.215  1.00  0.00     0.049 A 
ATOM     38  N   UNL     1      -0.809  -8.807 -12.065  1.00  0.00    -0.248 NA
ATOM     39  C   UNL     1      -0.685  -6.501 -12.410  1.00  0.00     0.031 C 
ATOM     40  C   UNL     1       2.682  -8.555  -9.277  1.00  0.00     0.029 A 
ATOM     41  N   UNL     1       1.226  -9.929 -10.273  1.00  0.00    -0.354 N 
ATOM     42  C   UNL     1      -1.827  -8.412 -12.925  1.00  0.00     0.074 A 
ATOM     43  C   UNL     1      -1.743  -6.974 -13.050  1.00  0.00     0.031 C 
ATOM     44  C   UNL     1       2.964  -9.803  -8.870  1.00  0.00     0.029 A 
ATOM     45  C   UNL     1       2.012 -10.728  -9.477  1.00  0.00     0.049 A 
ATOM     46  H   UNL     1       0.494 -10.278 -10.831  1.00  0.00     0.167 HD
ATOM     47  C   UNL     1      -2.736  -9.179 -13.571  1.00  0.00     0.031 A 
ATOM     48  C   UNL     1       1.964 -12.055  -9.254  1.00  0.00     0.031 A 
ATOM     49  C   UNL     1      -2.816 -10.610 -13.452  1.00  0.00     0.049 A 
ATOM     50  C   UNL     1       0.915 -12.878  -9.954  1.00  0.00     0.074 A 
ATOM     51  C   UNL     1      -3.679 -11.481 -14.094  1.00  0.00     0.029 A 
ATOM     52  N   UNL     1      -2.003 -11.379 -12.635  1.00  0.00    -0.354 N 
ATOM     53  N   UNL     1      -0.004 -12.496 -10.807  1.00  0.00    -0.248 NA
ATOM     54  C   UNL     1       0.907 -14.320  -9.666  1.00  0.00     0.031 C 
ATOM     55  C   UNL     1      -3.422 -12.773 -13.625  1.00  0.00     0.029 A 
ATOM     56  C   UNL     1      -2.356 -12.713 -12.742  1.00  0.00     0.049 A 
ATOM     57  H   UNL     1      -1.281 -11.029 -12.064  1.00  0.00     0.167 HD
ATOM     58  C   UNL     1      -0.672 -13.653 -11.187  1.00  0.00     0.074 A 
ATOM     59  C   UNL     1      -0.044 -14.751 -10.482  1.00  0.00     0.031 C 
ATOM     60  C   UNL     1      -1.711 -13.795 -12.045  1.00  0.00     0.031 A 
BRANCH  47  61
ATOM     61  C   UNL     1      -3.722  -8.481 -14.467  1.00  0.00    -0.014 A 
ATOM     62  C   UNL     1      -3.313  -7.883 -15.670  1.00  0.00     0.009 A 
ATOM     63  C   UNL     1      -5.083  -8.456 -14.126  1.00  0.00     0.009 A 
ATOM     64  C   UNL     1      -4.241  -7.245 -16.495  1.00  0.00     0.001 A 
ATOM     65  C   UNL     1      -6.013  -7.846 -14.969  1.00  0.00     0.001 A 
ATOM     66  C   UNL     1      -5.591  -7.232 -16.147  1.00  0.00     0.000 A 
ENDBRANCH  47  61
BRANCH  48  67
ATOM     67  C   UNL     1       2.938 -12.701  -8.334  1.00  0.00    -0.014 A 
ATOM     68  C   UNL     1       3.903 -13.592  -8.829  1.00  0.00     0.009 A 
ATOM     69  C   UNL     1       2.887 -12.460  -6.952  1.00  0.00     0.009 A 
ATOM     70  C   UNL     1       4.769 -14.256  -7.958  1.00  0.00     0.001 A 
ATOM     71  C   UNL     1       3.777 -13.099  -6.086  1.00  0.00     0.001 A 
ATOM     72  C   UNL     1       4.708 -14.007  -6.588  1.00  0.00     0.000 A 
ENDBRANCH  48  67
BRANCH  60  73
ATOM     73  C   UNL     1      -2.197 -15.192 -12.318  1.00  0.00    -0.014 A 
ATOM     74  C   UNL     1      -2.900 -15.928 -11.352  1.00  0.00     0.009 A 
ATOM     75  C   UNL     1      -1.986 -15.758 -13.585  1.00  0.00     0.009 A 
ATOM     76  C   UNL     1      -3.352 -17.218 -11.641  1.00  0.00     0.001 A 
ATOM     77  C   UNL     1      -2.468 -17.034 -13.881  1.00  0.00     0.001 A 
ATOM     78  C   UNL     1      -3.142 -17.766 -12.906  1.00  0.00     0.000 A 
ENDBRANCH  60  73
ENDBRANCH  34  35
ENDBRANCH  26  29
ENDBRANCH  24  25
ENDBRANCH  23  24
ENDBRANCH  22  23
ENDBRANCH  21  22
ENDBRANCH   3  21
TORSDOF 19
