REMARK SMILES Cc1n[nH]c(C)c1C(=O)N1CC(n2cc(C(=O)NCCCCNC(=O)c3ccc(-c4c5nc(c(-c6ccccc6)c6ccc([nH]6)c(-c6ccccc6)c6nc(c(-c7ccccc7)c7ccc4[nH]7)C=C6)C=C5)cc3)nn2)C1
REMARK SMILES IDX 20 1 19 2 18 3 16 4 17 5 15 7 13 8 14 9 75 10 74 11 12 12
REMARK SMILES IDX 8 13 9 14 10 15 11 16 76 17 7 18 1 19 2 20 3 21 4 22 5 23
REMARK SMILES IDX 6 25 21 26 22 27 23 28 24 29 25 31 26 32 27 33 73 34 28 35
REMARK SMILES IDX 72 36 29 37 30 38 31 39 66 40 32 41 71 42 65 43 67 44 33 45
REMARK SMILES IDX 70 46 64 47 63 48 34 50 56 51 41 52 55 53 42 54 45 55 54 56
REMARK SMILES IDX 68 57 43 58 44 59 53 61 69 62 46 63 35 64 36 65 40 66 37 67
REMARK SMILES IDX 39 68 38 69 57 70 58 71 62 72 59 73 61 74 60 75 47 76 48 77
REMARK SMILES IDX 52 78 49 79 51 80 50 81
REMARK H PARENT 18 6 4 24 23 30 67 49 45 60
REMARK Flexibility Score: inf
ROOT
ATOM      1  C   UNL     1       5.593  -7.065   4.518  1.00  0.00     0.023 C 
ENDROOT
BRANCH   1   2
ATOM      2  C   UNL     1       6.369  -6.012   3.726  1.00  0.00     0.116 C 
BRANCH   2   3
ATOM      3  N   UNL     1       7.170  -6.599   2.672  1.00  0.00    -0.351 N 
ATOM      4  C   UNL     1       7.008  -6.618   1.307  1.00  0.00     0.273 C 
ATOM      5  O   UNL     1       7.954  -7.066   0.650  1.00  0.00    -0.267 OA
ATOM      6  H   UNL     1       7.975  -7.069   2.990  1.00  0.00     0.163 HD
BRANCH   4   7
ATOM      7  C   UNL     1       5.805  -6.101   0.665  1.00  0.00     0.170 A 
ATOM      8  N   UNL     1       3.841  -5.359   0.096  1.00  0.00    -0.245 N 
ATOM      9  C   UNL     1       4.506  -5.976   1.122  1.00  0.00     0.145 A 
ATOM     10  N   UNL     1       4.648  -5.165  -0.955  1.00  0.00    -0.066 NA
ATOM     11  N   UNL     1       5.841  -5.644  -0.636  1.00  0.00    -0.125 NA
BRANCH   8  12
ATOM     12  C   UNL     1       2.497  -4.871   0.192  1.00  0.00     0.148 C 
ATOM     13  C   UNL     1       0.321  -2.564  -0.252  1.00  0.00     0.257 C 
ATOM     14  O   UNL     1      -0.687  -3.273  -0.327  1.00  0.00    -0.269 OA
ATOM     15  N   UNL     1       1.583  -3.096  -0.413  1.00  0.00    -0.334 N 
ATOM     16  C   UNL     1       1.881  -4.355  -1.110  1.00  0.00     0.149 C 
ATOM     17  C   UNL     1       2.494  -3.415   0.689  1.00  0.00     0.149 C 
BRANCH  13  18
ATOM     18  C   UNL     1       0.240  -1.118  -0.052  1.00  0.00     0.083 A 
ATOM     19  C   UNL     1      -2.369  -0.835   0.045  1.00  0.00     0.069 C 
ATOM     20  C   UNL     1      -0.963  -0.352   0.069  1.00  0.00     0.072 A 
ATOM     21  N   UNL     1      -0.721   0.957   0.199  1.00  0.00    -0.180 NA
ATOM     22  N   UNL     1       0.609   1.047   0.139  1.00  0.00    -0.282 N 
ATOM     23  C   UNL     1       1.246  -0.156   0.001  1.00  0.00     0.045 A 
ATOM     24  H   UNL     1       1.090   1.905   0.189  1.00  0.00     0.190 HD
ATOM     25  C   UNL     1       2.724  -0.206  -0.083  1.00  0.00     0.067 C 
ENDBRANCH  13  18
ENDBRANCH   8  12
ENDBRANCH   4   7
ENDBRANCH   2   3
ENDBRANCH   1   2
BRANCH   1  26
ATOM     26  C   UNL     1       6.434  -7.923   5.477  1.00  0.00     0.023 C 
BRANCH  26  27
ATOM     27  C   UNL     1       7.058  -7.174   6.654  1.00  0.00     0.116 C 
BRANCH  27  28
ATOM     28  N   UNL     1       6.070  -6.513   7.505  1.00  0.00    -0.352 N 
ATOM     29  C   UNL     1       6.271  -5.512   8.435  1.00  0.00     0.251 C 
ATOM     30  H   UNL     1       5.141  -6.821   7.402  1.00  0.00     0.163 HD
ATOM     31  O   UNL     1       5.451  -5.303   9.325  1.00  0.00    -0.269 OA
BRANCH  29  32
ATOM     32  C   UNL     1       7.488  -4.689   8.345  1.00  0.00     0.039 A 
ATOM     33  C   UNL     1       8.257  -4.399   9.474  1.00  0.00     0.014 A 
ATOM     34  C   UNL     1       7.878  -4.242   7.086  1.00  0.00     0.014 A 
ATOM     35  C   UNL     1       9.478  -3.745   9.309  1.00  0.00     0.010 A 
ATOM     36  C   UNL     1       9.136  -3.715   6.910  1.00  0.00     0.010 A 
ATOM     37  C   UNL     1       9.931  -3.429   8.018  1.00  0.00    -0.014 A 
BRANCH  37  38
ATOM     38  C   UNL     1      11.279  -2.897   7.812  1.00  0.00     0.031 A 
ATOM     39  C   UNL     1      12.399  -3.689   8.401  1.00  0.00     0.074 A 
ATOM     40  C   UNL     1      11.561  -1.899   6.947  1.00  0.00     0.049 A 
ATOM     41  N   UNL     1      13.248  -3.314   9.301  1.00  0.00    -0.248 NA
ATOM     42  C   UNL     1      12.558  -5.089   7.978  1.00  0.00     0.031 C 
ATOM     43  C   UNL     1      10.652  -1.210   6.022  1.00  0.00     0.029 A 
ATOM     44  N   UNL     1      12.775  -1.380   6.614  1.00  0.00    -0.354 N 
ATOM     45  C   UNL     1      14.157  -4.361   9.444  1.00  0.00     0.074 A 
ATOM     46  C   UNL     1      13.608  -5.473   8.707  1.00  0.00     0.031 C 
ATOM     47  C   UNL     1      11.373  -0.571   5.075  1.00  0.00     0.029 A 
ATOM     48  C   UNL     1      12.776  -0.647   5.436  1.00  0.00     0.049 A 
ATOM     49  H   UNL     1      13.582  -1.514   7.162  1.00  0.00     0.167 HD
ATOM     50  C   UNL     1      15.397  -4.172   9.978  1.00  0.00     0.031 A 
ATOM     51  C   UNL     1      13.854  -0.153   4.785  1.00  0.00     0.031 A 
ATOM     52  C   UNL     1      15.501  -2.914  10.671  1.00  0.00     0.049 A 
ATOM     53  C   UNL     1      14.973  -0.098   5.749  1.00  0.00     0.074 A 
ATOM     54  C   UNL     1      14.840  -2.317  11.726  1.00  0.00     0.029 A 
ATOM     55  N   UNL     1      16.175  -1.898  10.037  1.00  0.00    -0.354 N 
ATOM     56  N   UNL     1      15.007   0.716   6.763  1.00  0.00    -0.248 NA
ATOM     57  C   UNL     1      15.883  -1.228   5.824  1.00  0.00     0.031 C 
ATOM     58  C   UNL     1      14.739  -0.940  11.362  1.00  0.00     0.029 A 
ATOM     59  C   UNL     1      15.396  -0.776  10.141  1.00  0.00     0.049 A 
ATOM     60  H   UNL     1      17.052  -1.963   9.594  1.00  0.00     0.167 HD
ATOM     61  C   UNL     1      15.589  -0.019   7.783  1.00  0.00     0.074 A 
ATOM     62  C   UNL     1      16.224  -1.153   7.113  1.00  0.00     0.031 C 
ATOM     63  C   UNL     1      15.258   0.206   9.089  1.00  0.00     0.031 A 
BRANCH  50  64
ATOM     64  C   UNL     1      16.629  -4.935   9.544  1.00  0.00    -0.014 A 
ATOM     65  C   UNL     1      17.850  -4.684  10.200  1.00  0.00     0.009 A 
ATOM     66  C   UNL     1      16.700  -5.664   8.343  1.00  0.00     0.009 A 
ATOM     67  C   UNL     1      19.075  -5.070   9.640  1.00  0.00     0.001 A 
ATOM     68  C   UNL     1      17.918  -6.090   7.803  1.00  0.00     0.001 A 
ATOM     69  C   UNL     1      19.108  -5.765   8.437  1.00  0.00     0.000 A 
ENDBRANCH  50  64
BRANCH  51  70
ATOM     70  C   UNL     1      14.050   0.090   3.344  1.00  0.00    -0.014 A 
ATOM     71  C   UNL     1      15.076   0.938   2.900  1.00  0.00     0.009 A 
ATOM     72  C   UNL     1      13.413  -0.729   2.395  1.00  0.00     0.009 A 
ATOM     73  C   UNL     1      15.489   0.924   1.562  1.00  0.00     0.001 A 
ATOM     74  C   UNL     1      13.822  -0.738   1.058  1.00  0.00     0.001 A 
ATOM     75  C   UNL     1      14.874   0.074   0.646  1.00  0.00     0.000 A 
ENDBRANCH  51  70
BRANCH  63  76
ATOM     76  C   UNL     1      14.443   1.438   9.408  1.00  0.00    -0.014 A 
ATOM     77  C   UNL     1      13.179   1.692   8.844  1.00  0.00     0.009 A 
ATOM     78  C   UNL     1      14.910   2.312  10.400  1.00  0.00     0.009 A 
ATOM     79  C   UNL     1      12.432   2.812   9.223  1.00  0.00     0.001 A 
ATOM     80  C   UNL     1      14.154   3.417  10.798  1.00  0.00     0.001 A 
ATOM     81  C   UNL     1      12.921   3.673  10.201  1.00  0.00     0.000 A 
ENDBRANCH  63  76
ENDBRANCH  37  38
ENDBRANCH  29  32
ENDBRANCH  27  28
ENDBRANCH  26  27
ENDBRANCH   1  26
TORSDOF 13
