REMARK SMILES Cc1ccc(-c2nn(-c3ccccc3)cc2[C@@H]2[NH2+][C@H](C(=O)NCCCCNC(=O)c3ccc(-c4c5nc(c(-c6ccccc6)c6ccc([nH]6)c(-c6ccccc6)c6nc(c(-c7ccccc7)c7ccc4[nH]7)C=C6)C=C5)cc3)CS2)cc1
REMARK SMILES IDX 24 1 23 2 22 3 20 4 21 5 19 7 17 8 18 9 79 10 78 13 16 14
REMARK SMILES IDX 6 15 7 16 8 17 15 18 5 19 1 20 2 21 3 22 81 23 4 24 80 25
REMARK SMILES IDX 9 26 10 27 14 28 11 29 13 30 12 31 25 32 26 33 27 34 28 35
REMARK SMILES IDX 29 37 30 38 31 39 77 40 32 41 76 42 33 43 34 44 35 45 70 46
REMARK SMILES IDX 36 47 75 48 69 49 71 50 37 51 74 52 68 53 67 54 38 56 60 57
REMARK SMILES IDX 45 58 59 59 46 60 49 61 58 62 72 63 47 64 48 65 57 67 73 68
REMARK SMILES IDX 50 69 39 70 40 71 44 72 41 73 43 74 42 75 61 76 62 77 66 78
REMARK SMILES IDX 63 79 65 80 64 81 51 82 52 83 56 84 53 85 55 86 54 87
REMARK H PARENT 22 6 18 11 18 12 27 36 71 55 49 66
REMARK Flexibility Score: inf
ROOT
ATOM      1  C   UNL     1      -3.794  -2.481  -2.279  1.00  0.00     0.023 C 
ENDROOT
BRANCH   1   2
ATOM      2  C   UNL     1      -4.599  -2.167  -1.008  1.00  0.00     0.116 C 
BRANCH   2   3
ATOM      3  N   UNL     1      -5.346  -3.246  -0.378  1.00  0.00    -0.351 N 
ATOM      4  C   UNL     1      -5.864  -3.296   0.895  1.00  0.00     0.279 C 
ATOM      5  O   UNL     1      -6.955  -3.880   0.994  1.00  0.00    -0.268 OA
ATOM      6  H   UNL     1      -5.500  -4.043  -0.935  1.00  0.00     0.163 HD
BRANCH   4   7
ATOM      7  C   UNL     1      -5.163  -2.855   2.217  1.00  0.00     0.283 C 
ATOM      8  C   UNL     1      -3.978  -0.789   2.744  1.00  0.00     0.278 C 
ATOM      9  N   UNL     1      -3.874  -2.121   2.116  1.00  0.00    -0.320 N 
ATOM     10  S   UNL     1      -5.099  -1.025   4.136  1.00  0.00    -0.087 SA
ATOM     11  H   UNL     1      -3.146  -2.657   2.588  1.00  0.00     0.348 HD
ATOM     12  H   UNL     1      -3.643  -2.000   1.130  1.00  0.00     0.348 HD
ATOM     13  C   UNL     1      -6.137  -2.167   3.185  1.00  0.00     0.151 C 
BRANCH   8  14
ATOM     14  C   UNL     1      -4.481   0.147   1.697  1.00  0.00     0.067 A 
ATOM     15  C   UNL     1      -3.809   0.580   0.508  1.00  0.00     0.103 A 
ATOM     16  N   UNL     1      -4.739   0.986  -0.394  1.00  0.00    -0.167 NA
ATOM     17  N   UNL     1      -5.950   0.841   0.242  1.00  0.00    -0.240 N 
ATOM     18  C   UNL     1      -5.734   0.728   1.596  1.00  0.00     0.126 A 
BRANCH  15  19
ATOM     19  C   UNL     1      -2.348   0.464   0.217  1.00  0.00     0.003 A 
ATOM     20  C   UNL     1       1.995   0.169  -0.127  1.00  0.00     0.044 C 
ATOM     21  C   UNL     1       0.501   0.290  -0.036  1.00  0.00    -0.051 A 
ATOM     22  C   UNL     1      -0.260  -0.852   0.178  1.00  0.00     0.004 A 
ATOM     23  C   UNL     1      -0.167   1.513  -0.167  1.00  0.00     0.004 A 
ATOM     24  C   UNL     1      -1.650  -0.755   0.318  1.00  0.00     0.011 A 
ATOM     25  C   UNL     1      -1.573   1.596  -0.054  1.00  0.00     0.011 A 
ENDBRANCH  15  19
BRANCH  17  26
ATOM     26  C   UNL     1      -7.227   0.548  -0.370  1.00  0.00     0.065 A 
ATOM     27  C   UNL     1      -7.349  -0.022  -1.636  1.00  0.00     0.028 A 
ATOM     28  C   UNL     1      -8.410   0.692   0.363  1.00  0.00     0.028 A 
ATOM     29  C   UNL     1      -8.580  -0.453  -2.156  1.00  0.00     0.002 A 
ATOM     30  C   UNL     1      -9.657   0.339  -0.181  1.00  0.00     0.002 A 
ATOM     31  C   UNL     1      -9.745  -0.234  -1.442  1.00  0.00     0.000 A 
ENDBRANCH  17  26
ENDBRANCH   8  14
ENDBRANCH   4   7
ENDBRANCH   2   3
ENDBRANCH   1   2
BRANCH   1  32
ATOM     32  C   UNL     1      -3.764  -1.519  -3.527  1.00  0.00     0.023 C 
BRANCH  32  33
ATOM     33  C   UNL     1      -4.431  -0.130  -3.524  1.00  0.00     0.116 C 
BRANCH  33  34
ATOM     34  N   UNL     1      -3.792   0.931  -4.308  1.00  0.00    -0.352 N 
ATOM     35  C   UNL     1      -4.197   2.242  -4.580  1.00  0.00     0.251 C 
ATOM     36  H   UNL     1      -2.930   0.678  -4.712  1.00  0.00     0.163 HD
ATOM     37  O   UNL     1      -3.360   3.029  -4.998  1.00  0.00    -0.269 OA
BRANCH  35  38
ATOM     38  C   UNL     1      -5.588   2.756  -4.338  1.00  0.00     0.039 A 
ATOM     39  C   UNL     1      -5.791   4.130  -4.085  1.00  0.00     0.014 A 
ATOM     40  C   UNL     1      -6.707   1.939  -4.362  1.00  0.00     0.014 A 
ATOM     41  C   UNL     1      -7.034   4.610  -3.629  1.00  0.00     0.010 A 
ATOM     42  C   UNL     1      -7.924   2.400  -3.871  1.00  0.00     0.010 A 
ATOM     43  C   UNL     1      -8.072   3.708  -3.411  1.00  0.00    -0.014 A 
BRANCH  43  44
ATOM     44  C   UNL     1      -9.213   3.937  -2.513  1.00  0.00     0.031 A 
ATOM     45  C   UNL     1     -10.622   4.017  -2.961  1.00  0.00     0.074 A 
ATOM     46  C   UNL     1      -8.994   3.772  -1.187  1.00  0.00     0.049 A 
ATOM     47  N   UNL     1     -11.582   4.548  -2.270  1.00  0.00    -0.248 NA
ATOM     48  C   UNL     1     -11.072   3.471  -4.233  1.00  0.00     0.031 C 
ATOM     49  C   UNL     1      -9.991   3.548  -0.140  1.00  0.00     0.029 A 
ATOM     50  N   UNL     1      -7.800   3.883  -0.479  1.00  0.00    -0.354 N 
ATOM     51  C   UNL     1     -12.772   4.103  -2.808  1.00  0.00     0.074 A 
ATOM     52  C   UNL     1     -12.401   3.542  -4.090  1.00  0.00     0.031 C 
ATOM     53  C   UNL     1      -9.431   3.789   1.056  1.00  0.00     0.029 A 
ATOM     54  C   UNL     1      -8.119   4.353   0.799  1.00  0.00     0.049 A 
ATOM     55  H   UNL     1      -6.900   3.671  -0.816  1.00  0.00     0.167 HD
ATOM     56  C   UNL     1     -13.913   4.100  -2.053  1.00  0.00     0.031 A 
ATOM     57  C   UNL     1      -7.670   5.545   1.287  1.00  0.00     0.031 A 
ATOM     58  C   UNL     1     -13.685   4.613  -0.693  1.00  0.00     0.049 A 
ATOM     59  C   UNL     1      -8.815   6.483   1.593  1.00  0.00     0.074 A 
ATOM     60  C   UNL     1     -13.641   3.995   0.547  1.00  0.00     0.029 A 
ATOM     61  N   UNL     1     -13.207   5.908  -0.498  1.00  0.00    -0.354 N 
ATOM     62  N   UNL     1     -10.034   6.279   1.175  1.00  0.00    -0.248 NA
ATOM     63  C   UNL     1      -8.694   7.725   2.348  1.00  0.00     0.031 C 
ATOM     64  C   UNL     1     -13.049   4.897   1.470  1.00  0.00     0.029 A 
ATOM     65  C   UNL     1     -12.761   6.075   0.801  1.00  0.00     0.049 A 
ATOM     66  H   UNL     1     -13.190   6.608  -1.190  1.00  0.00     0.167 HD
ATOM     67  C   UNL     1     -10.841   7.299   1.569  1.00  0.00     0.074 A 
ATOM     68  C   UNL     1      -9.957   8.188   2.304  1.00  0.00     0.031 C 
ATOM     69  C   UNL     1     -12.163   7.332   1.240  1.00  0.00     0.031 A 
BRANCH  56  70
ATOM     70  C   UNL     1     -15.198   3.374  -2.439  1.00  0.00    -0.014 A 
ATOM     71  C   UNL     1     -16.155   3.050  -1.454  1.00  0.00     0.009 A 
ATOM     72  C   UNL     1     -15.527   2.965  -3.743  1.00  0.00     0.009 A 
ATOM     73  C   UNL     1     -17.306   2.295  -1.736  1.00  0.00     0.001 A 
ATOM     74  C   UNL     1     -16.658   2.182  -4.031  1.00  0.00     0.001 A 
ATOM     75  C   UNL     1     -17.545   1.838  -3.024  1.00  0.00     0.000 A 
ENDBRANCH  56  70
BRANCH  57  76
ATOM     76  C   UNL     1      -6.344   5.934   0.736  1.00  0.00    -0.014 A 
ATOM     77  C   UNL     1      -5.243   5.142   1.117  1.00  0.00     0.009 A 
ATOM     78  C   UNL     1      -6.256   6.687  -0.445  1.00  0.00     0.009 A 
ATOM     79  C   UNL     1      -4.148   4.989   0.265  1.00  0.00     0.001 A 
ATOM     80  C   UNL     1      -5.147   6.538  -1.289  1.00  0.00     0.001 A 
ATOM     81  C   UNL     1      -4.118   5.657  -0.956  1.00  0.00     0.000 A 
ENDBRANCH  57  76
BRANCH  69  82
ATOM     82  C   UNL     1     -13.025   8.549   1.392  1.00  0.00    -0.014 A 
ATOM     83  C   UNL     1     -12.521   9.854   1.303  1.00  0.00     0.009 A 
ATOM     84  C   UNL     1     -14.422   8.400   1.490  1.00  0.00     0.009 A 
ATOM     85  C   UNL     1     -13.368  10.965   1.376  1.00  0.00     0.001 A 
ATOM     86  C   UNL     1     -15.274   9.505   1.521  1.00  0.00     0.001 A 
ATOM     87  C   UNL     1     -14.745  10.789   1.480  1.00  0.00     0.000 A 
ENDBRANCH  69  82
ENDBRANCH  43  44
ENDBRANCH  35  38
ENDBRANCH  33  34
ENDBRANCH  32  33
ENDBRANCH   1  32
TORSDOF 14
