REMARK SMILES [NH3+]C[C@@H]([NH3+])c1ccccc1OCC(=O)NCCCCNC(=O)c1ccc(-c2c3nc(c(-c4ccccc4)c4ccc([nH]4)c(-c4ccccc4)c4nc(c(-c5ccccc5)c5ccc2[nH]5)C=C4)C=C3)cc1
REMARK SMILES IDX 16 1 15 2 13 3 14 4 12 6 11 7 10 8 5 9 6 10 7 11 9 12 8 13
REMARK SMILES IDX 3 14 2 15 1 16 4 20 17 24 18 25 19 26 20 27 21 28 22 30
REMARK SMILES IDX 23 31 24 32 70 33 25 34 69 35 26 36 27 37 28 38 63 39 29 40
REMARK SMILES IDX 68 41 62 42 64 43 30 44 67 45 61 46 60 47 31 49 53 50 38 51
REMARK SMILES IDX 52 52 39 53 42 54 51 55 65 56 40 57 41 58 50 60 66 61 43 62
REMARK SMILES IDX 32 63 33 64 37 65 34 66 36 67 35 68 54 69 55 70 59 71 56 72
REMARK SMILES IDX 58 73 57 74 44 75 45 76 49 77 46 78 48 79 47 80
REMARK H PARENT 15 5 1 17 1 18 1 19 4 21 4 22 4 23 20 29 64 48 42 59
REMARK Flexibility Score: inf
ROOT
ATOM      1  C   UNL     1      -1.571  -4.077   1.179  1.00  0.00     0.116 C 
ENDROOT
BRANCH   1   2
ATOM      2  N   UNL     1      -1.333  -2.790   0.578  1.00  0.00    -0.353 N 
ATOM      3  C   UNL     1      -0.134  -2.234   0.279  1.00  0.00     0.257 C 
ATOM      4  O   UNL     1      -0.118  -1.411  -0.641  1.00  0.00    -0.271 OA
ATOM      5  H   UNL     1      -2.131  -2.254   0.360  1.00  0.00     0.163 HD
BRANCH   3   6
ATOM      6  C   UNL     1       1.163  -2.687   0.991  1.00  0.00     0.329 C 
BRANCH   6   7
ATOM      7  O   UNL     1       1.599  -2.511   2.323  1.00  0.00    -0.483 OA
BRANCH   7   8
ATOM      8  C   UNL     1       0.829  -1.945   3.299  1.00  0.00     0.129 A 
ATOM      9  C   UNL     1       0.762  -0.556   3.549  1.00  0.00     0.057 A 
ATOM     10  C   UNL     1       0.236  -0.156   4.808  1.00  0.00     0.014 A 
ATOM     11  C   UNL     1      -0.143  -1.063   5.797  1.00  0.00     0.001 A 
ATOM     12  C   UNL     1       0.432  -2.854   4.306  1.00  0.00     0.047 A 
ATOM     13  C   UNL     1      -0.043  -2.419   5.548  1.00  0.00     0.004 A 
BRANCH   9  14
ATOM     14  C   UNL     1       1.384   0.533   2.667  1.00  0.00     0.271 C 
BRANCH  14  15
ATOM     15  C   UNL     1       0.915   0.582   1.192  1.00  0.00     0.329 C 
BRANCH  15  16
ATOM     16  N   UNL     1       1.247   1.846   0.490  1.00  0.00    -0.352 N 
ATOM     17  H   UNL     1       0.907   1.801  -0.471  1.00  0.00     0.344 HD
ATOM     18  H   UNL     1       2.258   1.978   0.487  1.00  0.00     0.344 HD
ATOM     19  H   UNL     1       0.803   2.629   0.971  1.00  0.00     0.344 HD
ENDBRANCH  15  16
ENDBRANCH  14  15
BRANCH  14  20
ATOM     20  N   UNL     1       1.174   1.904   3.199  1.00  0.00    -0.347 N 
ATOM     21  H   UNL     1       0.182   2.137   3.156  1.00  0.00     0.345 HD
ATOM     22  H   UNL     1       1.705   2.571   2.639  1.00  0.00     0.345 HD
ATOM     23  H   UNL     1       1.490   1.945   4.168  1.00  0.00     0.345 HD
ENDBRANCH  14  20
ENDBRANCH   9  14
ENDBRANCH   7   8
ENDBRANCH   6   7
ENDBRANCH   3   6
ENDBRANCH   1   2
BRANCH   1  24
ATOM     24  C   UNL     1      -2.599  -4.032   2.299  1.00  0.00     0.023 C 
BRANCH  24  25
ATOM     25  C   UNL     1      -3.940  -3.378   1.962  1.00  0.00     0.023 C 
BRANCH  25  26
ATOM     26  C   UNL     1      -4.591  -3.789   0.647  1.00  0.00     0.116 C 
BRANCH  26  27
ATOM     27  N   UNL     1      -4.745  -5.225   0.497  1.00  0.00    -0.352 N 
ATOM     28  C   UNL     1      -5.851  -5.963   0.137  1.00  0.00     0.251 C 
ATOM     29  H   UNL     1      -3.934  -5.753   0.680  1.00  0.00     0.163 HD
ATOM     30  O   UNL     1      -5.803  -7.179   0.143  1.00  0.00    -0.269 OA
BRANCH  28  31
ATOM     31  C   UNL     1      -7.111  -5.270  -0.213  1.00  0.00     0.039 A 
ATOM     32  C   UNL     1      -8.297  -5.720   0.372  1.00  0.00     0.014 A 
ATOM     33  C   UNL     1      -7.127  -4.185  -1.092  1.00  0.00     0.014 A 
ATOM     34  C   UNL     1      -9.489  -5.034   0.136  1.00  0.00     0.010 A 
ATOM     35  C   UNL     1      -8.301  -3.456  -1.266  1.00  0.00     0.010 A 
ATOM     36  C   UNL     1      -9.492  -3.871  -0.652  1.00  0.00    -0.014 A 
BRANCH  36  37
ATOM     37  C   UNL     1     -10.731  -3.072  -0.830  1.00  0.00     0.031 A 
ATOM     38  C   UNL     1     -11.348  -2.920  -2.192  1.00  0.00     0.074 A 
ATOM     39  C   UNL     1     -11.269  -2.434   0.229  1.00  0.00     0.049 A 
ATOM     40  N   UNL     1     -12.399  -2.226  -2.549  1.00  0.00    -0.248 NA
ATOM     41  C   UNL     1     -10.685  -3.621  -3.303  1.00  0.00     0.031 C 
ATOM     42  C   UNL     1     -10.744  -2.467   1.596  1.00  0.00     0.029 A 
ATOM     43  N   UNL     1     -12.375  -1.627   0.318  1.00  0.00    -0.354 N 
ATOM     44  C   UNL     1     -12.514  -2.395  -3.923  1.00  0.00     0.074 A 
ATOM     45  C   UNL     1     -11.397  -3.213  -4.343  1.00  0.00     0.031 C 
ATOM     46  C   UNL     1     -11.543  -1.738   2.391  1.00  0.00     0.029 A 
ATOM     47  C   UNL     1     -12.609  -1.151   1.586  1.00  0.00     0.049 A 
ATOM     48  H   UNL     1     -12.947  -1.409  -0.453  1.00  0.00     0.167 HD
ATOM     49  C   UNL     1     -13.472  -1.928  -4.758  1.00  0.00     0.031 A 
ATOM     50  C   UNL     1     -13.570  -0.329   2.049  1.00  0.00     0.031 A 
ATOM     51  C   UNL     1     -14.584  -1.117  -4.341  1.00  0.00     0.049 A 
ATOM     52  C   UNL     1     -14.610   0.193   1.097  1.00  0.00     0.074 A 
ATOM     53  C   UNL     1     -15.636  -0.638  -5.103  1.00  0.00     0.029 A 
ATOM     54  N   UNL     1     -14.786  -0.660  -3.048  1.00  0.00    -0.354 N 
ATOM     55  N   UNL     1     -14.744  -0.035  -0.187  1.00  0.00    -0.248 NA
ATOM     56  C   UNL     1     -15.638   1.079   1.663  1.00  0.00     0.031 C 
ATOM     57  C   UNL     1     -16.445   0.154  -4.282  1.00  0.00     0.029 A 
ATOM     58  C   UNL     1     -15.931   0.118  -2.996  1.00  0.00     0.049 A 
ATOM     59  H   UNL     1     -14.202  -0.859  -2.280  1.00  0.00     0.167 HD
ATOM     60  C   UNL     1     -15.885   0.654  -0.577  1.00  0.00     0.074 A 
ATOM     61  C   UNL     1     -16.415   1.293   0.610  1.00  0.00     0.031 C 
ATOM     62  C   UNL     1     -16.445   0.749  -1.808  1.00  0.00     0.031 A 
BRANCH  49  63
ATOM     63  C   UNL     1     -13.351  -2.280  -6.216  1.00  0.00    -0.014 A 
ATOM     64  C   UNL     1     -13.544  -3.596  -6.666  1.00  0.00     0.009 A 
ATOM     65  C   UNL     1     -13.073  -1.277  -7.157  1.00  0.00     0.009 A 
ATOM     66  C   UNL     1     -13.423  -3.907  -8.022  1.00  0.00     0.001 A 
ATOM     67  C   UNL     1     -12.983  -1.584  -8.516  1.00  0.00     0.001 A 
ATOM     68  C   UNL     1     -13.147  -2.900  -8.946  1.00  0.00     0.000 A 
ENDBRANCH  49  63
BRANCH  50  69
ATOM     69  C   UNL     1     -13.602   0.045   3.487  1.00  0.00    -0.014 A 
ATOM     70  C   UNL     1     -14.622  -0.431   4.326  1.00  0.00     0.009 A 
ATOM     71  C   UNL     1     -12.620   0.889   4.028  1.00  0.00     0.009 A 
ATOM     72  C   UNL     1     -14.672  -0.047   5.668  1.00  0.00     0.001 A 
ATOM     73  C   UNL     1     -12.655   1.246   5.378  1.00  0.00     0.001 A 
ATOM     74  C   UNL     1     -13.687   0.787   6.194  1.00  0.00     0.000 A 
ENDBRANCH  50  69
BRANCH  62  75
ATOM     75  C   UNL     1     -17.715   1.543  -1.926  1.00  0.00    -0.014 A 
ATOM     76  C   UNL     1     -17.715   2.943  -1.821  1.00  0.00     0.009 A 
ATOM     77  C   UNL     1     -18.925   0.881  -2.187  1.00  0.00     0.009 A 
ATOM     78  C   UNL     1     -18.908   3.659  -1.940  1.00  0.00     0.001 A 
ATOM     79  C   UNL     1     -20.110   1.602  -2.337  1.00  0.00     0.001 A 
ATOM     80  C   UNL     1     -20.103   2.989  -2.204  1.00  0.00     0.000 A 
ENDBRANCH  62  75
ENDBRANCH  36  37
ENDBRANCH  28  31
ENDBRANCH  26  27
ENDBRANCH  25  26
ENDBRANCH  24  25
ENDBRANCH   1  24
TORSDOF 17
