REMARK SMILES COC(=O)C1=C(C)NC(C)=C(C(=O)OC)C1c1ccc(C(=O)NCCCCNC(=O)c2ccc(-c3c4nc(c(-c5ccccc5)c5ccc([nH]5)c(-c5ccccc5)c5nc(c(-c6ccccc6)c6ccc3[nH]6)C=C5)C=C4)cc2)cc1
REMARK SMILES IDX 25 1 24 2 23 3 21 4 22 5 20 7 17 8 18 9 80 10 19 11 79 12
REMARK SMILES IDX 16 13 5 14 6 15 7 16 8 17 11 18 9 19 10 21 3 22 4 23 2 24
REMARK SMILES IDX 1 25 12 26 13 27 14 28 15 29 26 30 27 31 28 32 29 33 30 35
REMARK SMILES IDX 31 36 32 37 78 38 33 39 77 40 34 41 35 42 36 43 71 44 37 45
REMARK SMILES IDX 76 46 70 47 72 48 38 49 75 50 69 51 68 52 39 54 61 55 46 56
REMARK SMILES IDX 60 57 47 58 50 59 59 60 73 61 48 62 49 63 58 65 74 66 51 67
REMARK SMILES IDX 40 68 41 69 45 70 42 71 44 72 43 73 62 74 63 75 67 76 64 77
REMARK SMILES IDX 66 78 65 79 52 80 53 81 57 82 54 83 56 84 55 85
REMARK H PARENT 23 6 8 20 28 34 72 53 50 64
REMARK Flexibility Score: inf
ROOT
ATOM      1  C   UNL     1       6.715  -2.573   2.614  1.00  0.00     0.023 C 
ENDROOT
BRANCH   1   2
ATOM      2  C   UNL     1       5.456  -3.353   2.994  1.00  0.00     0.116 C 
BRANCH   2   3
ATOM      3  N   UNL     1       5.506  -3.783   4.380  1.00  0.00    -0.352 N 
ATOM      4  C   UNL     1       4.803  -3.325   5.467  1.00  0.00     0.251 C 
ATOM      5  O   UNL     1       4.924  -3.891   6.550  1.00  0.00    -0.269 OA
ATOM      6  H   UNL     1       6.140  -4.512   4.569  1.00  0.00     0.163 HD
BRANCH   4   7
ATOM      7  C   UNL     1       3.862  -2.191   5.337  1.00  0.00     0.039 A 
ATOM      8  C   UNL     1       1.989  -0.114   5.079  1.00  0.00    -0.035 A 
ATOM      9  C   UNL     1       1.638  -1.310   5.724  1.00  0.00     0.005 A 
ATOM     10  C   UNL     1       3.299   0.034   4.587  1.00  0.00     0.005 A 
ATOM     11  C   UNL     1       2.576  -2.336   5.866  1.00  0.00     0.014 A 
ATOM     12  C   UNL     1       4.233  -0.989   4.732  1.00  0.00     0.014 A 
BRANCH   8  13
ATOM     13  C   UNL     1       0.998   1.035   4.891  1.00  0.00     0.098 C 
ATOM     14  C   UNL     1       0.080   0.840   3.687  1.00  0.00     0.068 C 
ATOM     15  C   UNL     1      -1.193   1.295   3.699  1.00  0.00     0.023 C 
ATOM     16  C   UNL     1      -2.166   1.186   2.552  1.00  0.00     0.065 C 
ATOM     17  N   UNL     1      -1.692   1.882   4.850  1.00  0.00    -0.362 N 
ATOM     18  C   UNL     1       0.234   1.439   6.159  1.00  0.00     0.068 C 
ATOM     19  C   UNL     1      -1.048   1.870   6.079  1.00  0.00     0.023 C 
ATOM     20  H   UNL     1      -2.563   2.338   4.793  1.00  0.00     0.166 HD
ATOM     21  C   UNL     1      -1.885   2.350   7.239  1.00  0.00     0.065 C 
BRANCH  14  22
ATOM     22  C   UNL     1       0.585   0.113   2.508  1.00  0.00     0.336 C 
ATOM     23  O   UNL     1       0.725  -1.099   2.461  1.00  0.00    -0.246 OA
BRANCH  22  24
ATOM     24  O   UNL     1       0.800   0.983   1.489  1.00  0.00    -0.466 OA
ATOM     25  C   UNL     1       1.111   0.349   0.245  1.00  0.00     0.282 C 
ENDBRANCH  22  24
ENDBRANCH  14  22
BRANCH  18  26
ATOM     26  C   UNL     1       0.896   1.275   7.476  1.00  0.00     0.336 C 
ATOM     27  O   UNL     1       0.342   0.817   8.465  1.00  0.00    -0.246 OA
BRANCH  26  28
ATOM     28  O   UNL     1       2.203   1.627   7.395  1.00  0.00    -0.466 OA
ATOM     29  C   UNL     1       2.994   1.186   8.502  1.00  0.00     0.282 C 
ENDBRANCH  26  28
ENDBRANCH  18  26
ENDBRANCH   8  13
ENDBRANCH   4   7
ENDBRANCH   2   3
ENDBRANCH   1   2
BRANCH   1  30
ATOM     30  C   UNL     1       7.981  -3.427   2.504  1.00  0.00     0.023 C 
BRANCH  30  31
ATOM     31  C   UNL     1       7.939  -4.503   1.426  1.00  0.00     0.116 C 
BRANCH  31  32
ATOM     32  N   UNL     1       7.726  -3.968   0.090  1.00  0.00    -0.352 N 
ATOM     33  C   UNL     1       8.225  -4.429  -1.104  1.00  0.00     0.251 C 
ATOM     34  H   UNL     1       7.149  -3.171   0.035  1.00  0.00     0.163 HD
ATOM     35  O   UNL     1       8.042  -3.800  -2.141  1.00  0.00    -0.269 OA
BRANCH  33  36
ATOM     36  C   UNL     1       9.023  -5.671  -1.120  1.00  0.00     0.039 A 
ATOM     37  C   UNL     1      10.266  -5.663  -1.758  1.00  0.00     0.014 A 
ATOM     38  C   UNL     1       8.562  -6.824  -0.478  1.00  0.00     0.014 A 
ATOM     39  C   UNL     1      11.080  -6.795  -1.693  1.00  0.00     0.010 A 
ATOM     40  C   UNL     1       9.400  -7.928  -0.361  1.00  0.00     0.010 A 
ATOM     41  C   UNL     1      10.667  -7.923  -0.964  1.00  0.00    -0.014 A 
BRANCH  41  42
ATOM     42  C   UNL     1      11.553  -9.102  -0.810  1.00  0.00     0.031 A 
ATOM     43  C   UNL     1      11.161 -10.424  -1.409  1.00  0.00     0.074 A 
ATOM     44  C   UNL     1      12.671  -9.001  -0.066  1.00  0.00     0.049 A 
ATOM     45  N   UNL     1      11.771 -11.579  -1.327  1.00  0.00    -0.248 NA
ATOM     46  C   UNL     1       9.907 -10.459  -2.180  1.00  0.00     0.031 C 
ATOM     47  C   UNL     1      13.133  -7.788   0.613  1.00  0.00     0.029 A 
ATOM     48  N   UNL     1      13.617  -9.941   0.255  1.00  0.00    -0.354 N 
ATOM     49  C   UNL     1      10.965 -12.479  -2.010  1.00  0.00     0.074 A 
ATOM     50  C   UNL     1       9.805 -11.748  -2.470  1.00  0.00     0.031 C 
ATOM     51  C   UNL     1      14.281  -8.055   1.256  1.00  0.00     0.029 A 
ATOM     52  C   UNL     1      14.620  -9.461   1.062  1.00  0.00     0.049 A 
ATOM     53  H   UNL     1      13.581 -10.873  -0.062  1.00  0.00     0.167 HD
ATOM     54  C   UNL     1      11.179 -13.795  -2.248  1.00  0.00     0.031 A 
ATOM     55  C   UNL     1      15.688 -10.084   1.592  1.00  0.00     0.031 A 
ATOM     56  C   UNL     1      12.344 -14.517  -1.813  1.00  0.00     0.049 A 
ATOM     57  C   UNL     1      15.913 -11.540   1.294  1.00  0.00     0.074 A 
ATOM     58  C   UNL     1      12.687 -15.833  -2.072  1.00  0.00     0.029 A 
ATOM     59  N   UNL     1      13.354 -13.985  -1.029  1.00  0.00    -0.354 N 
ATOM     60  N   UNL     1      15.184 -12.357   0.574  1.00  0.00    -0.248 NA
ATOM     61  C   UNL     1      17.116 -12.156   1.872  1.00  0.00     0.031 C 
ATOM     62  C   UNL     1      13.886 -16.109  -1.408  1.00  0.00     0.029 A 
ATOM     63  C   UNL     1      14.312 -14.952  -0.776  1.00  0.00     0.049 A 
ATOM     64  H   UNL     1      13.386 -13.057  -0.701  1.00  0.00     0.167 HD
ATOM     65  C   UNL     1      15.852 -13.574   0.591  1.00  0.00     0.074 A 
ATOM     66  C   UNL     1      17.052 -13.384   1.378  1.00  0.00     0.031 C 
ATOM     67  C   UNL     1      15.502 -14.745   0.006  1.00  0.00     0.031 A 
BRANCH  54  68
ATOM     68  C   UNL     1      10.125 -14.542  -3.014  1.00  0.00    -0.014 A 
ATOM     69  C   UNL     1       9.943 -14.335  -4.391  1.00  0.00     0.009 A 
ATOM     70  C   UNL     1       9.336 -15.501  -2.361  1.00  0.00     0.009 A 
ATOM     71  C   UNL     1       8.970 -15.051  -5.090  1.00  0.00     0.001 A 
ATOM     72  C   UNL     1       8.382 -16.235  -3.068  1.00  0.00     0.001 A 
ATOM     73  C   UNL     1       8.195 -16.004  -4.430  1.00  0.00     0.000 A 
ENDBRANCH  54  68
BRANCH  55  74
ATOM     74  C   UNL     1      16.640  -9.334   2.452  1.00  0.00    -0.014 A 
ATOM     75  C   UNL     1      17.924  -9.015   1.983  1.00  0.00     0.009 A 
ATOM     76  C   UNL     1      16.274  -8.944   3.749  1.00  0.00     0.009 A 
ATOM     77  C   UNL     1      18.832  -8.349   2.808  1.00  0.00     0.001 A 
ATOM     78  C   UNL     1      17.175  -8.254   4.562  1.00  0.00     0.001 A 
ATOM     79  C   UNL     1      18.457  -7.966   4.095  1.00  0.00     0.000 A 
ENDBRANCH  55  74
BRANCH  67  80
ATOM     80  C   UNL     1      16.445 -15.901   0.167  1.00  0.00    -0.014 A 
ATOM     81  C   UNL     1      16.550 -16.589   1.386  1.00  0.00     0.009 A 
ATOM     82  C   UNL     1      17.206 -16.334  -0.930  1.00  0.00     0.009 A 
ATOM     83  C   UNL     1      17.423 -17.671   1.510  1.00  0.00     0.001 A 
ATOM     84  C   UNL     1      18.058 -17.433  -0.809  1.00  0.00     0.001 A 
ATOM     85  C   UNL     1      18.172 -18.095   0.412  1.00  0.00     0.000 A 
ENDBRANCH  67  80
ENDBRANCH  41  42
ENDBRANCH  33  36
ENDBRANCH  31  32
ENDBRANCH  30  31
ENDBRANCH   1  30
TORSDOF 16
