REMARK SMILES O=C(NCCCCNC(=O)c1ccc(F)cc1NC(=O)[C@H]1CCS(=O)(=O)C1)c1ccc(-c2c3nc(c(-c4ccccc4)c4ccc([nH]4)c(-c4ccccc4)c4nc(c(-c5ccccc5)c5ccc2[nH]5)C=C4)C=C3)cc1
REMARK SMILES IDX 5 1 4 2 3 3 1 4 2 5 28 7 29 8 75 9 30 10 74 11 31 12 32 13
REMARK SMILES IDX 33 14 68 15 34 16 73 17 67 18 69 19 35 20 72 21 66 22 65 23
REMARK SMILES IDX 36 25 58 26 43 27 57 28 44 29 47 30 56 31 70 32 45 33 46 34
REMARK SMILES IDX 55 36 71 37 48 38 37 39 38 40 42 41 39 42 41 43 40 44 59 45
REMARK SMILES IDX 60 46 64 47 61 48 63 49 62 50 49 51 50 52 54 53 51 54 53 55
REMARK SMILES IDX 52 56 6 57 7 58 8 59 9 60 10 62 11 63 12 64 17 65 13 66
REMARK SMILES IDX 16 67 14 68 15 69 18 70 19 71 20 73 21 74 22 75 27 76 23 77
REMARK SMILES IDX 24 78 25 79 26 80
REMARK H PARENT 3 6 69 24 47 35 8 61 18 72
REMARK Flexibility Score: inf
ROOT
ATOM      1  C   UNL     1      15.221   0.798  13.166  1.00  0.00     0.023 C 
ENDROOT
BRANCH   1   2
ATOM      2  C   UNL     1      16.534   1.075  12.447  1.00  0.00     0.116 C 
BRANCH   2   3
ATOM      3  N   UNL     1      16.746   2.491  12.186  1.00  0.00    -0.352 N 
ATOM      4  O   UNL     1      17.700   4.522  12.428  1.00  0.00    -0.269 OA
ATOM      5  C   UNL     1      17.762   3.311  12.614  1.00  0.00     0.251 C 
ATOM      6  H   UNL     1      16.063   2.923  11.623  1.00  0.00     0.163 HD
BRANCH   5   7
ATOM      7  C   UNL     1      18.919   2.729  13.322  1.00  0.00     0.039 A 
ATOM      8  C   UNL     1      19.546   1.579  12.835  1.00  0.00     0.014 A 
ATOM      9  C   UNL     1      19.380   3.342  14.489  1.00  0.00     0.014 A 
ATOM     10  C   UNL     1      20.535   0.960  13.589  1.00  0.00     0.010 A 
ATOM     11  C   UNL     1      20.437   2.769  15.198  1.00  0.00     0.010 A 
ATOM     12  C   UNL     1      21.004   1.559  14.767  1.00  0.00    -0.014 A 
BRANCH  12  13
ATOM     13  C   UNL     1      22.140   0.950  15.501  1.00  0.00     0.031 A 
ATOM     14  C   UNL     1      21.977   0.444  16.904  1.00  0.00     0.074 A 
ATOM     15  C   UNL     1      23.339   0.882  14.892  1.00  0.00     0.049 A 
ATOM     16  N   UNL     1      22.880  -0.060  17.707  1.00  0.00    -0.248 NA
ATOM     17  C   UNL     1      20.629   0.522  17.487  1.00  0.00     0.031 C 
ATOM     18  C   UNL     1      23.620   1.346  13.531  1.00  0.00     0.029 A 
ATOM     19  N   UNL     1      24.545   0.408  15.339  1.00  0.00    -0.354 N 
ATOM     20  C   UNL     1      22.218  -0.334  18.898  1.00  0.00     0.074 A 
ATOM     21  C   UNL     1      20.843   0.083  18.719  1.00  0.00     0.031 C 
ATOM     22  C   UNL     1      24.910   1.119  13.249  1.00  0.00     0.029 A 
ATOM     23  C   UNL     1      25.561   0.564  14.429  1.00  0.00     0.049 A 
ATOM     24  H   UNL     1      24.670  -0.004  16.224  1.00  0.00     0.167 HD
ATOM     25  C   UNL     1      22.715  -0.881  20.034  1.00  0.00     0.031 A 
ATOM     26  C   UNL     1      26.881   0.329  14.539  1.00  0.00     0.031 A 
ATOM     27  C   UNL     1      24.091  -1.274  20.207  1.00  0.00     0.049 A 
ATOM     28  C   UNL     1      27.419  -0.225  15.824  1.00  0.00     0.074 A 
ATOM     29  C   UNL     1      24.684  -1.876  21.303  1.00  0.00     0.029 A 
ATOM     30  N   UNL     1      25.092  -1.085  19.265  1.00  0.00    -0.354 N 
ATOM     31  N   UNL     1      26.773  -0.529  16.923  1.00  0.00    -0.248 NA
ATOM     32  C   UNL     1      28.865  -0.473  15.884  1.00  0.00     0.031 C 
ATOM     33  C   UNL     1      26.056  -1.981  21.055  1.00  0.00     0.029 A 
ATOM     34  C   UNL     1      26.306  -1.520  19.772  1.00  0.00     0.049 A 
ATOM     35  H   UNL     1      24.960  -0.698  18.370  1.00  0.00     0.167 HD
ATOM     36  C   UNL     1      27.727  -1.026  17.799  1.00  0.00     0.074 A 
ATOM     37  C   UNL     1      28.995  -0.993  17.098  1.00  0.00     0.031 C 
ATOM     38  C   UNL     1      27.564  -1.476  19.067  1.00  0.00     0.031 A 
BRANCH  25  39
ATOM     39  C   UNL     1      21.772  -1.034  21.199  1.00  0.00    -0.014 A 
ATOM     40  C   UNL     1      20.699  -1.939  21.167  1.00  0.00     0.009 A 
ATOM     41  C   UNL     1      21.973  -0.267  22.357  1.00  0.00     0.009 A 
ATOM     42  C   UNL     1      19.817  -2.031  22.247  1.00  0.00     0.001 A 
ATOM     43  C   UNL     1      21.112  -0.386  23.449  1.00  0.00     0.001 A 
ATOM     44  C   UNL     1      20.026  -1.256  23.388  1.00  0.00     0.000 A 
ENDBRANCH  25  39
BRANCH  26  45
ATOM     45  C   UNL     1      27.771   0.658  13.397  1.00  0.00    -0.014 A 
ATOM     46  C   UNL     1      28.366  -0.356  12.634  1.00  0.00     0.009 A 
ATOM     47  C   UNL     1      27.983   1.998  13.031  1.00  0.00     0.009 A 
ATOM     48  C   UNL     1      29.165  -0.034  11.534  1.00  0.00     0.001 A 
ATOM     49  C   UNL     1      28.754   2.315  11.912  1.00  0.00     0.001 A 
ATOM     50  C   UNL     1      29.350   1.299  11.169  1.00  0.00     0.000 A 
ENDBRANCH  26  45
BRANCH  38  51
ATOM     51  C   UNL     1      28.778  -2.008  19.775  1.00  0.00    -0.014 A 
ATOM     52  C   UNL     1      29.792  -1.154  20.236  1.00  0.00     0.009 A 
ATOM     53  C   UNL     1      28.872  -3.382  20.046  1.00  0.00     0.009 A 
ATOM     54  C   UNL     1      30.884  -1.670  20.937  1.00  0.00     0.001 A 
ATOM     55  C   UNL     1      29.948  -3.891  20.774  1.00  0.00     0.001 A 
ATOM     56  C   UNL     1      30.956  -3.036  21.213  1.00  0.00     0.000 A 
ENDBRANCH  38  51
ENDBRANCH  12  13
ENDBRANCH   5   7
ENDBRANCH   2   3
ENDBRANCH   1   2
BRANCH   1  57
ATOM     57  C   UNL     1      13.970   1.211  12.397  1.00  0.00     0.023 C 
BRANCH  57  58
ATOM     58  C   UNL     1      13.868   0.644  10.986  1.00  0.00     0.116 C 
BRANCH  58  59
ATOM     59  N   UNL     1      13.774  -0.810  10.969  1.00  0.00    -0.352 N 
ATOM     60  C   UNL     1      12.819  -1.593  10.365  1.00  0.00     0.253 C 
ATOM     61  H   UNL     1      14.485  -1.292  11.452  1.00  0.00     0.163 HD
ATOM     62  O   UNL     1      12.744  -2.793  10.604  1.00  0.00    -0.269 OA
BRANCH  60  63
ATOM     63  C   UNL     1      11.836  -0.952   9.466  1.00  0.00     0.063 A 
ATOM     64  C   UNL     1      12.337  -0.157   8.415  1.00  0.00     0.019 A 
ATOM     65  C   UNL     1      10.448  -1.087   9.693  1.00  0.00     0.056 A 
ATOM     66  C   UNL     1      11.475   0.633   7.670  1.00  0.00     0.040 A 
ATOM     67  C   UNL     1       9.620  -0.215   8.982  1.00  0.00     0.066 A 
ATOM     68  C   UNL     1      10.130   0.625   7.989  1.00  0.00     0.125 A 
ATOM     69  F   UNL     1       9.294   1.436   7.331  1.00  0.00    -0.207 F 
BRANCH  65  70
ATOM     70  N   UNL     1       9.993  -2.083  10.601  1.00  0.00    -0.325 N 
ATOM     71  C   UNL     1       8.780  -2.672  10.847  1.00  0.00     0.228 C 
ATOM     72  H   UNL     1      10.710  -2.426  11.183  1.00  0.00     0.169 HD
ATOM     73  O   UNL     1       8.707  -3.560  11.699  1.00  0.00    -0.274 OA
BRANCH  71  74
ATOM     74  C   UNL     1       7.550  -2.238  10.101  1.00  0.00     0.095 C 
ATOM     75  C   UNL     1       6.468  -3.302   9.871  1.00  0.00     0.030 C 
ATOM     76  C   UNL     1       6.826  -1.155  10.895  1.00  0.00     0.150 C 
ATOM     77  C   UNL     1       5.318  -2.535   9.206  1.00  0.00     0.138 C 
ATOM     78  S   UNL     1       5.336  -0.906   9.959  1.00  0.00     0.151 S 
ATOM     79  O   UNL     1       5.631   0.076   8.933  1.00  0.00    -0.229 OA
ATOM     80  O   UNL     1       4.223  -0.771  10.869  1.00  0.00    -0.229 OA
ENDBRANCH  71  74
ENDBRANCH  65  70
ENDBRANCH  60  63
ENDBRANCH  58  59
ENDBRANCH  57  58
ENDBRANCH   1  57
TORSDOF 13
