REMARK SMILES O=C(NCCCCNC(=O)[C@@H]1CCCN1S(=O)(=O)c1ccc2[nH]c(=O)c(=O)[nH]c2c1)c1ccc(-c2c3nc(c(-c4ccccc4)c4ccc([nH]4)c(-c4ccccc4)c4nc(c(-c5ccccc5)c5ccc2[nH]5)C=C4)C=C3)cc1
REMARK SMILES IDX 5 1 4 2 3 3 1 4 2 5 31 7 32 8 78 9 33 10 77 11 34 12 35 13
REMARK SMILES IDX 36 14 71 15 37 16 76 17 70 18 72 19 38 20 75 21 69 22 68 23
REMARK SMILES IDX 39 25 61 26 46 27 60 28 47 29 50 30 59 31 73 32 48 33 49 34
REMARK SMILES IDX 58 36 74 37 51 38 40 39 41 40 45 41 42 42 44 43 43 44 62 45
REMARK SMILES IDX 63 46 67 47 64 48 66 49 65 50 52 51 53 52 57 53 54 54 56 55
REMARK SMILES IDX 55 56 6 57 7 58 8 59 9 60 10 62 11 63 12 64 15 65 13 66
REMARK SMILES IDX 14 67 16 68 17 69 18 70 19 71 20 72 30 73 21 74 29 75 22 76
REMARK SMILES IDX 28 77 23 78 26 79 24 81 27 83 25 84
REMARK H PARENT 3 6 72 24 50 35 8 61 28 80 23 82
REMARK Flexibility Score: inf
ROOT
ATOM      1  C   UNL     1       4.683  -0.390   2.649  1.00  0.00     0.023 C 
ENDROOT
BRANCH   1   2
ATOM      2  C   UNL     1       4.520  -0.660   1.156  1.00  0.00     0.116 C 
BRANCH   2   3
ATOM      3  N   UNL     1       3.125  -0.832   0.792  1.00  0.00    -0.352 N 
ATOM      4  O   UNL     1       1.143  -0.237  -0.095  1.00  0.00    -0.269 OA
ATOM      5  C   UNL     1       2.362  -0.102  -0.083  1.00  0.00     0.251 C 
ATOM      6  H   UNL     1       2.661  -1.578   1.236  1.00  0.00     0.163 HD
BRANCH   5   7
ATOM      7  C   UNL     1       3.008   0.854  -1.005  1.00  0.00     0.039 A 
ATOM      8  C   UNL     1       4.140   0.489  -1.742  1.00  0.00     0.014 A 
ATOM      9  C   UNL     1       2.439   2.120  -1.167  1.00  0.00     0.014 A 
ATOM     10  C   UNL     1       4.759   1.421  -2.571  1.00  0.00     0.010 A 
ATOM     11  C   UNL     1       3.027   3.034  -2.042  1.00  0.00     0.010 A 
ATOM     12  C   UNL     1       4.200   2.697  -2.736  1.00  0.00    -0.014 A 
BRANCH  12  13
ATOM     13  C   UNL     1       4.806   3.667  -3.680  1.00  0.00     0.031 A 
ATOM     14  C   UNL     1       5.429   4.936  -3.179  1.00  0.00     0.074 A 
ATOM     15  C   UNL     1       4.748   3.417  -5.001  1.00  0.00     0.049 A 
ATOM     16  N   UNL     1       5.921   5.938  -3.862  1.00  0.00    -0.248 NA
ATOM     17  C   UNL     1       5.499   5.108  -1.719  1.00  0.00     0.031 C 
ATOM     18  C   UNL     1       4.167   2.220  -5.609  1.00  0.00     0.029 A 
ATOM     19  N   UNL     1       5.170   4.166  -6.070  1.00  0.00    -0.354 N 
ATOM     20  C   UNL     1       6.335   6.870  -2.920  1.00  0.00     0.074 A 
ATOM     21  C   UNL     1       6.022   6.322  -1.617  1.00  0.00     0.031 C 
ATOM     22  C   UNL     1       4.271   2.313  -6.943  1.00  0.00     0.029 A 
ATOM     23  C   UNL     1       4.875   3.597  -7.283  1.00  0.00     0.049 A 
ATOM     24  H   UNL     1       5.638   5.027  -5.976  1.00  0.00     0.167 HD
ATOM     25  C   UNL     1       6.921   8.075  -3.124  1.00  0.00     0.031 A 
ATOM     26  C   UNL     1       5.038   4.066  -8.533  1.00  0.00     0.031 A 
ATOM     27  C   UNL     1       7.226   8.619  -4.421  1.00  0.00     0.049 A 
ATOM     28  C   UNL     1       5.654   5.418  -8.736  1.00  0.00     0.074 A 
ATOM     29  C   UNL     1       7.858   9.811  -4.729  1.00  0.00     0.029 A 
ATOM     30  N   UNL     1       6.909   8.011  -5.626  1.00  0.00    -0.354 N 
ATOM     31  N   UNL     1       6.077   6.272  -7.836  1.00  0.00    -0.248 NA
ATOM     32  C   UNL     1       5.817   5.871 -10.124  1.00  0.00     0.031 C 
ATOM     33  C   UNL     1       7.878   9.947  -6.122  1.00  0.00     0.029 A 
ATOM     34  C   UNL     1       7.306   8.815  -6.680  1.00  0.00     0.049 A 
ATOM     35  H   UNL     1       6.466   7.136  -5.718  1.00  0.00     0.167 HD
ATOM     36  C   UNL     1       6.577   7.354  -8.547  1.00  0.00     0.074 A 
ATOM     37  C   UNL     1       6.408   7.046  -9.954  1.00  0.00     0.031 C 
ATOM     38  C   UNL     1       7.130   8.497  -8.074  1.00  0.00     0.031 A 
BRANCH  25  39
ATOM     39  C   UNL     1       7.234   8.903  -1.909  1.00  0.00    -0.014 A 
ATOM     40  C   UNL     1       8.273   8.555  -1.032  1.00  0.00     0.009 A 
ATOM     41  C   UNL     1       6.486  10.062  -1.650  1.00  0.00     0.009 A 
ATOM     42  C   UNL     1       8.530   9.329   0.102  1.00  0.00     0.001 A 
ATOM     43  C   UNL     1       6.761  10.848  -0.530  1.00  0.00     0.001 A 
ATOM     44  C   UNL     1       7.775  10.475   0.351  1.00  0.00     0.000 A 
ENDBRANCH  25  39
BRANCH  26  45
ATOM     45  C   UNL     1       4.584   3.241  -9.680  1.00  0.00    -0.014 A 
ATOM     46  C   UNL     1       5.513   2.573 -10.490  1.00  0.00     0.009 A 
ATOM     47  C   UNL     1       3.213   3.071  -9.931  1.00  0.00     0.009 A 
ATOM     48  C   UNL     1       5.076   1.753 -11.533  1.00  0.00     0.001 A 
ATOM     49  C   UNL     1       2.780   2.232 -10.958  1.00  0.00     0.001 A 
ATOM     50  C   UNL     1       3.711   1.577 -11.761  1.00  0.00     0.000 A 
ENDBRANCH  26  45
BRANCH  38  51
ATOM     51  C   UNL     1       7.627   9.490  -9.084  1.00  0.00    -0.014 A 
ATOM     52  C   UNL     1       6.740  10.313  -9.793  1.00  0.00     0.009 A 
ATOM     53  C   UNL     1       9.009   9.647  -9.278  1.00  0.00     0.009 A 
ATOM     54  C   UNL     1       7.228  11.263 -10.692  1.00  0.00     0.001 A 
ATOM     55  C   UNL     1       9.494  10.612 -10.160  1.00  0.00     0.001 A 
ATOM     56  C   UNL     1       8.603  11.416 -10.870  1.00  0.00     0.000 A 
ENDBRANCH  38  51
ENDBRANCH  12  13
ENDBRANCH   5   7
ENDBRANCH   2   3
ENDBRANCH   1   2
BRANCH   1  57
ATOM     57  C   UNL     1       4.218  -1.534   3.559  1.00  0.00     0.023 C 
BRANCH  57  58
ATOM     58  C   UNL     1       4.942  -2.864   3.325  1.00  0.00     0.116 C 
BRANCH  58  59
ATOM     59  N   UNL     1       6.350  -2.720   3.651  1.00  0.00    -0.355 N 
ATOM     60  C   UNL     1       7.032  -3.207   4.729  1.00  0.00     0.238 C 
ATOM     61  H   UNL     1       6.885  -2.201   3.007  1.00  0.00     0.163 HD
ATOM     62  O   UNL     1       7.987  -2.543   5.132  1.00  0.00    -0.273 OA
BRANCH  60  63
ATOM     63  C   UNL     1       6.639  -4.538   5.329  1.00  0.00     0.162 C 
ATOM     64  C   UNL     1       6.861  -4.562   6.837  1.00  0.00     0.032 C 
ATOM     65  N   UNL     1       7.280  -5.811   4.849  1.00  0.00    -0.185 NA
ATOM     66  C   UNL     1       6.538  -6.002   7.171  1.00  0.00     0.019 C 
ATOM     67  C   UNL     1       7.075  -6.795   5.982  1.00  0.00     0.103 C 
BRANCH  65  68
ATOM     68  S   UNL     1       8.913  -5.815   4.309  1.00  0.00     0.243 S 
ATOM     69  O   UNL     1       9.697  -4.993   5.207  1.00  0.00    -0.207 OA
ATOM     70  O   UNL     1       9.273  -7.203   4.106  1.00  0.00    -0.207 OA
BRANCH  68  71
ATOM     71  C   UNL     1       8.941  -5.077   2.686  1.00  0.00     0.084 A 
ATOM     72  C   UNL     1       9.235  -3.719   2.527  1.00  0.00     0.024 A 
ATOM     73  C   UNL     1       8.889  -5.910   1.558  1.00  0.00     0.050 A 
ATOM     74  C   UNL     1       9.311  -3.153   1.252  1.00  0.00     0.030 A 
ATOM     75  C   UNL     1       9.056  -5.357   0.288  1.00  0.00     0.066 A 
ATOM     76  C   UNL     1       9.218  -3.975   0.134  1.00  0.00     0.065 A 
ATOM     77  N   UNL     1       9.114  -6.187  -0.836  1.00  0.00    -0.316 N 
ATOM     78  N   UNL     1       9.318  -3.420  -1.142  1.00  0.00    -0.316 N 
ATOM     79  C   UNL     1       9.295  -5.713  -2.118  1.00  0.00     0.314 A 
ATOM     80  H   UNL     1       9.020  -7.159  -0.705  1.00  0.00     0.170 HD
ATOM     81  C   UNL     1       9.320  -4.174  -2.294  1.00  0.00     0.314 A 
ATOM     82  H   UNL     1       9.390  -2.441  -1.223  1.00  0.00     0.170 HD
ATOM     83  O   UNL     1       9.427  -6.466  -3.073  1.00  0.00    -0.263 OA
ATOM     84  O   UNL     1       9.345  -3.653  -3.401  1.00  0.00    -0.263 OA
ENDBRANCH  68  71
ENDBRANCH  65  68
ENDBRANCH  60  63
ENDBRANCH  58  59
ENDBRANCH  57  58
ENDBRANCH   1  57
TORSDOF 13
