REMARK SMILES CCN(Cc1cn(CC)nc1C)C(=O)c1ccn([C@@H](C)C(=O)NCCCCNC(=O)c2ccc(-c3c4nc(c(-c5ccccc5)c5ccc([nH]5)c(-c5ccccc5)c5nc(c(-c6ccccc6)c6ccc3[nH]6)C=C5)C=C4)cc2)n1
REMARK SMILES IDX 21 1 22 2 23 3 19 5 20 6 18 7 15 8 16 9 79 10 17 11 13 12
REMARK SMILES IDX 14 13 3 14 2 15 1 16 4 17 5 18 6 19 11 20 7 21 10 22 12 23
REMARK SMILES IDX 8 24 9 25 24 26 25 27 26 28 27 29 28 30 29 31 30 33 31 34
REMARK SMILES IDX 32 35 78 36 33 37 77 38 34 39 35 40 36 41 71 42 37 43 76 44
REMARK SMILES IDX 70 45 72 46 38 47 75 48 69 49 68 50 39 52 61 53 46 54 60 55
REMARK SMILES IDX 47 56 50 57 59 58 73 59 48 60 49 61 58 63 74 64 51 65 40 66
REMARK SMILES IDX 41 67 45 68 42 69 44 70 43 71 62 72 63 73 67 74 64 75 66 76
REMARK SMILES IDX 65 77 52 78 53 79 57 80 54 81 56 82 55 83
REMARK H PARENT 23 4 28 32 72 51 50 62
REMARK Flexibility Score: inf
ROOT
ATOM      1  C   UNL     1       6.165   3.587   5.753  1.00  0.00     0.244 C 
ATOM      2  O   UNL     1       7.334   3.278   5.478  1.00  0.00    -0.273 OA
ATOM      3  N   UNL     1       5.827   3.383   7.062  1.00  0.00    -0.354 N 
ATOM      4  H   UNL     1       6.570   3.012   7.591  1.00  0.00     0.163 HD
ENDROOT
BRANCH   1   5
ATOM      5  C   UNL     1       5.275   4.212   4.659  1.00  0.00     0.193 C 
ATOM      6  C   UNL     1       4.881   5.656   4.945  1.00  0.00     0.044 C 
BRANCH   5   7
ATOM      7  N   UNL     1       4.150   3.361   4.295  1.00  0.00    -0.260 N 
ATOM      8  C   UNL     1       3.149   1.742   3.349  1.00  0.00     0.150 A 
ATOM      9  C   UNL     1       2.785   1.786   4.705  1.00  0.00     0.056 A 
ATOM     10  N   UNL     1       4.071   2.706   3.107  1.00  0.00    -0.167 NA
ATOM     11  C   UNL     1       3.082   3.068   5.079  1.00  0.00     0.110 A 
BRANCH   8  12
ATOM     12  C   UNL     1       2.631   0.784   2.358  1.00  0.00     0.274 C 
ATOM     13  O   UNL     1       3.397   0.137   1.643  1.00  0.00    -0.267 OA
BRANCH  12  14
ATOM     14  N   UNL     1       1.222   0.617   2.271  1.00  0.00    -0.333 N 
BRANCH  14  15
ATOM     15  C   UNL     1       0.734  -0.329   1.268  1.00  0.00     0.117 C 
ATOM     16  C   UNL     1       0.903   0.165  -0.163  1.00  0.00     0.027 C 
ENDBRANCH  14  15
BRANCH  14  17
ATOM     17  C   UNL     1       0.210   1.480   2.916  1.00  0.00     0.159 C 
BRANCH  17  18
ATOM     18  C   UNL     1      -0.110   1.109   4.342  1.00  0.00     0.012 A 
ATOM     19  C   UNL     1      -0.282   2.013   5.386  1.00  0.00     0.114 A 
ATOM     20  C   UNL     1      -0.221  -0.160   4.991  1.00  0.00     0.064 A 
ATOM     21  N   UNL     1      -0.291   1.287   6.543  1.00  0.00    -0.272 N 
ATOM     22  N   UNL     1      -0.309  -0.033   6.323  1.00  0.00    -0.178 NA
ATOM     23  C   UNL     1      -0.144  -1.532   4.436  1.00  0.00     0.069 C 
BRANCH  21  24
ATOM     24  C   UNL     1       0.008   1.777   7.875  1.00  0.00     0.141 C 
ATOM     25  C   UNL     1      -1.086   1.539   8.895  1.00  0.00     0.029 C 
ENDBRANCH  21  24
ENDBRANCH  17  18
ENDBRANCH  14  17
ENDBRANCH  12  14
ENDBRANCH   8  12
ENDBRANCH   5   7
ENDBRANCH   1   5
BRANCH   3  26
ATOM     26  C   UNL     1       4.623   3.588   7.853  1.00  0.00     0.116 C 
BRANCH  26  27
ATOM     27  C   UNL     1       3.773   2.314   7.994  1.00  0.00     0.023 C 
BRANCH  27  28
ATOM     28  C   UNL     1       4.070   1.344   9.139  1.00  0.00     0.023 C 
BRANCH  28  29
ATOM     29  C   UNL     1       3.781   1.874  10.533  1.00  0.00     0.116 C 
BRANCH  29  30
ATOM     30  N   UNL     1       2.366   2.192  10.772  1.00  0.00    -0.352 N 
ATOM     31  C   UNL     1       1.830   2.885  11.845  1.00  0.00     0.251 C 
ATOM     32  H   UNL     1       1.727   1.876  10.093  1.00  0.00     0.163 HD
ATOM     33  O   UNL     1       0.646   2.771  12.161  1.00  0.00    -0.269 OA
BRANCH  31  34
ATOM     34  C   UNL     1       2.714   3.796  12.581  1.00  0.00     0.039 A 
ATOM     35  C   UNL     1       2.785   3.843  13.976  1.00  0.00     0.014 A 
ATOM     36  C   UNL     1       3.584   4.534  11.789  1.00  0.00     0.014 A 
ATOM     37  C   UNL     1       3.808   4.588  14.560  1.00  0.00     0.010 A 
ATOM     38  C   UNL     1       4.718   5.035  12.353  1.00  0.00     0.010 A 
ATOM     39  C   UNL     1       4.784   5.165  13.731  1.00  0.00    -0.014 A 
BRANCH  39  40
ATOM     40  C   UNL     1       5.970   5.826  14.248  1.00  0.00     0.031 A 
ATOM     41  C   UNL     1       6.789   4.980  15.148  1.00  0.00     0.074 A 
ATOM     42  C   UNL     1       6.415   7.001  13.747  1.00  0.00     0.049 A 
ATOM     43  N   UNL     1       6.913   5.106  16.425  1.00  0.00    -0.248 NA
ATOM     44  C   UNL     1       7.410   3.760  14.605  1.00  0.00     0.031 C 
ATOM     45  C   UNL     1       5.877   7.785  12.624  1.00  0.00     0.029 A 
ATOM     46  N   UNL     1       7.539   7.694  14.065  1.00  0.00    -0.354 N 
ATOM     47  C   UNL     1       7.818   4.128  16.817  1.00  0.00     0.074 A 
ATOM     48  C   UNL     1       7.915   3.208  15.712  1.00  0.00     0.031 C 
ATOM     49  C   UNL     1       6.797   8.686  12.211  1.00  0.00     0.029 A 
ATOM     50  C   UNL     1       7.906   8.670  13.144  1.00  0.00     0.049 A 
ATOM     51  H   UNL     1       8.054   7.518  14.885  1.00  0.00     0.167 HD
ATOM     52  C   UNL     1       8.627   4.323  17.895  1.00  0.00     0.031 A 
ATOM     53  C   UNL     1       9.050   9.401  13.148  1.00  0.00     0.031 A 
ATOM     54  C   UNL     1       8.192   5.456  18.677  1.00  0.00     0.049 A 
ATOM     55  C   UNL     1       9.599   9.336  14.522  1.00  0.00     0.074 A 
ATOM     56  C   UNL     1       7.026   5.796  19.334  1.00  0.00     0.029 A 
ATOM     57  N   UNL     1       8.875   6.636  18.488  1.00  0.00    -0.354 N 
ATOM     58  N   UNL     1       9.007   9.877  15.548  1.00  0.00    -0.248 NA
ATOM     59  C   UNL     1      10.530   8.264  14.831  1.00  0.00     0.031 C 
ATOM     60  C   UNL     1       6.845   7.186  19.062  1.00  0.00     0.029 A 
ATOM     61  C   UNL     1       7.952   7.639  18.342  1.00  0.00     0.049 A 
ATOM     62  H   UNL     1       9.854   6.742  18.463  1.00  0.00     0.167 HD
ATOM     63  C   UNL     1       9.118   8.929  16.554  1.00  0.00     0.074 A 
ATOM     64  C   UNL     1      10.152   8.003  16.087  1.00  0.00     0.031 C 
ATOM     65  C   UNL     1       8.159   8.812  17.521  1.00  0.00     0.031 A 
BRANCH  52  66
ATOM     66  C   UNL     1      10.041   3.801  17.985  1.00  0.00    -0.014 A 
ATOM     67  C   UNL     1      10.777   4.071  19.153  1.00  0.00     0.009 A 
ATOM     68  C   UNL     1      10.767   3.319  16.879  1.00  0.00     0.009 A 
ATOM     69  C   UNL     1      12.172   3.954  19.179  1.00  0.00     0.001 A 
ATOM     70  C   UNL     1      12.155   3.162  16.915  1.00  0.00     0.001 A 
ATOM     71  C   UNL     1      12.861   3.510  18.056  1.00  0.00     0.000 A 
ENDBRANCH  52  66
BRANCH  53  72
ATOM     72  C   UNL     1       9.841   9.928  12.014  1.00  0.00    -0.014 A 
ATOM     73  C   UNL     1      10.820  10.915  12.216  1.00  0.00     0.009 A 
ATOM     74  C   UNL     1       9.843   9.251  10.781  1.00  0.00     0.009 A 
ATOM     75  C   UNL     1      11.794  11.178  11.241  1.00  0.00     0.001 A 
ATOM     76  C   UNL     1      10.816   9.513   9.808  1.00  0.00     0.001 A 
ATOM     77  C   UNL     1      11.802  10.465  10.045  1.00  0.00     0.000 A 
ENDBRANCH  53  72
BRANCH  65  78
ATOM     78  C   UNL     1       7.093   9.883  17.590  1.00  0.00    -0.014 A 
ATOM     79  C   UNL     1       6.201  10.165  16.539  1.00  0.00     0.009 A 
ATOM     80  C   UNL     1       6.896  10.537  18.815  1.00  0.00     0.009 A 
ATOM     81  C   UNL     1       5.168  11.097  16.701  1.00  0.00     0.001 A 
ATOM     82  C   UNL     1       5.854  11.450  18.984  1.00  0.00     0.001 A 
ATOM     83  C   UNL     1       4.995  11.737  17.926  1.00  0.00     0.000 A 
ENDBRANCH  65  78
ENDBRANCH  39  40
ENDBRANCH  31  34
ENDBRANCH  29  30
ENDBRANCH  28  29
ENDBRANCH  27  28
ENDBRANCH  26  27
ENDBRANCH   3  26
TORSDOF 18
