REMARK SMILES C[C@H]1[C@H](C(=O)NCCCCNC(=O)c2ccc(-c3c4nc(c(-c5ccccc5)c5ccc([nH]5)c(-c5ccccc5)c5nc(c(-c6ccccc6)c6ccc3[nH]6)C=C5)C=C4)cc2)CCN1C(=O)c1ccc2ccccc2c1
REMARK SMILES IDX 8 1 7 2 6 3 4 4 5 5 3 7 1 8 2 9 64 10 62 11 63 12 65 13
REMARK SMILES IDX 66 14 67 15 68 16 76 17 69 18 75 19 70 20 74 21 71 22 73 23
REMARK SMILES IDX 72 24 9 25 10 26 11 27 12 28 13 30 14 31 15 32 61 33 16 34
REMARK SMILES IDX 60 35 17 36 18 37 19 38 54 39 20 40 59 41 53 42 55 43 21 44
REMARK SMILES IDX 58 45 52 46 51 47 22 49 44 50 29 51 43 52 30 53 33 54 42 55
REMARK SMILES IDX 56 56 31 57 32 58 41 60 57 61 34 62 23 63 24 64 28 65 25 66
REMARK SMILES IDX 27 67 26 68 45 69 46 70 50 71 47 72 49 73 48 74 35 75 36 76
REMARK SMILES IDX 40 77 37 78 39 79 38 80
REMARK H PARENT 6 6 11 29 55 48 33 59
REMARK Flexibility Score: inf
ROOT
ATOM      1  C   UNL     1      -0.005   0.015   3.950  1.00  0.00     0.023 C 
ENDROOT
BRANCH   1   2
ATOM      2  C   UNL     1      -0.978   0.602   2.935  1.00  0.00     0.116 C 
BRANCH   2   3
ATOM      3  N   UNL     1      -0.498   1.861   2.400  1.00  0.00    -0.356 N 
ATOM      4  C   UNL     1      -0.020   2.179   1.168  1.00  0.00     0.225 C 
ATOM      5  O   UNL     1       0.373   3.336   0.996  1.00  0.00    -0.275 OA
ATOM      6  H   UNL     1      -0.521   2.612   3.037  1.00  0.00     0.163 HD
BRANCH   4   7
ATOM      7  C   UNL     1       0.032   1.180   0.022  1.00  0.00     0.102 C 
ATOM      8  C   UNL     1       2.113  -0.021  -0.719  1.00  0.00     0.032 C 
ATOM      9  C   UNL     1       0.969  -0.011   0.295  1.00  0.00     0.094 C 
ATOM     10  N   UNL     1       0.108  -1.193   0.194  1.00  0.00    -0.335 N 
ATOM     11  C   UNL     1      -1.338   0.609  -0.352  1.00  0.00     0.037 C 
ATOM     12  C   UNL     1      -1.135  -0.889  -0.487  1.00  0.00     0.121 C 
BRANCH  10  13
ATOM     13  C   UNL     1       0.317  -2.465   0.703  1.00  0.00     0.254 C 
ATOM     14  O   UNL     1      -0.560  -3.320   0.768  1.00  0.00    -0.269 OA
BRANCH  13  15
ATOM     15  C   UNL     1       1.675  -2.850   1.124  1.00  0.00     0.040 A 
ATOM     16  C   UNL     1       2.519  -3.405   0.162  1.00  0.00     0.014 A 
ATOM     17  C   UNL     1       2.072  -2.775   2.461  1.00  0.00     0.022 A 
ATOM     18  C   UNL     1       3.797  -3.826   0.524  1.00  0.00     0.009 A 
ATOM     19  C   UNL     1       3.356  -3.204   2.839  1.00  0.00    -0.018 A 
ATOM     20  C   UNL     1       4.231  -3.725   1.854  1.00  0.00    -0.018 A 
ATOM     21  C   UNL     1       3.793  -3.142   4.173  1.00  0.00     0.009 A 
ATOM     22  C   UNL     1       5.515  -4.152   2.227  1.00  0.00     0.009 A 
ATOM     23  C   UNL     1       5.071  -3.580   4.528  1.00  0.00     0.001 A 
ATOM     24  C   UNL     1       5.932  -4.080   3.556  1.00  0.00     0.001 A 
ENDBRANCH  13  15
ENDBRANCH  10  13
ENDBRANCH   4   7
ENDBRANCH   2   3
ENDBRANCH   1   2
BRANCH   1  25
ATOM     25  C   UNL     1       0.046   0.754   5.283  1.00  0.00     0.023 C 
BRANCH  25  26
ATOM     26  C   UNL     1      -1.292   0.866   6.001  1.00  0.00     0.116 C 
BRANCH  26  27
ATOM     27  N   UNL     1      -1.924  -0.423   6.246  1.00  0.00    -0.352 N 
ATOM     28  C   UNL     1      -2.539  -0.877   7.390  1.00  0.00     0.251 C 
ATOM     29  H   UNL     1      -1.910  -1.054   5.491  1.00  0.00     0.163 HD
ATOM     30  O   UNL     1      -2.920  -2.034   7.479  1.00  0.00    -0.269 OA
BRANCH  28  31
ATOM     31  C   UNL     1      -2.697   0.048   8.531  1.00  0.00     0.039 A 
ATOM     32  C   UNL     1      -2.298  -0.374   9.801  1.00  0.00     0.014 A 
ATOM     33  C   UNL     1      -3.182   1.343   8.333  1.00  0.00     0.014 A 
ATOM     34  C   UNL     1      -2.313   0.533  10.861  1.00  0.00     0.010 A 
ATOM     35  C   UNL     1      -3.114   2.267   9.368  1.00  0.00     0.010 A 
ATOM     36  C   UNL     1      -2.679   1.871  10.642  1.00  0.00    -0.014 A 
BRANCH  36  37
ATOM     37  C   UNL     1      -2.611   2.877  11.730  1.00  0.00     0.031 A 
ATOM     38  C   UNL     1      -3.863   3.562  12.201  1.00  0.00     0.074 A 
ATOM     39  C   UNL     1      -1.415   3.224  12.245  1.00  0.00     0.049 A 
ATOM     40  N   UNL     1      -3.999   4.510  13.094  1.00  0.00    -0.248 NA
ATOM     41  C   UNL     1      -5.125   3.150  11.565  1.00  0.00     0.031 C 
ATOM     42  C   UNL     1      -0.121   2.668  11.840  1.00  0.00     0.029 A 
ATOM     43  N   UNL     1      -1.093   4.136  13.218  1.00  0.00    -0.354 N 
ATOM     44  C   UNL     1      -5.353   4.818  13.111  1.00  0.00     0.074 A 
ATOM     45  C   UNL     1      -5.988   3.998  12.103  1.00  0.00     0.031 C 
ATOM     46  C   UNL     1       0.849   3.227  12.581  1.00  0.00     0.029 A 
ATOM     47  C   UNL     1       0.253   4.208  13.482  1.00  0.00     0.049 A 
ATOM     48  H   UNL     1      -1.764   4.686  13.684  1.00  0.00     0.167 HD
ATOM     49  C   UNL     1      -6.014   5.689  13.909  1.00  0.00     0.031 A 
ATOM     50  C   UNL     1       0.932   4.980  14.351  1.00  0.00     0.031 A 
ATOM     51  C   UNL     1      -5.385   6.493  14.922  1.00  0.00     0.049 A 
ATOM     52  C   UNL     1       0.176   5.944  15.222  1.00  0.00     0.074 A 
ATOM     53  C   UNL     1      -5.976   7.360  15.823  1.00  0.00     0.029 A 
ATOM     54  N   UNL     1      -4.021   6.528  15.165  1.00  0.00    -0.354 N 
ATOM     55  N   UNL     1      -1.114   6.171  15.276  1.00  0.00    -0.248 NA
ATOM     56  C   UNL     1       0.971   6.751  16.159  1.00  0.00     0.031 C 
ATOM     57  C   UNL     1      -4.963   7.958  16.580  1.00  0.00     0.029 A 
ATOM     58  C   UNL     1      -3.748   7.421  16.187  1.00  0.00     0.049 A 
ATOM     59  H   UNL     1      -3.347   5.998  14.683  1.00  0.00     0.167 HD
ATOM     60  C   UNL     1      -1.288   7.125  16.270  1.00  0.00     0.074 A 
ATOM     61  C   UNL     1       0.026   7.421  16.803  1.00  0.00     0.031 C 
ATOM     62  C   UNL     1      -2.434   7.704  16.704  1.00  0.00     0.031 A 
BRANCH  49  63
ATOM     63  C   UNL     1      -7.499   5.817  13.711  1.00  0.00    -0.014 A 
ATOM     64  C   UNL     1      -8.372   4.775  14.064  1.00  0.00     0.009 A 
ATOM     65  C   UNL     1      -8.035   7.004  13.189  1.00  0.00     0.009 A 
ATOM     66  C   UNL     1      -9.747   4.905  13.861  1.00  0.00     0.001 A 
ATOM     67  C   UNL     1      -9.413   7.143  13.017  1.00  0.00     0.001 A 
ATOM     68  C   UNL     1     -10.267   6.090  13.343  1.00  0.00     0.000 A 
ENDBRANCH  49  63
BRANCH  50  69
ATOM     69  C   UNL     1       2.410   4.862  14.457  1.00  0.00    -0.014 A 
ATOM     70  C   UNL     1       2.998   4.290  15.596  1.00  0.00     0.009 A 
ATOM     71  C   UNL     1       3.242   5.326  13.426  1.00  0.00     0.009 A 
ATOM     72  C   UNL     1       4.387   4.212  15.713  1.00  0.00     0.001 A 
ATOM     73  C   UNL     1       4.630   5.220  13.533  1.00  0.00     0.001 A 
ATOM     74  C   UNL     1       5.202   4.672  14.680  1.00  0.00     0.000 A 
ENDBRANCH  50  69
BRANCH  62  75
ATOM     75  C   UNL     1      -2.321   8.690  17.832  1.00  0.00    -0.014 A 
ATOM     76  C   UNL     1      -1.770   9.965  17.634  1.00  0.00     0.009 A 
ATOM     77  C   UNL     1      -2.812   8.349  19.103  1.00  0.00     0.009 A 
ATOM     78  C   UNL     1      -1.683  10.867  18.696  1.00  0.00     0.001 A 
ATOM     79  C   UNL     1      -2.751   9.264  20.154  1.00  0.00     0.001 A 
ATOM     80  C   UNL     1      -2.178  10.518  19.952  1.00  0.00     0.000 A 
ENDBRANCH  62  75
ENDBRANCH  36  37
ENDBRANCH  28  31
ENDBRANCH  26  27
ENDBRANCH  25  26
ENDBRANCH   1  25
TORSDOF 13
