REMARK SMILES COc1cc2c(cc1OC)-c1c(c(C(=O)Nc3ccc(C(=O)NCCCCNC(=O)c4ccc(-c5c6nc(c(-c7ccccc7)c7ccc([nH]7)c(-c7ccccc7)c7nc(c(-c8ccccc8)c8ccc5[nH]8)C=C7)C=C6)cc4)cc3)nn1-c1ccc(F)cc1)C2
REMARK SMILES IDX 25 1 24 2 23 3 21 4 22 5 20 7 17 8 18 9 80 10 19 11 79 12
REMARK SMILES IDX 16 13 14 14 15 15 13 17 3 18 4 19 8 20 5 21 7 22 6 23 90 24
REMARK SMILES IDX 11 25 12 26 82 27 81 28 2 29 1 30 9 31 10 32 83 33 84 34
REMARK SMILES IDX 89 35 85 36 88 37 86 38 87 39 26 40 27 41 28 42 29 43 30 45
REMARK SMILES IDX 31 46 32 47 78 48 33 49 77 50 34 51 35 52 36 53 71 54 37 55
REMARK SMILES IDX 76 56 70 57 72 58 38 59 75 60 69 61 68 62 39 64 61 65 46 66
REMARK SMILES IDX 60 67 47 68 50 69 59 70 73 71 48 72 49 73 58 75 74 76 51 77
REMARK SMILES IDX 40 78 41 79 45 80 42 81 44 82 43 83 62 84 63 85 67 86 64 87
REMARK SMILES IDX 66 88 65 89 52 90 53 91 57 92 54 93 56 94 55 95
REMARK H PARENT 23 6 16 16 28 44 72 63 50 74
REMARK Flexibility Score: inf
ROOT
ATOM      1  C   UNL     1      -3.049   6.953  -1.881  1.00  0.00     0.023 C 
ENDROOT
BRANCH   1   2
ATOM      2  C   UNL     1      -3.679   6.825  -0.499  1.00  0.00     0.116 C 
BRANCH   2   3
ATOM      3  N   UNL     1      -3.771   5.483   0.042  1.00  0.00    -0.352 N 
ATOM      4  C   UNL     1      -3.858   5.026   1.345  1.00  0.00     0.251 C 
ATOM      5  O   UNL     1      -4.075   3.833   1.515  1.00  0.00    -0.269 OA
ATOM      6  H   UNL     1      -3.770   4.771  -0.638  1.00  0.00     0.163 HD
BRANCH   4   7
ATOM      7  C   UNL     1      -3.524   5.884   2.528  1.00  0.00     0.039 A 
ATOM      8  C   UNL     1      -1.878   7.314   4.245  1.00  0.00     0.041 A 
ATOM      9  C   UNL     1      -2.069   5.960   4.471  1.00  0.00     0.027 A 
ATOM     10  C   UNL     1      -2.757   7.995   3.401  1.00  0.00     0.027 A 
ATOM     11  C   UNL     1      -2.912   5.241   3.614  1.00  0.00     0.016 A 
ATOM     12  C   UNL     1      -3.591   7.274   2.543  1.00  0.00     0.016 A 
BRANCH   8  13
ATOM     13  N   UNL     1      -0.844   8.040   4.825  1.00  0.00    -0.321 N 
ATOM     14  C   UNL     1       0.454   7.719   5.170  1.00  0.00     0.276 C 
ATOM     15  O   UNL     1       0.977   8.518   5.957  1.00  0.00    -0.267 OA
ATOM     16  H   UNL     1      -1.087   8.971   5.032  1.00  0.00     0.170 HD
BRANCH  14  17
ATOM     17  C   UNL     1       1.262   6.627   4.540  1.00  0.00     0.155 A 
ATOM     18  C   UNL     1       1.401   2.182   0.467  1.00  0.00     0.161 A 
ATOM     19  C   UNL     1       0.535   3.242   0.799  1.00  0.00     0.055 A 
ATOM     20  C   UNL     1       2.680   2.073   1.055  1.00  0.00     0.161 A 
ATOM     21  C   UNL     1       0.955   4.178   1.735  1.00  0.00    -0.030 A 
ATOM     22  C   UNL     1       3.071   3.012   2.017  1.00  0.00     0.061 A 
ATOM     23  C   UNL     1       2.223   4.055   2.323  1.00  0.00     0.008 A 
ATOM     24  C   UNL     1       0.125   5.312   2.362  1.00  0.00     0.076 C 
ATOM     25  C   UNL     1       2.281   5.091   3.300  1.00  0.00     0.079 A 
ATOM     26  C   UNL     1       1.092   5.763   3.416  1.00  0.00     0.016 A 
ATOM     27  N   UNL     1       3.151   5.579   4.211  1.00  0.00    -0.232 N 
ATOM     28  N   UNL     1       2.500   6.393   5.078  1.00  0.00    -0.162 NA
BRANCH  18  29
ATOM     29  O   UNL     1       0.966   1.286  -0.474  1.00  0.00    -0.493 OA
ATOM     30  C   UNL     1       0.108   0.301   0.109  1.00  0.00     0.278 C 
ENDBRANCH  18  29
BRANCH  20  31
ATOM     31  O   UNL     1       3.650   1.132   0.846  1.00  0.00    -0.493 OA
ATOM     32  C   UNL     1       3.455   0.138  -0.143  1.00  0.00     0.278 C 
ENDBRANCH  20  31
BRANCH  27  33
ATOM     33  C   UNL     1       4.535   5.311   4.294  1.00  0.00     0.065 A 
ATOM     34  C   UNL     1       5.143   5.151   5.542  1.00  0.00     0.031 A 
ATOM     35  C   UNL     1       5.279   5.136   3.114  1.00  0.00     0.031 A 
ATOM     36  C   UNL     1       6.465   4.698   5.598  1.00  0.00     0.041 A 
ATOM     37  C   UNL     1       6.601   4.705   3.179  1.00  0.00     0.041 A 
ATOM     38  C   UNL     1       7.174   4.466   4.420  1.00  0.00     0.123 A 
ATOM     39  F   UNL     1       8.427   3.997   4.483  1.00  0.00    -0.207 F 
ENDBRANCH  27  33
ENDBRANCH  14  17
ENDBRANCH   8  13
ENDBRANCH   4   7
ENDBRANCH   2   3
ENDBRANCH   1   2
BRANCH   1  40
ATOM     40  C   UNL     1      -3.569   6.074  -3.015  1.00  0.00     0.023 C 
BRANCH  40  41
ATOM     41  C   UNL     1      -5.083   5.940  -3.188  1.00  0.00     0.116 C 
BRANCH  41  42
ATOM     42  N   UNL     1      -5.849   7.164  -3.063  1.00  0.00    -0.352 N 
ATOM     43  C   UNL     1      -6.316   8.114  -3.930  1.00  0.00     0.251 C 
ATOM     44  H   UNL     1      -6.093   7.358  -2.129  1.00  0.00     0.163 HD
ATOM     45  O   UNL     1      -7.158   8.890  -3.469  1.00  0.00    -0.269 OA
BRANCH  43  46
ATOM     46  C   UNL     1      -5.862   8.314  -5.335  1.00  0.00     0.039 A 
ATOM     47  C   UNL     1      -4.853   7.592  -5.963  1.00  0.00     0.014 A 
ATOM     48  C   UNL     1      -6.453   9.379  -6.045  1.00  0.00     0.014 A 
ATOM     49  C   UNL     1      -4.381   7.976  -7.218  1.00  0.00     0.010 A 
ATOM     50  C   UNL     1      -6.002   9.752  -7.314  1.00  0.00     0.010 A 
ATOM     51  C   UNL     1      -4.929   9.076  -7.887  1.00  0.00    -0.014 A 
BRANCH  51  52
ATOM     52  C   UNL     1      -4.330   9.438  -9.174  1.00  0.00     0.031 A 
ATOM     53  C   UNL     1      -4.306   8.392 -10.239  1.00  0.00     0.074 A 
ATOM     54  C   UNL     1      -3.845  10.652  -9.499  1.00  0.00     0.049 A 
ATOM     55  N   UNL     1      -3.276   7.850 -10.807  1.00  0.00    -0.248 NA
ATOM     56  C   UNL     1      -5.596   7.885 -10.724  1.00  0.00     0.031 C 
ATOM     57  C   UNL     1      -4.030  11.931  -8.815  1.00  0.00     0.029 A 
ATOM     58  N   UNL     1      -3.129  10.990 -10.614  1.00  0.00    -0.354 N 
ATOM     59  C   UNL     1      -3.771   7.013 -11.806  1.00  0.00     0.074 A 
ATOM     60  C   UNL     1      -5.208   7.030 -11.672  1.00  0.00     0.031 C 
ATOM     61  C   UNL     1      -3.641  12.931  -9.641  1.00  0.00     0.029 A 
ATOM     62  C   UNL     1      -3.041  12.352 -10.833  1.00  0.00     0.049 A 
ATOM     63  H   UNL     1      -2.714  10.324 -11.207  1.00  0.00     0.167 HD
ATOM     64  C   UNL     1      -2.979   6.441 -12.757  1.00  0.00     0.031 A 
ATOM     65  C   UNL     1      -2.573  12.957 -11.948  1.00  0.00     0.031 A 
ATOM     66  C   UNL     1      -1.585   6.478 -12.410  1.00  0.00     0.049 A 
ATOM     67  C   UNL     1      -1.701  12.005 -12.672  1.00  0.00     0.074 A 
ATOM     68  C   UNL     1      -0.825   5.973 -11.374  1.00  0.00     0.029 A 
ATOM     69  N   UNL     1      -0.770   7.367 -13.065  1.00  0.00    -0.354 N 
ATOM     70  N   UNL     1      -0.537  11.604 -12.247  1.00  0.00    -0.248 NA
ATOM     71  C   UNL     1      -2.264  11.231 -13.766  1.00  0.00     0.031 C 
ATOM     72  C   UNL     1       0.209   6.933 -11.171  1.00  0.00     0.029 A 
ATOM     73  C   UNL     1       0.014   7.953 -12.105  1.00  0.00     0.049 A 
ATOM     74  H   UNL     1      -0.751   7.547 -14.033  1.00  0.00     0.167 HD
ATOM     75  C   UNL     1      -0.407  10.310 -12.727  1.00  0.00     0.074 A 
ATOM     76  C   UNL     1      -1.428  10.191 -13.762  1.00  0.00     0.031 C 
ATOM     77  C   UNL     1       0.321   9.368 -12.056  1.00  0.00     0.031 A 
BRANCH  64  78
ATOM     78  C   UNL     1      -3.439   6.033 -14.132  1.00  0.00    -0.014 A 
ATOM     79  C   UNL     1      -4.602   6.543 -14.736  1.00  0.00     0.009 A 
ATOM     80  C   UNL     1      -2.570   5.294 -14.959  1.00  0.00     0.009 A 
ATOM     81  C   UNL     1      -4.894   6.318 -16.086  1.00  0.00     0.001 A 
ATOM     82  C   UNL     1      -2.836   5.105 -16.321  1.00  0.00     0.001 A 
ATOM     83  C   UNL     1      -4.000   5.615 -16.884  1.00  0.00     0.000 A 
ENDBRANCH  64  78
BRANCH  65  84
ATOM     84  C   UNL     1      -3.076  14.199 -12.570  1.00  0.00    -0.014 A 
ATOM     85  C   UNL     1      -4.415  14.591 -12.387  1.00  0.00     0.009 A 
ATOM     86  C   UNL     1      -2.329  14.862 -13.556  1.00  0.00     0.009 A 
ATOM     87  C   UNL     1      -4.997  15.589 -13.173  1.00  0.00     0.001 A 
ATOM     88  C   UNL     1      -2.914  15.857 -14.351  1.00  0.00     0.001 A 
ATOM     89  C   UNL     1      -4.250  16.211 -14.166  1.00  0.00     0.000 A 
ENDBRANCH  65  84
BRANCH  77  90
ATOM     90  C   UNL     1       1.240   9.810 -10.940  1.00  0.00    -0.014 A 
ATOM     91  C   UNL     1       2.549   9.299 -10.899  1.00  0.00     0.009 A 
ATOM     92  C   UNL     1       0.791  10.560  -9.839  1.00  0.00     0.009 A 
ATOM     93  C   UNL     1       3.378   9.528  -9.797  1.00  0.00     0.001 A 
ATOM     94  C   UNL     1       1.630  10.815  -8.750  1.00  0.00     0.001 A 
ATOM     95  C   UNL     1       2.920  10.290  -8.725  1.00  0.00     0.000 A 
ENDBRANCH  77  90
ENDBRANCH  51  52
ENDBRANCH  43  46
ENDBRANCH  41  42
ENDBRANCH  40  41
ENDBRANCH   1  40
TORSDOF 16
