REMARK SMILES O=C(C[C@H](NC(=O)[C@]12C[C@H]3C[C@H](C[C@H](C3)C1)C2)c1cccc([N+](=O)[O-])c1)NCCCCNC(=O)c1ccc(-c2c3nc(c(-c4ccccc4)c4ccc([nH]4)c(-c4ccccc4)c4nc(c(-c5ccccc5)c5ccc2[nH]5)C=C4)C=C3)cc1
REMARK SMILES IDX 29 1 28 2 27 3 1 4 2 5 3 7 4 8 18 9 19 10 26 11 20 12 22 13
REMARK SMILES IDX 21 14 23 15 24 16 25 17 5 18 6 19 7 21 8 22 9 23 16 24 17 25
REMARK SMILES IDX 10 26 14 27 12 28 11 29 15 30 13 31 30 32 31 33 32 34 33 35
REMARK SMILES IDX 34 37 35 38 36 39 82 40 37 41 81 42 38 43 39 44 40 45 75 46
REMARK SMILES IDX 41 47 80 48 74 49 76 50 42 51 79 52 73 53 72 54 43 56 65 57
REMARK SMILES IDX 50 58 64 59 51 60 54 61 63 62 77 63 52 64 53 65 62 67 78 68
REMARK SMILES IDX 55 69 44 70 45 71 49 72 46 73 48 74 47 75 66 76 67 77 71 78
REMARK SMILES IDX 68 79 70 80 69 81 56 82 57 83 61 84 58 85 60 86 59 87
REMARK H PARENT 27 6 5 20 32 36 76 55 54 66
REMARK Flexibility Score: inf
ROOT
ATOM      1  C   UNL     1       2.776   1.230   4.960  1.00  0.00     0.023 C 
ENDROOT
BRANCH   1   2
ATOM      2  C   UNL     1       2.139   0.817   3.627  1.00  0.00     0.116 C 
BRANCH   2   3
ATOM      3  N   UNL     1       2.582   1.552   2.455  1.00  0.00    -0.356 N 
ATOM      4  O   UNL     1       4.801   1.235   2.860  1.00  0.00    -0.275 OA
ATOM      5  C   UNL     1       3.907   1.640   2.121  1.00  0.00     0.222 C 
ATOM      6  H   UNL     1       1.913   1.999   1.887  1.00  0.00     0.163 HD
BRANCH   5   7
ATOM      7  C   UNL     1       4.244   2.386   0.857  1.00  0.00     0.129 C 
BRANCH   7   8
ATOM      8  C   UNL     1       3.593   1.965  -0.466  1.00  0.00     0.122 C 
BRANCH   8   9
ATOM      9  C   UNL     1       4.300   2.678  -1.625  1.00  0.00    -0.018 A 
ATOM     10  C   UNL     1       5.158   2.022  -2.520  1.00  0.00     0.006 A 
ATOM     11  C   UNL     1       4.162   4.076  -1.747  1.00  0.00     0.091 A 
ATOM     12  C   UNL     1       5.890   2.735  -3.478  1.00  0.00     0.007 A 
ATOM     13  C   UNL     1       4.902   4.788  -2.704  1.00  0.00     0.269 A 
ATOM     14  C   UNL     1       5.774   4.121  -3.567  1.00  0.00     0.085 A 
BRANCH  13  15
ATOM     15  N   UNL     1       4.778   6.249  -2.774  1.00  0.00     0.062 N 
ATOM     16  O   UNL     1       5.459   6.848  -3.617  1.00  0.00    -0.258 OA
ATOM     17  O   UNL     1       4.001   6.797  -1.977  1.00  0.00    -0.258 OA
ENDBRANCH  13  15
ENDBRANCH   8   9
BRANCH   8  18
ATOM     18  N   UNL     1       3.219   0.581  -0.786  1.00  0.00    -0.348 N 
ATOM     19  C   UNL     1       3.715  -0.669  -0.885  1.00  0.00     0.226 C 
ATOM     20  H   UNL     1       2.261   0.558  -1.009  1.00  0.00     0.164 HD
ATOM     21  O   UNL     1       2.988  -1.415  -1.562  1.00  0.00    -0.274 OA
BRANCH  19  22
ATOM     22  C   UNL     1       4.934  -1.276  -0.175  1.00  0.00     0.050 C 
ATOM     23  C   UNL     1       4.409  -2.002   1.092  1.00  0.00     0.020 C 
ATOM     24  C   UNL     1       6.066  -0.321   0.202  1.00  0.00     0.020 C 
ATOM     25  C   UNL     1       5.566  -2.369  -1.095  1.00  0.00     0.020 C 
ATOM     26  C   UNL     1       5.548  -2.734   1.821  1.00  0.00    -0.010 C 
ATOM     27  C   UNL     1       7.194  -1.036   0.957  1.00  0.00    -0.010 C 
ATOM     28  C   UNL     1       6.720  -3.100  -0.379  1.00  0.00    -0.010 C 
ATOM     29  C   UNL     1       6.172  -3.783   0.885  1.00  0.00     0.007 C 
ATOM     30  C   UNL     1       6.625  -1.714   2.216  1.00  0.00     0.007 C 
ATOM     31  C   UNL     1       7.802  -2.089   0.027  1.00  0.00     0.007 C 
ENDBRANCH  19  22
ENDBRANCH   8  18
ENDBRANCH   7   8
ENDBRANCH   5   7
ENDBRANCH   2   3
ENDBRANCH   1   2
BRANCH   1  32
ATOM     32  C   UNL     1       2.806   2.731   5.246  1.00  0.00     0.023 C 
BRANCH  32  33
ATOM     33  C   UNL     1       1.465   3.434   5.110  1.00  0.00     0.116 C 
BRANCH  33  34
ATOM     34  N   UNL     1       0.453   2.908   6.010  1.00  0.00    -0.352 N 
ATOM     35  C   UNL     1      -0.535   3.593   6.678  1.00  0.00     0.251 C 
ATOM     36  H   UNL     1       0.478   1.936   6.160  1.00  0.00     0.163 HD
ATOM     37  O   UNL     1      -1.251   3.027   7.487  1.00  0.00    -0.269 OA
BRANCH  35  38
ATOM     38  C   UNL     1      -0.691   5.043   6.430  1.00  0.00     0.039 A 
ATOM     39  C   UNL     1      -0.733   5.909   7.524  1.00  0.00     0.014 A 
ATOM     40  C   UNL     1      -0.753   5.541   5.126  1.00  0.00     0.014 A 
ATOM     41  C   UNL     1      -0.777   7.287   7.309  1.00  0.00     0.010 A 
ATOM     42  C   UNL     1      -0.727   6.915   4.913  1.00  0.00     0.010 A 
ATOM     43  C   UNL     1      -0.741   7.801   6.002  1.00  0.00    -0.014 A 
BRANCH  43  44
ATOM     44  C   UNL     1      -0.721   9.263   5.755  1.00  0.00     0.031 A 
ATOM     45  C   UNL     1      -1.877   9.925   5.058  1.00  0.00     0.074 A 
ATOM     46  C   UNL     1       0.361   9.984   6.103  1.00  0.00     0.049 A 
ATOM     47  N   UNL     1      -2.023  11.178   4.710  1.00  0.00    -0.248 NA
ATOM     48  C   UNL     1      -3.006   9.059   4.681  1.00  0.00     0.031 C 
ATOM     49  C   UNL     1       1.566   9.452   6.745  1.00  0.00     0.029 A 
ATOM     50  N   UNL     1       0.625  11.323   5.959  1.00  0.00    -0.354 N 
ATOM     51  C   UNL     1      -3.249  11.247   4.062  1.00  0.00     0.074 A 
ATOM     52  C   UNL     1      -3.783   9.903   4.018  1.00  0.00     0.031 C 
ATOM     53  C   UNL     1       2.429  10.459   6.960  1.00  0.00     0.029 A 
ATOM     54  C   UNL     1       1.855  11.697   6.443  1.00  0.00     0.049 A 
ATOM     55  H   UNL     1      -0.007  11.956   5.547  1.00  0.00     0.167 HD
ATOM     56  C   UNL     1      -3.885  12.335   3.566  1.00  0.00     0.031 A 
ATOM     57  C   UNL     1       2.455  12.902   6.464  1.00  0.00     0.031 A 
ATOM     58  C   UNL     1      -3.360  13.672   3.618  1.00  0.00     0.049 A 
ATOM     59  C   UNL     1       1.731  14.093   5.903  1.00  0.00     0.074 A 
ATOM     60  C   UNL     1      -3.951  14.848   3.190  1.00  0.00     0.029 A 
ATOM     61  N   UNL     1      -2.117  14.011   4.129  1.00  0.00    -0.354 N 
ATOM     62  N   UNL     1       0.542  14.154   5.354  1.00  0.00    -0.248 NA
ATOM     63  C   UNL     1       2.428  15.385   5.978  1.00  0.00     0.031 C 
ATOM     64  C   UNL     1      -3.046  15.894   3.402  1.00  0.00     0.029 A 
ATOM     65  C   UNL     1      -1.914  15.375   4.009  1.00  0.00     0.049 A 
ATOM     66  H   UNL     1      -1.474  13.376   4.519  1.00  0.00     0.167 HD
ATOM     67  C   UNL     1       0.338  15.491   5.041  1.00  0.00     0.074 A 
ATOM     68  C   UNL     1       1.518  16.209   5.476  1.00  0.00     0.031 C 
ATOM     69  C   UNL     1      -0.733  16.073   4.446  1.00  0.00     0.031 A 
BRANCH  56  70
ATOM     70  C   UNL     1      -5.225  12.113   2.921  1.00  0.00    -0.014 A 
ATOM     71  C   UNL     1      -6.350  11.765   3.686  1.00  0.00     0.009 A 
ATOM     72  C   UNL     1      -5.370  12.275   1.535  1.00  0.00     0.009 A 
ATOM     73  C   UNL     1      -7.584  11.545   3.071  1.00  0.00     0.001 A 
ATOM     74  C   UNL     1      -6.612  12.083   0.926  1.00  0.00     0.001 A 
ATOM     75  C   UNL     1      -7.714  11.708   1.692  1.00  0.00     0.000 A 
ENDBRANCH  56  70
BRANCH  57  76
ATOM     76  C   UNL     1       3.811  13.046   7.055  1.00  0.00    -0.014 A 
ATOM     77  C   UNL     1       3.986  13.704   8.282  1.00  0.00     0.009 A 
ATOM     78  C   UNL     1       4.936  12.528   6.396  1.00  0.00     0.009 A 
ATOM     79  C   UNL     1       5.263  13.863   8.824  1.00  0.00     0.001 A 
ATOM     80  C   UNL     1       6.209  12.665   6.954  1.00  0.00     0.001 A 
ATOM     81  C   UNL     1       6.373  13.339   8.162  1.00  0.00     0.000 A 
ENDBRANCH  57  76
BRANCH  69  82
ATOM     82  C   UNL     1      -0.688  17.563   4.261  1.00  0.00    -0.014 A 
ATOM     83  C   UNL     1       0.137  18.152   3.292  1.00  0.00     0.009 A 
ATOM     84  C   UNL     1      -1.517  18.384   5.041  1.00  0.00     0.009 A 
ATOM     85  C   UNL     1       0.155  19.538   3.129  1.00  0.00     0.001 A 
ATOM     86  C   UNL     1      -1.518  19.767   4.857  1.00  0.00     0.001 A 
ATOM     87  C   UNL     1      -0.676  20.343   3.908  1.00  0.00     0.000 A 
ENDBRANCH  69  82
ENDBRANCH  43  44
ENDBRANCH  35  38
ENDBRANCH  33  34
ENDBRANCH  32  33
ENDBRANCH   1  32
TORSDOF 16
