REMARK SMILES COc1cc(/C=C2/SC(=O)N(c3ccc(O)cc3C)C2=O)ccc1OCC(=O)NCCCCNC(=O)c1ccc(-c2c3nc(c(-c4ccccc4)c4ccc([nH]4)c(-c4ccccc4)c4nc(c(-c5ccccc5)c5ccc2[nH]5)C=C4)C=C3)cc1
REMARK SMILES IDX 30 1 29 2 27 3 28 4 26 6 25 7 24 8 3 9 4 10 5 11 23 12 22 13
REMARK SMILES IDX 2 14 1 15 6 16 7 17 8 18 20 19 9 20 11 21 21 22 10 23 12 24
REMARK SMILES IDX 13 25 18 26 14 27 17 28 19 29 15 30 16 31 31 33 32 34 33 35
REMARK SMILES IDX 34 36 35 37 36 39 37 40 38 41 84 42 39 43 83 44 40 45 41 46
REMARK SMILES IDX 42 47 77 48 43 49 82 50 76 51 78 52 44 53 81 54 75 55 74 56
REMARK SMILES IDX 45 58 67 59 52 60 66 61 53 62 56 63 65 64 79 65 54 66 55 67
REMARK SMILES IDX 64 69 80 70 57 71 46 72 47 73 51 74 48 75 50 76 49 77 68 78
REMARK SMILES IDX 69 79 73 80 70 81 72 82 71 83 58 84 59 85 63 86 60 87 62 88
REMARK SMILES IDX 61 89
REMARK H PARENT 29 5 16 32 34 38 78 57 56 68
REMARK Flexibility Score: inf
ROOT
ATOM      1  C   UNL     1       3.511  -3.366   0.127  1.00  0.00     0.116 C 
ENDROOT
BRANCH   1   2
ATOM      2  N   UNL     1       2.423  -2.700  -0.561  1.00  0.00    -0.353 N 
ATOM      3  C   UNL     1       2.174  -1.360  -0.663  1.00  0.00     0.257 C 
ATOM      4  O   UNL     1       1.279  -0.997  -1.430  1.00  0.00    -0.271 OA
ATOM      5  H   UNL     1       1.778  -3.291  -1.013  1.00  0.00     0.163 HD
BRANCH   3   6
ATOM      6  C   UNL     1       3.053  -0.367   0.104  1.00  0.00     0.329 C 
BRANCH   6   7
ATOM      7  O   UNL     1       3.259  -0.649   1.476  1.00  0.00    -0.480 OA
BRANCH   7   8
ATOM      8  C   UNL     1       2.217  -0.573   2.356  1.00  0.00     0.161 A 
ATOM      9  C   UNL     1       1.017   0.136   2.230  1.00  0.00     0.161 A 
ATOM     10  C   UNL     1       0.126   0.198   3.313  1.00  0.00     0.058 A 
ATOM     11  C   UNL     1       0.414  -0.468   4.511  1.00  0.00    -0.020 A 
ATOM     12  C   UNL     1       2.467  -1.276   3.542  1.00  0.00     0.051 A 
ATOM     13  C   UNL     1       1.565  -1.253   4.604  1.00  0.00     0.012 A 
BRANCH   9  14
ATOM     14  O   UNL     1       0.780   0.910   1.126  1.00  0.00    -0.493 OA
ATOM     15  C   UNL     1      -0.463   0.609   0.492  1.00  0.00     0.278 C 
ENDBRANCH   9  14
BRANCH  11  16
ATOM     16  C   UNL     1      -0.334  -0.150   5.731  1.00  0.00     0.029 C 
ATOM     17  C   UNL     1       0.079   0.806   6.581  1.00  0.00     0.083 C 
ATOM     18  S   UNL     1      -0.710   1.185   8.062  1.00  0.00    -0.022 SA
ATOM     19  C   UNL     1       1.293   1.665   6.423  1.00  0.00     0.272 C 
ATOM     20  C   UNL     1       0.498   2.395   8.504  1.00  0.00     0.298 C 
ATOM     21  N   UNL     1       1.474   2.461   7.538  1.00  0.00    -0.236 N 
ATOM     22  O   UNL     1       2.032   1.619   5.449  1.00  0.00    -0.268 OA
ATOM     23  O   UNL     1       0.376   3.063   9.518  1.00  0.00    -0.260 OA
BRANCH  21  24
ATOM     24  C   UNL     1       2.607   3.323   7.622  1.00  0.00     0.056 A 
ATOM     25  C   UNL     1       2.941   4.093   6.487  1.00  0.00     0.031 A 
ATOM     26  C   UNL     1       3.458   3.369   8.746  1.00  0.00    -0.023 A 
ATOM     27  C   UNL     1       4.081   4.893   6.457  1.00  0.00     0.048 A 
ATOM     28  C   UNL     1       4.600   4.199   8.705  1.00  0.00     0.051 A 
ATOM     29  C   UNL     1       3.279   2.532   9.984  1.00  0.00     0.047 C 
ATOM     30  C   UNL     1       4.906   4.936   7.565  1.00  0.00     0.115 A 
BRANCH  30  31
ATOM     31  O   UNL     1       6.030   5.701   7.489  1.00  0.00    -0.508 OA
ATOM     32  H   UNL     1       6.213   6.188   6.709  1.00  0.00     0.293 HD
ENDBRANCH  30  31
ENDBRANCH  21  24
ENDBRANCH  11  16
ENDBRANCH   7   8
ENDBRANCH   6   7
ENDBRANCH   3   6
ENDBRANCH   1   2
BRANCH   1  33
ATOM     33  C   UNL     1       3.042  -4.193   1.322  1.00  0.00     0.023 C 
BRANCH  33  34
ATOM     34  C   UNL     1       2.008  -5.276   1.016  1.00  0.00     0.023 C 
BRANCH  34  35
ATOM     35  C   UNL     1       2.326  -6.175  -0.169  1.00  0.00     0.116 C 
BRANCH  35  36
ATOM     36  N   UNL     1       3.620  -6.829  -0.065  1.00  0.00    -0.352 N 
ATOM     37  C   UNL     1       3.958  -8.134  -0.325  1.00  0.00     0.251 C 
ATOM     38  H   UNL     1       4.361  -6.254   0.235  1.00  0.00     0.163 HD
ATOM     39  O   UNL     1       5.096  -8.534  -0.100  1.00  0.00    -0.269 OA
BRANCH  37  40
ATOM     40  C   UNL     1       2.935  -9.070  -0.837  1.00  0.00     0.039 A 
ATOM     41  C   UNL     1       2.814 -10.322  -0.230  1.00  0.00     0.014 A 
ATOM     42  C   UNL     1       2.088  -8.711  -1.889  1.00  0.00     0.014 A 
ATOM     43  C   UNL     1       1.796 -11.190  -0.630  1.00  0.00     0.010 A 
ATOM     44  C   UNL     1       1.031  -9.546  -2.237  1.00  0.00     0.010 A 
ATOM     45  C   UNL     1       0.874 -10.793  -1.612  1.00  0.00    -0.014 A 
BRANCH  45  46
ATOM     46  C   UNL     1      -0.259 -11.666  -2.002  1.00  0.00     0.031 A 
ATOM     47  C   UNL     1      -0.340 -12.214  -3.400  1.00  0.00     0.074 A 
ATOM     48  C   UNL     1      -1.251 -11.910  -1.123  1.00  0.00     0.049 A 
ATOM     49  N   UNL     1      -1.290 -12.922  -3.955  1.00  0.00    -0.248 NA
ATOM     50  C   UNL     1       0.783 -11.903  -4.299  1.00  0.00     0.031 C 
ATOM     51  C   UNL     1      -1.310 -11.411   0.252  1.00  0.00     0.029 A 
ATOM     52  N   UNL     1      -2.409 -12.634  -1.264  1.00  0.00    -0.354 N 
ATOM     53  C   UNL     1      -0.891 -13.121  -5.271  1.00  0.00     0.074 A 
ATOM     54  C   UNL     1       0.365 -12.424  -5.443  1.00  0.00     0.031 C 
ATOM     55  C   UNL     1      -2.433 -11.861   0.835  1.00  0.00     0.029 A 
ATOM     56  C   UNL     1      -3.191 -12.645  -0.135  1.00  0.00     0.049 A 
ATOM     57  H   UNL     1      -2.655 -13.101  -2.095  1.00  0.00     0.167 HD
ATOM     58  C   UNL     1      -1.505 -13.833  -6.245  1.00  0.00     0.031 A 
ATOM     59  C   UNL     1      -4.389 -13.216   0.092  1.00  0.00     0.031 A 
ATOM     60  C   UNL     1      -2.744 -14.541  -6.071  1.00  0.00     0.049 A 
ATOM     61  C   UNL     1      -5.053 -13.996  -1.007  1.00  0.00     0.074 A 
ATOM     62  C   UNL     1      -3.417 -15.336  -6.982  1.00  0.00     0.029 A 
ATOM     63  N   UNL     1      -3.496 -14.541  -4.907  1.00  0.00    -0.354 N 
ATOM     64  N   UNL     1      -4.634 -14.223  -2.228  1.00  0.00    -0.248 NA
ATOM     65  C   UNL     1      -6.352 -14.608  -0.692  1.00  0.00     0.031 C 
ATOM     66  C   UNL     1      -4.599 -15.783  -6.382  1.00  0.00     0.029 A 
ATOM     67  C   UNL     1      -4.635 -15.307  -5.082  1.00  0.00     0.049 A 
ATOM     68  H   UNL     1      -3.255 -14.066  -4.079  1.00  0.00     0.167 HD
ATOM     69  C   UNL     1      -5.601 -15.027  -2.817  1.00  0.00     0.074 A 
ATOM     70  C   UNL     1      -6.622 -15.258  -1.816  1.00  0.00     0.031 C 
ATOM     71  C   UNL     1      -5.638 -15.532  -4.074  1.00  0.00     0.031 A 
BRANCH  58  72
ATOM     72  C   UNL     1      -0.841 -13.875  -7.592  1.00  0.00    -0.014 A 
ATOM     73  C   UNL     1       0.347 -14.597  -7.794  1.00  0.00     0.009 A 
ATOM     74  C   UNL     1      -1.425 -13.210  -8.680  1.00  0.00     0.009 A 
ATOM     75  C   UNL     1       0.955 -14.619  -9.051  1.00  0.00     0.001 A 
ATOM     76  C   UNL     1      -0.831 -13.258  -9.942  1.00  0.00     0.001 A 
ATOM     77  C   UNL     1       0.363 -13.954 -10.124  1.00  0.00     0.000 A 
ENDBRANCH  58  72
BRANCH  59  78
ATOM     78  C   UNL     1      -5.036 -13.086   1.424  1.00  0.00    -0.014 A 
ATOM     79  C   UNL     1      -5.118 -14.192   2.284  1.00  0.00     0.009 A 
ATOM     80  C   UNL     1      -5.581 -11.861   1.838  1.00  0.00     0.009 A 
ATOM     81  C   UNL     1      -5.757 -14.081   3.520  1.00  0.00     0.001 A 
ATOM     82  C   UNL     1      -6.196 -11.746   3.087  1.00  0.00     0.001 A 
ATOM     83  C   UNL     1      -6.292 -12.857   3.922  1.00  0.00     0.000 A 
ENDBRANCH  59  78
BRANCH  71  84
ATOM     84  C   UNL     1      -6.797 -16.419  -4.425  1.00  0.00    -0.014 A 
ATOM     85  C   UNL     1      -8.078 -15.892  -4.646  1.00  0.00     0.009 A 
ATOM     86  C   UNL     1      -6.590 -17.799  -4.583  1.00  0.00     0.009 A 
ATOM     87  C   UNL     1      -9.137 -16.735  -4.991  1.00  0.00     0.001 A 
ATOM     88  C   UNL     1      -7.644 -18.634  -4.954  1.00  0.00     0.001 A 
ATOM     89  C   UNL     1      -8.918 -18.103  -5.150  1.00  0.00     0.000 A 
ENDBRANCH  71  84
ENDBRANCH  45  46
ENDBRANCH  37  40
ENDBRANCH  35  36
ENDBRANCH  34  35
ENDBRANCH  33  34
ENDBRANCH   1  33
TORSDOF 17
