REMARK SMILES CCc1nn(-c2ccncn2)c(Cl)c1C(=O)NCCCCNC(=O)c1ccc(-c2c3nc(c(-c4ccccc4)c4ccc([nH]4)c(-c4ccccc4)c4nc(c(-c5ccccc5)c5ccc2[nH]5)C=C4)C=C3)cc1
REMARK SMILES IDX 20 1 19 2 18 3 17 4 15 5 16 6 14 8 3 9 4 10 5 11 12 12 13 13
REMARK SMILES IDX 2 14 1 15 6 16 7 17 11 18 8 19 10 20 9 21 21 22 22 23 23 24
REMARK SMILES IDX 24 26 25 27 26 28 72 29 27 30 71 31 28 32 29 33 30 34 65 35
REMARK SMILES IDX 31 36 70 37 64 38 66 39 32 40 69 41 63 42 62 43 33 45 55 46
REMARK SMILES IDX 40 47 54 48 41 49 44 50 53 51 67 52 42 53 43 54 52 56 68 57
REMARK SMILES IDX 45 58 34 59 35 60 39 61 36 62 38 63 37 64 56 65 57 66 61 67
REMARK SMILES IDX 58 68 60 69 59 70 46 71 47 72 51 73 48 74 50 75 49 76
REMARK H PARENT 17 7 22 25 66 44 44 55
REMARK Flexibility Score: inf
ROOT
ATOM      1  C   UNL     1      -2.425  -1.929   0.846  1.00  0.00     0.023 C 
ENDROOT
BRANCH   1   2
ATOM      2  C   UNL     1      -2.227  -0.744  -0.104  1.00  0.00     0.023 C 
BRANCH   2   3
ATOM      3  C   UNL     1      -0.822  -0.452  -0.629  1.00  0.00     0.116 C 
BRANCH   3   4
ATOM      4  N   UNL     1      -0.187  -1.493  -1.395  1.00  0.00    -0.352 N 
ATOM      5  C   UNL     1       0.747  -1.410  -2.403  1.00  0.00     0.256 C 
ATOM      6  O   UNL     1       1.196  -2.489  -2.796  1.00  0.00    -0.269 OA
ATOM      7  H   UNL     1      -0.464  -2.408  -1.162  1.00  0.00     0.163 HD
BRANCH   5   8
ATOM      8  C   UNL     1       1.160  -0.148  -3.021  1.00  0.00     0.100 A 
ATOM      9  C   UNL     1       1.488   1.162  -2.534  1.00  0.00     0.077 A 
ATOM     10  N   UNL     1       1.948   1.963  -3.507  1.00  0.00    -0.169 NA
ATOM     11  N   UNL     1       1.882   1.235  -4.650  1.00  0.00    -0.203 N 
ATOM     12  C   UNL     1       1.452  -0.044  -4.373  1.00  0.00     0.147 A 
ATOM     13  Cl  UNL     1       1.488  -1.267  -5.579  1.00  0.00    -0.061 Cl
BRANCH   9  14
ATOM     14  C   UNL     1       1.435   1.775  -1.166  1.00  0.00     0.056 C 
ATOM     15  C   UNL     1       2.224   1.036  -0.100  1.00  0.00     0.011 C 
ENDBRANCH   9  14
BRANCH  11  16
ATOM     16  C   UNL     1       2.251   1.834  -5.898  1.00  0.00     0.158 A 
ATOM     17  C   UNL     1       1.546   1.527  -7.047  1.00  0.00     0.069 A 
ATOM     18  N   UNL     1       3.300   2.694  -5.902  1.00  0.00    -0.217 NA
ATOM     19  C   UNL     1       2.011   2.092  -8.213  1.00  0.00     0.117 A 
ATOM     20  C   UNL     1       3.678   3.162  -7.098  1.00  0.00     0.224 A 
ATOM     21  N   UNL     1       3.086   2.896  -8.271  1.00  0.00    -0.245 NA
ENDBRANCH  11  16
ENDBRANCH   5   8
ENDBRANCH   3   4
ENDBRANCH   2   3
ENDBRANCH   1   2
BRANCH   1  22
ATOM     22  C   UNL     1      -1.527  -1.949   2.072  1.00  0.00     0.116 C 
BRANCH  22  23
ATOM     23  N   UNL     1      -1.777  -0.876   3.034  1.00  0.00    -0.352 N 
ATOM     24  C   UNL     1      -1.280  -0.776   4.329  1.00  0.00     0.251 C 
ATOM     25  H   UNL     1      -2.361  -0.144   2.731  1.00  0.00     0.163 HD
ATOM     26  O   UNL     1      -1.791  -0.034   5.148  1.00  0.00    -0.269 OA
BRANCH  24  27
ATOM     27  C   UNL     1      -0.096  -1.588   4.690  1.00  0.00     0.039 A 
ATOM     28  C   UNL     1       0.025  -2.217   5.933  1.00  0.00     0.014 A 
ATOM     29  C   UNL     1       0.899  -1.729   3.727  1.00  0.00     0.014 A 
ATOM     30  C   UNL     1       1.122  -3.051   6.159  1.00  0.00     0.010 A 
ATOM     31  C   UNL     1       1.875  -2.675   3.881  1.00  0.00     0.010 A 
ATOM     32  C   UNL     1       2.034  -3.286   5.116  1.00  0.00    -0.014 A 
BRANCH  32  33
ATOM     33  C   UNL     1       3.109  -4.262   5.240  1.00  0.00     0.031 A 
ATOM     34  C   UNL     1       2.642  -5.645   5.515  1.00  0.00     0.074 A 
ATOM     35  C   UNL     1       4.386  -3.995   4.885  1.00  0.00     0.049 A 
ATOM     36  N   UNL     1       2.790  -6.316   6.607  1.00  0.00    -0.248 NA
ATOM     37  C   UNL     1       1.783  -6.311   4.520  1.00  0.00     0.031 C 
ATOM     38  C   UNL     1       4.926  -2.776   4.268  1.00  0.00     0.029 A 
ATOM     39  N   UNL     1       5.467  -4.821   4.889  1.00  0.00    -0.354 N 
ATOM     40  C   UNL     1       2.232  -7.568   6.369  1.00  0.00     0.074 A 
ATOM     41  C   UNL     1       1.464  -7.440   5.157  1.00  0.00     0.031 C 
ATOM     42  C   UNL     1       6.146  -3.034   3.742  1.00  0.00     0.029 A 
ATOM     43  C   UNL     1       6.546  -4.374   4.130  1.00  0.00     0.049 A 
ATOM     44  H   UNL     1       5.486  -5.668   5.390  1.00  0.00     0.167 HD
ATOM     45  C   UNL     1       2.668  -8.669   7.043  1.00  0.00     0.031 A 
ATOM     46  C   UNL     1       7.668  -5.074   3.822  1.00  0.00     0.031 A 
ATOM     47  C   UNL     1       3.502  -8.299   8.161  1.00  0.00     0.049 A 
ATOM     48  C   UNL     1       7.757  -6.202   4.777  1.00  0.00     0.074 A 
ATOM     49  C   UNL     1       3.328  -7.540   9.301  1.00  0.00     0.029 A 
ATOM     50  N   UNL     1       4.860  -8.395   7.972  1.00  0.00    -0.354 N 
ATOM     51  N   UNL     1       7.999  -6.046   6.045  1.00  0.00    -0.248 NA
ATOM     52  C   UNL     1       7.121  -7.456   4.409  1.00  0.00     0.031 C 
ATOM     53  C   UNL     1       4.553  -6.824   9.453  1.00  0.00     0.029 A 
ATOM     54  C   UNL     1       5.435  -7.252   8.459  1.00  0.00     0.049 A 
ATOM     55  H   UNL     1       5.336  -9.152   7.559  1.00  0.00     0.167 HD
ATOM     56  C   UNL     1       7.140  -6.936   6.673  1.00  0.00     0.074 A 
ATOM     57  C   UNL     1       6.702  -7.848   5.616  1.00  0.00     0.031 C 
ATOM     58  C   UNL     1       6.638  -6.665   7.914  1.00  0.00     0.031 A 
BRANCH  45  59
ATOM     59  C   UNL     1       2.728 -10.059   6.453  1.00  0.00    -0.014 A 
ATOM     60  C   UNL     1       3.230 -11.101   7.257  1.00  0.00     0.009 A 
ATOM     61  C   UNL     1       2.594 -10.333   5.080  1.00  0.00     0.009 A 
ATOM     62  C   UNL     1       3.670 -12.307   6.700  1.00  0.00     0.001 A 
ATOM     63  C   UNL     1       2.992 -11.553   4.526  1.00  0.00     0.001 A 
ATOM     64  C   UNL     1       3.561 -12.528   5.332  1.00  0.00     0.000 A 
ENDBRANCH  45  59
BRANCH  46  65
ATOM     65  C   UNL     1       8.546  -5.017   2.631  1.00  0.00    -0.014 A 
ATOM     66  C   UNL     1       9.820  -5.612   2.659  1.00  0.00     0.009 A 
ATOM     67  C   UNL     1       8.021  -4.660   1.378  1.00  0.00     0.009 A 
ATOM     68  C   UNL     1      10.514  -5.896   1.474  1.00  0.00     0.001 A 
ATOM     69  C   UNL     1       8.716  -4.941   0.194  1.00  0.00     0.001 A 
ATOM     70  C   UNL     1       9.952  -5.577   0.241  1.00  0.00     0.000 A 
ENDBRANCH  46  65
BRANCH  58  71
ATOM     71  C   UNL     1       7.244  -5.520   8.690  1.00  0.00    -0.014 A 
ATOM     72  C   UNL     1       7.271  -4.190   8.232  1.00  0.00     0.009 A 
ATOM     73  C   UNL     1       7.692  -5.781   9.992  1.00  0.00     0.009 A 
ATOM     74  C   UNL     1       7.773  -3.164   9.041  1.00  0.00     0.001 A 
ATOM     75  C   UNL     1       8.170  -4.755  10.809  1.00  0.00     0.001 A 
ATOM     76  C   UNL     1       8.220  -3.448  10.330  1.00  0.00     0.000 A 
ENDBRANCH  58  71
ENDBRANCH  32  33
ENDBRANCH  24  27
ENDBRANCH  22  23
ENDBRANCH   1  22
TORSDOF 13
