REMARK SMILES Cc1cccc(C[C@H](C(=O)NCCCCNC(=O)c2ccc(-c3c4nc(c(-c5ccccc5)c5ccc([nH]5)c(-c5ccccc5)c5nc(c(-c6ccccc6)c6ccc3[nH]6)C=C5)C=C4)cc2)[C@@H]2CCCC[C@@H]2O)c1
REMARK SMILES IDX 13 1 12 2 11 3 9 4 10 5 8 7 7 8 6 9 1 10 2 11 3 12 74 13
REMARK SMILES IDX 4 14 5 15 67 16 68 17 72 18 69 19 71 20 70 21 73 22 14 24
REMARK SMILES IDX 15 25 16 26 17 27 18 29 19 30 20 31 66 32 21 33 65 34 22 35
REMARK SMILES IDX 23 36 24 37 59 38 25 39 64 40 58 41 60 42 26 43 63 44 57 45
REMARK SMILES IDX 56 46 27 48 49 49 34 50 48 51 35 52 38 53 47 54 61 55 36 56
REMARK SMILES IDX 37 57 46 59 62 60 39 61 28 62 29 63 33 64 30 65 32 66 31 67
REMARK SMILES IDX 50 68 51 69 55 70 52 71 54 72 53 73 40 74 41 75 45 76 42 77
REMARK SMILES IDX 44 78 43 79
REMARK H PARENT 11 6 73 23 16 28 60 47 38 58
REMARK Flexibility Score: inf
ROOT
ATOM      1  C   UNL     1      -1.009   1.873  -0.841  1.00  0.00     0.023 C 
ENDROOT
BRANCH   1   2
ATOM      2  C   UNL     1      -2.388   1.571  -0.210  1.00  0.00     0.116 C 
BRANCH   2   3
ATOM      3  N   UNL     1      -2.751   2.438   0.906  1.00  0.00    -0.356 N 
ATOM      4  C   UNL     1      -3.591   3.511   1.009  1.00  0.00     0.223 C 
ATOM      5  O   UNL     1      -3.720   3.982   2.144  1.00  0.00    -0.275 OA
ATOM      6  H   UNL     1      -2.303   2.203   1.751  1.00  0.00     0.163 HD
BRANCH   4   7
ATOM      7  C   UNL     1      -4.339   4.114  -0.216  1.00  0.00     0.088 C 
BRANCH   7   8
ATOM      8  C   UNL     1      -5.319   5.197   0.342  1.00  0.00     0.049 C 
BRANCH   8   9
ATOM      9  C   UNL     1      -6.370   5.839  -0.540  1.00  0.00    -0.047 A 
ATOM     10  C   UNL     1      -8.713   8.870  -0.370  1.00  0.00     0.044 C 
ATOM     11  C   UNL     1      -7.981   7.661  -0.873  1.00  0.00    -0.051 A 
ATOM     12  C   UNL     1      -8.260   7.171  -2.150  1.00  0.00     0.003 A 
ATOM     13  C   UNL     1      -7.018   7.007  -0.088  1.00  0.00     0.007 A 
ATOM     14  C   UNL     1      -7.667   5.991  -2.587  1.00  0.00     0.001 A 
ATOM     15  C   UNL     1      -6.771   5.306  -1.762  1.00  0.00     0.004 A 
ENDBRANCH   8   9
ENDBRANCH   7   8
BRANCH   7  16
ATOM     16  C   UNL     1      -3.282   4.588  -1.269  1.00  0.00     0.030 C 
ATOM     17  C   UNL     1      -2.758   6.027  -1.194  1.00  0.00     0.007 C 
ATOM     18  C   UNL     1      -3.418   4.075  -2.726  1.00  0.00     0.118 C 
ATOM     19  C   UNL     1      -3.401   6.986  -2.179  1.00  0.00     0.001 C 
ATOM     20  C   UNL     1      -3.961   5.072  -3.745  1.00  0.00     0.032 C 
ATOM     21  C   UNL     1      -3.353   6.458  -3.607  1.00  0.00     0.003 C 
BRANCH  18  22
ATOM     22  O   UNL     1      -4.117   2.837  -2.809  1.00  0.00    -0.393 OA
ATOM     23  H   UNL     1      -5.043   2.971  -2.550  1.00  0.00     0.210 HD
ENDBRANCH  18  22
ENDBRANCH   7  16
ENDBRANCH   4   7
ENDBRANCH   2   3
ENDBRANCH   1   2
BRANCH   1  24
ATOM     24  C   UNL     1       0.183   1.784   0.114  1.00  0.00     0.023 C 
BRANCH  24  25
ATOM     25  C   UNL     1       0.669   0.357   0.299  1.00  0.00     0.116 C 
BRANCH  25  26
ATOM     26  N   UNL     1       1.636  -0.088  -0.700  1.00  0.00    -0.352 N 
ATOM     27  C   UNL     1       2.051  -1.379  -1.011  1.00  0.00     0.251 C 
ATOM     28  H   UNL     1       2.055   0.629  -1.229  1.00  0.00     0.163 HD
ATOM     29  O   UNL     1       2.906  -1.572  -1.845  1.00  0.00    -0.269 OA
BRANCH  27  30
ATOM     30  C   UNL     1       1.322  -2.522  -0.400  1.00  0.00     0.039 A 
ATOM     31  C   UNL     1       0.838  -3.511  -1.261  1.00  0.00     0.014 A 
ATOM     32  C   UNL     1       0.890  -2.463   0.921  1.00  0.00     0.014 A 
ATOM     33  C   UNL     1      -0.280  -4.248  -0.880  1.00  0.00     0.010 A 
ATOM     34  C   UNL     1      -0.289  -3.101   1.252  1.00  0.00     0.010 A 
ATOM     35  C   UNL     1      -0.912  -3.939   0.324  1.00  0.00    -0.014 A 
BRANCH  35  36
ATOM     36  C   UNL     1      -2.285  -4.332   0.615  1.00  0.00     0.031 A 
ATOM     37  C   UNL     1      -2.574  -5.360   1.630  1.00  0.00     0.074 A 
ATOM     38  C   UNL     1      -3.317  -3.762  -0.046  1.00  0.00     0.049 A 
ATOM     39  N   UNL     1      -3.579  -6.169   1.560  1.00  0.00    -0.248 NA
ATOM     40  C   UNL     1      -1.725  -5.584   2.795  1.00  0.00     0.031 C 
ATOM     41  C   UNL     1      -4.741  -3.876   0.258  1.00  0.00     0.029 A 
ATOM     42  N   UNL     1      -3.285  -3.132  -1.283  1.00  0.00    -0.354 N 
ATOM     43  C   UNL     1      -3.679  -6.787   2.780  1.00  0.00     0.074 A 
ATOM     44  C   UNL     1      -2.458  -6.463   3.483  1.00  0.00     0.031 C 
ATOM     45  C   UNL     1      -5.447  -3.565  -0.841  1.00  0.00     0.029 A 
ATOM     46  C   UNL     1      -4.504  -3.371  -1.929  1.00  0.00     0.049 A 
ATOM     47  H   UNL     1      -2.534  -2.607  -1.644  1.00  0.00     0.167 HD
ATOM     48  C   UNL     1      -4.845  -7.377   3.157  1.00  0.00     0.031 A 
ATOM     49  C   UNL     1      -4.551  -4.018  -3.130  1.00  0.00     0.031 A 
ATOM     50  C   UNL     1      -5.887  -7.267   2.144  1.00  0.00     0.049 A 
ATOM     51  C   UNL     1      -5.321  -5.321  -3.097  1.00  0.00     0.074 A 
ATOM     52  C   UNL     1      -6.984  -6.432   2.007  1.00  0.00     0.029 A 
ATOM     53  N   UNL     1      -5.716  -7.892   0.915  1.00  0.00    -0.354 N 
ATOM     54  N   UNL     1      -5.666  -5.943  -2.004  1.00  0.00    -0.248 NA
ATOM     55  C   UNL     1      -5.714  -6.055  -4.297  1.00  0.00     0.031 C 
ATOM     56  C   UNL     1      -7.460  -6.539   0.675  1.00  0.00     0.029 A 
ATOM     57  C   UNL     1      -6.663  -7.452   0.010  1.00  0.00     0.049 A 
ATOM     58  H   UNL     1      -5.017  -8.556   0.716  1.00  0.00     0.167 HD
ATOM     59  C   UNL     1      -6.283  -7.129  -2.318  1.00  0.00     0.074 A 
ATOM     60  C   UNL     1      -6.306  -7.141  -3.769  1.00  0.00     0.031 C 
ATOM     61  C   UNL     1      -6.698  -7.994  -1.343  1.00  0.00     0.031 A 
BRANCH  48  62
ATOM     62  C   UNL     1      -5.089  -7.748   4.594  1.00  0.00    -0.014 A 
ATOM     63  C   UNL     1      -6.338  -7.493   5.184  1.00  0.00     0.009 A 
ATOM     64  C   UNL     1      -4.098  -8.294   5.427  1.00  0.00     0.009 A 
ATOM     65  C   UNL     1      -6.553  -7.666   6.556  1.00  0.00     0.001 A 
ATOM     66  C   UNL     1      -4.292  -8.428   6.808  1.00  0.00     0.001 A 
ATOM     67  C   UNL     1      -5.518  -8.101   7.374  1.00  0.00     0.000 A 
ENDBRANCH  48  62
BRANCH  49  68
ATOM     68  C   UNL     1      -3.362  -3.764  -3.991  1.00  0.00    -0.014 A 
ATOM     69  C   UNL     1      -3.150  -2.453  -4.466  1.00  0.00     0.009 A 
ATOM     70  C   UNL     1      -2.296  -4.672  -4.034  1.00  0.00     0.009 A 
ATOM     71  C   UNL     1      -1.877  -2.031  -4.860  1.00  0.00     0.001 A 
ATOM     72  C   UNL     1      -1.025  -4.248  -4.444  1.00  0.00     0.001 A 
ATOM     73  C   UNL     1      -0.809  -2.923  -4.821  1.00  0.00     0.000 A 
ENDBRANCH  49  68
BRANCH  61  74
ATOM     74  C   UNL     1      -7.234  -9.402  -1.518  1.00  0.00    -0.014 A 
ATOM     75  C   UNL     1      -7.182 -10.151  -2.698  1.00  0.00     0.009 A 
ATOM     76  C   UNL     1      -7.755 -10.072  -0.383  1.00  0.00     0.009 A 
ATOM     77  C   UNL     1      -7.648 -11.475  -2.751  1.00  0.00     0.001 A 
ATOM     78  C   UNL     1      -8.181 -11.403  -0.417  1.00  0.00     0.001 A 
ATOM     79  C   UNL     1      -8.136 -12.104  -1.610  1.00  0.00     0.000 A 
ENDBRANCH  61  74
ENDBRANCH  35  36
ENDBRANCH  27  30
ENDBRANCH  25  26
ENDBRANCH  24  25
ENDBRANCH   1  24
TORSDOF 15
