REMARK SMILES C[NH2+][C@]1(C(=O)NCCCCNC(=O)c2ccc(-c3c4nc(c(-c5ccccc5)c5ccc([nH]5)c(-c5ccccc5)c5nc(c(-c6ccccc6)c6ccc3[nH]6)C=C5)C=C4)cc2)CCC[C@H]([N@H+](C)C2CC2)C1
REMARK SMILES IDX 8 1 7 2 6 3 4 4 5 5 3 7 62 8 71 9 63 10 65 11 64 12 2 13
REMARK SMILES IDX 1 14 66 17 67 18 68 20 69 21 70 22 9 23 10 24 11 25 12 26
REMARK SMILES IDX 13 28 14 29 15 30 61 31 16 32 60 33 17 34 18 35 19 36 54 37
REMARK SMILES IDX 20 38 59 39 53 40 55 41 21 42 58 43 52 44 51 45 22 47 44 48
REMARK SMILES IDX 29 49 43 50 30 51 33 52 42 53 56 54 31 55 32 56 41 58 57 59
REMARK SMILES IDX 34 60 23 61 24 62 28 63 25 64 27 65 26 66 45 67 46 68 50 69
REMARK SMILES IDX 47 70 49 71 48 72 35 73 36 74 40 75 37 76 39 77 38 78
REMARK H PARENT 6 6 2 15 2 16 66 19 11 27 55 46 33 57
REMARK Flexibility Score: inf
ROOT
ATOM      1  C   UNL     1       0.850  -2.137   2.419  1.00  0.00     0.023 C 
ENDROOT
BRANCH   1   2
ATOM      2  C   UNL     1       0.462  -0.847   1.697  1.00  0.00     0.116 C 
BRANCH   2   3
ATOM      3  N   UNL     1       1.027  -0.778   0.362  1.00  0.00    -0.351 N 
ATOM      4  C   UNL     1       0.462  -0.880  -0.874  1.00  0.00     0.281 C 
ATOM      5  O   UNL     1       1.254  -0.875  -1.828  1.00  0.00    -0.268 OA
ATOM      6  H   UNL     1       2.000  -0.630   0.347  1.00  0.00     0.163 HD
BRANCH   4   7
ATOM      7  C   UNL     1      -1.096  -1.011  -1.116  1.00  0.00     0.181 C 
ATOM      8  C   UNL     1      -1.576  -2.312  -0.430  1.00  0.00     0.079 C 
ATOM      9  C   UNL     1      -1.784   0.272  -0.564  1.00  0.00     0.144 C 
ATOM     10  C   UNL     1      -3.041  -2.357  -0.022  1.00  0.00     0.013 C 
ATOM     11  C   UNL     1      -3.314   0.177  -0.318  1.00  0.00     0.190 C 
ATOM     12  C   UNL     1      -3.538  -1.052   0.587  1.00  0.00     0.065 C 
BRANCH   7  13
ATOM     13  N   UNL     1      -1.265  -0.969  -2.602  1.00  0.00    -0.336 N 
ATOM     14  C   UNL     1      -2.133  -1.941  -3.236  1.00  0.00     0.331 C 
ATOM     15  H   UNL     1      -1.629  -0.045  -2.836  1.00  0.00     0.346 HD
ATOM     16  H   UNL     1      -0.338  -1.196  -2.961  1.00  0.00     0.346 HD
ENDBRANCH   7  13
BRANCH  11  17
ATOM     17  N   UNL     1      -4.125   0.182  -1.560  1.00  0.00    -0.332 N 
ATOM     18  C   UNL     1      -3.944   1.450  -2.294  1.00  0.00     0.333 C 
ATOM     19  H   UNL     1      -3.770  -0.617  -2.084  1.00  0.00     0.348 HD
BRANCH  17  20
ATOM     20  C   UNL     1      -5.577  -0.049  -1.383  1.00  0.00     0.184 C 
ATOM     21  C   UNL     1      -6.293  -0.655  -2.573  1.00  0.00     0.071 C 
ATOM     22  C   UNL     1      -6.209  -1.412  -1.289  1.00  0.00     0.071 C 
ENDBRANCH  17  20
ENDBRANCH  11  17
ENDBRANCH   4   7
ENDBRANCH   2   3
ENDBRANCH   1   2
BRANCH   1  23
ATOM     23  C   UNL     1       2.337  -2.273   2.729  1.00  0.00     0.023 C 
BRANCH  23  24
ATOM     24  C   UNL     1       2.941  -1.101   3.486  1.00  0.00     0.116 C 
BRANCH  24  25
ATOM     25  N   UNL     1       2.250  -0.811   4.734  1.00  0.00    -0.352 N 
ATOM     26  C   UNL     1       2.785  -0.549   5.971  1.00  0.00     0.251 C 
ATOM     27  H   UNL     1       1.266  -0.801   4.684  1.00  0.00     0.163 HD
ATOM     28  O   UNL     1       2.062  -0.441   6.956  1.00  0.00    -0.269 OA
BRANCH  26  29
ATOM     29  C   UNL     1       4.250  -0.436   6.106  1.00  0.00     0.039 A 
ATOM     30  C   UNL     1       4.895  -1.174   7.100  1.00  0.00     0.014 A 
ATOM     31  C   UNL     1       4.983   0.350   5.214  1.00  0.00     0.014 A 
ATOM     32  C   UNL     1       6.289  -1.181   7.152  1.00  0.00     0.010 A 
ATOM     33  C   UNL     1       6.370   0.276   5.215  1.00  0.00     0.010 A 
ATOM     34  C   UNL     1       7.036  -0.488   6.185  1.00  0.00    -0.014 A 
BRANCH  34  35
ATOM     35  C   UNL     1       8.518  -0.547   6.170  1.00  0.00     0.031 A 
ATOM     36  C   UNL     1       9.320   0.704   6.392  1.00  0.00     0.074 A 
ATOM     37  C   UNL     1       9.138  -1.710   5.891  1.00  0.00     0.049 A 
ATOM     38  N   UNL     1      10.618   0.869   6.354  1.00  0.00    -0.248 NA
ATOM     39  C   UNL     1       8.565   1.937   6.666  1.00  0.00     0.031 C 
ATOM     40  C   UNL     1       8.471  -2.985   5.616  1.00  0.00     0.029 A 
ATOM     41  N   UNL     1      10.473  -2.006   5.788  1.00  0.00    -0.354 N 
ATOM     42  C   UNL     1      10.831   2.223   6.581  1.00  0.00     0.074 A 
ATOM     43  C   UNL     1       9.530   2.843   6.702  1.00  0.00     0.031 C 
ATOM     44  C   UNL     1       9.401  -3.932   5.409  1.00  0.00     0.029 A 
ATOM     45  C   UNL     1      10.725  -3.324   5.495  1.00  0.00     0.049 A 
ATOM     46  H   UNL     1      11.185  -1.336   5.912  1.00  0.00     0.167 HD
ATOM     47  C   UNL     1      12.004   2.887   6.702  1.00  0.00     0.031 A 
ATOM     48  C   UNL     1      11.892  -3.970   5.313  1.00  0.00     0.031 A 
ATOM     49  C   UNL     1      13.297   2.269   6.595  1.00  0.00     0.049 A 
ATOM     50  C   UNL     1      13.180  -3.206   5.438  1.00  0.00     0.074 A 
ATOM     51  C   UNL     1      14.544   2.846   6.754  1.00  0.00     0.029 A 
ATOM     52  N   UNL     1      13.508   0.930   6.302  1.00  0.00    -0.354 N 
ATOM     53  N   UNL     1      13.366  -1.939   5.716  1.00  0.00    -0.248 NA
ATOM     54  C   UNL     1      14.421  -3.967   5.234  1.00  0.00     0.031 C 
ATOM     55  C   UNL     1      15.512   1.866   6.511  1.00  0.00     0.029 A 
ATOM     56  C   UNL     1      14.866   0.667   6.255  1.00  0.00     0.049 A 
ATOM     57  H   UNL     1      12.797   0.266   6.150  1.00  0.00     0.167 HD
ATOM     58  C   UNL     1      14.742  -1.756   5.749  1.00  0.00     0.074 A 
ATOM     59  C   UNL     1      15.343  -3.046   5.477  1.00  0.00     0.031 C 
ATOM     60  C   UNL     1      15.446  -0.623   5.985  1.00  0.00     0.031 A 
BRANCH  47  61
ATOM     61  C   UNL     1      11.934   4.366   6.962  1.00  0.00    -0.014 A 
ATOM     62  C   UNL     1      11.488   4.867   8.196  1.00  0.00     0.009 A 
ATOM     63  C   UNL     1      12.345   5.271   5.971  1.00  0.00     0.009 A 
ATOM     64  C   UNL     1      11.419   6.243   8.418  1.00  0.00     0.001 A 
ATOM     65  C   UNL     1      12.304   6.646   6.207  1.00  0.00     0.001 A 
ATOM     66  C   UNL     1      11.832   7.131   7.426  1.00  0.00     0.000 A 
ENDBRANCH  47  61
BRANCH  48  67
ATOM     67  C   UNL     1      11.900  -5.426   5.017  1.00  0.00    -0.014 A 
ATOM     68  C   UNL     1      12.350  -6.343   5.980  1.00  0.00     0.009 A 
ATOM     69  C   UNL     1      11.470  -5.908   3.771  1.00  0.00     0.009 A 
ATOM     70  C   UNL     1      12.394  -7.709   5.691  1.00  0.00     0.001 A 
ATOM     71  C   UNL     1      11.489  -7.277   3.495  1.00  0.00     0.001 A 
ATOM     72  C   UNL     1      11.960  -8.175   4.451  1.00  0.00     0.000 A 
ENDBRANCH  48  67
BRANCH  60  73
ATOM     73  C   UNL     1      16.944  -0.735   5.997  1.00  0.00    -0.014 A 
ATOM     74  C   UNL     1      17.672  -0.914   4.812  1.00  0.00     0.009 A 
ATOM     75  C   UNL     1      17.637  -0.616   7.212  1.00  0.00     0.009 A 
ATOM     76  C   UNL     1      19.065  -1.006   4.847  1.00  0.00     0.001 A 
ATOM     77  C   UNL     1      19.030  -0.678   7.241  1.00  0.00     0.001 A 
ATOM     78  C   UNL     1      19.742  -0.882   6.060  1.00  0.00     0.000 A 
ENDBRANCH  60  73
ENDBRANCH  34  35
ENDBRANCH  26  29
ENDBRANCH  24  25
ENDBRANCH  23  24
ENDBRANCH   1  23
TORSDOF 14
