REMARK SMILES C[C@@H](C(=O)NCCCCNC(=O)c1ccc(-c2c3nc(c(-c4ccccc4)c4ccc([nH]4)c(-c4ccccc4)c4nc(c(-c5ccccc5)c5ccc2[nH]5)C=C4)C=C3)cc1)c1ccc(O[C@H]2CCCC2=O)cc1F
REMARK SMILES IDX 7 1 6 2 5 3 3 4 4 5 2 7 1 8 61 9 62 10 73 11 63 12 72 13
REMARK SMILES IDX 74 14 64 15 65 16 66 17 67 18 70 19 68 20 69 21 71 22 8 23
REMARK SMILES IDX 9 24 10 25 11 26 12 28 13 29 14 30 60 31 15 32 59 33 16 34
REMARK SMILES IDX 17 35 18 36 53 37 19 38 58 39 52 40 54 41 20 42 57 43 51 44
REMARK SMILES IDX 50 45 21 47 43 48 28 49 42 50 29 51 32 52 41 53 55 54 30 55
REMARK SMILES IDX 31 56 40 58 56 59 33 60 22 61 23 62 27 63 24 64 26 65 25 66
REMARK SMILES IDX 44 67 45 68 49 69 46 70 48 71 47 72 34 73 35 74 39 75 36 76
REMARK SMILES IDX 38 77 37 78
REMARK H PARENT 5 6 10 27 54 46 32 57
REMARK Flexibility Score: inf
ROOT
ATOM      1  C   UNL     1       4.218   0.456   1.095  1.00  0.00     0.023 C 
ENDROOT
BRANCH   1   2
ATOM      2  C   UNL     1       3.433  -0.773   1.555  1.00  0.00     0.116 C 
BRANCH   2   3
ATOM      3  N   UNL     1       2.393  -0.396   2.488  1.00  0.00    -0.356 N 
ATOM      4  C   UNL     1       1.057  -0.216   2.283  1.00  0.00     0.227 C 
ATOM      5  O   UNL     1       0.418   0.267   3.221  1.00  0.00    -0.274 OA
ATOM      6  H   UNL     1       2.697  -0.246   3.412  1.00  0.00     0.163 HD
BRANCH   4   7
ATOM      7  C   UNL     1       0.415  -0.631   0.950  1.00  0.00     0.108 C 
ATOM      8  C   UNL     1       0.790   0.305  -0.203  1.00  0.00     0.023 C 
BRANCH   7   9
ATOM      9  C   UNL     1      -1.097  -0.735   1.075  1.00  0.00     0.000 A 
ATOM     10  C   UNL     1      -1.906   0.404   1.178  1.00  0.00     0.011 A 
ATOM     11  C   UNL     1      -1.717  -1.985   1.142  1.00  0.00     0.130 A 
ATOM     12  C   UNL     1      -3.288   0.277   1.324  1.00  0.00     0.047 A 
ATOM     13  C   UNL     1      -3.099  -2.115   1.287  1.00  0.00     0.086 A 
ATOM     14  F   UNL     1      -0.977  -3.102   1.065  1.00  0.00    -0.207 F 
ATOM     15  C   UNL     1      -3.896  -0.980   1.368  1.00  0.00     0.123 A 
BRANCH  15  16
ATOM     16  O   UNL     1      -5.248  -0.930   1.513  1.00  0.00    -0.483 OA
BRANCH  16  17
ATOM     17  C   UNL     1      -6.063  -2.053   1.289  1.00  0.00     0.239 C 
ATOM     18  C   UNL     1      -6.134  -2.496  -0.179  1.00  0.00     0.054 C 
ATOM     19  C   UNL     1      -5.921  -3.359   2.062  1.00  0.00     0.173 C 
ATOM     20  C   UNL     1      -5.853  -3.997  -0.208  1.00  0.00     0.012 C 
ATOM     21  C   UNL     1      -6.170  -4.546   1.175  1.00  0.00     0.080 C 
ATOM     22  O   UNL     1      -5.689  -3.448   3.260  1.00  0.00    -0.296 OA
ENDBRANCH  16  17
ENDBRANCH  15  16
ENDBRANCH   7   9
ENDBRANCH   4   7
ENDBRANCH   2   3
ENDBRANCH   1   2
BRANCH   1  23
ATOM     23  C   UNL     1       5.003   1.163   2.204  1.00  0.00     0.023 C 
BRANCH  23  24
ATOM     24  C   UNL     1       5.996   0.284   2.953  1.00  0.00     0.116 C 
BRANCH  24  25
ATOM     25  N   UNL     1       6.989  -0.315   2.075  1.00  0.00    -0.352 N 
ATOM     26  C   UNL     1       8.339  -0.460   2.267  1.00  0.00     0.251 C 
ATOM     27  H   UNL     1       6.643  -0.665   1.222  1.00  0.00     0.163 HD
ATOM     28  O   UNL     1       9.049  -0.864   1.347  1.00  0.00    -0.269 OA
BRANCH  26  29
ATOM     29  C   UNL     1       8.946  -0.105   3.566  1.00  0.00     0.039 A 
ATOM     30  C   UNL     1      10.150   0.604   3.573  1.00  0.00     0.014 A 
ATOM     31  C   UNL     1       8.343  -0.474   4.772  1.00  0.00     0.014 A 
ATOM     32  C   UNL     1      10.724   0.981   4.788  1.00  0.00     0.010 A 
ATOM     33  C   UNL     1       8.872  -0.027   5.978  1.00  0.00     0.010 A 
ATOM     34  C   UNL     1      10.076   0.692   6.000  1.00  0.00    -0.014 A 
BRANCH  34  35
ATOM     35  C   UNL     1      10.659   1.117   7.298  1.00  0.00     0.031 A 
ATOM     36  C   UNL     1      11.101   0.088   8.303  1.00  0.00     0.074 A 
ATOM     37  C   UNL     1      10.753   2.428   7.591  1.00  0.00     0.049 A 
ATOM     38  N   UNL     1      11.626   0.264   9.490  1.00  0.00    -0.248 NA
ATOM     39  C   UNL     1      10.905  -1.325   7.939  1.00  0.00     0.031 C 
ATOM     40  C   UNL     1      10.325   3.525   6.719  1.00  0.00     0.029 A 
ATOM     41  N   UNL     1      11.245   3.061   8.704  1.00  0.00    -0.354 N 
ATOM     42  C   UNL     1      11.804  -1.009  10.017  1.00  0.00     0.074 A 
ATOM     43  C   UNL     1      11.280  -1.945   9.047  1.00  0.00     0.031 C 
ATOM     44  C   UNL     1      10.613   4.694   7.313  1.00  0.00     0.029 A 
ATOM     45  C   UNL     1      11.206   4.432   8.620  1.00  0.00     0.049 A 
ATOM     46  H   UNL     1      11.592   2.579   9.489  1.00  0.00     0.167 HD
ATOM     47  C   UNL     1      12.372  -1.371  11.192  1.00  0.00     0.031 A 
ATOM     48  C   UNL     1      11.608   5.371   9.496  1.00  0.00     0.031 A 
ATOM     49  C   UNL     1      12.900  -0.441  12.154  1.00  0.00     0.049 A 
ATOM     50  C   UNL     1      12.217   4.944  10.803  1.00  0.00     0.074 A 
ATOM     51  C   UNL     1      13.549  -0.708  13.346  1.00  0.00     0.029 A 
ATOM     52  N   UNL     1      12.832   0.939  12.035  1.00  0.00    -0.354 N 
ATOM     53  N   UNL     1      12.453   3.735  11.251  1.00  0.00    -0.248 NA
ATOM     54  C   UNL     1      12.631   6.018  11.717  1.00  0.00     0.031 C 
ATOM     55  C   UNL     1      13.822   0.510  13.978  1.00  0.00     0.029 A 
ATOM     56  C   UNL     1      13.402   1.537  13.147  1.00  0.00     0.049 A 
ATOM     57  H   UNL     1      12.437   1.422  11.274  1.00  0.00     0.167 HD
ATOM     58  C   UNL     1      13.073   3.902  12.483  1.00  0.00     0.074 A 
ATOM     59  C   UNL     1      13.190   5.329  12.702  1.00  0.00     0.031 C 
ATOM     60  C   UNL     1      13.510   2.958  13.353  1.00  0.00     0.031 A 
BRANCH  47  61
ATOM     61  C   UNL     1      12.433  -2.842  11.505  1.00  0.00    -0.014 A 
ATOM     62  C   UNL     1      13.259  -3.712  10.774  1.00  0.00     0.009 A 
ATOM     63  C   UNL     1      11.668  -3.362  12.561  1.00  0.00     0.009 A 
ATOM     64  C   UNL     1      13.280  -5.079  11.063  1.00  0.00     0.001 A 
ATOM     65  C   UNL     1      11.718  -4.723  12.870  1.00  0.00     0.001 A 
ATOM     66  C   UNL     1      12.514  -5.582  12.113  1.00  0.00     0.000 A 
ENDBRANCH  47  61
BRANCH  48  67
ATOM     67  C   UNL     1      11.479   6.813   9.157  1.00  0.00    -0.014 A 
ATOM     68  C   UNL     1      12.623   7.588   8.908  1.00  0.00     0.009 A 
ATOM     69  C   UNL     1      10.218   7.426   9.092  1.00  0.00     0.009 A 
ATOM     70  C   UNL     1      12.509   8.952   8.631  1.00  0.00     0.001 A 
ATOM     71  C   UNL     1      10.105   8.784   8.785  1.00  0.00     0.001 A 
ATOM     72  C   UNL     1      11.251   9.548   8.565  1.00  0.00     0.000 A 
ENDBRANCH  48  67
BRANCH  60  73
ATOM     73  C   UNL     1      14.197   3.441  14.601  1.00  0.00    -0.014 A 
ATOM     74  C   UNL     1      13.488   4.083  15.628  1.00  0.00     0.009 A 
ATOM     75  C   UNL     1      15.575   3.224  14.759  1.00  0.00     0.009 A 
ATOM     76  C   UNL     1      14.154   4.535  16.769  1.00  0.00     0.001 A 
ATOM     77  C   UNL     1      16.232   3.646  15.916  1.00  0.00     0.001 A 
ATOM     78  C   UNL     1      15.523   4.312  16.914  1.00  0.00     0.000 A 
ENDBRANCH  60  73
ENDBRANCH  34  35
ENDBRANCH  26  29
ENDBRANCH  24  25
ENDBRANCH  23  24
ENDBRANCH   1  23
TORSDOF 14
