REMARK SMILES C=C(C)COc1cc2oc(=O)c(CC(=O)N3CCC[C@H](C(=O)NCCCCNC(=O)c4ccc(-c5c6nc(c(-c7ccccc7)c7ccc([nH]7)c(-c7ccccc7)c7nc(c(-c8ccccc8)c8ccc5[nH]8)C=C7)C=C6)cc4)C3)c(C)c2cc1Cl
REMARK SMILES IDX 21 1 22 2 23 3 20 5 16 6 17 7 79 8 18 9 19 10 14 11 15 12
REMARK SMILES IDX 13 13 12 14 6 15 7 16 84 17 8 18 83 19 85 20 9 21 82 22
REMARK SMILES IDX 10 23 80 24 11 25 81 26 5 27 4 28 2 29 1 30 3 31 24 32 25 33
REMARK SMILES IDX 26 34 27 35 28 36 29 37 30 39 31 40 32 41 78 42 33 43 77 44
REMARK SMILES IDX 34 45 35 46 36 47 71 48 37 49 76 50 70 51 72 52 38 53 75 54
REMARK SMILES IDX 69 55 68 56 39 58 61 59 46 60 60 61 47 62 50 63 59 64 73 65
REMARK SMILES IDX 48 66 49 67 58 69 74 70 51 71 40 72 41 73 45 74 42 75 44 76
REMARK SMILES IDX 43 77 62 78 63 79 67 80 64 81 66 82 65 83 52 84 53 85 57 86
REMARK SMILES IDX 54 87 56 88 55 89
REMARK H PARENT 23 4 28 38 72 57 50 68
REMARK Flexibility Score: inf
ROOT
ATOM      1  C   UNL     1      -3.990   2.698  -5.298  1.00  0.00     0.224 C 
ATOM      2  O   UNL     1      -3.568   1.757  -4.613  1.00  0.00    -0.275 OA
ATOM      3  N   UNL     1      -4.703   3.642  -4.635  1.00  0.00    -0.356 N 
ATOM      4  H   UNL     1      -4.956   3.391  -3.717  1.00  0.00     0.163 HD
ENDROOT
BRANCH   1   5
ATOM      5  C   UNL     1      -3.663   2.734  -6.799  1.00  0.00     0.098 C 
ATOM      6  N   UNL     1      -3.013   5.014  -7.601  1.00  0.00    -0.342 N 
ATOM      7  C   UNL     1      -4.017   4.978  -8.669  1.00  0.00     0.119 C 
ATOM      8  C   UNL     1      -2.541   3.705  -7.171  1.00  0.00     0.133 C 
ATOM      9  C   UNL     1      -5.221   4.098  -8.345  1.00  0.00     0.022 C 
ATOM     10  C   UNL     1      -4.858   2.742  -7.752  1.00  0.00     0.017 C 
BRANCH   6  11
ATOM     11  C   UNL     1      -2.658   6.244  -7.062  1.00  0.00     0.227 C 
ATOM     12  O   UNL     1      -3.461   7.187  -7.103  1.00  0.00    -0.275 OA
BRANCH  11  13
ATOM     13  C   UNL     1      -1.241   6.545  -6.535  1.00  0.00     0.143 C 
BRANCH  13  14
ATOM     14  C   UNL     1      -0.497   5.532  -5.709  1.00  0.00     0.051 A 
ATOM     15  C   UNL     1       1.336   1.940  -2.656  1.00  0.00     0.142 A 
ATOM     16  C   UNL     1       1.504   2.261  -4.000  1.00  0.00     0.096 A 
ATOM     17  C   UNL     1       0.589   2.786  -1.832  1.00  0.00     0.083 A 
ATOM     18  C   UNL     1       0.858   3.386  -4.516  1.00  0.00     0.142 A 
ATOM     19  C   UNL     1      -0.076   3.892  -2.378  1.00  0.00     0.036 A 
ATOM     20  Cl  UNL     1       0.459   2.529  -0.131  1.00  0.00    -0.080 Cl
ATOM     21  O   UNL     1       1.095   3.670  -5.868  1.00  0.00    -0.422 OA
ATOM     22  C   UNL     1       0.032   4.198  -3.741  1.00  0.00     0.023 A 
ATOM     23  C   UNL     1       0.521   4.765  -6.486  1.00  0.00     0.340 A 
ATOM     24  C   UNL     1      -0.710   5.294  -4.395  1.00  0.00    -0.029 A 
ATOM     25  O   UNL     1       0.790   5.037  -7.651  1.00  0.00    -0.246 OA
ATOM     26  C   UNL     1      -1.735   6.026  -3.566  1.00  0.00     0.046 C 
BRANCH  15  27
ATOM     27  O   UNL     1       1.979   0.838  -2.160  1.00  0.00    -0.488 OA
BRANCH  27  28
ATOM     28  C   UNL     1       1.229  -0.366  -2.398  1.00  0.00     0.260 C 
BRANCH  28  29
ATOM     29  C   UNL     1       0.489  -0.776  -1.147  1.00  0.00    -0.043 C 
ATOM     30  C   UNL     1       1.132  -1.040   0.004  1.00  0.00     0.011 C 
ATOM     31  C   UNL     1      -1.008  -0.833  -1.246  1.00  0.00     0.042 C 
ENDBRANCH  28  29
ENDBRANCH  27  28
ENDBRANCH  15  27
ENDBRANCH  13  14
ENDBRANCH  11  13
ENDBRANCH   6  11
ENDBRANCH   1   5
BRANCH   3  32
ATOM     32  C   UNL     1      -5.155   4.953  -5.040  1.00  0.00     0.116 C 
BRANCH  32  33
ATOM     33  C   UNL     1      -6.673   5.078  -5.124  1.00  0.00     0.023 C 
BRANCH  33  34
ATOM     34  C   UNL     1      -7.336   5.625  -3.866  1.00  0.00     0.023 C 
BRANCH  34  35
ATOM     35  C   UNL     1      -6.843   6.993  -3.405  1.00  0.00     0.116 C 
BRANCH  35  36
ATOM     36  N   UNL     1      -6.946   8.057  -4.397  1.00  0.00    -0.352 N 
ATOM     37  C   UNL     1      -7.234   9.390  -4.174  1.00  0.00     0.251 C 
ATOM     38  H   UNL     1      -6.794   7.795  -5.333  1.00  0.00     0.163 HD
ATOM     39  O   UNL     1      -7.355  10.184  -5.095  1.00  0.00    -0.269 OA
BRANCH  37  40
ATOM     40  C   UNL     1      -7.451   9.825  -2.778  1.00  0.00     0.039 A 
ATOM     41  C   UNL     1      -6.507   9.504  -1.802  1.00  0.00     0.014 A 
ATOM     42  C   UNL     1      -8.669  10.411  -2.429  1.00  0.00     0.014 A 
ATOM     43  C   UNL     1      -6.872   9.565  -0.464  1.00  0.00     0.010 A 
ATOM     44  C   UNL     1      -8.994  10.561  -1.079  1.00  0.00     0.010 A 
ATOM     45  C   UNL     1      -8.129  10.071  -0.087  1.00  0.00    -0.014 A 
BRANCH  45  46
ATOM     46  C   UNL     1      -8.525  10.034   1.345  1.00  0.00     0.031 A 
ATOM     47  C   UNL     1      -9.684   9.188   1.806  1.00  0.00     0.074 A 
ATOM     48  C   UNL     1      -7.782  10.703   2.247  1.00  0.00     0.049 A 
ATOM     49  N   UNL     1     -10.146   9.021   3.021  1.00  0.00    -0.248 NA
ATOM     50  C   UNL     1     -10.421   8.431   0.781  1.00  0.00     0.031 C 
ATOM     51  C   UNL     1      -6.616  11.530   1.930  1.00  0.00     0.029 A 
ATOM     52  N   UNL     1      -7.871  10.761   3.615  1.00  0.00    -0.354 N 
ATOM     53  C   UNL     1     -11.239   8.171   2.902  1.00  0.00     0.074 A 
ATOM     54  C   UNL     1     -11.384   7.865   1.496  1.00  0.00     0.031 C 
ATOM     55  C   UNL     1      -6.056  11.952   3.072  1.00  0.00     0.029 A 
ATOM     56  C   UNL     1      -6.864  11.492   4.196  1.00  0.00     0.049 A 
ATOM     57  H   UNL     1      -8.586  10.322   4.129  1.00  0.00     0.167 HD
ATOM     58  C   UNL     1     -12.045   7.686   3.876  1.00  0.00     0.031 A 
ATOM     59  C   UNL     1      -6.618  11.776   5.488  1.00  0.00     0.031 A 
ATOM     60  C   UNL     1     -11.886   7.969   5.278  1.00  0.00     0.049 A 
ATOM     61  C   UNL     1      -7.547  11.256   6.544  1.00  0.00     0.074 A 
ATOM     62  C   UNL     1     -12.648   7.508   6.338  1.00  0.00     0.029 A 
ATOM     63  N   UNL     1     -10.897   8.776   5.815  1.00  0.00    -0.354 N 
ATOM     64  N   UNL     1      -8.588  10.472   6.409  1.00  0.00    -0.248 NA
ATOM     65  C   UNL     1      -7.276  11.668   7.928  1.00  0.00     0.031 C 
ATOM     66  C   UNL     1     -12.148   8.074   7.513  1.00  0.00     0.029 A 
ATOM     67  C   UNL     1     -11.042   8.844   7.191  1.00  0.00     0.049 A 
ATOM     68  H   UNL     1     -10.196   9.233   5.297  1.00  0.00     0.167 HD
ATOM     69  C   UNL     1      -9.098  10.297   7.687  1.00  0.00     0.074 A 
ATOM     70  C   UNL     1      -8.237  11.035   8.588  1.00  0.00     0.031 C 
ATOM     71  C   UNL     1     -10.187   9.591   8.075  1.00  0.00     0.031 A 
BRANCH  58  72
ATOM     72  C   UNL     1     -13.196   6.808   3.471  1.00  0.00    -0.014 A 
ATOM     73  C   UNL     1     -14.509   7.295   3.572  1.00  0.00     0.009 A 
ATOM     74  C   UNL     1     -12.994   5.474   3.087  1.00  0.00     0.009 A 
ATOM     75  C   UNL     1     -15.598   6.463   3.306  1.00  0.00     0.001 A 
ATOM     76  C   UNL     1     -14.085   4.650   2.798  1.00  0.00     0.001 A 
ATOM     77  C   UNL     1     -15.385   5.142   2.916  1.00  0.00     0.000 A 
ENDBRANCH  58  72
BRANCH  59  78
ATOM     78  C   UNL     1      -5.437  12.606   5.835  1.00  0.00    -0.014 A 
ATOM     79  C   UNL     1      -5.397  13.966   5.488  1.00  0.00     0.009 A 
ATOM     80  C   UNL     1      -4.318  12.028   6.452  1.00  0.00     0.009 A 
ATOM     81  C   UNL     1      -4.250  14.724   5.723  1.00  0.00     0.001 A 
ATOM     82  C   UNL     1      -3.181  12.797   6.711  1.00  0.00     0.001 A 
ATOM     83  C   UNL     1      -3.143  14.140   6.336  1.00  0.00     0.000 A 
ENDBRANCH  59  78
BRANCH  71  84
ATOM     84  C   UNL     1     -10.521   9.576   9.538  1.00  0.00    -0.014 A 
ATOM     85  C   UNL     1     -10.322   8.407  10.288  1.00  0.00     0.009 A 
ATOM     86  C   UNL     1     -11.114  10.689  10.151  1.00  0.00     0.009 A 
ATOM     87  C   UNL     1     -10.721   8.348  11.624  1.00  0.00     0.001 A 
ATOM     88  C   UNL     1     -11.491  10.635  11.494  1.00  0.00     0.001 A 
ATOM     89  C   UNL     1     -11.301   9.463  12.226  1.00  0.00     0.000 A 
ENDBRANCH  71  84
ENDBRANCH  45  46
ENDBRANCH  37  40
ENDBRANCH  35  36
ENDBRANCH  34  35
ENDBRANCH  33  34
ENDBRANCH  32  33
ENDBRANCH   3  32
TORSDOF 17
