REMARK SMILES COc1ccc(C[NH2+]Cc2cccn2-c2sc(C)c(C)c2C(=O)NCCCCNC(=O)c2ccc(-c3c4nc(c(-c5ccccc5)c5ccc([nH]5)c(-c5ccccc5)c5nc(c(-c6ccccc6)c6ccc3[nH]6)C=C5)C=C4)cc2)cc1
REMARK SMILES IDX 22 1 23 2 24 3 21 5 15 6 16 7 17 8 19 9 18 10 20 11 14 12
REMARK SMILES IDX 10 13 11 14 12 15 13 16 9 17 8 18 7 21 6 22 3 23 4 24 81 25
REMARK SMILES IDX 5 26 80 27 2 28 1 29 25 30 26 31 27 32 28 33 29 34 30 35
REMARK SMILES IDX 31 37 32 38 33 39 79 40 34 41 78 42 35 43 36 44 37 45 72 46
REMARK SMILES IDX 38 47 77 48 71 49 73 50 39 51 76 52 70 53 69 54 40 56 62 57
REMARK SMILES IDX 47 58 61 59 48 60 51 61 60 62 74 63 49 64 50 65 59 67 75 68
REMARK SMILES IDX 52 69 41 70 42 71 46 72 43 73 45 74 44 75 63 76 64 77 68 78
REMARK SMILES IDX 65 79 67 80 66 81 53 82 54 83 58 84 55 85 57 86 56 87
REMARK H PARENT 24 4 8 19 8 20 29 36 73 55 51 66
REMARK Flexibility Score: inf
ROOT
ATOM      1  C   UNL     1       5.957  -4.488  -6.744  1.00  0.00     0.254 C 
ATOM      2  O   UNL     1       6.611  -5.352  -6.146  1.00  0.00    -0.269 OA
ATOM      3  N   UNL     1       6.147  -3.252  -6.182  1.00  0.00    -0.352 N 
ATOM      4  H   UNL     1       6.623  -3.283  -5.321  1.00  0.00     0.163 HD
ENDROOT
BRANCH   1   5
ATOM      5  C   UNL     1       5.069  -4.874  -7.889  1.00  0.00     0.078 A 
ATOM      6  C   UNL     1       4.351  -4.161  -8.850  1.00  0.00     0.113 A 
ATOM      7  S   UNL     1       3.491  -5.116  -9.966  1.00  0.00    -0.122 S 
ATOM      8  C   UNL     1       3.989  -6.556  -9.236  1.00  0.00     0.007 A 
ATOM      9  C   UNL     1       4.799  -6.325  -8.135  1.00  0.00    -0.022 A 
ATOM     10  C   UNL     1       3.542  -7.863  -9.807  1.00  0.00     0.057 C 
ATOM     11  C   UNL     1       5.342  -7.450  -7.291  1.00  0.00     0.046 C 
BRANCH   6  12
ATOM     12  N   UNL     1       4.314  -2.811  -9.211  1.00  0.00    -0.306 N 
ATOM     13  C   UNL     1       3.264  -1.893  -9.037  1.00  0.00     0.078 A 
ATOM     14  C   UNL     1       3.738  -0.645  -9.425  1.00  0.00     0.029 A 
ATOM     15  C   UNL     1       5.068  -0.790  -9.878  1.00  0.00     0.020 A 
ATOM     16  C   UNL     1       5.388  -2.124  -9.768  1.00  0.00     0.092 A 
BRANCH  13  17
ATOM     17  C   UNL     1       1.890  -2.245  -8.536  1.00  0.00     0.316 C 
BRANCH  17  18
ATOM     18  N   UNL     1       1.740  -2.220  -7.080  1.00  0.00    -0.338 N 
ATOM     19  H   UNL     1       1.035  -2.909  -6.820  1.00  0.00     0.346 HD
ATOM     20  H   UNL     1       2.659  -2.424  -6.688  1.00  0.00     0.346 HD
BRANCH  18  21
ATOM     21  C   UNL     1       1.334  -0.924  -6.539  1.00  0.00     0.297 C 
BRANCH  21  22
ATOM     22  C   UNL     1       1.016  -0.979  -5.053  1.00  0.00     0.006 A 
ATOM     23  C   UNL     1       0.444  -0.987  -2.272  1.00  0.00     0.118 A 
ATOM     24  C   UNL     1      -0.518  -1.385  -3.204  1.00  0.00     0.047 A 
ATOM     25  C   UNL     1       1.702  -0.619  -2.726  1.00  0.00     0.047 A 
ATOM     26  C   UNL     1      -0.235  -1.390  -4.580  1.00  0.00     0.013 A 
ATOM     27  C   UNL     1       1.962  -0.588  -4.099  1.00  0.00     0.013 A 
BRANCH  23  28
ATOM     28  O   UNL     1       0.067  -1.014  -0.957  1.00  0.00    -0.497 OA
ATOM     29  C   UNL     1       0.740  -0.085  -0.109  1.00  0.00     0.278 C 
ENDBRANCH  23  28
ENDBRANCH  21  22
ENDBRANCH  18  21
ENDBRANCH  17  18
ENDBRANCH  13  17
ENDBRANCH   6  12
ENDBRANCH   1   5
BRANCH   3  30
ATOM     30  C   UNL     1       5.798  -1.930  -6.588  1.00  0.00     0.116 C 
BRANCH  30  31
ATOM     31  C   UNL     1       4.942  -1.150  -5.617  1.00  0.00     0.023 C 
BRANCH  31  32
ATOM     32  C   UNL     1       5.662  -0.138  -4.735  1.00  0.00     0.023 C 
BRANCH  32  33
ATOM     33  C   UNL     1       6.406   0.937  -5.514  1.00  0.00     0.116 C 
BRANCH  33  34
ATOM     34  N   UNL     1       5.541   1.774  -6.340  1.00  0.00    -0.352 N 
ATOM     35  C   UNL     1       5.918   2.906  -7.023  1.00  0.00     0.251 C 
ATOM     36  H   UNL     1       4.597   1.502  -6.414  1.00  0.00     0.163 HD
ATOM     37  O   UNL     1       5.089   3.733  -7.410  1.00  0.00    -0.269 OA
BRANCH  35  38
ATOM     38  C   UNL     1       7.348   3.113  -7.294  1.00  0.00     0.039 A 
ATOM     39  C   UNL     1       7.959   4.333  -6.992  1.00  0.00     0.014 A 
ATOM     40  C   UNL     1       8.080   2.045  -7.829  1.00  0.00     0.014 A 
ATOM     41  C   UNL     1       9.334   4.451  -7.157  1.00  0.00     0.010 A 
ATOM     42  C   UNL     1       9.451   2.135  -7.928  1.00  0.00     0.010 A 
ATOM     43  C   UNL     1      10.072   3.338  -7.595  1.00  0.00    -0.014 A 
BRANCH  43  44
ATOM     44  C   UNL     1      11.543   3.372  -7.552  1.00  0.00     0.031 A 
ATOM     45  C   UNL     1      12.033   3.253  -6.085  1.00  0.00     0.074 A 
ATOM     46  C   UNL     1      12.168   3.499  -8.769  1.00  0.00     0.049 A 
ATOM     47  N   UNL     1      13.099   3.734  -5.537  1.00  0.00    -0.248 NA
ATOM     48  C   UNL     1      11.194   2.566  -5.054  1.00  0.00     0.031 C 
ATOM     49  C   UNL     1      11.476   3.506 -10.088  1.00  0.00     0.029 A 
ATOM     50  N   UNL     1      13.479   3.631  -9.180  1.00  0.00    -0.354 N 
ATOM     51  C   UNL     1      13.173   3.269  -4.201  1.00  0.00     0.074 A 
ATOM     52  C   UNL     1      11.912   2.653  -3.927  1.00  0.00     0.031 C 
ATOM     53  C   UNL     1      12.341   3.734 -11.105  1.00  0.00     0.029 A 
ATOM     54  C   UNL     1      13.676   3.896 -10.569  1.00  0.00     0.049 A 
ATOM     55  H   UNL     1      14.232   3.546  -8.552  1.00  0.00     0.167 HD
ATOM     56  C   UNL     1      14.346   3.282  -3.494  1.00  0.00     0.031 A 
ATOM     57  C   UNL     1      14.828   4.269 -11.216  1.00  0.00     0.031 A 
ATOM     58  C   UNL     1      15.361   3.871  -4.301  1.00  0.00     0.049 A 
ATOM     59  C   UNL     1      15.872   4.147 -10.198  1.00  0.00     0.074 A 
ATOM     60  C   UNL     1      15.530   5.145  -4.777  1.00  0.00     0.029 A 
ATOM     61  N   UNL     1      16.062   2.984  -5.086  1.00  0.00    -0.354 N 
ATOM     62  N   UNL     1      16.365   3.025  -9.779  1.00  0.00    -0.248 NA
ATOM     63  C   UNL     1      16.372   5.369  -9.557  1.00  0.00     0.031 C 
ATOM     64  C   UNL     1      15.823   4.908  -6.135  1.00  0.00     0.029 A 
ATOM     65  C   UNL     1      16.176   3.565  -6.317  1.00  0.00     0.049 A 
ATOM     66  H   UNL     1      16.412   2.105  -4.814  1.00  0.00     0.167 HD
ATOM     67  C   UNL     1      16.869   3.391  -8.561  1.00  0.00     0.074 A 
ATOM     68  C   UNL     1      17.161   4.812  -8.641  1.00  0.00     0.031 C 
ATOM     69  C   UNL     1      16.442   2.727  -7.454  1.00  0.00     0.031 A 
BRANCH  56  70
ATOM     70  C   UNL     1      14.832   2.550  -2.270  1.00  0.00    -0.014 A 
ATOM     71  C   UNL     1      16.114   2.916  -1.776  1.00  0.00     0.009 A 
ATOM     72  C   UNL     1      14.306   1.334  -1.831  1.00  0.00     0.009 A 
ATOM     73  C   UNL     1      16.896   2.046  -1.016  1.00  0.00     0.001 A 
ATOM     74  C   UNL     1      15.076   0.477  -1.025  1.00  0.00     0.001 A 
ATOM     75  C   UNL     1      16.380   0.812  -0.656  1.00  0.00     0.000 A 
ENDBRANCH  56  70
BRANCH  57  76
ATOM     76  C   UNL     1      15.340   4.822 -12.532  1.00  0.00    -0.014 A 
ATOM     77  C   UNL     1      14.586   5.157 -13.656  1.00  0.00     0.009 A 
ATOM     78  C   UNL     1      16.721   5.191 -12.598  1.00  0.00     0.009 A 
ATOM     79  C   UNL     1      15.157   5.917 -14.709  1.00  0.00     0.001 A 
ATOM     80  C   UNL     1      17.271   5.998 -13.596  1.00  0.00     0.001 A 
ATOM     81  C   UNL     1      16.475   6.380 -14.654  1.00  0.00     0.000 A 
ENDBRANCH  57  76
BRANCH  69  82
ATOM     82  C   UNL     1      15.925   1.308  -7.678  1.00  0.00    -0.014 A 
ATOM     83  C   UNL     1      16.725   0.387  -8.380  1.00  0.00     0.009 A 
ATOM     84  C   UNL     1      14.633   0.875  -7.321  1.00  0.00     0.009 A 
ATOM     85  C   UNL     1      16.259  -0.887  -8.731  1.00  0.00     0.001 A 
ATOM     86  C   UNL     1      14.160  -0.405  -7.672  1.00  0.00     0.001 A 
ATOM     87  C   UNL     1      14.975  -1.285  -8.378  1.00  0.00     0.000 A 
ENDBRANCH  69  82
ENDBRANCH  43  44
ENDBRANCH  35  38
ENDBRANCH  33  34
ENDBRANCH  32  33
ENDBRANCH  31  32
ENDBRANCH  30  31
ENDBRANCH   3  30
TORSDOF 17
