REMARK SMILES CC(C)c1cc(O)cc(C(C)C)c1O[C@@H]1O[C@@H](C(=O)NCCCCNC(=O)c2ccc(-c3c4nc(c(-c5ccccc5)c5ccc([nH]5)c(-c5ccccc5)c5nc(c(-c6ccccc6)c6ccc3[nH]6)C=C5)C=C4)cc2)[C@@H](O)[C@H](O)[C@@H]1O
REMARK SMILES IDX 22 1 21 2 20 3 18 4 19 5 17 7 15 8 16 9 80 10 78 11 76 12
REMARK SMILES IDX 14 13 13 14 4 15 5 16 6 17 9 18 8 19 2 20 1 21 3 22 7 23
REMARK SMILES IDX 10 25 11 26 12 27 81 28 79 30 77 32 23 34 24 35 25 36 26 37
REMARK SMILES IDX 27 39 28 40 29 41 75 42 30 43 74 44 31 45 32 46 33 47 68 48
REMARK SMILES IDX 34 49 73 50 67 51 69 52 35 53 72 54 66 55 65 56 36 58 58 59
REMARK SMILES IDX 43 60 57 61 44 62 47 63 56 64 70 65 45 66 46 67 55 69 71 70
REMARK SMILES IDX 48 71 37 72 38 73 42 74 39 75 41 76 40 77 59 78 60 79 64 80
REMARK SMILES IDX 61 81 63 82 62 83 49 84 50 85 54 86 51 87 53 88 52 89
REMARK H PARENT 20 6 7 24 81 29 79 31 77 33 25 38 69 57 47 68
REMARK Flexibility Score: inf
ROOT
ATOM      1  C   UNL     1      -2.238   3.761  -1.254  1.00  0.00     0.023 C 
ENDROOT
BRANCH   1   2
ATOM      2  C   UNL     1      -2.200   2.322  -0.746  1.00  0.00     0.116 C 
BRANCH   2   3
ATOM      3  N   UNL     1      -2.199   1.314  -1.794  1.00  0.00    -0.354 N 
ATOM      4  C   UNL     1      -1.270   0.463  -2.296  1.00  0.00     0.252 C 
ATOM      5  O   UNL     1      -1.741  -0.480  -2.949  1.00  0.00    -0.272 OA
ATOM      6  H   UNL     1      -3.073   1.229  -2.240  1.00  0.00     0.163 HD
BRANCH   4   7
ATOM      7  C   UNL     1       0.280   0.611  -2.183  1.00  0.00     0.242 C 
ATOM      8  C   UNL     1       0.779  -1.572  -1.277  1.00  0.00     0.339 C 
ATOM      9  O   UNL     1       0.969  -0.645  -2.354  1.00  0.00    -0.324 OA
ATOM     10  C   UNL     1       0.870  -1.016   0.181  1.00  0.00     0.214 C 
ATOM     11  C   UNL     1       0.512   0.479   0.294  1.00  0.00     0.181 C 
ATOM     12  C   UNL     1       0.894   1.282  -0.963  1.00  0.00     0.184 C 
BRANCH   8  13
ATOM     13  O   UNL     1       1.495  -2.805  -1.440  1.00  0.00    -0.461 OA
BRANCH  13  14
ATOM     14  C   UNL     1       2.830  -3.086  -1.470  1.00  0.00     0.130 A 
ATOM     15  C   UNL     1       3.074  -4.494  -1.396  1.00  0.00     0.001 A 
ATOM     16  C   UNL     1       4.396  -4.988  -1.396  1.00  0.00     0.054 A 
ATOM     17  C   UNL     1       5.465  -4.120  -1.478  1.00  0.00     0.116 A 
ATOM     18  C   UNL     1       3.942  -2.209  -1.542  1.00  0.00     0.001 A 
ATOM     19  C   UNL     1       5.246  -2.759  -1.560  1.00  0.00     0.054 A 
BRANCH  15  20
ATOM     20  C   UNL     1       1.969  -5.553  -1.319  1.00  0.00     0.017 C 
ATOM     21  C   UNL     1       1.087  -5.428  -0.074  1.00  0.00     0.012 C 
ATOM     22  C   UNL     1       1.141  -5.625  -2.603  1.00  0.00     0.012 C 
ENDBRANCH  15  20
BRANCH  17  23
ATOM     23  O   UNL     1       6.755  -4.557  -1.481  1.00  0.00    -0.508 OA
ATOM     24  H   UNL     1       6.938  -5.475  -1.427  1.00  0.00     0.293 HD
ENDBRANCH  17  23
BRANCH  18  25
ATOM     25  C   UNL     1       3.890  -0.698  -1.615  1.00  0.00     0.017 C 
ATOM     26  C   UNL     1       4.770   0.028  -0.585  1.00  0.00     0.012 C 
ATOM     27  C   UNL     1       4.148  -0.172  -3.025  1.00  0.00     0.012 C 
ENDBRANCH  18  25
ENDBRANCH  13  14
ENDBRANCH   8  13
BRANCH  10  28
ATOM     28  O   UNL     1       2.147  -1.196   0.821  1.00  0.00    -0.384 OA
ATOM     29  H   UNL     1       2.814  -0.658   0.368  1.00  0.00     0.211 HD
ENDBRANCH  10  28
BRANCH  11  30
ATOM     30  O   UNL     1       1.146   1.045   1.450  1.00  0.00    -0.387 OA
ATOM     31  H   UNL     1       2.109   0.985   1.354  1.00  0.00     0.211 HD
ENDBRANCH  11  30
BRANCH  12  32
ATOM     32  O   UNL     1       0.608   2.679  -0.913  1.00  0.00    -0.387 OA
ATOM     33  H   UNL     1      -0.351   2.811  -0.854  1.00  0.00     0.211 HD
ENDBRANCH  12  32
ENDBRANCH   4   7
ENDBRANCH   2   3
ENDBRANCH   1   2
BRANCH   1  34
ATOM     34  C   UNL     1      -3.559   4.482  -0.989  1.00  0.00     0.023 C 
BRANCH  34  35
ATOM     35  C   UNL     1      -4.089   4.401   0.440  1.00  0.00     0.116 C 
BRANCH  35  36
ATOM     36  N   UNL     1      -3.161   4.822   1.480  1.00  0.00    -0.352 N 
ATOM     37  C   UNL     1      -3.506   5.156   2.777  1.00  0.00     0.251 C 
ATOM     38  H   UNL     1      -2.208   4.874   1.240  1.00  0.00     0.163 HD
ATOM     39  O   UNL     1      -2.691   5.537   3.601  1.00  0.00    -0.269 OA
BRANCH  37  40
ATOM     40  C   UNL     1      -4.939   5.069   3.115  1.00  0.00     0.039 A 
ATOM     41  C   UNL     1      -5.677   6.249   3.223  1.00  0.00     0.014 A 
ATOM     42  C   UNL     1      -5.565   3.821   3.069  1.00  0.00     0.014 A 
ATOM     43  C   UNL     1      -7.070   6.184   3.185  1.00  0.00     0.010 A 
ATOM     44  C   UNL     1      -6.948   3.767   2.964  1.00  0.00     0.010 A 
ATOM     45  C   UNL     1      -7.710   4.949   2.997  1.00  0.00    -0.014 A 
BRANCH  45  46
ATOM     46  C   UNL     1      -9.177   4.854   2.800  1.00  0.00     0.031 A 
ATOM     47  C   UNL     1     -10.008   4.104   3.798  1.00  0.00     0.074 A 
ATOM     48  C   UNL     1      -9.737   5.328   1.670  1.00  0.00     0.049 A 
ATOM     49  N   UNL     1     -11.272   3.773   3.738  1.00  0.00    -0.248 NA
ATOM     50  C   UNL     1      -9.313   3.629   5.005  1.00  0.00     0.031 C 
ATOM     51  C   UNL     1      -9.028   6.023   0.593  1.00  0.00     0.029 A 
ATOM     52  N   UNL     1     -11.036   5.270   1.228  1.00  0.00    -0.354 N 
ATOM     53  C   UNL     1     -11.511   3.013   4.875  1.00  0.00     0.074 A 
ATOM     54  C   UNL     1     -10.256   2.904   5.586  1.00  0.00     0.031 C 
ATOM     55  C   UNL     1      -9.901   6.333  -0.380  1.00  0.00     0.029 A 
ATOM     56  C   UNL     1     -11.221   5.830  -0.013  1.00  0.00     0.049 A 
ATOM     57  H   UNL     1     -11.765   4.866   1.751  1.00  0.00     0.167 HD
ATOM     58  C   UNL     1     -12.674   2.466   5.297  1.00  0.00     0.031 A 
ATOM     59  C   UNL     1     -12.327   5.915  -0.776  1.00  0.00     0.031 A 
ATOM     60  C   UNL     1     -13.927   2.604   4.608  1.00  0.00     0.049 A 
ATOM     61  C   UNL     1     -13.619   5.341  -0.268  1.00  0.00     0.074 A 
ATOM     62  C   UNL     1     -15.179   2.164   4.998  1.00  0.00     0.029 A 
ATOM     63  N   UNL     1     -14.085   3.236   3.384  1.00  0.00    -0.354 N 
ATOM     64  N   UNL     1     -13.848   4.692   0.848  1.00  0.00    -0.248 NA
ATOM     65  C   UNL     1     -14.805   5.518  -1.118  1.00  0.00     0.031 C 
ATOM     66  C   UNL     1     -16.091   2.499   3.992  1.00  0.00     0.029 A 
ATOM     67  C   UNL     1     -15.412   3.182   2.995  1.00  0.00     0.049 A 
ATOM     68  H   UNL     1     -13.361   3.659   2.868  1.00  0.00     0.167 HD
ATOM     69  C   UNL     1     -15.206   4.403   0.846  1.00  0.00     0.074 A 
ATOM     70  C   UNL     1     -15.751   4.955  -0.378  1.00  0.00     0.031 C 
ATOM     71  C   UNL     1     -15.936   3.741   1.776  1.00  0.00     0.031 A 
BRANCH  58  72
ATOM     72  C   UNL     1     -12.628   1.656   6.560  1.00  0.00    -0.014 A 
ATOM     73  C   UNL     1     -12.431   2.265   7.810  1.00  0.00     0.009 A 
ATOM     74  C   UNL     1     -12.775   0.262   6.498  1.00  0.00     0.009 A 
ATOM     75  C   UNL     1     -12.332   1.489   8.966  1.00  0.00     0.001 A 
ATOM     76  C   UNL     1     -12.705  -0.509   7.659  1.00  0.00     0.001 A 
ATOM     77  C   UNL     1     -12.471   0.104   8.890  1.00  0.00     0.000 A 
ENDBRANCH  58  72
BRANCH  59  78
ATOM     78  C   UNL     1     -12.260   6.585  -2.100  1.00  0.00    -0.014 A 
ATOM     79  C   UNL     1     -12.797   7.870  -2.274  1.00  0.00     0.009 A 
ATOM     80  C   UNL     1     -11.645   5.953  -3.191  1.00  0.00     0.009 A 
ATOM     81  C   UNL     1     -12.733   8.501  -3.518  1.00  0.00     0.001 A 
ATOM     82  C   UNL     1     -11.563   6.596  -4.429  1.00  0.00     0.001 A 
ATOM     83  C   UNL     1     -12.113   7.866  -4.593  1.00  0.00     0.000 A 
ENDBRANCH  59  78
BRANCH  71  84
ATOM     84  C   UNL     1     -17.409   3.601   1.526  1.00  0.00    -0.014 A 
ATOM     85  C   UNL     1     -17.901   2.663   0.608  1.00  0.00     0.009 A 
ATOM     86  C   UNL     1     -18.315   4.368   2.275  1.00  0.00     0.009 A 
ATOM     87  C   UNL     1     -19.278   2.508   0.432  1.00  0.00     0.001 A 
ATOM     88  C   UNL     1     -19.689   4.196   2.112  1.00  0.00     0.001 A 
ATOM     89  C   UNL     1     -20.170   3.269   1.188  1.00  0.00     0.000 A 
ENDBRANCH  71  84
ENDBRANCH  45  46
ENDBRANCH  37  40
ENDBRANCH  35  36
ENDBRANCH  34  35
ENDBRANCH   1  34
TORSDOF 19
