REMARK SMILES O=C(NCCCCNC(=O)[C@H]1CCCN(C(=O)C2CCN(S(=O)(=O)c3ccccc3)CC2)C1)c1ccc(-c2c3nc(c(-c4ccccc4)c4ccc([nH]4)c(-c4ccccc4)c4nc(c(-c5ccccc5)c5ccc2[nH]5)C=C4)C=C3)cc1
REMARK SMILES IDX 6 1 5 2 4 3 3 4 1 5 2 6 34 8 35 9 81 10 36 11 80 12 37 13
REMARK SMILES IDX 38 14 39 15 74 16 40 17 79 18 73 19 75 20 41 21 78 22 72 23
REMARK SMILES IDX 71 24 42 26 64 27 49 28 63 29 50 30 53 31 62 32 76 33 51 34
REMARK SMILES IDX 52 35 61 37 77 38 54 39 43 40 44 41 48 42 45 43 47 44 46 45
REMARK SMILES IDX 65 46 66 47 70 48 67 49 69 50 68 51 55 52 56 53 60 54 57 55
REMARK SMILES IDX 59 56 58 57 7 58 8 59 9 60 10 62 11 63 12 64 33 65 13 66
REMARK SMILES IDX 15 67 14 68 16 69 17 70 18 71 19 72 32 73 20 74 31 75 21 76
REMARK SMILES IDX 22 77 23 78 24 79 25 80 26 81 30 82 27 83 29 84 28 85
REMARK H PARENT 3 7 75 25 53 36 8 61
REMARK Flexibility Score: inf
ROOT
ATOM      1  C   UNL     1       5.443  -3.962   9.672  1.00  0.00     0.023 C 
ENDROOT
BRANCH   1   2
ATOM      2  C   UNL     1       4.696  -3.204  10.765  1.00  0.00     0.023 C 
BRANCH   2   3
ATOM      3  C   UNL     1       3.237  -3.598  10.931  1.00  0.00     0.116 C 
BRANCH   3   4
ATOM      4  N   UNL     1       3.054  -5.019  11.185  1.00  0.00    -0.352 N 
ATOM      5  O   UNL     1       2.229  -6.830  12.258  1.00  0.00    -0.269 OA
ATOM      6  C   UNL     1       2.197  -5.619  12.073  1.00  0.00     0.251 C 
ATOM      7  H   UNL     1       3.617  -5.626  10.653  1.00  0.00     0.163 HD
BRANCH   6   8
ATOM      8  C   UNL     1       1.257  -4.773  12.831  1.00  0.00     0.039 A 
ATOM      9  C   UNL     1       0.461  -3.834  12.168  1.00  0.00     0.014 A 
ATOM     10  C   UNL     1       1.212  -4.896  14.221  1.00  0.00     0.014 A 
ATOM     11  C   UNL     1      -0.295  -2.933  12.907  1.00  0.00     0.010 A 
ATOM     12  C   UNL     1       0.398  -4.036  14.957  1.00  0.00     0.010 A 
ATOM     13  C   UNL     1      -0.340  -3.034  14.306  1.00  0.00    -0.014 A 
BRANCH  13  14
ATOM     14  C   UNL     1      -1.218  -2.130  15.080  1.00  0.00     0.031 A 
ATOM     15  C   UNL     1      -0.644  -1.117  16.024  1.00  0.00     0.074 A 
ATOM     16  C   UNL     1      -2.550  -2.256  14.940  1.00  0.00     0.049 A 
ATOM     17  N   UNL     1      -1.270  -0.297  16.829  1.00  0.00    -0.248 NA
ATOM     18  C   UNL     1       0.823  -1.016  16.082  1.00  0.00     0.031 C 
ATOM     19  C   UNL     1      -3.217  -3.212  14.053  1.00  0.00     0.029 A 
ATOM     20  N   UNL     1      -3.579  -1.585  15.545  1.00  0.00    -0.354 N 
ATOM     21  C   UNL     1      -0.279   0.397  17.509  1.00  0.00     0.074 A 
ATOM     22  C   UNL     1       0.992  -0.106  17.032  1.00  0.00     0.031 C 
ATOM     23  C   UNL     1      -4.544  -3.059  14.164  1.00  0.00     0.029 A 
ATOM     24  C   UNL     1      -4.818  -2.039  15.169  1.00  0.00     0.049 A 
ATOM     25  H   UNL     1      -3.444  -0.851  16.187  1.00  0.00     0.167 HD
ATOM     26  C   UNL     1      -0.419   1.363  18.448  1.00  0.00     0.031 A 
ATOM     27  C   UNL     1      -6.043  -1.699  15.607  1.00  0.00     0.031 A 
ATOM     28  C   UNL     1      -1.688   1.857  18.916  1.00  0.00     0.049 A 
ATOM     29  C   UNL     1      -6.172  -0.648  16.666  1.00  0.00     0.074 A 
ATOM     30  C   UNL     1      -1.937   2.868  19.828  1.00  0.00     0.029 A 
ATOM     31  N   UNL     1      -2.921   1.367  18.514  1.00  0.00    -0.354 N 
ATOM     32  N   UNL     1      -5.227   0.028  17.271  1.00  0.00    -0.248 NA
ATOM     33  C   UNL     1      -7.534  -0.314  17.103  1.00  0.00     0.031 C 
ATOM     34  C   UNL     1      -3.321   2.957  20.013  1.00  0.00     0.029 A 
ATOM     35  C   UNL     1      -3.935   2.034  19.181  1.00  0.00     0.049 A 
ATOM     36  H   UNL     1      -3.057   0.651  17.852  1.00  0.00     0.167 HD
ATOM     37  C   UNL     1      -5.877   0.878  18.153  1.00  0.00     0.074 A 
ATOM     38  C   UNL     1      -7.298   0.640  17.994  1.00  0.00     0.031 C 
ATOM     39  C   UNL     1      -5.342   1.776  19.016  1.00  0.00     0.031 A 
BRANCH  26  40
ATOM     40  C   UNL     1       0.835   1.920  19.060  1.00  0.00    -0.014 A 
ATOM     41  C   UNL     1       1.681   2.780  18.342  1.00  0.00     0.009 A 
ATOM     42  C   UNL     1       1.160   1.599  20.387  1.00  0.00     0.009 A 
ATOM     43  C   UNL     1       2.847   3.276  18.931  1.00  0.00     0.001 A 
ATOM     44  C   UNL     1       2.313   2.115  20.980  1.00  0.00     0.001 A 
ATOM     45  C   UNL     1       3.161   2.946  20.249  1.00  0.00     0.000 A 
ENDBRANCH  26  40
BRANCH  27  46
ATOM     46  C   UNL     1      -7.226  -2.397  15.049  1.00  0.00    -0.014 A 
ATOM     47  C   UNL     1      -8.063  -1.756  14.126  1.00  0.00     0.009 A 
ATOM     48  C   UNL     1      -7.477  -3.738  15.383  1.00  0.00     0.009 A 
ATOM     49  C   UNL     1      -9.133  -2.446  13.551  1.00  0.00     0.001 A 
ATOM     50  C   UNL     1      -8.531  -4.431  14.788  1.00  0.00     0.001 A 
ATOM     51  C   UNL     1      -9.361  -3.783  13.875  1.00  0.00     0.000 A 
ENDBRANCH  27  46
BRANCH  39  52
ATOM     52  C   UNL     1      -6.302   2.581  19.841  1.00  0.00    -0.014 A 
ATOM     53  C   UNL     1      -6.947   2.020  20.953  1.00  0.00     0.009 A 
ATOM     54  C   UNL     1      -6.523   3.931  19.530  1.00  0.00     0.009 A 
ATOM     55  C   UNL     1      -7.813   2.793  21.728  1.00  0.00     0.001 A 
ATOM     56  C   UNL     1      -7.373   4.707  20.319  1.00  0.00     0.001 A 
ATOM     57  C   UNL     1      -8.021   4.136  21.413  1.00  0.00     0.000 A 
ENDBRANCH  39  52
ENDBRANCH  13  14
ENDBRANCH   6   8
ENDBRANCH   3   4
ENDBRANCH   2   3
ENDBRANCH   1   2
BRANCH   1  58
ATOM     58  C   UNL     1       4.781  -3.925   8.294  1.00  0.00     0.116 C 
BRANCH  58  59
ATOM     59  N   UNL     1       4.787  -2.598   7.702  1.00  0.00    -0.356 N 
ATOM     60  C   UNL     1       5.457  -2.107   6.620  1.00  0.00     0.224 C 
ATOM     61  H   UNL     1       4.211  -1.943   8.159  1.00  0.00     0.163 HD
ATOM     62  O   UNL     1       5.265  -0.928   6.315  1.00  0.00    -0.275 OA
BRANCH  60  63
ATOM     63  C   UNL     1       6.418  -2.970   5.813  1.00  0.00     0.098 C 
ATOM     64  C   UNL     1       7.596  -3.433   6.684  1.00  0.00     0.017 C 
ATOM     65  C   UNL     1       5.650  -4.048   5.023  1.00  0.00     0.133 C 
ATOM     66  C   UNL     1       8.290  -4.675   6.161  1.00  0.00     0.022 C 
ATOM     67  N   UNL     1       6.479  -5.197   4.636  1.00  0.00    -0.342 N 
ATOM     68  C   UNL     1       7.279  -5.717   5.719  1.00  0.00     0.119 C 
BRANCH  67  69
ATOM     69  C   UNL     1       6.282  -5.789   3.402  1.00  0.00     0.225 C 
ATOM     70  O   UNL     1       5.315  -5.438   2.711  1.00  0.00    -0.275 OA
BRANCH  69  71
ATOM     71  C   UNL     1       7.229  -6.856   2.793  1.00  0.00     0.081 C 
ATOM     72  C   UNL     1       7.036  -8.308   3.196  1.00  0.00     0.030 C 
ATOM     73  C   UNL     1       8.697  -6.509   2.632  1.00  0.00     0.030 C 
ATOM     74  C   UNL     1       7.955  -8.843   4.281  1.00  0.00     0.103 C 
ATOM     75  C   UNL     1       9.617  -6.979   3.740  1.00  0.00     0.103 C 
ATOM     76  N   UNL     1       9.374  -8.348   4.260  1.00  0.00    -0.198 NA
BRANCH  76  77
ATOM     77  S   UNL     1      10.095  -8.658   5.826  1.00  0.00     0.243 S 
ATOM     78  O   UNL     1       9.382  -7.845   6.792  1.00  0.00    -0.207 OA
ATOM     79  O   UNL     1      10.150 -10.097   5.987  1.00  0.00    -0.207 OA
BRANCH  77  80
ATOM     80  C   UNL     1      11.756  -8.029   5.768  1.00  0.00     0.082 A 
ATOM     81  C   UNL     1      12.835  -8.909   5.695  1.00  0.00     0.022 A 
ATOM     82  C   UNL     1      11.977  -6.661   5.989  1.00  0.00     0.022 A 
ATOM     83  C   UNL     1      14.136  -8.410   5.800  1.00  0.00     0.001 A 
ATOM     84  C   UNL     1      13.277  -6.165   6.063  1.00  0.00     0.001 A 
ATOM     85  C   UNL     1      14.356  -7.042   5.972  1.00  0.00     0.000 A 
ENDBRANCH  77  80
ENDBRANCH  76  77
ENDBRANCH  69  71
ENDBRANCH  67  69
ENDBRANCH  60  63
ENDBRANCH  58  59
ENDBRANCH   1  58
TORSDOF 15
