REMARK SMILES Cc1ncc(CC(=O)N2CCc3c(c(C(=O)NCCCCNC(=O)c4ccc(-c5c6nc(c(-c7ccccc7)c7ccc([nH]7)c(-c7ccccc7)c7nc(c(-c8ccccc8)c8ccc5[nH]8)C=C7)C=C6)cc4)nn3CC3CC3)C2)c(=O)[nH]1
REMARK SMILES IDX 19 1 18 2 17 3 15 4 16 5 14 7 9 8 10 9 79 10 11 11 13 12
REMARK SMILES IDX 12 13 74 14 73 15 7 16 8 17 6 18 5 19 1 20 2 21 3 22 82 23
REMARK SMILES IDX 4 24 80 25 81 27 75 28 76 29 77 30 78 31 20 32 21 33 22 34
REMARK SMILES IDX 23 35 24 37 25 38 26 39 72 40 27 41 71 42 28 43 29 44 30 45
REMARK SMILES IDX 65 46 31 47 70 48 64 49 66 50 32 51 69 52 63 53 62 54 33 56
REMARK SMILES IDX 55 57 40 58 54 59 41 60 44 61 53 62 67 63 42 64 43 65 52 67
REMARK SMILES IDX 68 68 45 69 34 70 35 71 39 72 36 73 38 74 37 75 56 76 57 77
REMARK SMILES IDX 61 78 58 79 60 80 59 81 46 82 47 83 51 84 48 85 50 86 49 87
REMARK H PARENT 17 6 82 26 22 36 66 55 44 66
REMARK Flexibility Score: inf
ROOT
ATOM      1  C   UNL     1       1.217   6.488   9.121  1.00  0.00     0.023 C 
ENDROOT
BRANCH   1   2
ATOM      2  C   UNL     1       1.637   6.923   7.709  1.00  0.00     0.116 C 
BRANCH   2   3
ATOM      3  N   UNL     1       2.805   6.208   7.207  1.00  0.00    -0.351 N 
ATOM      4  C   UNL     1       2.949   5.254   6.212  1.00  0.00     0.272 C 
ATOM      5  O   UNL     1       4.092   4.841   6.000  1.00  0.00    -0.267 OA
ATOM      6  H   UNL     1       3.647   6.448   7.657  1.00  0.00     0.163 HD
BRANCH   4   7
ATOM      7  C   UNL     1       1.796   4.723   5.457  1.00  0.00     0.155 A 
ATOM      8  N   UNL     1       2.343   2.023   2.821  1.00  0.00    -0.338 N 
ATOM      9  C   UNL     1       1.066   1.354   3.120  1.00  0.00     0.126 C 
ATOM     10  C   UNL     1       2.914   2.804   3.949  1.00  0.00     0.159 C 
ATOM     11  C   UNL     1      -0.059   2.383   3.311  1.00  0.00     0.078 C 
ATOM     12  C   UNL     1       1.801   3.648   4.512  1.00  0.00     0.026 A 
ATOM     13  C   UNL     1       0.467   3.447   4.202  1.00  0.00     0.046 A 
ATOM     14  N   UNL     1      -0.238   4.403   4.853  1.00  0.00    -0.268 N 
ATOM     15  N   UNL     1       0.547   5.211   5.580  1.00  0.00    -0.167 NA
BRANCH   8  16
ATOM     16  C   UNL     1       3.038   1.985   1.624  1.00  0.00     0.227 C 
ATOM     17  O   UNL     1       4.262   2.164   1.611  1.00  0.00    -0.275 OA
BRANCH  16  18
ATOM     18  C   UNL     1       2.288   2.020   0.274  1.00  0.00     0.143 C 
BRANCH  18  19
ATOM     19  C   UNL     1       1.082   1.176   0.046  1.00  0.00     0.045 A 
ATOM     20  C   UNL     1      -2.345  -1.296  -0.108  1.00  0.00     0.087 C 
ATOM     21  C   UNL     1      -1.154  -0.383  -0.122  1.00  0.00     0.105 A 
ATOM     22  N   UNL     1      -1.302   0.900  -0.175  1.00  0.00    -0.243 NA
ATOM     23  N   UNL     1       0.064  -0.996  -0.050  1.00  0.00    -0.311 N 
ATOM     24  C   UNL     1      -0.160   1.654  -0.117  1.00  0.00     0.123 A 
ATOM     25  C   UNL     1       1.235  -0.294   0.011  1.00  0.00     0.254 A 
ATOM     26  H   UNL     1       0.100  -1.980  -0.043  1.00  0.00     0.171 HD
ATOM     27  O   UNL     1       2.324  -0.844   0.077  1.00  0.00    -0.269 OA
ENDBRANCH  18  19
ENDBRANCH  16  18
ENDBRANCH   8  16
BRANCH  14  28
ATOM     28  C   UNL     1      -1.677   4.634   4.831  1.00  0.00     0.148 C 
BRANCH  28  29
ATOM     29  C   UNL     1      -2.412   4.156   6.056  1.00  0.00     0.011 C 
ATOM     30  C   UNL     1      -1.750   3.630   7.313  1.00  0.00     0.006 C 
ATOM     31  C   UNL     1      -2.374   4.995   7.313  1.00  0.00     0.006 C 
ENDBRANCH  28  29
ENDBRANCH  14  28
ENDBRANCH   4   7
ENDBRANCH   2   3
ENDBRANCH   1   2
BRANCH   1  32
ATOM     32  C   UNL     1       2.117   6.957  10.276  1.00  0.00     0.023 C 
BRANCH  32  33
ATOM     33  C   UNL     1       2.223   8.468  10.439  1.00  0.00     0.116 C 
BRANCH  33  34
ATOM     34  N   UNL     1       0.958   9.139  10.776  1.00  0.00    -0.352 N 
ATOM     35  C   UNL     1       0.719  10.506  10.907  1.00  0.00     0.251 C 
ATOM     36  H   UNL     1       0.184   8.550  10.927  1.00  0.00     0.163 HD
ATOM     37  O   UNL     1      -0.240  10.938  11.526  1.00  0.00    -0.269 OA
BRANCH  35  38
ATOM     38  C   UNL     1       1.655  11.429  10.241  1.00  0.00     0.039 A 
ATOM     39  C   UNL     1       2.127  12.619  10.806  1.00  0.00     0.014 A 
ATOM     40  C   UNL     1       2.118  10.998   9.011  1.00  0.00     0.014 A 
ATOM     41  C   UNL     1       3.130  13.320  10.133  1.00  0.00     0.010 A 
ATOM     42  C   UNL     1       3.293  11.496   8.545  1.00  0.00     0.010 A 
ATOM     43  C   UNL     1       3.709  12.736   8.999  1.00  0.00    -0.014 A 
BRANCH  43  44
ATOM     44  C   UNL     1       4.769  13.350   8.217  1.00  0.00     0.031 A 
ATOM     45  C   UNL     1       6.039  13.601   8.938  1.00  0.00     0.074 A 
ATOM     46  C   UNL     1       4.699  13.379   6.865  1.00  0.00     0.049 A 
ATOM     47  N   UNL     1       6.589  14.742   9.178  1.00  0.00    -0.248 NA
ATOM     48  C   UNL     1       6.738  12.459   9.550  1.00  0.00     0.031 C 
ATOM     49  C   UNL     1       3.658  12.824   5.980  1.00  0.00     0.029 A 
ATOM     50  N   UNL     1       5.651  13.759   5.981  1.00  0.00    -0.354 N 
ATOM     51  C   UNL     1       7.797  14.464   9.807  1.00  0.00     0.074 A 
ATOM     52  C   UNL     1       7.753  13.069  10.167  1.00  0.00     0.031 C 
ATOM     53  C   UNL     1       4.166  12.649   4.741  1.00  0.00     0.029 A 
ATOM     54  C   UNL     1       5.485  13.249   4.700  1.00  0.00     0.049 A 
ATOM     55  H   UNL     1       6.400  14.349   6.225  1.00  0.00     0.167 HD
ATOM     56  C   UNL     1       8.839  15.342   9.768  1.00  0.00     0.031 A 
ATOM     57  C   UNL     1       6.397  13.273   3.698  1.00  0.00     0.031 A 
ATOM     58  C   UNL     1       8.434  16.630   9.262  1.00  0.00     0.049 A 
ATOM     59  C   UNL     1       7.383  14.330   4.040  1.00  0.00     0.074 A 
ATOM     60  C   UNL     1       7.489  17.564   9.638  1.00  0.00     0.029 A 
ATOM     61  N   UNL     1       8.734  16.913   7.948  1.00  0.00    -0.354 N 
ATOM     62  N   UNL     1       7.071  15.596   4.106  1.00  0.00    -0.248 NA
ATOM     63  C   UNL     1       8.560  13.940   4.803  1.00  0.00     0.031 C 
ATOM     64  C   UNL     1       6.895  17.987   8.410  1.00  0.00     0.029 A 
ATOM     65  C   UNL     1       7.574  17.357   7.364  1.00  0.00     0.049 A 
ATOM     66  H   UNL     1       9.611  16.815   7.511  1.00  0.00     0.167 HD
ATOM     67  C   UNL     1       7.718  16.063   5.243  1.00  0.00     0.074 A 
ATOM     68  C   UNL     1       8.695  15.024   5.576  1.00  0.00     0.031 C 
ATOM     69  C   UNL     1       7.205  17.088   5.991  1.00  0.00     0.031 A 
BRANCH  56  70
ATOM     70  C   UNL     1      10.287  14.933   9.801  1.00  0.00    -0.014 A 
ATOM     71  C   UNL     1      11.269  15.936   9.882  1.00  0.00     0.009 A 
ATOM     72  C   UNL     1      10.726  13.637   9.474  1.00  0.00     0.009 A 
ATOM     73  C   UNL     1      12.609  15.667   9.580  1.00  0.00     0.001 A 
ATOM     74  C   UNL     1      12.070  13.356   9.214  1.00  0.00     0.001 A 
ATOM     75  C   UNL     1      13.007  14.378   9.238  1.00  0.00     0.000 A 
ENDBRANCH  56  70
BRANCH  57  76
ATOM     76  C   UNL     1       6.623  12.242   2.659  1.00  0.00    -0.014 A 
ATOM     77  C   UNL     1       7.379  12.517   1.510  1.00  0.00     0.009 A 
ATOM     78  C   UNL     1       6.291  10.896   2.910  1.00  0.00     0.009 A 
ATOM     79  C   UNL     1       7.808  11.482   0.663  1.00  0.00     0.001 A 
ATOM     80  C   UNL     1       6.715   9.864   2.066  1.00  0.00     0.001 A 
ATOM     81  C   UNL     1       7.486  10.156   0.948  1.00  0.00     0.000 A 
ENDBRANCH  57  76
BRANCH  69  82
ATOM     82  C   UNL     1       5.985  17.820   5.475  1.00  0.00    -0.014 A 
ATOM     83  C   UNL     1       4.754  17.182   5.230  1.00  0.00     0.009 A 
ATOM     84  C   UNL     1       6.019  19.220   5.421  1.00  0.00     0.009 A 
ATOM     85  C   UNL     1       3.606  17.919   4.917  1.00  0.00     0.001 A 
ATOM     86  C   UNL     1       4.870  19.959   5.127  1.00  0.00     0.001 A 
ATOM     87  C   UNL     1       3.664  19.309   4.871  1.00  0.00     0.000 A 
ENDBRANCH  69  82
ENDBRANCH  43  44
ENDBRANCH  35  38
ENDBRANCH  33  34
ENDBRANCH  32  33
ENDBRANCH   1  32
TORSDOF 16
