REMARK SMILES C[C@@H]1CN(C(=O)Nc2ccc(O)c(C(=O)NCCCCNC(=O)c3ccc(-c4c5nc(c(-c6ccccc6)c6ccc([nH]6)c(-c6ccccc6)c6nc(c(-c7ccccc7)c7ccc4[nH]7)C=C6)C=C5)cc3)c2)C[C@@H]1C
REMARK SMILES IDX 18 1 17 2 16 3 14 4 15 5 13 7 8 8 9 9 72 10 10 11 11 12 7 13
REMARK SMILES IDX 5 14 6 15 4 17 1 18 2 19 3 20 74 21 73 22 75 23 12 24 19 26
REMARK SMILES IDX 20 27 21 28 22 29 23 31 24 32 25 33 71 34 26 35 70 36 27 37
REMARK SMILES IDX 28 38 29 39 64 40 30 41 69 42 63 43 65 44 31 45 68 46 62 47
REMARK SMILES IDX 61 48 32 50 54 51 39 52 53 53 40 54 43 55 52 56 66 57 41 58
REMARK SMILES IDX 42 59 51 61 67 62 44 63 33 64 34 65 38 66 35 67 37 68 36 69
REMARK SMILES IDX 55 70 56 71 60 72 57 73 59 74 58 75 45 76 46 77 50 78 47 79
REMARK SMILES IDX 49 80 48 81
REMARK H PARENT 16 6 7 16 12 25 21 30 65 49 43 60
REMARK Flexibility Score: inf
ROOT
ATOM      1  C   UNL     1       0.782   7.929  -1.171  1.00  0.00     0.023 C 
ENDROOT
BRANCH   1   2
ATOM      2  C   UNL     1       1.831   6.813  -1.139  1.00  0.00     0.116 C 
BRANCH   2   3
ATOM      3  N   UNL     1       2.724   6.984  -0.017  1.00  0.00    -0.352 N 
ATOM      4  C   UNL     1       2.692   6.502   1.264  1.00  0.00     0.255 C 
ATOM      5  O   UNL     1       3.626   6.856   1.993  1.00  0.00    -0.269 OA
ATOM      6  H   UNL     1       3.502   7.556  -0.210  1.00  0.00     0.163 HD
BRANCH   4   7
ATOM      7  C   UNL     1       1.690   5.543   1.827  1.00  0.00     0.083 A 
ATOM      8  C   UNL     1       1.431   3.720   3.437  1.00  0.00     0.043 A 
ATOM      9  C   UNL     1       0.059   3.703   3.221  1.00  0.00     0.030 A 
ATOM     10  C   UNL     1       2.222   4.682   2.810  1.00  0.00     0.044 A 
ATOM     11  C   UNL     1      -0.493   4.539   2.261  1.00  0.00     0.049 A 
ATOM     12  C   UNL     1       0.321   5.426   1.544  1.00  0.00     0.128 A 
BRANCH   8  13
ATOM     13  N   UNL     1       2.051   2.790   4.274  1.00  0.00    -0.308 N 
ATOM     14  C   UNL     1       1.742   1.485   4.517  1.00  0.00     0.321 C 
ATOM     15  O   UNL     1       2.072   1.007   5.605  1.00  0.00    -0.248 OA
ATOM     16  H   UNL     1       2.832   3.131   4.767  1.00  0.00     0.171 HD
BRANCH  14  17
ATOM     17  N   UNL     1       1.218   0.706   3.509  1.00  0.00    -0.324 N 
ATOM     18  C   UNL     1       1.051  -0.325  -0.057  1.00  0.00     0.010 C 
ATOM     19  C   UNL     1       0.679  -0.287   1.415  1.00  0.00     0.010 C 
ATOM     20  C   UNL     1       1.092   1.021   2.087  1.00  0.00     0.125 C 
ATOM     21  C   UNL     1       1.301  -1.351   2.328  1.00  0.00     0.010 C 
ATOM     22  C   UNL     1       1.071  -0.730   3.714  1.00  0.00     0.125 C 
ATOM     23  C   UNL     1       2.788  -1.601   2.071  1.00  0.00     0.010 C 
ENDBRANCH  14  17
ENDBRANCH   8  13
BRANCH  12  24
ATOM     24  O   UNL     1      -0.312   6.164   0.596  1.00  0.00    -0.507 OA
ATOM     25  H   UNL     1      -1.230   6.047   0.446  1.00  0.00     0.293 HD
ENDBRANCH  12  24
ENDBRANCH   4   7
ENDBRANCH   2   3
ENDBRANCH   1   2
BRANCH   1  26
ATOM     26  C   UNL     1       1.236   9.243  -1.793  1.00  0.00     0.023 C 
BRANCH  26  27
ATOM     27  C   UNL     1       1.553   9.169  -3.276  1.00  0.00     0.116 C 
BRANCH  27  28
ATOM     28  N   UNL     1       0.446   8.688  -4.090  1.00  0.00    -0.352 N 
ATOM     29  C   UNL     1       0.152   9.016  -5.394  1.00  0.00     0.251 C 
ATOM     30  H   UNL     1      -0.167   8.051  -3.656  1.00  0.00     0.163 HD
ATOM     31  O   UNL     1      -0.855   8.594  -5.942  1.00  0.00    -0.269 OA
BRANCH  29  32
ATOM     32  C   UNL     1       1.062   9.938  -6.102  1.00  0.00     0.039 A 
ATOM     33  C   UNL     1       0.536  11.098  -6.673  1.00  0.00     0.014 A 
ATOM     34  C   UNL     1       2.438   9.697  -6.112  1.00  0.00     0.014 A 
ATOM     35  C   UNL     1       1.403  12.059  -7.193  1.00  0.00     0.010 A 
ATOM     36  C   UNL     1       3.302  10.686  -6.561  1.00  0.00     0.010 A 
ATOM     37  C   UNL     1       2.793  11.877  -7.104  1.00  0.00    -0.014 A 
BRANCH  37  38
ATOM     38  C   UNL     1       3.744  12.903  -7.591  1.00  0.00     0.031 A 
ATOM     39  C   UNL     1       4.657  12.578  -8.739  1.00  0.00     0.074 A 
ATOM     40  C   UNL     1       3.839  14.090  -6.960  1.00  0.00     0.049 A 
ATOM     41  N   UNL     1       5.643  13.280  -9.235  1.00  0.00    -0.248 NA
ATOM     42  C   UNL     1       4.453  11.276  -9.398  1.00  0.00     0.031 C 
ATOM     43  C   UNL     1       3.029  14.516  -5.816  1.00  0.00     0.029 A 
ATOM     44  N   UNL     1       4.674  15.154  -7.189  1.00  0.00    -0.354 N 
ATOM     45  C   UNL     1       6.185  12.500 -10.248  1.00  0.00     0.074 A 
ATOM     46  C   UNL     1       5.454  11.253 -10.265  1.00  0.00     0.031 C 
ATOM     47  C   UNL     1       3.396  15.758  -5.457  1.00  0.00     0.029 A 
ATOM     48  C   UNL     1       4.489  16.198  -6.316  1.00  0.00     0.049 A 
ATOM     49  H   UNL     1       5.343  15.168  -7.911  1.00  0.00     0.167 HD
ATOM     50  C   UNL     1       7.187  12.804 -11.106  1.00  0.00     0.031 A 
ATOM     51  C   UNL     1       5.138  17.374  -6.214  1.00  0.00     0.031 A 
ATOM     52  C   UNL     1       7.901  14.050 -11.105  1.00  0.00     0.049 A 
ATOM     53  C   UNL     1       6.255  17.681  -7.174  1.00  0.00     0.074 A 
ATOM     54  C   UNL     1       8.918  14.462 -11.947  1.00  0.00     0.029 A 
ATOM     55  N   UNL     1       7.660  15.092 -10.224  1.00  0.00    -0.354 N 
ATOM     56  N   UNL     1       6.733  16.945  -8.149  1.00  0.00    -0.248 NA
ATOM     57  C   UNL     1       6.915  18.986  -7.026  1.00  0.00     0.031 C 
ATOM     58  C   UNL     1       9.311  15.747 -11.560  1.00  0.00     0.029 A 
ATOM     59  C   UNL     1       8.509  16.148 -10.503  1.00  0.00     0.049 A 
ATOM     60  H   UNL     1       6.986  15.082  -9.506  1.00  0.00     0.167 HD
ATOM     61  C   UNL     1       7.721  17.713  -8.751  1.00  0.00     0.074 A 
ATOM     62  C   UNL     1       7.768  18.973  -8.040  1.00  0.00     0.031 C 
ATOM     63  C   UNL     1       8.520  17.402  -9.800  1.00  0.00     0.031 A 
BRANCH  50  64
ATOM     64  C   UNL     1       7.556  11.769 -12.128  1.00  0.00    -0.014 A 
ATOM     65  C   UNL     1       6.710  11.498 -13.215  1.00  0.00     0.009 A 
ATOM     66  C   UNL     1       8.776  11.084 -12.027  1.00  0.00     0.009 A 
ATOM     67  C   UNL     1       7.065  10.541 -14.166  1.00  0.00     0.001 A 
ATOM     68  C   UNL     1       9.140  10.145 -12.994  1.00  0.00     0.001 A 
ATOM     69  C   UNL     1       8.282   9.869 -14.058  1.00  0.00     0.000 A 
ENDBRANCH  50  64
BRANCH  51  70
ATOM     70  C   UNL     1       4.752  18.363  -5.174  1.00  0.00    -0.014 A 
ATOM     71  C   UNL     1       4.122  19.564  -5.536  1.00  0.00     0.009 A 
ATOM     72  C   UNL     1       5.046  18.132  -3.822  1.00  0.00     0.009 A 
ATOM     73  C   UNL     1       3.832  20.531  -4.571  1.00  0.00     0.001 A 
ATOM     74  C   UNL     1       4.729  19.089  -2.855  1.00  0.00     0.001 A 
ATOM     75  C   UNL     1       4.134  20.292  -3.232  1.00  0.00     0.000 A 
ENDBRANCH  51  70
BRANCH  63  76
ATOM     76  C   UNL     1       9.467  18.462 -10.281  1.00  0.00    -0.014 A 
ATOM     77  C   UNL     1      10.632  18.779  -9.568  1.00  0.00     0.009 A 
ATOM     78  C   UNL     1       9.209  19.116 -11.497  1.00  0.00     0.009 A 
ATOM     79  C   UNL     1      11.508  19.752 -10.050  1.00  0.00     0.001 A 
ATOM     80  C   UNL     1      10.100  20.070 -11.989  1.00  0.00     0.001 A 
ATOM     81  C   UNL     1      11.245  20.392 -11.261  1.00  0.00     0.000 A 
ENDBRANCH  63  76
ENDBRANCH  37  38
ENDBRANCH  29  32
ENDBRANCH  27  28
ENDBRANCH  26  27
ENDBRANCH   1  26
TORSDOF 14
