REMARK SMILES COc1ccc(OCCNc2c(Cl)cccc2C(=O)NCCCCNC(=O)c2ccc(-c3c4nc(c(-c5ccccc5)c5ccc([nH]5)c(-c5ccccc5)c5nc(c(-c6ccccc6)c6ccc3[nH]6)C=C5)C=C4)cc2)cc1
REMARK SMILES IDX 18 1 19 2 20 3 17 5 11 6 12 7 13 8 14 9 16 10 15 11 10 12
REMARK SMILES IDX 9 14 8 15 7 16 6 17 3 18 4 19 77 20 5 21 76 22 2 23 1 24
REMARK SMILES IDX 21 25 22 26 23 27 24 28 25 29 26 30 27 32 28 33 29 34 75 35
REMARK SMILES IDX 30 36 74 37 31 38 32 39 33 40 68 41 34 42 73 43 67 44 69 45
REMARK SMILES IDX 35 46 72 47 66 48 65 49 36 51 58 52 43 53 57 54 44 55 47 56
REMARK SMILES IDX 56 57 70 58 45 59 46 60 55 62 71 63 48 64 37 65 38 66 42 67
REMARK SMILES IDX 39 68 41 69 40 70 59 71 60 72 64 73 61 74 63 75 62 76 49 77
REMARK SMILES IDX 50 78 54 79 51 80 53 81 52 82
REMARK H PARENT 20 4 10 13 25 31 69 50 47 61
REMARK Flexibility Score: inf
ROOT
ATOM      1  C   UNL     1       5.307   5.984   1.375  1.00  0.00     0.253 C 
ATOM      2  O   UNL     1       6.183   6.682   1.893  1.00  0.00    -0.269 OA
ATOM      3  N   UNL     1       4.035   6.503   1.329  1.00  0.00    -0.352 N 
ATOM      4  H   UNL     1       3.914   7.364   1.791  1.00  0.00     0.163 HD
ENDROOT
BRANCH   1   5
ATOM      5  C   UNL     1       5.678   4.601   0.946  1.00  0.00     0.064 A 
ATOM      6  C   UNL     1       5.383   3.973  -0.283  1.00  0.00     0.066 A 
ATOM      7  C   UNL     1       5.914   2.667  -0.483  1.00  0.00     0.065 A 
ATOM      8  Cl  UNL     1       5.648   1.798  -1.961  1.00  0.00    -0.082 Cl
ATOM      9  C   UNL     1       6.683   2.008   0.479  1.00  0.00     0.023 A 
ATOM     10  C   UNL     1       6.483   3.925   1.898  1.00  0.00     0.016 A 
ATOM     11  C   UNL     1       6.966   2.637   1.677  1.00  0.00     0.003 A 
BRANCH   6  12
ATOM     12  N   UNL     1       4.467   4.452  -1.201  1.00  0.00    -0.380 N 
ATOM     13  H   UNL     1       3.551   4.096  -1.142  1.00  0.00     0.160 HD
BRANCH  12  14
ATOM     14  C   UNL     1       4.723   5.429  -2.245  1.00  0.00     0.154 C 
BRANCH  14  15
ATOM     15  C   UNL     1       3.804   5.201  -3.473  1.00  0.00     0.250 C 
BRANCH  15  16
ATOM     16  O   UNL     1       2.398   5.200  -3.161  1.00  0.00    -0.492 OA
BRANCH  16  17
ATOM     17  C   UNL     1       1.774   4.018  -2.860  1.00  0.00     0.119 A 
ATOM     18  C   UNL     1       0.450   1.791  -1.782  1.00  0.00     0.119 A 
ATOM     19  C   UNL     1      -0.211   3.012  -1.882  1.00  0.00     0.050 A 
ATOM     20  C   UNL     1       1.716   1.648  -2.336  1.00  0.00     0.050 A 
ATOM     21  C   UNL     1       0.455   4.125  -2.412  1.00  0.00     0.050 A 
ATOM     22  C   UNL     1       2.363   2.754  -2.893  1.00  0.00     0.050 A 
BRANCH  18  23
ATOM     23  O   UNL     1      -0.209   0.746  -1.197  1.00  0.00    -0.497 OA
ATOM     24  C   UNL     1       0.511   0.220  -0.079  1.00  0.00     0.278 C 
ENDBRANCH  18  23
ENDBRANCH  16  17
ENDBRANCH  15  16
ENDBRANCH  14  15
ENDBRANCH  12  14
ENDBRANCH   6  12
ENDBRANCH   1   5
BRANCH   3  25
ATOM     25  C   UNL     1       2.850   5.969   0.701  1.00  0.00     0.116 C 
BRANCH  25  26
ATOM     26  C   UNL     1       1.538   6.603   1.144  1.00  0.00     0.023 C 
BRANCH  26  27
ATOM     27  C   UNL     1       1.363   8.094   0.841  1.00  0.00     0.023 C 
BRANCH  27  28
ATOM     28  C   UNL     1       1.756   8.591  -0.550  1.00  0.00     0.116 C 
BRANCH  28  29
ATOM     29  N   UNL     1       1.003   7.997  -1.645  1.00  0.00    -0.352 N 
ATOM     30  C   UNL     1       0.207   8.587  -2.603  1.00  0.00     0.251 C 
ATOM     31  H   UNL     1       1.074   7.017  -1.712  1.00  0.00     0.163 HD
ATOM     32  O   UNL     1      -0.419   7.889  -3.397  1.00  0.00    -0.269 OA
BRANCH  30  33
ATOM     33  C   UNL     1       0.059  10.061  -2.659  1.00  0.00     0.039 A 
ATOM     34  C   UNL     1      -1.222  10.608  -2.780  1.00  0.00     0.014 A 
ATOM     35  C   UNL     1       1.167  10.906  -2.572  1.00  0.00     0.014 A 
ATOM     36  C   UNL     1      -1.400  11.993  -2.690  1.00  0.00     0.010 A 
ATOM     37  C   UNL     1       0.982  12.279  -2.403  1.00  0.00     0.010 A 
ATOM     38  C   UNL     1      -0.305  12.836  -2.436  1.00  0.00    -0.014 A 
BRANCH  38  39
ATOM     39  C   UNL     1      -0.497  14.283  -2.143  1.00  0.00     0.031 A 
ATOM     40  C   UNL     1       0.109  15.339  -3.028  1.00  0.00     0.074 A 
ATOM     41  C   UNL     1      -1.154  14.653  -1.024  1.00  0.00     0.049 A 
ATOM     42  N   UNL     1       0.088  16.642  -2.890  1.00  0.00    -0.248 NA
ATOM     43  C   UNL     1       0.856  14.873  -4.205  1.00  0.00     0.031 C 
ATOM     44  C   UNL     1      -1.743  13.739  -0.042  1.00  0.00     0.029 A 
ATOM     45  N   UNL     1      -1.431  15.900  -0.518  1.00  0.00    -0.354 N 
ATOM     46  C   UNL     1       0.833  17.147  -3.948  1.00  0.00     0.074 A 
ATOM     47  C   UNL     1       1.329  16.011  -4.694  1.00  0.00     0.031 C 
ATOM     48  C   UNL     1      -2.335  14.454   0.928  1.00  0.00     0.029 A 
ATOM     49  C   UNL     1      -2.138  15.874   0.661  1.00  0.00     0.049 A 
ATOM     50  H   UNL     1      -1.149  16.735  -0.958  1.00  0.00     0.167 HD
ATOM     51  C   UNL     1       1.069  18.439  -4.283  1.00  0.00     0.031 A 
ATOM     52  C   UNL     1      -2.578  16.878   1.444  1.00  0.00     0.031 A 
ATOM     53  C   UNL     1       0.566  19.576  -3.558  1.00  0.00     0.049 A 
ATOM     54  C   UNL     1      -2.311  18.301   1.044  1.00  0.00     0.074 A 
ATOM     55  C   UNL     1       0.700  20.920  -3.863  1.00  0.00     0.029 A 
ATOM     56  N   UNL     1      -0.166  19.504  -2.384  1.00  0.00    -0.354 N 
ATOM     57  N   UNL     1      -1.672  18.759  -0.004  1.00  0.00    -0.248 NA
ATOM     58  C   UNL     1      -2.840  19.348   1.932  1.00  0.00     0.031 C 
ATOM     59  C   UNL     1       0.086  21.663  -2.850  1.00  0.00     0.029 A 
ATOM     60  C   UNL     1      -0.474  20.780  -1.942  1.00  0.00     0.049 A 
ATOM     61  H   UNL     1      -0.428  18.670  -1.932  1.00  0.00     0.167 HD
ATOM     62  C   UNL     1      -1.747  20.143   0.082  1.00  0.00     0.074 A 
ATOM     63  C   UNL     1      -2.507  20.450   1.276  1.00  0.00     0.031 C 
ATOM     64  C   UNL     1      -1.233  21.076  -0.755  1.00  0.00     0.031 A 
BRANCH  51  65
ATOM     65  C   UNL     1       1.915  18.695  -5.499  1.00  0.00    -0.014 A 
ATOM     66  C   UNL     1       1.423  18.442  -6.790  1.00  0.00     0.009 A 
ATOM     67  C   UNL     1       3.201  19.239  -5.356  1.00  0.00     0.009 A 
ATOM     68  C   UNL     1       2.216  18.697  -7.911  1.00  0.00     0.001 A 
ATOM     69  C   UNL     1       3.980  19.519  -6.480  1.00  0.00     0.001 A 
ATOM     70  C   UNL     1       3.491  19.239  -7.756  1.00  0.00     0.000 A 
ENDBRANCH  51  65
BRANCH  52  71
ATOM     71  C   UNL     1      -3.342  16.578   2.683  1.00  0.00    -0.014 A 
ATOM     72  C   UNL     1      -4.717  16.850   2.753  1.00  0.00     0.009 A 
ATOM     73  C   UNL     1      -2.699  16.037   3.808  1.00  0.00     0.009 A 
ATOM     74  C   UNL     1      -5.427  16.616   3.933  1.00  0.00     0.001 A 
ATOM     75  C   UNL     1      -3.417  15.778   4.977  1.00  0.00     0.001 A 
ATOM     76  C   UNL     1      -4.777  16.078   5.042  1.00  0.00     0.000 A 
ENDBRANCH  52  71
BRANCH  64  77
ATOM     77  C   UNL     1      -1.507  22.517  -0.431  1.00  0.00    -0.014 A 
ATOM     78  C   UNL     1      -0.866  23.159   0.640  1.00  0.00     0.009 A 
ATOM     79  C   UNL     1      -2.395  23.251  -1.232  1.00  0.00     0.009 A 
ATOM     80  C   UNL     1      -1.137  24.499   0.923  1.00  0.00     0.001 A 
ATOM     81  C   UNL     1      -2.643  24.598  -0.964  1.00  0.00     0.001 A 
ATOM     82  C   UNL     1      -2.021  25.218   0.118  1.00  0.00     0.000 A 
ENDBRANCH  64  77
ENDBRANCH  38  39
ENDBRANCH  30  33
ENDBRANCH  28  29
ENDBRANCH  27  28
ENDBRANCH  26  27
ENDBRANCH  25  26
ENDBRANCH   3  25
TORSDOF 17
