REMARK SMILES O=C(NCCCCNC(=O)c1[nH]ncc1C[N@H+]1CCC[C@H](C(=O)c2ccc3ccccc3c2)C1)c1ccc(-c2c3nc(c(-c4ccccc4)c4ccc([nH]4)c(-c4ccccc4)c4nc(c(-c5ccccc5)c5ccc2[nH]5)C=C4)C=C3)cc1
REMARK SMILES IDX 6 1 5 2 4 3 3 4 1 5 2 6 35 8 36 9 82 10 37 11 81 12 38 13
REMARK SMILES IDX 39 14 40 15 75 16 41 17 80 18 74 19 76 20 42 21 79 22 73 23
REMARK SMILES IDX 72 24 43 26 65 27 50 28 64 29 51 30 54 31 63 32 77 33 52 34
REMARK SMILES IDX 53 35 62 37 78 38 55 39 44 40 45 41 49 42 46 43 48 44 47 45
REMARK SMILES IDX 66 46 67 47 71 48 68 49 70 50 69 51 56 52 57 53 61 54 58 55
REMARK SMILES IDX 60 56 59 57 7 58 8 59 9 60 10 62 11 63 12 64 15 65 13 66
REMARK SMILES IDX 14 68 16 69 17 70 18 71 34 72 19 74 21 75 20 76 22 77 23 78
REMARK SMILES IDX 24 79 25 80 33 81 26 82 32 83 27 84 31 85 28 86 30 87 29 88
REMARK H PARENT 3 7 76 25 54 36 8 61 12 67 17 73
REMARK Flexibility Score: inf
ROOT
ATOM      1  C   UNL     1       4.495  -1.452  -3.687  1.00  0.00     0.023 C 
ENDROOT
BRANCH   1   2
ATOM      2  C   UNL     1       5.009  -1.583  -2.254  1.00  0.00     0.023 C 
BRANCH   2   3
ATOM      3  C   UNL     1       4.716  -0.399  -1.340  1.00  0.00     0.116 C 
BRANCH   3   4
ATOM      4  N   UNL     1       3.295  -0.135  -1.186  1.00  0.00    -0.352 N 
ATOM      5  O   UNL     1       1.317   0.053  -0.117  1.00  0.00    -0.269 OA
ATOM      6  C   UNL     1       2.536  -0.067  -0.043  1.00  0.00     0.251 C 
ATOM      7  H   UNL     1       2.803   0.018  -2.025  1.00  0.00     0.163 HD
BRANCH   6   8
ATOM      8  C   UNL     1       3.185  -0.170   1.281  1.00  0.00     0.039 A 
ATOM      9  C   UNL     1       4.325   0.579   1.579  1.00  0.00     0.014 A 
ATOM     10  C   UNL     1       2.641  -1.034   2.237  1.00  0.00     0.014 A 
ATOM     11  C   UNL     1       5.002   0.358   2.774  1.00  0.00     0.010 A 
ATOM     12  C   UNL     1       3.283  -1.201   3.467  1.00  0.00     0.010 A 
ATOM     13  C   UNL     1       4.488  -0.534   3.730  1.00  0.00    -0.014 A 
BRANCH  13  14
ATOM     14  C   UNL     1       5.214  -0.723   5.010  1.00  0.00     0.031 A 
ATOM     15  C   UNL     1       5.882  -2.028   5.340  1.00  0.00     0.074 A 
ATOM     16  C   UNL     1       5.308   0.316   5.861  1.00  0.00     0.049 A 
ATOM     17  N   UNL     1       6.599  -2.341   6.391  1.00  0.00    -0.248 NA
ATOM     18  C   UNL     1       5.727  -3.125   4.371  1.00  0.00     0.031 C 
ATOM     19  C   UNL     1       4.700   1.633   5.654  1.00  0.00     0.029 A 
ATOM     20  N   UNL     1       5.973   0.438   7.053  1.00  0.00    -0.354 N 
ATOM     21  C   UNL     1       6.964  -3.670   6.221  1.00  0.00     0.074 A 
ATOM     22  C   UNL     1       6.377  -4.112   4.973  1.00  0.00     0.031 C 
ATOM     23  C   UNL     1       5.066   2.446   6.656  1.00  0.00     0.029 A 
ATOM     24  C   UNL     1       5.891   1.696   7.597  1.00  0.00     0.049 A 
ATOM     25  H   UNL     1       6.461  -0.304   7.478  1.00  0.00     0.167 HD
ATOM     26  C   UNL     1       7.723  -4.450   7.027  1.00  0.00     0.031 A 
ATOM     27  C   UNL     1       6.419   2.194   8.729  1.00  0.00     0.031 A 
ATOM     28  C   UNL     1       8.314  -4.014   8.264  1.00  0.00     0.049 A 
ATOM     29  C   UNL     1       7.247   1.306   9.607  1.00  0.00     0.074 A 
ATOM     30  C   UNL     1       9.112  -4.731   9.140  1.00  0.00     0.029 A 
ATOM     31  N   UNL     1       8.175  -2.743   8.799  1.00  0.00    -0.354 N 
ATOM     32  N   UNL     1       7.590   0.055   9.423  1.00  0.00    -0.248 NA
ATOM     33  C   UNL     1       7.756   1.899  10.851  1.00  0.00     0.031 C 
ATOM     34  C   UNL     1       9.431  -3.901  10.222  1.00  0.00     0.029 A 
ATOM     35  C   UNL     1       8.860  -2.659  10.000  1.00  0.00     0.049 A 
ATOM     36  H   UNL     1       7.665  -2.009   8.387  1.00  0.00     0.167 HD
ATOM     37  C   UNL     1       8.357  -0.290  10.526  1.00  0.00     0.074 A 
ATOM     38  C   UNL     1       8.449   0.890  11.362  1.00  0.00     0.031 C 
ATOM     39  C   UNL     1       8.930  -1.481  10.822  1.00  0.00     0.031 A 
BRANCH  26  40
ATOM     40  C   UNL     1       7.943  -5.874   6.604  1.00  0.00    -0.014 A 
ATOM     41  C   UNL     1       8.859  -6.194   5.590  1.00  0.00     0.009 A 
ATOM     42  C   UNL     1       7.260  -6.910   7.258  1.00  0.00     0.009 A 
ATOM     43  C   UNL     1       9.070  -7.525   5.225  1.00  0.00     0.001 A 
ATOM     44  C   UNL     1       7.486  -8.241   6.903  1.00  0.00     0.001 A 
ATOM     45  C   UNL     1       8.386  -8.547   5.884  1.00  0.00     0.000 A 
ENDBRANCH  26  40
BRANCH  27  46
ATOM     46  C   UNL     1       6.175   3.612   9.089  1.00  0.00    -0.014 A 
ATOM     47  C   UNL     1       7.195   4.564   8.958  1.00  0.00     0.009 A 
ATOM     48  C   UNL     1       4.911   4.021   9.542  1.00  0.00     0.009 A 
ATOM     49  C   UNL     1       6.957   5.901   9.286  1.00  0.00     0.001 A 
ATOM     50  C   UNL     1       4.670   5.361   9.847  1.00  0.00     0.001 A 
ATOM     51  C   UNL     1       5.694   6.298   9.724  1.00  0.00     0.000 A 
ENDBRANCH  27  46
BRANCH  39  52
ATOM     52  C   UNL     1       9.708  -1.555  12.102  1.00  0.00    -0.014 A 
ATOM     53  C   UNL     1       9.051  -1.659  13.337  1.00  0.00     0.009 A 
ATOM     54  C   UNL     1      11.110  -1.536  12.070  1.00  0.00     0.009 A 
ATOM     55  C   UNL     1       9.786  -1.712  14.522  1.00  0.00     0.001 A 
ATOM     56  C   UNL     1      11.842  -1.608  13.255  1.00  0.00     0.001 A 
ATOM     57  C   UNL     1      11.180  -1.688  14.480  1.00  0.00     0.000 A 
ENDBRANCH  39  52
ENDBRANCH  13  14
ENDBRANCH   6   8
ENDBRANCH   3   4
ENDBRANCH   2   3
ENDBRANCH   1   2
BRANCH   1  58
ATOM     58  C   UNL     1       4.858  -0.151  -4.397  1.00  0.00     0.116 C 
BRANCH  58  59
ATOM     59  N   UNL     1       6.294   0.049  -4.500  1.00  0.00    -0.351 N 
ATOM     60  C   UNL     1       7.052   0.285  -5.618  1.00  0.00     0.269 C 
ATOM     61  H   UNL     1       6.790   0.010  -3.651  1.00  0.00     0.163 HD
ATOM     62  O   UNL     1       8.274   0.218  -5.526  1.00  0.00    -0.268 OA
BRANCH  60  63
ATOM     63  C   UNL     1       6.384   0.539  -6.861  1.00  0.00     0.131 A 
ATOM     64  N   UNL     1       6.715  -0.131  -8.006  1.00  0.00    -0.272 N 
ATOM     65  C   UNL     1       5.406   1.456  -7.232  1.00  0.00     0.057 A 
ATOM     66  N   UNL     1       5.904   0.139  -9.041  1.00  0.00    -0.183 NA
ATOM     67  H   UNL     1       7.476  -0.753  -8.066  1.00  0.00     0.190 HD
ATOM     68  C   UNL     1       5.115   1.108  -8.573  1.00  0.00     0.145 A 
BRANCH  65  69
ATOM     69  C   UNL     1       4.798   2.535  -6.396  1.00  0.00     0.303 C 
BRANCH  69  70
ATOM     70  N   UNL     1       5.062   3.899  -6.866  1.00  0.00    -0.330 N 
ATOM     71  C   UNL     1       6.460   4.151  -7.222  1.00  0.00     0.262 C 
ATOM     72  C   UNL     1       4.133   4.363  -7.895  1.00  0.00     0.274 C 
ATOM     73  H   UNL     1       4.880   4.476  -6.045  1.00  0.00     0.348 HD
ATOM     74  C   UNL     1       6.714   5.645  -7.395  1.00  0.00     0.062 C 
ATOM     75  C   UNL     1       4.261   5.870  -8.140  1.00  0.00     0.116 C 
ATOM     76  C   UNL     1       5.713   6.317  -8.333  1.00  0.00     0.023 C 
BRANCH  75  77
ATOM     77  C   UNL     1       3.419   6.670  -7.142  1.00  0.00     0.171 C 
ATOM     78  O   UNL     1       2.341   7.169  -7.467  1.00  0.00    -0.294 OA
BRANCH  77  79
ATOM     79  C   UNL     1       3.809   6.764  -5.720  1.00  0.00     0.019 A 
ATOM     80  C   UNL     1       4.862   7.582  -5.320  1.00  0.00     0.012 A 
ATOM     81  C   UNL     1       3.045   6.078  -4.769  1.00  0.00     0.020 A 
ATOM     82  C   UNL     1       5.219   7.639  -3.971  1.00  0.00     0.009 A 
ATOM     83  C   UNL     1       3.379   6.148  -3.406  1.00  0.00    -0.018 A 
ATOM     84  C   UNL     1       4.495   6.921  -3.006  1.00  0.00    -0.018 A 
ATOM     85  C   UNL     1       2.630   5.470  -2.430  1.00  0.00     0.009 A 
ATOM     86  C   UNL     1       4.846   6.969  -1.648  1.00  0.00     0.009 A 
ATOM     87  C   UNL     1       2.986   5.539  -1.082  1.00  0.00     0.001 A 
ATOM     88  C   UNL     1       4.097   6.280  -0.692  1.00  0.00     0.001 A 
ENDBRANCH  77  79
ENDBRANCH  75  77
ENDBRANCH  69  70
ENDBRANCH  65  69
ENDBRANCH  60  63
ENDBRANCH  58  59
ENDBRANCH   1  58
TORSDOF 15
