REMARK SMILES CC(C)CCn1nc(C(=O)NCCCCNC(=O)c2ccc(-c3c4nc(c(-c5ccccc5)c5ccc([nH]5)c(-c5ccccc5)c5nc(c(-c6ccccc6)c6ccc3[nH]6)C=C5)C=C4)cc2)c2c1CCN(C(=O)[C@@H]1CCc3nn(C)c(=O)n3C1)C2
REMARK SMILES IDX 13 1 12 2 11 3 9 4 10 5 8 7 6 8 7 9 68 10 67 11 69 12 85 13
REMARK SMILES IDX 70 14 71 15 5 16 4 17 2 18 1 19 3 20 72 21 73 22 74 23 75 24
REMARK SMILES IDX 84 25 76 26 83 27 77 28 81 29 78 30 79 31 82 32 80 33 14 34
REMARK SMILES IDX 15 35 16 36 17 37 18 39 19 40 20 41 66 42 21 43 65 44 22 45
REMARK SMILES IDX 23 46 24 47 59 48 25 49 64 50 58 51 60 52 26 53 63 54 57 55
REMARK SMILES IDX 56 56 27 58 49 59 34 60 48 61 35 62 38 63 47 64 61 65 36 66
REMARK SMILES IDX 37 67 46 69 62 70 39 71 28 72 29 73 33 74 30 75 32 76 31 77
REMARK SMILES IDX 50 78 51 79 55 80 52 81 54 82 53 83 40 84 41 85 45 86 42 87
REMARK SMILES IDX 44 88 43 89
REMARK H PARENT 11 6 16 38 60 57 38 68
REMARK Flexibility Score: inf
ROOT
ATOM      1  C   UNL     1       1.872   1.191   8.163  1.00  0.00     0.023 C 
ENDROOT
BRANCH   1   2
ATOM      2  C   UNL     1       0.442   1.751   8.124  1.00  0.00     0.116 C 
BRANCH   2   3
ATOM      3  N   UNL     1       0.238   2.693   7.035  1.00  0.00    -0.351 N 
ATOM      4  C   UNL     1      -0.209   2.638   5.730  1.00  0.00     0.272 C 
ATOM      5  O   UNL     1      -0.366   3.761   5.231  1.00  0.00    -0.267 OA
ATOM      6  H   UNL     1       0.483   3.610   7.298  1.00  0.00     0.163 HD
BRANCH   4   7
ATOM      7  C   UNL     1      -0.491   1.405   4.936  1.00  0.00     0.155 A 
ATOM      8  N   UNL     1      -1.139   0.350   3.160  1.00  0.00    -0.268 N 
ATOM      9  N   UNL     1      -1.165   1.548   3.768  1.00  0.00    -0.167 NA
ATOM     10  C   UNL     1      -0.650  -0.624   3.971  1.00  0.00     0.046 A 
ATOM     11  C   UNL     1      -0.142   0.028   5.078  1.00  0.00     0.026 A 
ATOM     12  C   UNL     1      -0.536  -2.093   3.728  1.00  0.00     0.078 C 
ATOM     13  C   UNL     1       0.656  -0.677   6.091  1.00  0.00     0.159 C 
ATOM     14  C   UNL     1      -0.132  -2.779   5.063  1.00  0.00     0.126 C 
ATOM     15  N   UNL     1       0.963  -2.058   5.733  1.00  0.00    -0.338 N 
BRANCH   8  16
ATOM     16  C   UNL     1      -1.597   0.236   1.786  1.00  0.00     0.145 C 
BRANCH  16  17
ATOM     17  C   UNL     1      -1.037   1.294   0.818  1.00  0.00     0.027 C 
BRANCH  17  18
ATOM     18  C   UNL     1       0.497   1.318   0.657  1.00  0.00    -0.016 C 
ATOM     19  C   UNL     1       1.050   0.007   0.098  1.00  0.00     0.007 C 
ATOM     20  C   UNL     1       0.907   2.474  -0.263  1.00  0.00     0.007 C 
ENDBRANCH  17  18
ENDBRANCH  16  17
ENDBRANCH   8  16
BRANCH  15  21
ATOM     21  C   UNL     1       2.039  -2.578   6.422  1.00  0.00     0.227 C 
ATOM     22  O   UNL     1       2.451  -2.009   7.444  1.00  0.00    -0.274 OA
BRANCH  21  23
ATOM     23  C   UNL     1       2.830  -3.791   5.968  1.00  0.00     0.099 C 
ATOM     24  C   UNL     1       3.068  -3.994   4.473  1.00  0.00     0.023 C 
ATOM     25  C   UNL     1       2.465  -5.035   6.755  1.00  0.00     0.142 C 
ATOM     26  C   UNL     1       2.112  -4.943   3.766  1.00  0.00     0.078 C 
ATOM     27  N   UNL     1       1.730  -5.992   5.975  1.00  0.00    -0.278 N 
ATOM     28  C   UNL     1       1.587  -6.038   4.641  1.00  0.00     0.133 A 
ATOM     29  C   UNL     1       1.170  -7.143   6.457  1.00  0.00     0.345 A 
ATOM     30  N   UNL     1       0.926  -7.065   4.197  1.00  0.00    -0.155 NA
ATOM     31  N   UNL     1       0.634  -7.777   5.339  1.00  0.00    -0.216 N 
ATOM     32  O   UNL     1       1.175  -7.541   7.618  1.00  0.00    -0.246 OA
ATOM     33  C   UNL     1      -0.014  -9.055   5.320  1.00  0.00     0.179 C 
ENDBRANCH  21  23
ENDBRANCH  15  21
ENDBRANCH   4   7
ENDBRANCH   2   3
ENDBRANCH   1   2
BRANCH   1  34
ATOM     34  C   UNL     1       2.824   1.655   9.265  1.00  0.00     0.023 C 
BRANCH  34  35
ATOM     35  C   UNL     1       2.529   1.056  10.635  1.00  0.00     0.116 C 
BRANCH  35  36
ATOM     36  N   UNL     1       2.757  -0.397  10.730  1.00  0.00    -0.352 N 
ATOM     37  C   UNL     1       2.354  -1.247  11.753  1.00  0.00     0.251 C 
ATOM     38  H   UNL     1       3.249  -0.812   9.985  1.00  0.00     0.163 HD
ATOM     39  O   UNL     1       2.909  -2.311  11.988  1.00  0.00    -0.269 OA
BRANCH  37  40
ATOM     40  C   UNL     1       1.169  -0.838  12.521  1.00  0.00     0.039 A 
ATOM     41  C   UNL     1       1.094  -0.869  13.917  1.00  0.00     0.014 A 
ATOM     42  C   UNL     1       0.155  -0.283  11.752  1.00  0.00     0.014 A 
ATOM     43  C   UNL     1       0.007  -0.247  14.531  1.00  0.00     0.010 A 
ATOM     44  C   UNL     1      -0.739   0.543  12.358  1.00  0.00     0.010 A 
ATOM     45  C   UNL     1      -0.894   0.473  13.734  1.00  0.00    -0.014 A 
BRANCH  45  46
ATOM     46  C   UNL     1      -1.988   1.258  14.278  1.00  0.00     0.031 A 
ATOM     47  C   UNL     1      -1.572   2.342  15.201  1.00  0.00     0.074 A 
ATOM     48  C   UNL     1      -3.231   1.193  13.749  1.00  0.00     0.049 A 
ATOM     49  N   UNL     1      -1.758   2.389  16.476  1.00  0.00    -0.248 NA
ATOM     50  C   UNL     1      -0.723   3.429  14.683  1.00  0.00     0.031 C 
ATOM     51  C   UNL     1      -3.695   0.433  12.577  1.00  0.00     0.029 A 
ATOM     52  N   UNL     1      -4.328   1.921  14.067  1.00  0.00    -0.354 N 
ATOM     53  C   UNL     1      -1.252   3.615  16.892  1.00  0.00     0.074 A 
ATOM     54  C   UNL     1      -0.447   4.104  15.802  1.00  0.00     0.031 C 
ATOM     55  C   UNL     1      -4.867   0.947  12.139  1.00  0.00     0.029 A 
ATOM     56  C   UNL     1      -5.317   1.942  13.092  1.00  0.00     0.049 A 
ATOM     57  H   UNL     1      -4.418   2.399  14.924  1.00  0.00     0.167 HD
ATOM     58  C   UNL     1      -1.766   4.251  17.983  1.00  0.00     0.031 A 
ATOM     59  C   UNL     1      -6.400   2.760  13.056  1.00  0.00     0.031 A 
ATOM     60  C   UNL     1      -2.643   3.380  18.730  1.00  0.00     0.049 A 
ATOM     61  C   UNL     1      -6.588   3.291  14.431  1.00  0.00     0.074 A 
ATOM     62  C   UNL     1      -2.500   2.142  19.327  1.00  0.00     0.029 A 
ATOM     63  N   UNL     1      -3.997   3.558  18.550  1.00  0.00    -0.354 N 
ATOM     64  N   UNL     1      -6.923   2.539  15.443  1.00  0.00    -0.248 NA
ATOM     65  C   UNL     1      -5.901   4.529  14.776  1.00  0.00     0.031 C 
ATOM     66  C   UNL     1      -3.697   1.442  18.991  1.00  0.00     0.029 A 
ATOM     67  C   UNL     1      -4.541   2.322  18.311  1.00  0.00     0.049 A 
ATOM     68  H   UNL     1      -4.483   4.413  18.587  1.00  0.00     0.167 HD
ATOM     69  C   UNL     1      -6.104   2.962  16.482  1.00  0.00     0.074 A 
ATOM     70  C   UNL     1      -5.558   4.247  16.038  1.00  0.00     0.031 C 
ATOM     71  C   UNL     1      -5.693   2.101  17.463  1.00  0.00     0.031 A 
BRANCH  58  72
ATOM     72  C   UNL     1      -1.843   5.750  18.134  1.00  0.00    -0.014 A 
ATOM     73  C   UNL     1      -2.391   6.271  19.321  1.00  0.00     0.009 A 
ATOM     74  C   UNL     1      -1.678   6.652  17.067  1.00  0.00     0.009 A 
ATOM     75  C   UNL     1      -2.840   7.594  19.399  1.00  0.00     0.001 A 
ATOM     76  C   UNL     1      -2.086   7.986  17.155  1.00  0.00     0.001 A 
ATOM     77  C   UNL     1      -2.699   8.447  18.310  1.00  0.00     0.000 A 
ENDBRANCH  58  72
BRANCH  59  78
ATOM     78  C   UNL     1      -7.076   3.336  11.868  1.00  0.00    -0.014 A 
ATOM     79  C   UNL     1      -8.342   3.934  11.968  1.00  0.00     0.009 A 
ATOM     80  C   UNL     1      -6.362   3.528  10.668  1.00  0.00     0.009 A 
ATOM     81  C   UNL     1      -8.856   4.719  10.923  1.00  0.00     0.001 A 
ATOM     82  C   UNL     1      -6.875   4.308   9.625  1.00  0.00     0.001 A 
ATOM     83  C   UNL     1      -8.117   4.916   9.758  1.00  0.00     0.000 A 
ENDBRANCH  59  78
BRANCH  71  84
ATOM     84  C   UNL     1      -6.305   0.721  17.523  1.00  0.00    -0.014 A 
ATOM     85  C   UNL     1      -6.238  -0.207  16.468  1.00  0.00     0.009 A 
ATOM     86  C   UNL     1      -6.806   0.282  18.758  1.00  0.00     0.009 A 
ATOM     87  C   UNL     1      -6.686  -1.523  16.640  1.00  0.00     0.001 A 
ATOM     88  C   UNL     1      -7.231  -1.036  18.936  1.00  0.00     0.001 A 
ATOM     89  C   UNL     1      -7.177  -1.937  17.876  1.00  0.00     0.000 A 
ENDBRANCH  71  84
ENDBRANCH  45  46
ENDBRANCH  37  40
ENDBRANCH  35  36
ENDBRANCH  34  35
ENDBRANCH   1  34
TORSDOF 16
