REMARK SMILES COc1cc(/N=N/c2ccccc2)ccc1NC(=O)[C@H]1CC=CC[C@@H]1C(=O)NCCCCNC(=O)c1ccc(-c2c3nc(c(-c4ccccc4)c4ccc([nH]4)c(-c4ccccc4)c4nc(c(-c5ccccc5)c5ccc2[nH]5)C=C4)C=C3)cc1
REMARK SMILES IDX 29 1 28 2 26 3 27 4 25 6 20 7 21 8 22 9 24 10 23 11 18 12
REMARK SMILES IDX 17 13 19 15 16 16 3 17 4 18 5 19 15 20 14 21 2 22 1 23 6 24
REMARK SMILES IDX 7 25 8 26 9 27 13 28 10 29 12 30 11 31 30 32 31 33 32 34
REMARK SMILES IDX 33 35 34 36 35 38 36 39 37 40 83 41 38 42 82 43 39 44 40 45
REMARK SMILES IDX 41 46 76 47 42 48 81 49 75 50 77 51 43 52 80 53 74 54 73 55
REMARK SMILES IDX 44 57 66 58 51 59 65 60 52 61 55 62 64 63 78 64 53 65 54 66
REMARK SMILES IDX 63 68 79 69 56 70 45 71 46 72 50 73 47 74 49 75 48 76 67 77
REMARK SMILES IDX 68 78 72 79 69 80 71 81 70 82 57 83 58 84 62 85 59 86 61 87
REMARK SMILES IDX 60 88
REMARK H PARENT 28 5 17 14 33 37 77 56 55 67
REMARK Flexibility Score: inf
ROOT
ATOM      1  C   UNL     1       4.949   5.348  -2.476  1.00  0.00     0.116 C 
ENDROOT
BRANCH   1   2
ATOM      2  N   UNL     1       5.710   4.715  -3.523  1.00  0.00    -0.356 N 
ATOM      3  C   UNL     1       5.761   3.427  -3.961  1.00  0.00     0.224 C 
ATOM      4  O   UNL     1       6.470   3.248  -4.955  1.00  0.00    -0.275 OA
ATOM      5  H   UNL     1       6.304   5.328  -4.014  1.00  0.00     0.163 HD
BRANCH   3   6
ATOM      6  C   UNL     1       4.925   2.287  -3.326  1.00  0.00     0.095 C 
ATOM      7  C   UNL     1       5.135   2.081  -1.805  1.00  0.00     0.095 C 
ATOM      8  C   UNL     1       6.638   1.767  -1.563  1.00  0.00     0.041 C 
ATOM      9  C   UNL     1       7.185   0.732  -2.509  1.00  0.00    -0.030 C 
ATOM     10  C   UNL     1       5.242   0.962  -4.065  1.00  0.00     0.041 C 
ATOM     11  C   UNL     1       6.538   0.343  -3.618  1.00  0.00    -0.030 C 
BRANCH   7  12
ATOM     12  C   UNL     1       4.272   0.961  -1.169  1.00  0.00     0.228 C 
ATOM     13  N   UNL     1       2.917   0.862  -1.269  1.00  0.00    -0.323 N 
ATOM     14  H   UNL     1       2.579   0.015  -0.897  1.00  0.00     0.170 HD
ATOM     15  O   UNL     1       4.800   0.061  -0.500  1.00  0.00    -0.274 OA
BRANCH  13  16
ATOM     16  C   UNL     1       1.885   1.667  -1.769  1.00  0.00     0.083 A 
ATOM     17  C   UNL     1       0.660   1.069  -2.096  1.00  0.00     0.144 A 
ATOM     18  C   UNL     1      -0.270   1.732  -2.905  1.00  0.00     0.079 A 
ATOM     19  C   UNL     1      -0.028   3.048  -3.306  1.00  0.00     0.090 A 
ATOM     20  C   UNL     1       2.002   3.028  -1.967  1.00  0.00     0.032 A 
ATOM     21  C   UNL     1       1.072   3.714  -2.751  1.00  0.00     0.033 A 
BRANCH  17  22
ATOM     22  O   UNL     1       0.351  -0.199  -1.669  1.00  0.00    -0.494 OA
ATOM     23  C   UNL     1       0.045  -0.182  -0.265  1.00  0.00     0.278 C 
ENDBRANCH  17  22
BRANCH  19  24
ATOM     24  N   UNL     1      -0.893   3.699  -4.210  1.00  0.00    -0.150 NA
ATOM     25  N   UNL     1      -0.229   4.123  -5.184  1.00  0.00    -0.151 NA
BRANCH  25  26
ATOM     26  C   UNL     1      -0.966   4.874  -6.124  1.00  0.00     0.086 A 
ATOM     27  C   UNL     1      -0.353   5.133  -7.359  1.00  0.00     0.030 A 
ATOM     28  C   UNL     1      -2.237   5.419  -5.892  1.00  0.00     0.030 A 
ATOM     29  C   UNL     1      -0.987   5.903  -8.338  1.00  0.00     0.002 A 
ATOM     30  C   UNL     1      -2.876   6.190  -6.869  1.00  0.00     0.002 A 
ATOM     31  C   UNL     1      -2.251   6.431  -8.091  1.00  0.00     0.000 A 
ENDBRANCH  25  26
ENDBRANCH  19  24
ENDBRANCH  13  16
ENDBRANCH   7  12
ENDBRANCH   3   6
ENDBRANCH   1   2
BRANCH   1  32
ATOM     32  C   UNL     1       5.813   5.708  -1.271  1.00  0.00     0.023 C 
BRANCH  32  33
ATOM     33  C   UNL     1       6.630   6.987  -1.454  1.00  0.00     0.023 C 
BRANCH  33  34
ATOM     34  C   UNL     1       5.806   8.248  -1.693  1.00  0.00     0.116 C 
BRANCH  34  35
ATOM     35  N   UNL     1       4.862   8.539  -0.625  1.00  0.00    -0.352 N 
ATOM     36  C   UNL     1       4.472   9.771  -0.145  1.00  0.00     0.251 C 
ATOM     37  H   UNL     1       4.450   7.758  -0.189  1.00  0.00     0.163 HD
ATOM     38  O   UNL     1       3.737   9.863   0.822  1.00  0.00    -0.269 OA
BRANCH  36  39
ATOM     39  C   UNL     1       5.003  10.984  -0.803  1.00  0.00     0.039 A 
ATOM     40  C   UNL     1       5.644  11.946  -0.021  1.00  0.00     0.014 A 
ATOM     41  C   UNL     1       4.926  11.128  -2.190  1.00  0.00     0.014 A 
ATOM     42  C   UNL     1       6.281  13.022  -0.643  1.00  0.00     0.010 A 
ATOM     43  C   UNL     1       5.619  12.161  -2.811  1.00  0.00     0.010 A 
ATOM     44  C   UNL     1       6.308  13.114  -2.044  1.00  0.00    -0.014 A 
BRANCH  44  45
ATOM     45  C   UNL     1       7.062  14.191  -2.731  1.00  0.00     0.031 A 
ATOM     46  C   UNL     1       6.332  15.208  -3.563  1.00  0.00     0.074 A 
ATOM     47  C   UNL     1       8.408  14.208  -2.670  1.00  0.00     0.049 A 
ATOM     48  N   UNL     1       6.818  16.178  -4.294  1.00  0.00    -0.248 NA
ATOM     49  C   UNL     1       4.863  15.104  -3.601  1.00  0.00     0.031 C 
ATOM     50  C   UNL     1       9.239  13.251  -1.934  1.00  0.00     0.029 A 
ATOM     51  N   UNL     1       9.317  15.060  -3.246  1.00  0.00    -0.354 N 
ATOM     52  C   UNL     1       5.722  16.780  -4.898  1.00  0.00     0.074 A 
ATOM     53  C   UNL     1       4.549  16.044  -4.481  1.00  0.00     0.031 C 
ATOM     54  C   UNL     1      10.532  13.587  -2.081  1.00  0.00     0.029 A 
ATOM     55  C   UNL     1      10.624  14.756  -2.949  1.00  0.00     0.049 A 
ATOM     56  H   UNL     1       9.057  15.817  -3.819  1.00  0.00     0.167 HD
ATOM     57  C   UNL     1       5.693  17.859  -5.715  1.00  0.00     0.031 A 
ATOM     58  C   UNL     1      11.768  15.352  -3.336  1.00  0.00     0.031 A 
ATOM     59  C   UNL     1       6.854  18.612  -6.104  1.00  0.00     0.049 A 
ATOM     60  C   UNL     1      11.703  16.552  -4.238  1.00  0.00     0.074 A 
ATOM     61  C   UNL     1       6.915  19.769  -6.861  1.00  0.00     0.029 A 
ATOM     62  N   UNL     1       8.156  18.282  -5.767  1.00  0.00    -0.354 N 
ATOM     63  N   UNL     1      10.652  17.158  -4.733  1.00  0.00    -0.248 NA
ATOM     64  C   UNL     1      12.986  17.157  -4.626  1.00  0.00     0.031 C 
ATOM     65  C   UNL     1       8.261  20.116  -7.018  1.00  0.00     0.029 A 
ATOM     66  C   UNL     1       9.031  19.201  -6.320  1.00  0.00     0.049 A 
ATOM     67  H   UNL     1       8.420  17.510  -5.216  1.00  0.00     0.167 HD
ATOM     68  C   UNL     1      11.144  18.232  -5.463  1.00  0.00     0.074 A 
ATOM     69  C   UNL     1      12.586  18.202  -5.336  1.00  0.00     0.031 C 
ATOM     70  C   UNL     1      10.462  19.162  -6.174  1.00  0.00     0.031 A 
BRANCH  57  71
ATOM     71  C   UNL     1       4.356  18.292  -6.247  1.00  0.00    -0.014 A 
ATOM     72  C   UNL     1       3.409  18.910  -5.416  1.00  0.00     0.009 A 
ATOM     73  C   UNL     1       4.061  18.122  -7.608  1.00  0.00     0.009 A 
ATOM     74  C   UNL     1       2.180  19.324  -5.933  1.00  0.00     0.001 A 
ATOM     75  C   UNL     1       2.842  18.560  -8.128  1.00  0.00     0.001 A 
ATOM     76  C   UNL     1       1.900  19.153  -7.289  1.00  0.00     0.000 A 
ENDBRANCH  57  71
BRANCH  58  77
ATOM     77  C   UNL     1      13.080  14.842  -2.859  1.00  0.00    -0.014 A 
ATOM     78  C   UNL     1      13.834  15.583  -1.936  1.00  0.00     0.009 A 
ATOM     79  C   UNL     1      13.600  13.633  -3.345  1.00  0.00     0.009 A 
ATOM     80  C   UNL     1      15.096  15.141  -1.535  1.00  0.00     0.001 A 
ATOM     81  C   UNL     1      14.851  13.179  -2.922  1.00  0.00     0.001 A 
ATOM     82  C   UNL     1      15.603  13.939  -2.026  1.00  0.00     0.000 A 
ENDBRANCH  58  77
BRANCH  70  83
ATOM     83  C   UNL     1      11.264  20.247  -6.832  1.00  0.00    -0.014 A 
ATOM     84  C   UNL     1      12.032  19.992  -7.978  1.00  0.00     0.009 A 
ATOM     85  C   UNL     1      11.216  21.552  -6.318  1.00  0.00     0.009 A 
ATOM     86  C   UNL     1      12.761  21.020  -8.580  1.00  0.00     0.001 A 
ATOM     87  C   UNL     1      11.924  22.582  -6.937  1.00  0.00     0.001 A 
ATOM     88  C   UNL     1      12.702  22.314  -8.062  1.00  0.00     0.000 A 
ENDBRANCH  70  83
ENDBRANCH  44  45
ENDBRANCH  36  39
ENDBRANCH  34  35
ENDBRANCH  33  34
ENDBRANCH  32  33
ENDBRANCH   1  32
TORSDOF 16
