REMARK SMILES Cc1nc2ccccc2n1CCC(=O)N1CC[C@H](O)C[C@@H]1C(=O)NCCCCNC(=O)c1ccc(-c2c3nc(c(-c4ccccc4)c4ccc([nH]4)c(-c4ccccc4)c4nc(c(-c5ccccc5)c5ccc2[nH]5)C=C4)C=C3)cc1
REMARK SMILES IDX 25 1 24 2 22 3 23 4 21 6 15 7 16 8 17 9 20 10 18 11 13 12
REMARK SMILES IDX 14 13 12 14 11 15 10 16 1 17 2 18 3 19 4 20 9 21 5 22 8 23
REMARK SMILES IDX 6 24 7 25 19 26 26 28 27 29 28 30 29 31 30 32 31 34 32 35
REMARK SMILES IDX 33 36 79 37 34 38 78 39 35 40 36 41 37 42 72 43 38 44 77 45
REMARK SMILES IDX 71 46 73 47 39 48 76 49 70 50 69 51 40 53 62 54 47 55 61 56
REMARK SMILES IDX 48 57 51 58 60 59 74 60 49 61 50 62 59 64 75 65 52 66 41 67
REMARK SMILES IDX 42 68 46 69 43 70 45 71 44 72 63 73 64 74 68 75 65 76 67 77
REMARK SMILES IDX 66 78 53 79 54 80 58 81 55 82 57 83 56 84
REMARK H PARENT 24 5 19 27 29 33 73 52 51 63
REMARK Flexibility Score: inf
ROOT
ATOM      1  C   UNL     1      -2.716  -1.426   2.198  1.00  0.00     0.116 C 
ENDROOT
BRANCH   1   2
ATOM      2  N   UNL     1      -1.730  -1.566   3.248  1.00  0.00    -0.354 N 
ATOM      3  C   UNL     1      -0.586  -0.849   3.473  1.00  0.00     0.242 C 
ATOM      4  O   UNL     1       0.024  -1.085   4.521  1.00  0.00    -0.273 OA
ATOM      5  H   UNL     1      -1.908  -2.285   3.897  1.00  0.00     0.163 HD
BRANCH   3   6
ATOM      6  C   UNL     1      -0.103   0.257   2.483  1.00  0.00     0.176 C 
ATOM      7  N   UNL     1      -0.228  -0.211   1.097  1.00  0.00    -0.330 N 
ATOM      8  C   UNL     1       0.598  -1.381   0.847  1.00  0.00     0.123 C 
ATOM      9  C   UNL     1       2.074  -1.030   0.975  1.00  0.00     0.053 C 
ATOM     10  C   UNL     1       1.362   0.654   2.768  1.00  0.00     0.067 C 
ATOM     11  C   UNL     1       2.380  -0.424   2.346  1.00  0.00     0.118 C 
BRANCH   7  12
ATOM     12  C   UNL     1      -0.735   0.632   0.111  1.00  0.00     0.225 C 
ATOM     13  O   UNL     1      -0.656   1.859   0.228  1.00  0.00    -0.275 OA
BRANCH  12  14
ATOM     14  C   UNL     1      -1.664   0.051  -0.972  1.00  0.00     0.122 C 
BRANCH  14  15
ATOM     15  C   UNL     1      -1.223  -0.363  -2.373  1.00  0.00     0.134 C 
BRANCH  15  16
ATOM     16  N   UNL     1      -0.223  -1.404  -2.450  1.00  0.00    -0.328 N 
ATOM     17  C   UNL     1       1.730   0.189  -2.463  1.00  0.00     0.088 C 
ATOM     18  C   UNL     1       1.136  -1.173  -2.404  1.00  0.00     0.106 A 
ATOM     19  N   UNL     1       1.780  -2.290  -2.126  1.00  0.00    -0.234 NA
ATOM     20  C   UNL     1       0.825  -3.279  -2.075  1.00  0.00     0.089 A 
ATOM     21  C   UNL     1      -0.434  -2.768  -2.390  1.00  0.00     0.068 A 
ATOM     22  C   UNL     1       0.955  -4.626  -1.702  1.00  0.00     0.030 A 
ATOM     23  C   UNL     1      -1.567  -3.591  -2.490  1.00  0.00     0.028 A 
ATOM     24  C   UNL     1      -0.172  -5.454  -1.756  1.00  0.00     0.002 A 
ATOM     25  C   UNL     1      -1.402  -4.951  -2.184  1.00  0.00     0.002 A 
ENDBRANCH  15  16
ENDBRANCH  14  15
ENDBRANCH  12  14
ENDBRANCH   7  12
BRANCH  11  26
ATOM     26  O   UNL     1       2.495  -1.483   3.295  1.00  0.00    -0.393 OA
ATOM     27  H   UNL     1       1.654  -1.964   3.347  1.00  0.00     0.210 HD
ENDBRANCH  11  26
ENDBRANCH   3   6
ENDBRANCH   1   2
BRANCH   1  28
ATOM     28  C   UNL     1      -2.662  -2.549   1.152  1.00  0.00     0.023 C 
BRANCH  28  29
ATOM     29  C   UNL     1      -3.134  -3.925   1.615  1.00  0.00     0.023 C 
BRANCH  29  30
ATOM     30  C   UNL     1      -4.518  -3.893   2.263  1.00  0.00     0.116 C 
BRANCH  30  31
ATOM     31  N   UNL     1      -5.488  -3.177   1.454  1.00  0.00    -0.352 N 
ATOM     32  C   UNL     1      -6.433  -3.533   0.544  1.00  0.00     0.251 C 
ATOM     33  H   UNL     1      -5.454  -2.204   1.600  1.00  0.00     0.163 HD
ATOM     34  O   UNL     1      -7.132  -2.611   0.098  1.00  0.00    -0.269 OA
BRANCH  32  35
ATOM     35  C   UNL     1      -6.635  -4.898   0.008  1.00  0.00     0.039 A 
ATOM     36  C   UNL     1      -5.756  -5.965   0.195  1.00  0.00     0.014 A 
ATOM     37  C   UNL     1      -7.726  -5.055  -0.867  1.00  0.00     0.014 A 
ATOM     38  C   UNL     1      -5.884  -7.111  -0.572  1.00  0.00     0.010 A 
ATOM     39  C   UNL     1      -7.863  -6.200  -1.633  1.00  0.00     0.010 A 
ATOM     40  C   UNL     1      -6.892  -7.188  -1.533  1.00  0.00    -0.014 A 
BRANCH  40  41
ATOM     41  C   UNL     1      -6.855  -8.318  -2.444  1.00  0.00     0.031 A 
ATOM     42  C   UNL     1      -7.023  -9.658  -1.824  1.00  0.00     0.074 A 
ATOM     43  C   UNL     1      -6.676  -8.157  -3.768  1.00  0.00     0.049 A 
ATOM     44  N   UNL     1      -6.181 -10.639  -1.824  1.00  0.00    -0.248 NA
ATOM     45  C   UNL     1      -8.230  -9.901  -1.025  1.00  0.00     0.031 C 
ATOM     46  C   UNL     1      -6.710  -6.930  -4.569  1.00  0.00     0.029 A 
ATOM     47  N   UNL     1      -6.517  -9.127  -4.703  1.00  0.00    -0.354 N 
ATOM     48  C   UNL     1      -6.777 -11.671  -1.103  1.00  0.00     0.074 A 
ATOM     49  C   UNL     1      -8.006 -11.135  -0.570  1.00  0.00     0.031 C 
ATOM     50  C   UNL     1      -6.834  -7.260  -5.877  1.00  0.00     0.029 A 
ATOM     51  C   UNL     1      -6.725  -8.703  -6.004  1.00  0.00     0.049 A 
ATOM     52  H   UNL     1      -6.275 -10.054  -4.475  1.00  0.00     0.167 HD
ATOM     53  C   UNL     1      -6.268 -12.934  -1.073  1.00  0.00     0.031 A 
ATOM     54  C   UNL     1      -6.879  -9.508  -7.083  1.00  0.00     0.031 A 
ATOM     55  C   UNL     1      -4.910 -12.979  -1.537  1.00  0.00     0.049 A 
ATOM     56  C   UNL     1      -6.248 -10.810  -6.753  1.00  0.00     0.074 A 
ATOM     57  C   UNL     1      -3.714 -12.499  -1.043  1.00  0.00     0.029 A 
ATOM     58  N   UNL     1      -4.684 -13.267  -2.862  1.00  0.00    -0.354 N 
ATOM     59  N   UNL     1      -4.966 -10.952  -6.572  1.00  0.00    -0.248 NA
ATOM     60  C   UNL     1      -7.080 -11.849  -6.163  1.00  0.00     0.031 C 
ATOM     61  C   UNL     1      -3.002 -12.050  -2.191  1.00  0.00     0.029 A 
ATOM     62  C   UNL     1      -3.773 -12.346  -3.318  1.00  0.00     0.049 A 
ATOM     63  H   UNL     1      -5.096 -13.993  -3.383  1.00  0.00     0.167 HD
ATOM     64  C   UNL     1      -4.853 -11.825  -5.500  1.00  0.00     0.074 A 
ATOM     65  C   UNL     1      -6.183 -12.417  -5.352  1.00  0.00     0.031 C 
ATOM     66  C   UNL     1      -3.783 -11.780  -4.651  1.00  0.00     0.031 A 
BRANCH  53  67
ATOM     67  C   UNL     1      -7.074 -14.177  -0.829  1.00  0.00    -0.014 A 
ATOM     68  C   UNL     1      -8.471 -14.221  -0.985  1.00  0.00     0.009 A 
ATOM     69  C   UNL     1      -6.412 -15.409  -0.671  1.00  0.00     0.009 A 
ATOM     70  C   UNL     1      -9.176 -15.428  -0.986  1.00  0.00     0.001 A 
ATOM     71  C   UNL     1      -7.112 -16.622  -0.709  1.00  0.00     0.001 A 
ATOM     72  C   UNL     1      -8.493 -16.631  -0.870  1.00  0.00     0.000 A 
ENDBRANCH  53  67
BRANCH  54  73
ATOM     73  C   UNL     1      -7.916  -9.368  -8.130  1.00  0.00    -0.014 A 
ATOM     74  C   UNL     1      -9.123  -8.699  -7.847  1.00  0.00     0.009 A 
ATOM     75  C   UNL     1      -7.854 -10.131  -9.306  1.00  0.00     0.009 A 
ATOM     76  C   UNL     1     -10.238  -8.822  -8.680  1.00  0.00     0.001 A 
ATOM     77  C   UNL     1      -8.973 -10.256 -10.141  1.00  0.00     0.001 A 
ATOM     78  C   UNL     1     -10.168  -9.616  -9.819  1.00  0.00     0.000 A 
ENDBRANCH  54  73
BRANCH  66  79
ATOM     79  C   UNL     1      -2.642 -10.838  -4.977  1.00  0.00    -0.014 A 
ATOM     80  C   UNL     1      -1.329 -11.331  -4.936  1.00  0.00     0.009 A 
ATOM     81  C   UNL     1      -2.818  -9.447  -5.106  1.00  0.00     0.009 A 
ATOM     82  C   UNL     1      -0.232 -10.467  -5.001  1.00  0.00     0.001 A 
ATOM     83  C   UNL     1      -1.720  -8.583  -5.197  1.00  0.00     0.001 A 
ATOM     84  C   UNL     1      -0.427  -9.094  -5.132  1.00  0.00     0.000 A 
ENDBRANCH  66  79
ENDBRANCH  40  41
ENDBRANCH  32  35
ENDBRANCH  30  31
ENDBRANCH  29  30
ENDBRANCH  28  29
ENDBRANCH   1  28
TORSDOF 16
