REMARK SMILES CC(C)c1cc2c(cc1Cl)C=C(C(=O)NCCCCNC(=O)c1ccc(-c3c4nc(c(-c5ccccc5)c5ccc([nH]5)c(-c5ccccc5)c5nc(c(-c6ccccc6)c6ccc3[nH]6)C=C5)C=C4)cc1)[C@@H](C(F)(F)F)O2
REMARK SMILES IDX 18 1 17 2 16 3 15 4 13 5 14 6 12 8 4 9 5 10 9 11 6 12 8 13
REMARK SMILES IDX 10 14 7 15 76 16 11 17 71 18 2 19 1 20 3 21 72 22 73 23
REMARK SMILES IDX 74 24 75 25 19 26 20 27 21 28 22 30 23 31 24 32 70 33 25 34
REMARK SMILES IDX 69 35 26 36 27 37 28 38 63 39 29 40 68 41 62 42 64 43 30 44
REMARK SMILES IDX 67 45 61 46 60 47 31 49 53 50 38 51 52 52 39 53 42 54 51 55
REMARK SMILES IDX 65 56 40 57 41 58 50 60 66 61 43 62 32 63 33 64 37 65 34 66
REMARK SMILES IDX 36 67 35 68 54 69 55 70 59 71 56 72 58 73 57 74 44 75 45 76
REMARK SMILES IDX 49 77 46 78 48 79 47 80
REMARK H PARENT 15 7 20 29 64 48 42 59
REMARK Flexibility Score: inf
ROOT
ATOM      1  C   UNL     1      -9.245  -5.369   0.394  1.00  0.00     0.023 C 
ENDROOT
BRANCH   1   2
ATOM      2  C   UNL     1      -7.832  -4.987  -0.048  1.00  0.00     0.023 C 
BRANCH   2   3
ATOM      3  C   UNL     1      -7.765  -4.300  -1.410  1.00  0.00     0.116 C 
BRANCH   3   4
ATOM      4  N   UNL     1      -7.976  -2.867  -1.311  1.00  0.00    -0.352 N 
ATOM      5  C   UNL     1      -7.201  -1.755  -1.294  1.00  0.00     0.251 C 
ATOM      6  O   UNL     1      -7.817  -0.689  -1.200  1.00  0.00    -0.270 OA
ATOM      7  H   UNL     1      -8.932  -2.644  -1.237  1.00  0.00     0.163 HD
BRANCH   5   8
ATOM      8  C   UNL     1      -5.711  -1.742  -1.370  1.00  0.00     0.067 C 
ATOM      9  C   UNL     1      -0.829  -0.385  -1.308  1.00  0.00    -0.023 A 
ATOM     10  C   UNL     1      -1.530  -1.594  -1.156  1.00  0.00     0.052 A 
ATOM     11  C   UNL     1      -1.593   0.790  -1.472  1.00  0.00     0.045 A 
ATOM     12  C   UNL     1      -2.924  -1.627  -1.190  1.00  0.00     0.128 A 
ATOM     13  C   UNL     1      -2.996   0.755  -1.466  1.00  0.00     0.032 A 
ATOM     14  Cl  UNL     1      -0.858   2.342  -1.690  1.00  0.00    -0.084 Cl
ATOM     15  C   UNL     1      -3.667  -0.458  -1.324  1.00  0.00     0.019 A 
ATOM     16  O   UNL     1      -3.510  -2.854  -1.050  1.00  0.00    -0.475 OA
ATOM     17  C   UNL     1      -5.123  -0.534  -1.262  1.00  0.00     0.025 C 
ATOM     18  C   UNL     1      -4.859  -2.962  -1.584  1.00  0.00     0.314 C 
BRANCH   9  19
ATOM     19  C   UNL     1       0.697  -0.359  -1.260  1.00  0.00     0.014 C 
ATOM     20  C   UNL     1       1.181   0.085   0.125  1.00  0.00     0.012 C 
ATOM     21  C   UNL     1       1.378  -1.687  -1.627  1.00  0.00     0.012 C 
ENDBRANCH   9  19
BRANCH  18  22
ATOM     22  C   UNL     1      -4.805  -3.385  -3.066  1.00  0.00     0.429 C 
ATOM     23  F   UNL     1      -4.314  -4.644  -3.181  1.00  0.00    -0.167 F 
ATOM     24  F   UNL     1      -6.031  -3.397  -3.642  1.00  0.00    -0.167 F 
ATOM     25  F   UNL     1      -4.027  -2.575  -3.818  1.00  0.00    -0.167 F 
ENDBRANCH  18  22
ENDBRANCH   5   8
ENDBRANCH   3   4
ENDBRANCH   2   3
ENDBRANCH   1   2
BRANCH   1  26
ATOM     26  C   UNL     1     -10.018  -6.257  -0.578  1.00  0.00     0.116 C 
BRANCH  26  27
ATOM     27  N   UNL     1      -9.319  -7.473  -0.974  1.00  0.00    -0.352 N 
ATOM     28  C   UNL     1      -9.877  -8.653  -1.414  1.00  0.00     0.251 C 
ATOM     29  H   UNL     1      -8.336  -7.448  -0.919  1.00  0.00     0.163 HD
ATOM     30  O   UNL     1      -9.183  -9.632  -1.661  1.00  0.00    -0.269 OA
BRANCH  28  31
ATOM     31  C   UNL     1     -11.346  -8.727  -1.521  1.00  0.00     0.039 A 
ATOM     32  C   UNL     1     -12.037  -7.764  -2.257  1.00  0.00     0.014 A 
ATOM     33  C   UNL     1     -12.032  -9.680  -0.765  1.00  0.00     0.014 A 
ATOM     34  C   UNL     1     -13.409  -7.638  -2.088  1.00  0.00     0.010 A 
ATOM     35  C   UNL     1     -13.422  -9.599  -0.660  1.00  0.00     0.010 A 
ATOM     36  C   UNL     1     -14.112  -8.539  -1.269  1.00  0.00    -0.014 A 
BRANCH  36  37
ATOM     37  C   UNL     1     -15.562  -8.327  -1.038  1.00  0.00     0.031 A 
ATOM     38  C   UNL     1     -16.077  -7.947   0.324  1.00  0.00     0.074 A 
ATOM     39  C   UNL     1     -16.408  -8.402  -2.082  1.00  0.00     0.049 A 
ATOM     40  N   UNL     1     -17.306  -7.682   0.693  1.00  0.00    -0.248 NA
ATOM     41  C   UNL     1     -15.092  -7.850   1.414  1.00  0.00     0.031 C 
ATOM     42  C   UNL     1     -16.022  -8.731  -3.455  1.00  0.00     0.029 A 
ATOM     43  N   UNL     1     -17.757  -8.170  -2.160  1.00  0.00    -0.354 N 
ATOM     44  C   UNL     1     -17.245  -7.412   2.054  1.00  0.00     0.074 A 
ATOM     45  C   UNL     1     -15.863  -7.562   2.454  1.00  0.00     0.031 C 
ATOM     46  C   UNL     1     -17.094  -8.614  -4.251  1.00  0.00     0.029 A 
ATOM     47  C   UNL     1     -18.254  -8.266  -3.436  1.00  0.00     0.049 A 
ATOM     48  H   UNL     1     -18.314  -7.954  -1.378  1.00  0.00     0.167 HD
ATOM     49  C   UNL     1     -18.250  -7.064   2.893  1.00  0.00     0.031 A 
ATOM     50  C   UNL     1     -19.505  -8.101  -3.904  1.00  0.00     0.031 A 
ATOM     51  C   UNL     1     -19.621  -6.897   2.491  1.00  0.00     0.049 A 
ATOM     52  C   UNL     1     -20.607  -7.756  -2.947  1.00  0.00     0.074 A 
ATOM     53  C   UNL     1     -20.705  -6.527   3.268  1.00  0.00     0.029 A 
ATOM     54  N   UNL     1     -20.096  -7.083   1.203  1.00  0.00    -0.354 N 
ATOM     55  N   UNL     1     -20.533  -7.517  -1.661  1.00  0.00    -0.248 NA
ATOM     56  C   UNL     1     -21.965  -7.669  -3.503  1.00  0.00     0.031 C 
ATOM     57  C   UNL     1     -21.845  -6.537   2.460  1.00  0.00     0.029 A 
ATOM     58  C   UNL     1     -21.462  -6.861   1.169  1.00  0.00     0.049 A 
ATOM     59  H   UNL     1     -19.544  -7.337   0.427  1.00  0.00     0.167 HD
ATOM     60  C   UNL     1     -21.832  -7.250  -1.251  1.00  0.00     0.074 A 
ATOM     61  C   UNL     1     -22.671  -7.335  -2.430  1.00  0.00     0.031 C 
ATOM     62  C   UNL     1     -22.286  -6.965  -0.007  1.00  0.00     0.031 A 
BRANCH  49  63
ATOM     63  C   UNL     1     -17.916  -6.858   4.344  1.00  0.00    -0.014 A 
ATOM     64  C   UNL     1     -18.352  -7.793   5.296  1.00  0.00     0.009 A 
ATOM     65  C   UNL     1     -17.245  -5.705   4.780  1.00  0.00     0.009 A 
ATOM     66  C   UNL     1     -18.129  -7.576   6.657  1.00  0.00     0.001 A 
ATOM     67  C   UNL     1     -17.003  -5.502   6.141  1.00  0.00     0.001 A 
ATOM     68  C   UNL     1     -17.451  -6.433   7.078  1.00  0.00     0.000 A 
ENDBRANCH  49  63
BRANCH  50  69
ATOM     69  C   UNL     1     -19.760  -8.263  -5.357  1.00  0.00    -0.014 A 
ATOM     70  C   UNL     1     -19.680  -9.531  -5.956  1.00  0.00     0.009 A 
ATOM     71  C   UNL     1     -20.009  -7.143  -6.162  1.00  0.00     0.009 A 
ATOM     72  C   UNL     1     -19.814  -9.670  -7.338  1.00  0.00     0.001 A 
ATOM     73  C   UNL     1     -20.169  -7.290  -7.542  1.00  0.00     0.001 A 
ATOM     74  C   UNL     1     -20.060  -8.550  -8.130  1.00  0.00     0.000 A 
ENDBRANCH  50  69
BRANCH  62  75
ATOM     75  C   UNL     1     -23.758  -6.726   0.156  1.00  0.00    -0.014 A 
ATOM     76  C   UNL     1     -24.233  -5.428   0.401  1.00  0.00     0.009 A 
ATOM     77  C   UNL     1     -24.664  -7.797   0.155  1.00  0.00     0.009 A 
ATOM     78  C   UNL     1     -25.587  -5.207   0.652  1.00  0.00     0.001 A 
ATOM     79  C   UNL     1     -26.022  -7.570   0.385  1.00  0.00     0.001 A 
ATOM     80  C   UNL     1     -26.481  -6.278   0.640  1.00  0.00     0.000 A 
ENDBRANCH  62  75
ENDBRANCH  36  37
ENDBRANCH  28  31
ENDBRANCH  26  27
ENDBRANCH   1  26
TORSDOF 13
