REMARK SMILES CC(C)c1ccc2c(c1)c(SC(C)(C)C)c(CC(C)(C)C(=O)NCCCCNC(=O)c1ccc(-c3c4nc(c(-c5ccccc5)c5ccc([nH]5)c(-c5ccccc5)c5nc(c(-c6ccccc6)c6ccc3[nH]6)C=C5)C=C4)cc1)n2Cc1ccc(Cl)cc1
REMARK SMILES IDX 24 1 23 2 21 3 22 4 18 6 19 7 20 8 17 9 16 10 4 11 5 12 9 13
REMARK SMILES IDX 6 14 8 15 7 16 10 17 79 18 2 19 1 20 3 21 11 22 12 23 13 24
REMARK SMILES IDX 14 25 15 26 80 27 81 28 82 29 87 30 83 31 86 32 84 33 85 34
REMARK SMILES IDX 25 35 26 36 27 37 28 38 29 39 30 41 31 42 32 43 78 44 33 45
REMARK SMILES IDX 77 46 34 47 35 48 36 49 71 50 37 51 76 52 70 53 72 54 38 55
REMARK SMILES IDX 75 56 69 57 68 58 39 60 61 61 46 62 60 63 47 64 50 65 59 66
REMARK SMILES IDX 73 67 48 68 49 69 58 71 74 72 51 73 40 74 41 75 45 76 42 77
REMARK SMILES IDX 44 78 43 79 62 80 63 81 67 82 64 83 66 84 65 85 52 86 53 87
REMARK SMILES IDX 57 88 54 89 56 90 55 91
REMARK H PARENT 23 5 28 40 72 59 50 70
REMARK Flexibility Score: inf
ROOT
ATOM      1  C   UNL     1      -7.020   3.377   5.679  1.00  0.00     0.116 C 
ENDROOT
BRANCH   1   2
ATOM      2  N   UNL     1      -6.939   1.953   5.383  1.00  0.00    -0.356 N 
ATOM      3  C   UNL     1      -6.618   1.369   4.184  1.00  0.00     0.226 C 
ATOM      4  O   UNL     1      -6.146   0.223   4.228  1.00  0.00    -0.275 OA
ATOM      5  H   UNL     1      -7.138   1.340   6.128  1.00  0.00     0.163 HD
BRANCH   3   6
ATOM      6  C   UNL     1      -6.628   2.241   2.933  1.00  0.00     0.049 C 
ATOM      7  C   UNL     1      -5.293   2.982   3.224  1.00  0.00     0.022 C 
ATOM      8  C   UNL     1      -8.015   2.965   2.900  1.00  0.00     0.022 C 
BRANCH   6   9
ATOM      9  C   UNL     1      -6.603   1.597   1.516  1.00  0.00     0.071 C 
BRANCH   9  10
ATOM     10  C   UNL     1      -5.356   0.953   1.095  1.00  0.00     0.034 A 
ATOM     11  C   UNL     1      -1.038  -0.698   0.933  1.00  0.00    -0.045 A 
ATOM     12  C   UNL     1      -1.740  -1.888   1.142  1.00  0.00     0.006 A 
ATOM     13  C   UNL     1      -1.768   0.488   0.726  1.00  0.00     0.015 A 
ATOM     14  C   UNL     1      -3.139  -1.917   1.196  1.00  0.00     0.027 A 
ATOM     15  C   UNL     1      -3.187   0.501   0.779  1.00  0.00     0.014 A 
ATOM     16  C   UNL     1      -3.844  -0.709   1.054  1.00  0.00     0.050 A 
ATOM     17  C   UNL     1      -4.181   1.541   0.651  1.00  0.00     0.037 A 
ATOM     18  N   UNL     1      -5.201  -0.431   1.145  1.00  0.00    -0.339 N 
BRANCH  11  19
ATOM     19  C   UNL     1       0.482  -0.706   0.999  1.00  0.00     0.013 C 
ATOM     20  C   UNL     1       1.135   0.018  -0.180  1.00  0.00     0.012 C 
ATOM     21  C   UNL     1       0.974  -0.127   2.329  1.00  0.00     0.012 C 
ENDBRANCH  11  19
BRANCH  17  22
ATOM     22  S   UNL     1      -3.711   3.224   0.273  1.00  0.00    -0.118 SA
BRANCH  22  23
ATOM     23  C   UNL     1      -5.021   4.530  -0.048  1.00  0.00     0.012 C 
ATOM     24  C   UNL     1      -5.795   4.205  -1.329  1.00  0.00     0.023 C 
ATOM     25  C   UNL     1      -6.035   5.021   1.014  1.00  0.00     0.023 C 
ATOM     26  C   UNL     1      -4.170   5.814  -0.260  1.00  0.00     0.023 C 
ENDBRANCH  22  23
ENDBRANCH  17  22
BRANCH  18  27
ATOM     27  C   UNL     1      -6.276  -1.463   1.077  1.00  0.00     0.158 C 
BRANCH  27  28
ATOM     28  C   UNL     1      -7.174  -1.659   2.292  1.00  0.00    -0.028 A 
ATOM     29  C   UNL     1      -8.428  -1.020   2.388  1.00  0.00     0.007 A 
ATOM     30  C   UNL     1      -6.780  -2.468   3.371  1.00  0.00     0.007 A 
ATOM     31  C   UNL     1      -9.146  -0.997   3.589  1.00  0.00     0.021 A 
ATOM     32  C   UNL     1      -7.534  -2.503   4.556  1.00  0.00     0.021 A 
ATOM     33  C   UNL     1      -8.678  -1.718   4.680  1.00  0.00     0.041 A 
ATOM     34  Cl  UNL     1      -9.493  -1.599   6.192  1.00  0.00    -0.084 Cl
ENDBRANCH  27  28
ENDBRANCH  18  27
ENDBRANCH   9  10
ENDBRANCH   6   9
ENDBRANCH   3   6
ENDBRANCH   1   2
BRANCH   1  35
ATOM     35  C   UNL     1      -8.224   3.735   6.509  1.00  0.00     0.023 C 
BRANCH  35  36
ATOM     36  C   UNL     1      -8.087   3.225   7.933  1.00  0.00     0.023 C 
BRANCH  36  37
ATOM     37  C   UNL     1      -6.725   3.544   8.573  1.00  0.00     0.116 C 
BRANCH  37  38
ATOM     38  N   UNL     1      -6.369   4.950   8.515  1.00  0.00    -0.352 N 
ATOM     39  C   UNL     1      -6.675   6.029   9.293  1.00  0.00     0.251 C 
ATOM     40  H   UNL     1      -5.784   5.173   7.755  1.00  0.00     0.163 HD
ATOM     41  O   UNL     1      -6.120   7.095   9.013  1.00  0.00    -0.269 OA
BRANCH  39  42
ATOM     42  C   UNL     1      -7.675   6.005  10.390  1.00  0.00     0.039 A 
ATOM     43  C   UNL     1      -8.391   4.880  10.791  1.00  0.00     0.014 A 
ATOM     44  C   UNL     1      -7.961   7.238  11.002  1.00  0.00     0.014 A 
ATOM     45  C   UNL     1      -9.460   4.994  11.655  1.00  0.00     0.010 A 
ATOM     46  C   UNL     1      -9.000   7.355  11.914  1.00  0.00     0.010 A 
ATOM     47  C   UNL     1      -9.781   6.239  12.189  1.00  0.00    -0.014 A 
BRANCH  47  48
ATOM     48  C   UNL     1     -10.894   6.264  13.120  1.00  0.00     0.031 A 
ATOM     49  C   UNL     1     -10.706   5.391  14.305  1.00  0.00     0.074 A 
ATOM     50  C   UNL     1     -11.987   7.026  12.941  1.00  0.00     0.049 A 
ATOM     51  N   UNL     1     -11.382   4.339  14.625  1.00  0.00    -0.248 NA
ATOM     52  C   UNL     1      -9.529   5.633  15.155  1.00  0.00     0.031 C 
ATOM     53  C   UNL     1     -12.170   8.107  11.970  1.00  0.00     0.029 A 
ATOM     54  N   UNL     1     -13.134   7.065  13.675  1.00  0.00    -0.354 N 
ATOM     55  C   UNL     1     -10.835   3.884  15.822  1.00  0.00     0.074 A 
ATOM     56  C   UNL     1      -9.616   4.623  16.021  1.00  0.00     0.031 C 
ATOM     57  C   UNL     1     -13.232   8.857  12.341  1.00  0.00     0.029 A 
ATOM     58  C   UNL     1     -13.891   8.206  13.460  1.00  0.00     0.049 A 
ATOM     59  H   UNL     1     -13.399   6.351  14.299  1.00  0.00     0.167 HD
ATOM     60  C   UNL     1     -11.559   3.113  16.677  1.00  0.00     0.031 A 
ATOM     61  C   UNL     1     -14.950   8.615  14.194  1.00  0.00     0.031 A 
ATOM     62  C   UNL     1     -12.720   2.561  16.034  1.00  0.00     0.049 A 
ATOM     63  C   UNL     1     -15.517   7.432  14.875  1.00  0.00     0.074 A 
ATOM     64  C   UNL     1     -12.984   1.528  15.165  1.00  0.00     0.029 A 
ATOM     65  N   UNL     1     -13.805   3.397  16.030  1.00  0.00    -0.354 N 
ATOM     66  N   UNL     1     -16.069   6.437  14.241  1.00  0.00    -0.248 NA
ATOM     67  C   UNL     1     -15.187   7.176  16.272  1.00  0.00     0.031 C 
ATOM     68  C   UNL     1     -14.175   1.896  14.475  1.00  0.00     0.029 A 
ATOM     69  C   UNL     1     -14.627   3.119  14.971  1.00  0.00     0.049 A 
ATOM     70  H   UNL     1     -13.971   4.101  16.697  1.00  0.00     0.167 HD
ATOM     71  C   UNL     1     -15.762   5.329  15.006  1.00  0.00     0.074 A 
ATOM     72  C   UNL     1     -15.390   5.856  16.313  1.00  0.00     0.031 C 
ATOM     73  C   UNL     1     -15.530   4.116  14.429  1.00  0.00     0.031 A 
BRANCH  60  74
ATOM     74  C   UNL     1     -11.504   3.258  18.181  1.00  0.00    -0.014 A 
ATOM     75  C   UNL     1     -10.878   4.336  18.835  1.00  0.00     0.009 A 
ATOM     76  C   UNL     1     -12.358   2.460  18.966  1.00  0.00     0.009 A 
ATOM     77  C   UNL     1     -11.105   4.621  20.185  1.00  0.00     0.001 A 
ATOM     78  C   UNL     1     -12.616   2.762  20.310  1.00  0.00     0.001 A 
ATOM     79  C   UNL     1     -11.993   3.847  20.917  1.00  0.00     0.000 A 
ENDBRANCH  60  74
BRANCH  61  80
ATOM     80  C   UNL     1     -15.254   9.996  14.625  1.00  0.00    -0.014 A 
ATOM     81  C   UNL     1     -14.204  10.909  14.841  1.00  0.00     0.009 A 
ATOM     82  C   UNL     1     -16.526  10.329  15.112  1.00  0.00     0.009 A 
ATOM     83  C   UNL     1     -14.406  12.087  15.566  1.00  0.00     0.001 A 
ATOM     84  C   UNL     1     -16.727  11.510  15.839  1.00  0.00     0.001 A 
ATOM     85  C   UNL     1     -15.664  12.377  16.081  1.00  0.00     0.000 A 
ENDBRANCH  61  80
BRANCH  73  86
ATOM     86  C   UNL     1     -16.062   3.868  13.045  1.00  0.00    -0.014 A 
ATOM     87  C   UNL     1     -16.930   2.778  12.872  1.00  0.00     0.009 A 
ATOM     88  C   UNL     1     -15.629   4.567  11.907  1.00  0.00     0.009 A 
ATOM     89  C   UNL     1     -17.328   2.371  11.599  1.00  0.00     0.001 A 
ATOM     90  C   UNL     1     -16.051   4.176  10.631  1.00  0.00     0.001 A 
ATOM     91  C   UNL     1     -16.888   3.070  10.478  1.00  0.00     0.000 A 
ENDBRANCH  73  86
ENDBRANCH  47  48
ENDBRANCH  39  42
ENDBRANCH  37  38
ENDBRANCH  36  37
ENDBRANCH  35  36
ENDBRANCH   1  35
TORSDOF 18
