REMARK SMILES CC[C@H](C)[C@H](NC(=O)CN1C(=O)/C(=C/c2ccc(C)cc2)SC1=S)C(=O)NCCCCNC(=O)c1ccc(-c2c3nc(c(-c4ccccc4)c4ccc([nH]4)c(-c4ccccc4)c4nc(c(-c5ccccc5)c5ccc2[nH]5)C=C4)C=C3)cc1
REMARK SMILES IDX 28 1 27 2 25 3 26 4 5 6 3 7 4 8 2 9 1 10 6 11 7 12 8 14 9 15
REMARK SMILES IDX 10 16 11 17 23 18 12 19 13 20 22 21 24 22 14 23 15 24 16 25
REMARK SMILES IDX 21 26 17 27 20 28 18 29 19 30 29 31 30 32 31 33 32 34 33 35
REMARK SMILES IDX 34 37 35 38 36 39 82 40 37 41 81 42 38 43 39 44 40 45 75 46
REMARK SMILES IDX 41 47 80 48 74 49 76 50 42 51 79 52 73 53 72 54 43 56 65 57
REMARK SMILES IDX 50 58 64 59 51 60 54 61 63 62 77 63 52 64 53 65 62 67 78 68
REMARK SMILES IDX 55 69 44 70 45 71 49 72 46 73 48 74 47 75 66 76 67 77 71 78
REMARK SMILES IDX 68 79 70 80 69 81 56 82 57 83 61 84 58 85 60 86 59 87
REMARK H PARENT 27 5 6 13 32 36 76 55 54 66
REMARK Flexibility Score: inf
ROOT
ATOM      1  C   UNL     1       4.084   1.522   3.384  1.00  0.00     0.116 C 
ENDROOT
BRANCH   1   2
ATOM      2  N   UNL     1       3.235   2.392   4.176  1.00  0.00    -0.354 N 
ATOM      3  C   UNL     1       1.908   2.381   4.462  1.00  0.00     0.242 C 
ATOM      4  O   UNL     1       1.534   3.135   5.368  1.00  0.00    -0.273 OA
ATOM      5  H   UNL     1       3.720   3.142   4.590  1.00  0.00     0.163 HD
BRANCH   3   6
ATOM      6  C   UNL     1       0.870   1.489   3.759  1.00  0.00     0.174 C 
BRANCH   6   7
ATOM      7  C   UNL     1       0.681   0.059   4.377  1.00  0.00     0.018 C 
ATOM      8  C   UNL     1       1.906  -0.859   4.277  1.00  0.00     0.010 C 
BRANCH   7   9
ATOM      9  C   UNL     1       0.081  -0.039   5.802  1.00  0.00     0.002 C 
ATOM     10  C   UNL     1       0.702   0.805   6.900  1.00  0.00     0.004 C 
ENDBRANCH   7   9
ENDBRANCH   6   7
BRANCH   6  11
ATOM     11  N   UNL     1       1.100   1.397   2.308  1.00  0.00    -0.342 N 
ATOM     12  C   UNL     1       1.160   2.329   1.320  1.00  0.00     0.240 C 
ATOM     13  H   UNL     1       1.238   0.475   1.989  1.00  0.00     0.164 HD
ATOM     14  O   UNL     1       1.170   1.873   0.169  1.00  0.00    -0.273 OA
BRANCH  12  15
ATOM     15  C   UNL     1       1.473   3.819   1.535  1.00  0.00     0.227 C 
BRANCH  15  16
ATOM     16  N   UNL     1       0.623   4.623   2.396  1.00  0.00    -0.283 N 
ATOM     17  C   UNL     1       1.173   5.279   3.490  1.00  0.00     0.266 C 
ATOM     18  C   UNL     1      -0.640   5.032   2.024  1.00  0.00     0.148 C 
ATOM     19  O   UNL     1       2.363   5.366   3.764  1.00  0.00    -0.268 OA
ATOM     20  C   UNL     1       0.100   5.981   4.236  1.00  0.00     0.081 C 
ATOM     21  S   UNL     1      -1.272   6.156   3.208  1.00  0.00    -0.054 SA
ATOM     22  S   UNL     1      -1.515   4.591   0.676  1.00  0.00    -0.052 S 
ATOM     23  C   UNL     1       0.207   6.347   5.523  1.00  0.00     0.029 C 
BRANCH  23  24
ATOM     24  C   UNL     1      -0.895   7.000   6.239  1.00  0.00    -0.024 A 
ATOM     25  C   UNL     1      -2.098   6.316   6.457  1.00  0.00     0.008 A 
ATOM     26  C   UNL     1      -0.805   8.354   6.563  1.00  0.00     0.008 A 
ATOM     27  C   UNL     1      -3.236   7.009   6.867  1.00  0.00     0.004 A 
ATOM     28  C   UNL     1      -1.942   9.044   6.992  1.00  0.00     0.004 A 
ATOM     29  C   UNL     1      -3.175   8.386   7.098  1.00  0.00    -0.051 A 
ATOM     30  C   UNL     1      -4.418   9.168   7.398  1.00  0.00     0.044 C 
ENDBRANCH  23  24
ENDBRANCH  15  16
ENDBRANCH  12  15
ENDBRANCH   6  11
ENDBRANCH   3   6
ENDBRANCH   1   2
BRANCH   1  31
ATOM     31  C   UNL     1       4.723   2.154   2.143  1.00  0.00     0.023 C 
BRANCH  31  32
ATOM     32  C   UNL     1       5.266   3.572   2.288  1.00  0.00     0.023 C 
BRANCH  32  33
ATOM     33  C   UNL     1       6.378   3.730   3.304  1.00  0.00     0.116 C 
BRANCH  33  34
ATOM     34  N   UNL     1       7.705   3.426   2.796  1.00  0.00    -0.352 N 
ATOM     35  C   UNL     1       8.919   3.406   3.471  1.00  0.00     0.251 C 
ATOM     36  H   UNL     1       7.750   3.203   1.838  1.00  0.00     0.163 HD
ATOM     37  O   UNL     1       9.951   3.191   2.873  1.00  0.00    -0.269 OA
BRANCH  35  38
ATOM     38  C   UNL     1       8.913   3.479   4.958  1.00  0.00     0.039 A 
ATOM     39  C   UNL     1       9.650   2.502   5.636  1.00  0.00     0.014 A 
ATOM     40  C   UNL     1       7.998   4.270   5.645  1.00  0.00     0.014 A 
ATOM     41  C   UNL     1       9.254   2.123   6.912  1.00  0.00     0.010 A 
ATOM     42  C   UNL     1       7.526   3.822   6.860  1.00  0.00     0.010 A 
ATOM     43  C   UNL     1       8.105   2.698   7.452  1.00  0.00    -0.014 A 
BRANCH  43  44
ATOM     44  C   UNL     1       7.394   2.128   8.586  1.00  0.00     0.031 A 
ATOM     45  C   UNL     1       7.543   2.740   9.917  1.00  0.00     0.074 A 
ATOM     46  C   UNL     1       6.626   1.028   8.431  1.00  0.00     0.049 A 
ATOM     47  N   UNL     1       7.415   2.095  11.026  1.00  0.00    -0.248 NA
ATOM     48  C   UNL     1       7.951   4.128  10.099  1.00  0.00     0.031 C 
ATOM     49  C   UNL     1       5.692   0.449   9.393  1.00  0.00     0.029 A 
ATOM     50  N   UNL     1       6.696   0.076   7.430  1.00  0.00    -0.354 N 
ATOM     51  C   UNL     1       7.412   3.022  12.039  1.00  0.00     0.074 A 
ATOM     52  C   UNL     1       7.888   4.240  11.428  1.00  0.00     0.031 C 
ATOM     53  C   UNL     1       5.468  -0.834   9.063  1.00  0.00     0.029 A 
ATOM     54  C   UNL     1       6.361  -1.169   7.965  1.00  0.00     0.049 A 
ATOM     55  H   UNL     1       6.941   0.248   6.493  1.00  0.00     0.167 HD
ATOM     56  C   UNL     1       6.856   2.691  13.237  1.00  0.00     0.031 A 
ATOM     57  C   UNL     1       7.257  -2.200   7.982  1.00  0.00     0.031 A 
ATOM     58  C   UNL     1       6.509   1.269  13.295  1.00  0.00     0.049 A 
ATOM     59  C   UNL     1       7.628  -2.660   9.379  1.00  0.00     0.074 A 
ATOM     60  C   UNL     1       5.308   0.585  13.192  1.00  0.00     0.029 A 
ATOM     61  N   UNL     1       7.515   0.315  13.188  1.00  0.00    -0.354 N 
ATOM     62  N   UNL     1       7.420  -1.959  10.459  1.00  0.00    -0.248 NA
ATOM     63  C   UNL     1       8.301  -3.925   9.663  1.00  0.00     0.031 C 
ATOM     64  C   UNL     1       5.603  -0.784  12.956  1.00  0.00     0.029 A 
ATOM     65  C   UNL     1       6.978  -0.935  12.951  1.00  0.00     0.049 A 
ATOM     66  H   UNL     1       8.478   0.505  13.270  1.00  0.00     0.167 HD
ATOM     67  C   UNL     1       7.912  -2.629  11.550  1.00  0.00     0.074 A 
ATOM     68  C   UNL     1       8.442  -3.863  11.000  1.00  0.00     0.031 C 
ATOM     69  C   UNL     1       7.850  -2.096  12.806  1.00  0.00     0.031 A 
BRANCH  56  70
ATOM     70  C   UNL     1       6.361   3.704  14.250  1.00  0.00    -0.014 A 
ATOM     71  C   UNL     1       5.463   3.293  15.254  1.00  0.00     0.009 A 
ATOM     72  C   UNL     1       6.652   5.079  14.229  1.00  0.00     0.009 A 
ATOM     73  C   UNL     1       4.842   4.204  16.121  1.00  0.00     0.001 A 
ATOM     74  C   UNL     1       6.029   5.999  15.083  1.00  0.00     0.001 A 
ATOM     75  C   UNL     1       5.112   5.562  16.023  1.00  0.00     0.000 A 
ENDBRANCH  56  70
BRANCH  57  76
ATOM     76  C   UNL     1       8.191  -2.203   6.822  1.00  0.00    -0.014 A 
ATOM     77  C   UNL     1       7.664  -2.462   5.541  1.00  0.00     0.009 A 
ATOM     78  C   UNL     1       9.458  -1.610   6.917  1.00  0.00     0.009 A 
ATOM     79  C   UNL     1       8.330  -2.028   4.391  1.00  0.00     0.001 A 
ATOM     80  C   UNL     1      10.127  -1.187   5.761  1.00  0.00     0.001 A 
ATOM     81  C   UNL     1       9.547  -1.361   4.504  1.00  0.00     0.000 A 
ENDBRANCH  57  76
BRANCH  69  82
ATOM     82  C   UNL     1       8.539  -2.622  14.047  1.00  0.00    -0.014 A 
ATOM     83  C   UNL     1       9.618  -3.514  14.048  1.00  0.00     0.009 A 
ATOM     84  C   UNL     1       8.164  -2.093  15.306  1.00  0.00     0.009 A 
ATOM     85  C   UNL     1      10.260  -3.886  15.240  1.00  0.00     0.001 A 
ATOM     86  C   UNL     1       8.829  -2.423  16.489  1.00  0.00     0.001 A 
ATOM     87  C   UNL     1       9.874  -3.332  16.456  1.00  0.00     0.000 A 
ENDBRANCH  69  82
ENDBRANCH  43  44
ENDBRANCH  35  38
ENDBRANCH  33  34
ENDBRANCH  32  33
ENDBRANCH  31  32
ENDBRANCH   1  31
TORSDOF 17
