REMARK SMILES Cc1nnc(S[C@@H](C)CCO)c(C(=O)NCCCCNC(=O)c2ccc(-c3c4nc(c(-c5ccccc5)c5ccc([nH]5)c(-c5ccccc5)c5nc(c(-c6ccccc6)c6ccc3[nH]6)C=C5)C=C4)cc2)c1C
REMARK SMILES IDX 16 1 15 2 13 3 14 4 12 6 1 7 2 8 3 9 71 10 4 11 72 12 5 13
REMARK SMILES IDX 6 14 7 15 8 16 9 17 10 18 11 19 17 21 18 22 19 23 20 24
REMARK SMILES IDX 21 25 22 27 23 28 24 29 70 30 25 31 69 32 26 33 27 34 28 35
REMARK SMILES IDX 63 36 29 37 68 38 62 39 64 40 30 41 67 42 61 43 60 44 31 46
REMARK SMILES IDX 53 47 38 48 52 49 39 50 42 51 51 52 65 53 40 54 41 55 50 57
REMARK SMILES IDX 66 58 43 59 32 60 33 61 37 62 34 63 36 64 35 65 54 66 55 67
REMARK SMILES IDX 59 68 56 69 58 70 57 71 44 72 45 73 49 74 46 75 48 76 47 77
REMARK H PARENT 15 5 11 20 20 26 64 45 42 56
REMARK Flexibility Score: inf
ROOT
ATOM      1  C   UNL     1       0.127   2.921  -3.368  1.00  0.00     0.116 C 
ENDROOT
BRANCH   1   2
ATOM      2  N   UNL     1      -0.830   2.116  -4.108  1.00  0.00    -0.352 N 
ATOM      3  C   UNL     1      -1.284   0.825  -3.881  1.00  0.00     0.254 C 
ATOM      4  O   UNL     1      -2.364   0.515  -4.367  1.00  0.00    -0.269 OA
ATOM      5  H   UNL     1      -1.219   2.557  -4.898  1.00  0.00     0.163 HD
BRANCH   3   6
ATOM      6  C   UNL     1      -0.501  -0.174  -3.115  1.00  0.00     0.078 A 
ATOM      7  C   UNL     1       1.297  -0.641   0.243  1.00  0.00     0.069 C 
ATOM      8  C   UNL     1       0.752  -0.810  -1.143  1.00  0.00     0.064 A 
ATOM      9  N   UNL     1       1.216  -1.887  -1.796  1.00  0.00    -0.155 NA
ATOM     10  C   UNL     1      -0.126   0.081  -1.766  1.00  0.00    -0.012 A 
ATOM     11  N   UNL     1       0.722  -2.205  -3.030  1.00  0.00    -0.143 NA
ATOM     12  C   UNL     1      -0.705   1.210  -0.954  1.00  0.00     0.047 C 
ATOM     13  C   UNL     1      -0.169  -1.416  -3.680  1.00  0.00     0.132 A 
BRANCH  13  14
ATOM     14  S   UNL     1      -0.966  -2.425  -4.921  1.00  0.00    -0.101 SA
BRANCH  14  15
ATOM     15  C   UNL     1      -1.196  -1.572  -6.530  1.00  0.00     0.052 C 
ATOM     16  C   UNL     1      -2.678  -1.237  -6.726  1.00  0.00     0.020 C 
BRANCH  15  17
ATOM     17  C   UNL     1      -0.205  -0.476  -6.931  1.00  0.00     0.043 C 
BRANCH  17  18
ATOM     18  C   UNL     1       1.097  -1.037  -7.507  1.00  0.00     0.157 C 
BRANCH  18  19
ATOM     19  O   UNL     1       0.867  -1.618  -8.787  1.00  0.00    -0.396 OA
ATOM     20  H   UNL     1       0.229  -2.344  -8.702  1.00  0.00     0.210 HD
ENDBRANCH  18  19
ENDBRANCH  17  18
ENDBRANCH  15  17
ENDBRANCH  14  15
ENDBRANCH  13  14
ENDBRANCH   3   6
ENDBRANCH   1   2
BRANCH   1  21
ATOM     21  C   UNL     1       0.851   4.015  -4.146  1.00  0.00     0.023 C 
BRANCH  21  22
ATOM     22  C   UNL     1       0.008   5.021  -4.929  1.00  0.00     0.023 C 
BRANCH  22  23
ATOM     23  C   UNL     1      -1.226   5.603  -4.247  1.00  0.00     0.116 C 
BRANCH  23  24
ATOM     24  N   UNL     1      -0.962   6.274  -2.984  1.00  0.00    -0.352 N 
ATOM     25  C   UNL     1      -1.333   7.539  -2.577  1.00  0.00     0.251 C 
ATOM     26  H   UNL     1      -0.447   5.752  -2.327  1.00  0.00     0.163 HD
ATOM     27  O   UNL     1      -1.031   7.957  -1.473  1.00  0.00    -0.269 OA
BRANCH  25  28
ATOM     28  C   UNL     1      -2.063   8.406  -3.525  1.00  0.00     0.039 A 
ATOM     29  C   UNL     1      -1.486   9.622  -3.900  1.00  0.00     0.014 A 
ATOM     30  C   UNL     1      -3.267   7.982  -4.093  1.00  0.00     0.014 A 
ATOM     31  C   UNL     1      -2.069  10.374  -4.921  1.00  0.00     0.010 A 
ATOM     32  C   UNL     1      -3.816   8.705  -5.146  1.00  0.00     0.010 A 
ATOM     33  C   UNL     1      -3.213   9.898  -5.579  1.00  0.00    -0.014 A 
BRANCH  33  34
ATOM     34  C   UNL     1      -3.809  10.630  -6.720  1.00  0.00     0.031 A 
ATOM     35  C   UNL     1      -5.155  11.273  -6.562  1.00  0.00     0.074 A 
ATOM     36  C   UNL     1      -3.178  10.655  -7.909  1.00  0.00     0.049 A 
ATOM     37  N   UNL     1      -5.901  11.853  -7.466  1.00  0.00    -0.248 NA
ATOM     38  C   UNL     1      -5.748  11.244  -5.215  1.00  0.00     0.031 C 
ATOM     39  C   UNL     1      -1.870  10.060  -8.190  1.00  0.00     0.029 A 
ATOM     40  N   UNL     1      -3.560  11.200  -9.110  1.00  0.00    -0.354 N 
ATOM     41  C   UNL     1      -7.055  12.243  -6.802  1.00  0.00     0.074 A 
ATOM     42  C   UNL     1      -6.929  11.805  -5.429  1.00  0.00     0.031 C 
ATOM     43  C   UNL     1      -1.552  10.287  -9.476  1.00  0.00     0.029 A 
ATOM     44  C   UNL     1      -2.646  11.009 -10.118  1.00  0.00     0.049 A 
ATOM     45  H   UNL     1      -4.409  11.681  -9.238  1.00  0.00     0.167 HD
ATOM     46  C   UNL     1      -8.118  12.921  -7.290  1.00  0.00     0.031 A 
ATOM     47  C   UNL     1      -2.687  11.370 -11.415  1.00  0.00     0.031 A 
ATOM     48  C   UNL     1      -8.237  13.372  -8.648  1.00  0.00     0.049 A 
ATOM     49  C   UNL     1      -3.888  12.107 -11.938  1.00  0.00     0.074 A 
ATOM     50  C   UNL     1      -9.268  14.088  -9.227  1.00  0.00     0.029 A 
ATOM     51  N   UNL     1      -7.288  13.158  -9.634  1.00  0.00    -0.354 N 
ATOM     52  N   UNL     1      -4.971  12.472 -11.296  1.00  0.00    -0.248 NA
ATOM     53  C   UNL     1      -3.872  12.485 -13.358  1.00  0.00     0.031 C 
ATOM     54  C   UNL     1      -8.957  14.284 -10.575  1.00  0.00     0.029 A 
ATOM     55  C   UNL     1      -7.712  13.727 -10.821  1.00  0.00     0.049 A 
ATOM     56  H   UNL     1      -6.440  12.674  -9.509  1.00  0.00     0.167 HD
ATOM     57  C   UNL     1      -5.753  13.145 -12.225  1.00  0.00     0.074 A 
ATOM     58  C   UNL     1      -5.021  13.139 -13.475  1.00  0.00     0.031 C 
ATOM     59  C   UNL     1      -6.967  13.719 -12.053  1.00  0.00     0.031 A 
BRANCH  46  60
ATOM     60  C   UNL     1      -9.239  13.230  -6.343  1.00  0.00    -0.014 A 
ATOM     61  C   UNL     1      -9.107  14.245  -5.382  1.00  0.00     0.009 A 
ATOM     62  C   UNL     1     -10.461  12.551  -6.457  1.00  0.00     0.009 A 
ATOM     63  C   UNL     1     -10.175  14.564  -4.543  1.00  0.00     0.001 A 
ATOM     64  C   UNL     1     -11.534  12.887  -5.630  1.00  0.00     0.001 A 
ATOM     65  C   UNL     1     -11.390  13.891  -4.673  1.00  0.00     0.000 A 
ENDBRANCH  46  60
BRANCH  47  66
ATOM     66  C   UNL     1      -1.534  11.064 -12.299  1.00  0.00    -0.014 A 
ATOM     67  C   UNL     1      -0.638  12.079 -12.665  1.00  0.00     0.009 A 
ATOM     68  C   UNL     1      -1.302   9.756 -12.750  1.00  0.00     0.009 A 
ATOM     69  C   UNL     1       0.466  11.791 -13.471  1.00  0.00     0.001 A 
ATOM     70  C   UNL     1      -0.186   9.468 -13.540  1.00  0.00     0.001 A 
ATOM     71  C   UNL     1       0.695  10.486 -13.901  1.00  0.00     0.000 A 
ENDBRANCH  47  66
BRANCH  59  72
ATOM     72  C   UNL     1      -7.581  14.425 -13.225  1.00  0.00    -0.014 A 
ATOM     73  C   UNL     1      -8.200  13.708 -14.259  1.00  0.00     0.009 A 
ATOM     74  C   UNL     1      -7.637  15.828 -13.234  1.00  0.00     0.009 A 
ATOM     75  C   UNL     1      -8.857  14.386 -15.287  1.00  0.00     0.001 A 
ATOM     76  C   UNL     1      -8.312  16.502 -14.252  1.00  0.00     0.001 A 
ATOM     77  C   UNL     1      -8.919  15.780 -15.279  1.00  0.00     0.000 A 
ENDBRANCH  59  72
ENDBRANCH  33  34
ENDBRANCH  25  28
ENDBRANCH  23  24
ENDBRANCH  22  23
ENDBRANCH  21  22
ENDBRANCH   1  21
TORSDOF 16
