REMARK SMILES C[C@H](NC(=O)N1CC[C@@H](C(=O)NCCCCNC(=O)c2ccc(-c3c4nc(c(-c5ccccc5)c5ccc([nH]5)c(-c5ccccc5)c5nc(c(-c6ccccc6)c6ccc3[nH]6)C=C5)C=C4)cc2)[C@H]1C)c1ccc(Cl)cc1
REMARK SMILES IDX 14 1 13 2 12 3 10 4 11 5 9 7 6 8 7 9 68 10 8 11 69 12 4 13
REMARK SMILES IDX 3 14 5 16 2 17 1 18 70 19 71 20 76 21 72 22 75 23 73 24
REMARK SMILES IDX 74 25 15 26 16 27 17 28 18 29 19 31 20 32 21 33 67 34 22 35
REMARK SMILES IDX 66 36 23 37 24 38 25 39 60 40 26 41 65 42 59 43 61 44 27 45
REMARK SMILES IDX 64 46 58 47 57 48 28 50 50 51 35 52 49 53 36 54 39 55 48 56
REMARK SMILES IDX 62 57 37 58 38 59 47 61 63 62 40 63 29 64 30 65 34 66 31 67
REMARK SMILES IDX 33 68 32 69 51 70 52 71 56 72 53 73 55 74 54 75 41 76 42 77
REMARK SMILES IDX 46 78 43 79 45 80 44 81
REMARK H PARENT 12 6 3 15 17 30 61 49 39 60
REMARK Flexibility Score: inf
ROOT
ATOM      1  C   UNL     1       0.190   5.255   0.475  1.00  0.00     0.023 C 
ENDROOT
BRANCH   1   2
ATOM      2  C   UNL     1       1.703   5.283   0.273  1.00  0.00     0.116 C 
BRANCH   2   3
ATOM      3  N   UNL     1       2.424   5.570   1.494  1.00  0.00    -0.356 N 
ATOM      4  C   UNL     1       3.399   4.894   2.153  1.00  0.00     0.225 C 
ATOM      5  O   UNL     1       3.827   5.421   3.186  1.00  0.00    -0.275 OA
ATOM      6  H   UNL     1       2.159   6.413   1.928  1.00  0.00     0.163 HD
BRANCH   4   7
ATOM      7  C   UNL     1       3.968   3.553   1.709  1.00  0.00     0.102 C 
ATOM      8  N   UNL     1       2.913   1.810   0.474  1.00  0.00    -0.321 N 
ATOM      9  C   UNL     1       4.132   2.144  -0.238  1.00  0.00     0.122 C 
ATOM     10  C   UNL     1       3.063   2.312   1.842  1.00  0.00     0.096 C 
ATOM     11  C   UNL     1       4.525   3.516   0.280  1.00  0.00     0.037 C 
ATOM     12  C   UNL     1       1.777   2.472   2.636  1.00  0.00     0.032 C 
BRANCH   8  13
ATOM     13  C   UNL     1       2.418   0.540   0.283  1.00  0.00     0.318 C 
ATOM     14  N   UNL     1       1.097   0.440  -0.027  1.00  0.00    -0.331 N 
ATOM     15  H   UNL     1       0.707  -0.462   0.018  1.00  0.00     0.165 HD
ATOM     16  O   UNL     1       3.113  -0.470   0.331  1.00  0.00    -0.249 OA
BRANCH  14  17
ATOM     17  C   UNL     1       0.194   1.511  -0.416  1.00  0.00     0.111 C 
ATOM     18  C   UNL     1       0.384   1.852  -1.896  1.00  0.00     0.036 C 
BRANCH  17  19
ATOM     19  C   UNL     1      -1.272   1.239  -0.100  1.00  0.00    -0.026 A 
ATOM     20  C   UNL     1      -2.142   2.336   0.055  1.00  0.00     0.007 A 
ATOM     21  C   UNL     1      -1.820  -0.047   0.021  1.00  0.00     0.007 A 
ATOM     22  C   UNL     1      -3.496   2.165   0.344  1.00  0.00     0.021 A 
ATOM     23  C   UNL     1      -3.180  -0.223   0.313  1.00  0.00     0.021 A 
ATOM     24  C   UNL     1      -4.010   0.883   0.477  1.00  0.00     0.041 A 
ATOM     25  Cl  UNL     1      -5.677   0.664   0.838  1.00  0.00    -0.084 Cl
ENDBRANCH  17  19
ENDBRANCH  14  17
ENDBRANCH   8  13
ENDBRANCH   4   7
ENDBRANCH   2   3
ENDBRANCH   1   2
BRANCH   1  26
ATOM     26  C   UNL     1      -0.467   6.570   0.873  1.00  0.00     0.023 C 
BRANCH  26  27
ATOM     27  C   UNL     1      -0.377   7.668  -0.173  1.00  0.00     0.116 C 
BRANCH  27  28
ATOM     28  N   UNL     1      -0.955   7.289  -1.457  1.00  0.00    -0.352 N 
ATOM     29  C   UNL     1      -1.871   7.954  -2.239  1.00  0.00     0.251 C 
ATOM     30  H   UNL     1      -0.642   6.428  -1.818  1.00  0.00     0.163 HD
ATOM     31  O   UNL     1      -2.332   7.415  -3.236  1.00  0.00    -0.269 OA
BRANCH  29  32
ATOM     32  C   UNL     1      -2.318   9.308  -1.851  1.00  0.00     0.039 A 
ATOM     33  C   UNL     1      -3.677   9.623  -1.927  1.00  0.00     0.014 A 
ATOM     34  C   UNL     1      -1.402  10.253  -1.385  1.00  0.00     0.014 A 
ATOM     35  C   UNL     1      -4.125  10.861  -1.461  1.00  0.00     0.010 A 
ATOM     36  C   UNL     1      -1.860  11.438  -0.827  1.00  0.00     0.010 A 
ATOM     37  C   UNL     1      -3.224  11.762  -0.870  1.00  0.00    -0.014 A 
BRANCH  37  38
ATOM     38  C   UNL     1      -3.671  13.063  -0.316  1.00  0.00     0.031 A 
ATOM     39  C   UNL     1      -3.128  14.344  -0.891  1.00  0.00     0.074 A 
ATOM     40  C   UNL     1      -4.494  13.094   0.750  1.00  0.00     0.049 A 
ATOM     41  N   UNL     1      -3.315  15.575  -0.490  1.00  0.00    -0.248 NA
ATOM     42  C   UNL     1      -2.221  14.222  -2.046  1.00  0.00     0.031 C 
ATOM     43  C   UNL     1      -5.043  11.922   1.439  1.00  0.00     0.029 A 
ATOM     44  N   UNL     1      -5.007  14.158   1.449  1.00  0.00    -0.354 N 
ATOM     45  C   UNL     1      -2.523  16.363  -1.315  1.00  0.00     0.074 A 
ATOM     46  C   UNL     1      -1.814  15.471  -2.204  1.00  0.00     0.031 C 
ATOM     47  C   UNL     1      -5.840  12.333   2.439  1.00  0.00     0.029 A 
ATOM     48  C   UNL     1      -5.831  13.791   2.486  1.00  0.00     0.049 A 
ATOM     49  H   UNL     1      -4.804  15.095   1.228  1.00  0.00     0.167 HD
ATOM     50  C   UNL     1      -2.414  17.712  -1.350  1.00  0.00     0.031 A 
ATOM     51  C   UNL     1      -6.504  14.548   3.372  1.00  0.00     0.031 A 
ATOM     52  C   UNL     1      -3.154  18.601  -0.499  1.00  0.00     0.049 A 
ATOM     53  C   UNL     1      -6.406  16.045   3.280  1.00  0.00     0.074 A 
ATOM     54  C   UNL     1      -3.172  19.984  -0.503  1.00  0.00     0.029 A 
ATOM     55  N   UNL     1      -4.021  18.189   0.501  1.00  0.00    -0.354 N 
ATOM     56  N   UNL     1      -5.705  16.777   2.447  1.00  0.00    -0.248 NA
ATOM     57  C   UNL     1      -7.207  16.820   4.237  1.00  0.00     0.031 C 
ATOM     58  C   UNL     1      -4.027  20.411   0.518  1.00  0.00     0.029 A 
ATOM     59  C   UNL     1      -4.575  19.292   1.126  1.00  0.00     0.049 A 
ATOM     60  H   UNL     1      -4.213  17.252   0.733  1.00  0.00     0.167 HD
ATOM     61  C   UNL     1      -6.006  18.096   2.759  1.00  0.00     0.074 A 
ATOM     62  C   UNL     1      -6.963  18.063   3.847  1.00  0.00     0.031 C 
ATOM     63  C   UNL     1      -5.534  19.235   2.197  1.00  0.00     0.031 A 
BRANCH  50  64
ATOM     64  C   UNL     1      -1.463  18.303  -2.353  1.00  0.00    -0.014 A 
ATOM     65  C   UNL     1      -1.742  18.266  -3.729  1.00  0.00     0.009 A 
ATOM     66  C   UNL     1      -0.286  18.928  -1.916  1.00  0.00     0.009 A 
ATOM     67  C   UNL     1      -0.843  18.809  -4.648  1.00  0.00     0.001 A 
ATOM     68  C   UNL     1       0.597  19.497  -2.835  1.00  0.00     0.001 A 
ATOM     69  C   UNL     1       0.323  19.428  -4.201  1.00  0.00     0.000 A 
ENDBRANCH  50  64
BRANCH  51  70
ATOM     70  C   UNL     1      -7.362  13.909   4.404  1.00  0.00    -0.014 A 
ATOM     71  C   UNL     1      -8.761  13.988   4.311  1.00  0.00     0.009 A 
ATOM     72  C   UNL     1      -6.792  13.232   5.493  1.00  0.00     0.009 A 
ATOM     73  C   UNL     1      -9.570  13.433   5.305  1.00  0.00     0.001 A 
ATOM     74  C   UNL     1      -7.604  12.654   6.471  1.00  0.00     0.001 A 
ATOM     75  C   UNL     1      -8.991  12.764   6.382  1.00  0.00     0.000 A 
ENDBRANCH  51  70
BRANCH  63  76
ATOM     76  C   UNL     1      -6.082  20.533   2.714  1.00  0.00    -0.014 A 
ATOM     77  C   UNL     1      -5.705  21.037   3.967  1.00  0.00     0.009 A 
ATOM     78  C   UNL     1      -6.959  21.280   1.912  1.00  0.00     0.009 A 
ATOM     79  C   UNL     1      -6.224  22.250   4.423  1.00  0.00     0.001 A 
ATOM     80  C   UNL     1      -7.455  22.505   2.359  1.00  0.00     0.001 A 
ATOM     81  C   UNL     1      -7.094  22.984   3.617  1.00  0.00     0.000 A 
ENDBRANCH  63  76
ENDBRANCH  37  38
ENDBRANCH  29  32
ENDBRANCH  27  28
ENDBRANCH  26  27
ENDBRANCH   1  26
TORSDOF 14
