REMARK SMILES Cc1cc(C(=O)Nc2c(Cl)cc(Cl)cc2C(=O)NCCCCNC(=O)c2ccc(-c3c4nc(c(-c5ccccc5)c5ccc([nH]5)c(-c5ccccc5)c5nc(c(-c6ccccc6)c6ccc3[nH]6)C=C5)C=C4)cc2)c(C)s1
REMARK SMILES IDX 20 1 19 2 18 3 16 4 17 5 15 7 8 8 9 9 10 10 11 11 14 12
REMARK SMILES IDX 12 13 13 14 7 15 5 16 6 17 4 19 1 20 2 21 3 22 76 23 74 24
REMARK SMILES IDX 75 25 21 26 22 27 23 28 24 29 25 31 26 32 27 33 73 34 28 35
REMARK SMILES IDX 72 36 29 37 30 38 31 39 66 40 32 41 71 42 65 43 67 44 33 45
REMARK SMILES IDX 70 46 64 47 63 48 34 50 56 51 41 52 55 53 42 54 45 55 54 56
REMARK SMILES IDX 68 57 43 58 44 59 53 61 69 62 46 63 35 64 36 65 40 66 37 67
REMARK SMILES IDX 39 68 38 69 57 70 58 71 62 72 59 73 61 74 60 75 47 76 48 77
REMARK SMILES IDX 52 78 49 79 51 80 50 81
REMARK H PARENT 18 6 7 18 23 30 67 49 45 60
REMARK Flexibility Score: inf
ROOT
ATOM      1  C   UNL     1       2.679  -3.784   2.669  1.00  0.00     0.023 C 
ENDROOT
BRANCH   1   2
ATOM      2  C   UNL     1       1.690  -4.184   1.586  1.00  0.00     0.116 C 
BRANCH   2   3
ATOM      3  N   UNL     1       0.916  -5.380   1.795  1.00  0.00    -0.352 N 
ATOM      4  C   UNL     1      -0.278  -5.782   1.242  1.00  0.00     0.253 C 
ATOM      5  O   UNL     1      -0.678  -6.906   1.558  1.00  0.00    -0.269 OA
ATOM      6  H   UNL     1       1.304  -6.014   2.441  1.00  0.00     0.163 HD
BRANCH   4   7
ATOM      7  C   UNL     1      -1.165  -4.968   0.346  1.00  0.00     0.066 A 
ATOM      8  C   UNL     1      -0.813  -4.129  -0.734  1.00  0.00     0.073 A 
ATOM      9  C   UNL     1      -1.835  -3.598  -1.565  1.00  0.00     0.066 A 
ATOM     10  Cl  UNL     1      -1.474  -2.715  -3.015  1.00  0.00    -0.082 Cl
ATOM     11  C   UNL     1      -3.182  -3.772  -1.257  1.00  0.00     0.043 A 
ATOM     12  C   UNL     1      -2.541  -5.132   0.630  1.00  0.00     0.036 A 
ATOM     13  C   UNL     1      -3.527  -4.519  -0.142  1.00  0.00     0.043 A 
ATOM     14  Cl  UNL     1      -5.184  -4.697   0.281  1.00  0.00    -0.084 Cl
BRANCH   8  15
ATOM     15  N   UNL     1       0.522  -3.817  -1.024  1.00  0.00    -0.320 N 
ATOM     16  C   UNL     1       1.167  -2.582  -0.982  1.00  0.00     0.256 C 
ATOM     17  O   UNL     1       2.358  -2.600  -1.305  1.00  0.00    -0.269 OA
ATOM     18  H   UNL     1       1.083  -4.578  -1.297  1.00  0.00     0.170 HD
BRANCH  16  19
ATOM     19  C   UNL     1       0.525  -1.351  -0.448  1.00  0.00     0.054 A 
ATOM     20  C   UNL     1      -2.567   0.669   0.390  1.00  0.00     0.056 C 
ATOM     21  C   UNL     1      -1.191   0.141   0.183  1.00  0.00     0.003 A 
ATOM     22  C   UNL     1      -0.797  -1.174   0.096  1.00  0.00     0.029 A 
ATOM     23  S   UNL     1       0.140   1.176   0.022  1.00  0.00    -0.145 S 
ATOM     24  C   UNL     1       1.205  -0.140  -0.294  1.00  0.00     0.014 A 
ATOM     25  C   UNL     1       2.665   0.177  -0.399  1.00  0.00     0.057 C 
ENDBRANCH  16  19
ENDBRANCH   8  15
ENDBRANCH   4   7
ENDBRANCH   2   3
ENDBRANCH   1   2
BRANCH   1  26
ATOM     26  C   UNL     1       3.795  -4.773   2.992  1.00  0.00     0.023 C 
BRANCH  26  27
ATOM     27  C   UNL     1       4.499  -5.452   1.819  1.00  0.00     0.116 C 
BRANCH  27  28
ATOM     28  N   UNL     1       5.179  -4.547   0.905  1.00  0.00    -0.352 N 
ATOM     29  C   UNL     1       6.512  -4.422   0.582  1.00  0.00     0.251 C 
ATOM     30  H   UNL     1       4.585  -3.916   0.437  1.00  0.00     0.163 HD
ATOM     31  O   UNL     1       6.867  -3.540  -0.197  1.00  0.00    -0.269 OA
BRANCH  29  32
ATOM     32  C   UNL     1       7.542  -5.293   1.198  1.00  0.00     0.039 A 
ATOM     33  C   UNL     1       8.735  -4.705   1.631  1.00  0.00     0.014 A 
ATOM     34  C   UNL     1       7.358  -6.667   1.358  1.00  0.00     0.014 A 
ATOM     35  C   UNL     1       9.683  -5.469   2.318  1.00  0.00     0.010 A 
ATOM     36  C   UNL     1       8.256  -7.406   2.128  1.00  0.00     0.010 A 
ATOM     37  C   UNL     1       9.424  -6.814   2.629  1.00  0.00    -0.014 A 
BRANCH  37  38
ATOM     38  C   UNL     1      10.349  -7.588   3.502  1.00  0.00     0.031 A 
ATOM     39  C   UNL     1      11.040  -8.825   2.993  1.00  0.00     0.074 A 
ATOM     40  C   UNL     1      10.533  -7.200   4.782  1.00  0.00     0.049 A 
ATOM     41  N   UNL     1      11.864  -9.627   3.622  1.00  0.00    -0.248 NA
ATOM     42  C   UNL     1      10.754  -9.228   1.607  1.00  0.00     0.031 C 
ATOM     43  C   UNL     1       9.881  -6.057   5.426  1.00  0.00     0.029 A 
ATOM     44  N   UNL     1      11.327  -7.726   5.772  1.00  0.00    -0.354 N 
ATOM     45  C   UNL     1      12.190 -10.625   2.712  1.00  0.00     0.074 A 
ATOM     46  C   UNL     1      11.428 -10.365   1.510  1.00  0.00     0.031 C 
ATOM     47  C   UNL     1      10.327  -5.946   6.687  1.00  0.00     0.029 A 
ATOM     48  C   UNL     1      11.266  -7.030   6.957  1.00  0.00     0.049 A 
ATOM     49  H   UNL     1      11.886  -8.526   5.646  1.00  0.00     0.167 HD
ATOM     50  C   UNL     1      13.066 -11.650   2.849  1.00  0.00     0.031 A 
ATOM     51  C   UNL     1      11.893  -7.237   8.130  1.00  0.00     0.031 A 
ATOM     52  C   UNL     1      13.831 -11.913   4.039  1.00  0.00     0.049 A 
ATOM     53  C   UNL     1      12.855  -8.386   8.256  1.00  0.00     0.074 A 
ATOM     54  C   UNL     1      14.768 -12.908   4.259  1.00  0.00     0.029 A 
ATOM     55  N   UNL     1      13.749 -11.176   5.209  1.00  0.00    -0.354 N 
ATOM     56  N   UNL     1      13.200  -9.278   7.360  1.00  0.00    -0.248 NA
ATOM     57  C   UNL     1      13.527  -8.545   9.554  1.00  0.00     0.031 C 
ATOM     58  C   UNL     1      15.223 -12.799   5.577  1.00  0.00     0.029 A 
ATOM     59  C   UNL     1      14.609 -11.702   6.159  1.00  0.00     0.049 A 
ATOM     60  H   UNL     1      13.166 -10.394   5.346  1.00  0.00     0.167 HD
ATOM     61  C   UNL     1      14.145 -10.087   7.977  1.00  0.00     0.074 A 
ATOM     62  C   UNL     1      14.340  -9.563   9.312  1.00  0.00     0.031 C 
ATOM     63  C   UNL     1      14.791 -11.172   7.484  1.00  0.00     0.031 A 
BRANCH  50  64
ATOM     64  C   UNL     1      13.258 -12.560   1.668  1.00  0.00    -0.014 A 
ATOM     65  C   UNL     1      13.927 -12.114   0.516  1.00  0.00     0.009 A 
ATOM     66  C   UNL     1      12.816 -13.891   1.722  1.00  0.00     0.009 A 
ATOM     67  C   UNL     1      14.125 -12.973  -0.566  1.00  0.00     0.001 A 
ATOM     68  C   UNL     1      13.040 -14.756   0.649  1.00  0.00     0.001 A 
ATOM     69  C   UNL     1      13.687 -14.294  -0.496  1.00  0.00     0.000 A 
ENDBRANCH  50  64
BRANCH  51  70
ATOM     70  C   UNL     1      11.644  -6.336   9.287  1.00  0.00    -0.014 A 
ATOM     71  C   UNL     1      12.652  -5.481   9.760  1.00  0.00     0.009 A 
ATOM     72  C   UNL     1      10.406  -6.353   9.949  1.00  0.00     0.009 A 
ATOM     73  C   UNL     1      12.441  -4.695  10.895  1.00  0.00     0.001 A 
ATOM     74  C   UNL     1      10.186  -5.541  11.063  1.00  0.00     0.001 A 
ATOM     75  C   UNL     1      11.207  -4.723  11.544  1.00  0.00     0.000 A 
ENDBRANCH  51  70
BRANCH  63  76
ATOM     76  C   UNL     1      15.791 -11.840   8.387  1.00  0.00    -0.014 A 
ATOM     77  C   UNL     1      15.382 -12.575   9.511  1.00  0.00     0.009 A 
ATOM     78  C   UNL     1      17.161 -11.746   8.098  1.00  0.00     0.009 A 
ATOM     79  C   UNL     1      16.328 -13.164  10.352  1.00  0.00     0.001 A 
ATOM     80  C   UNL     1      18.103 -12.362   8.922  1.00  0.00     0.001 A 
ATOM     81  C   UNL     1      17.686 -13.060  10.055  1.00  0.00     0.000 A 
ENDBRANCH  63  76
ENDBRANCH  37  38
ENDBRANCH  29  32
ENDBRANCH  27  28
ENDBRANCH  26  27
ENDBRANCH   1  26
TORSDOF 13
