REMARK SMILES COc1ccc(C2=NN(C(=O)CCC(=O)NCCCCNC(=O)c3ccc(-c4c5nc(c(-c6ccccc6)c6ccc([nH]6)c(-c6ccccc6)c6nc(c(-c7ccccc7)c7ccc4[nH]7)C=C6)C=C5)cc3)[C@H](c3ccc(Cl)cc3Cl)C2)cc1
REMARK SMILES IDX 17 1 16 2 14 3 15 4 13 6 12 7 10 8 11 9 9 10 7 11 8 12 81 13
REMARK SMILES IDX 72 14 6 15 3 16 4 17 83 18 5 19 82 20 2 21 1 22 73 23 74 24
REMARK SMILES IDX 79 25 75 26 78 27 80 28 76 29 77 30 18 31 19 32 20 33 21 34
REMARK SMILES IDX 22 35 23 37 24 38 25 39 71 40 26 41 70 42 27 43 28 44 29 45
REMARK SMILES IDX 64 46 30 47 69 48 63 49 65 50 31 51 68 52 62 53 61 54 32 56
REMARK SMILES IDX 54 57 39 58 53 59 40 60 43 61 52 62 66 63 41 64 42 65 51 67
REMARK SMILES IDX 67 68 44 69 33 70 34 71 38 72 35 73 37 74 36 75 55 76 56 77
REMARK SMILES IDX 60 78 57 79 59 80 58 81 45 82 46 83 50 84 47 85 49 86 48 87
REMARK H PARENT 16 5 21 36 65 55 43 66
REMARK Flexibility Score: inf
ROOT
ATOM      1  C   UNL     1       2.309   1.667   8.192  1.00  0.00     0.116 C 
ENDROOT
BRANCH   1   2
ATOM      2  N   UNL     1       3.461   1.081   9.127  1.00  0.00    -0.356 N 
ATOM      3  C   UNL     1       3.583   0.901  10.464  1.00  0.00     0.220 C 
ATOM      4  O   UNL     1       4.688   0.539  10.875  1.00  0.00    -0.275 OA
ATOM      5  H   UNL     1       4.255   0.787   8.623  1.00  0.00     0.163 HD
BRANCH   3   6
ATOM      6  C   UNL     1       2.417   1.112  11.384  1.00  0.00     0.110 C 
BRANCH   6   7
ATOM      7  C   UNL     1       1.753   2.483  11.401  1.00  0.00     0.112 C 
BRANCH   7   8
ATOM      8  C   UNL     1       0.843   2.805  10.235  1.00  0.00     0.243 C 
ATOM      9  O   UNL     1      -0.356   2.530  10.304  1.00  0.00    -0.273 OA
BRANCH   8  10
ATOM     10  N   UNL     1       1.482   3.226   9.045  1.00  0.00    -0.225 N 
ATOM     11  C   UNL     1       1.572   2.105   6.401  1.00  0.00     0.071 C 
ATOM     12  N   UNL     1       0.610   2.511   7.570  1.00  0.00    -0.174 NA
ATOM     13  C   UNL     1       3.581   2.358   7.016  1.00  0.00     0.091 C 
ATOM     14  C   UNL     1       3.372   3.416   8.752  1.00  0.00     0.149 C 
BRANCH  11  15
ATOM     15  C   UNL     1       0.812   2.342   4.946  1.00  0.00    -0.002 A 
ATOM     16  C   UNL     1       0.531   2.088   2.210  1.00  0.00     0.118 A 
ATOM     17  C   UNL     1      -0.330   1.383   3.103  1.00  0.00     0.047 A 
ATOM     18  C   UNL     1       0.913   3.313   2.673  1.00  0.00     0.047 A 
ATOM     19  C   UNL     1      -0.109   1.434   4.494  1.00  0.00     0.014 A 
ATOM     20  C   UNL     1       0.938   3.457   4.068  1.00  0.00     0.014 A 
BRANCH  16  21
ATOM     21  O   UNL     1       1.581   1.518   1.264  1.00  0.00    -0.497 OA
ATOM     22  C   UNL     1       2.452  -0.070   0.377  1.00  0.00     0.278 C 
ENDBRANCH  16  21
ENDBRANCH  11  15
BRANCH  14  23
ATOM     23  C   UNL     1       3.717   5.028   9.044  1.00  0.00    -0.004 A 
ATOM     24  C   UNL     1       3.620   6.049   8.065  1.00  0.00     0.009 A 
ATOM     25  C   UNL     1       3.742   5.507  10.375  1.00  0.00     0.047 A 
ATOM     26  C   UNL     1       3.222   7.360   8.382  1.00  0.00     0.021 A 
ATOM     27  C   UNL     1       3.341   6.819  10.703  1.00  0.00     0.041 A 
ATOM     28  Cl  UNL     1       4.504   4.621  11.650  1.00  0.00    -0.084 Cl
ATOM     29  C   UNL     1       3.020   7.721   9.701  1.00  0.00     0.042 A 
ATOM     30  Cl  UNL     1       2.431   9.290  10.084  1.00  0.00    -0.084 Cl
ENDBRANCH  14  23
ENDBRANCH   8  10
ENDBRANCH   7   8
ENDBRANCH   6   7
ENDBRANCH   3   6
ENDBRANCH   1   2
BRANCH   1  31
ATOM     31  C   UNL     1       2.243   3.635   7.159  1.00  0.00     0.023 C 
BRANCH  31  32
ATOM     32  C   UNL     1       3.201   3.895   5.546  1.00  0.00     0.023 C 
BRANCH  32  33
ATOM     33  C   UNL     1       3.632   2.554   4.460  1.00  0.00     0.116 C 
BRANCH  33  34
ATOM     34  N   UNL     1       3.191   1.033   4.651  1.00  0.00    -0.352 N 
ATOM     35  C   UNL     1       2.478   0.020   3.945  1.00  0.00     0.251 C 
ATOM     36  H   UNL     1       3.507   0.690   5.518  1.00  0.00     0.163 HD
ATOM     37  O   UNL     1       2.111  -0.994   4.529  1.00  0.00    -0.269 OA
BRANCH  35  38
ATOM     38  C   UNL     1       2.215   0.152   2.499  1.00  0.00     0.039 A 
ATOM     39  C   UNL     1       0.720  -0.222   1.466  1.00  0.00     0.014 A 
ATOM     40  C   UNL     1       3.473   1.213   1.861  1.00  0.00     0.014 A 
ATOM     41  C   UNL     1       0.505   0.698  -0.121  1.00  0.00     0.010 A 
ATOM     42  C   UNL     1       3.275   2.046   0.352  1.00  0.00     0.010 A 
ATOM     43  C   UNL     1       1.838   1.810  -0.667  1.00  0.00    -0.014 A 
BRANCH  43  44
ATOM     44  C   UNL     1       2.182   2.566  -1.926  1.00  0.00     0.031 A 
ATOM     45  C   UNL     1       3.393   2.065  -2.724  1.00  0.00     0.074 A 
ATOM     46  C   UNL     1       2.000   3.908  -1.903  1.00  0.00     0.049 A 
ATOM     47  N   UNL     1       4.306   2.728  -3.399  1.00  0.00    -0.248 NA
ATOM     48  C   UNL     1       3.679   0.627  -2.627  1.00  0.00     0.031 C 
ATOM     49  C   UNL     1       1.075   4.627  -1.029  1.00  0.00     0.029 A 
ATOM     50  N   UNL     1       2.696   4.916  -2.546  1.00  0.00    -0.354 N 
ATOM     51  C   UNL     1       5.271   1.788  -3.765  1.00  0.00     0.074 A 
ATOM     52  C   UNL     1       4.899   0.546  -3.130  1.00  0.00     0.031 C 
ATOM     53  C   UNL     1       1.286   5.951  -1.155  1.00  0.00     0.029 A 
ATOM     54  C   UNL     1       2.366   6.183  -2.115  1.00  0.00     0.049 A 
ATOM     55  H   UNL     1       3.365   4.745  -3.247  1.00  0.00     0.167 HD
ATOM     56  C   UNL     1       6.333   1.898  -4.603  1.00  0.00     0.031 A 
ATOM     57  C   UNL     1       2.866   7.394  -2.446  1.00  0.00     0.031 A 
ATOM     58  C   UNL     1       6.705   3.105  -5.284  1.00  0.00     0.049 A 
ATOM     59  C   UNL     1       3.969   7.524  -3.468  1.00  0.00     0.074 A 
ATOM     60  C   UNL     1       7.628   3.280  -6.301  1.00  0.00     0.029 A 
ATOM     61  N   UNL     1       6.169   4.348  -5.008  1.00  0.00    -0.354 N 
ATOM     62  N   UNL     1       4.709   6.590  -4.010  1.00  0.00    -0.248 NA
ATOM     63  C   UNL     1       4.270   8.881  -3.961  1.00  0.00     0.031 C 
ATOM     64  C   UNL     1       7.665   4.640  -6.628  1.00  0.00     0.029 A 
ATOM     65  C   UNL     1       6.738   5.297  -5.837  1.00  0.00     0.049 A 
ATOM     66  H   UNL     1       5.485   4.531  -4.324  1.00  0.00     0.167 HD
ATOM     67  C   UNL     1       5.495   7.233  -4.963  1.00  0.00     0.074 A 
ATOM     68  C   UNL     1       5.170   8.639  -4.904  1.00  0.00     0.031 C 
ATOM     69  C   UNL     1       6.387   6.689  -5.825  1.00  0.00     0.031 A 
BRANCH  56  70
ATOM     70  C   UNL     1       7.110   0.643  -4.918  1.00  0.00    -0.014 A 
ATOM     71  C   UNL     1       6.493  -0.417  -5.606  1.00  0.00     0.009 A 
ATOM     72  C   UNL     1       8.469   0.529  -4.588  1.00  0.00     0.009 A 
ATOM     73  C   UNL     1       7.197  -1.585  -5.899  1.00  0.00     0.001 A 
ATOM     74  C   UNL     1       9.183  -0.627  -4.918  1.00  0.00     0.001 A 
ATOM     75  C   UNL     1       8.543  -1.688  -5.559  1.00  0.00     0.000 A 
ENDBRANCH  56  70
BRANCH  57  76
ATOM     76  C   UNL     1       2.235   8.633  -1.913  1.00  0.00    -0.014 A 
ATOM     77  C   UNL     1       1.316   9.329  -2.717  1.00  0.00     0.009 A 
ATOM     78  C   UNL     1       2.568   9.155  -0.656  1.00  0.00     0.009 A 
ATOM     79  C   UNL     1       0.766  10.538  -2.288  1.00  0.00     0.001 A 
ATOM     80  C   UNL     1       1.997  10.356  -0.220  1.00  0.00     0.001 A 
ATOM     81  C   UNL     1       1.105  11.050  -1.039  1.00  0.00     0.000 A 
ENDBRANCH  57  76
BRANCH  69  82
ATOM     82  C   UNL     1       7.007   7.572  -6.868  1.00  0.00    -0.014 A 
ATOM     83  C   UNL     1       8.032   8.477  -6.561  1.00  0.00     0.009 A 
ATOM     84  C   UNL     1       6.609   7.422  -8.208  1.00  0.00     0.009 A 
ATOM     85  C   UNL     1       8.637   9.226  -7.576  1.00  0.00     0.001 A 
ATOM     86  C   UNL     1       7.229   8.155  -9.221  1.00  0.00     0.001 A 
ATOM     87  C   UNL     1       8.241   9.059  -8.903  1.00  0.00     0.000 A 
ENDBRANCH  69  82
ENDBRANCH  43  44
ENDBRANCH  35  38
ENDBRANCH  33  34
ENDBRANCH  32  33
ENDBRANCH  31  32
ENDBRANCH   1  31
TORSDOF 17
