REMARK SMILES Cc1ccc(Nc2c(F)cccc2Cl)c(CC(=O)NCCCCNC(=O)c2ccc(-c3c4nc(c(-c5ccccc5)c5ccc([nH]5)c(-c5ccccc5)c5nc(c(-c6ccccc6)c6ccc3[nH]6)C=C5)C=C4)cc2)c1
REMARK SMILES IDX 21 1 20 2 19 3 17 4 18 5 16 7 15 8 1 9 2 10 3 11 75 12 4 13
REMARK SMILES IDX 5 14 6 15 7 17 8 18 13 19 9 20 10 21 12 22 14 23 11 24 22 25
REMARK SMILES IDX 23 26 24 27 25 28 26 30 27 31 28 32 74 33 29 34 73 35 30 36
REMARK SMILES IDX 31 37 32 38 67 39 33 40 72 41 66 42 68 43 34 44 71 45 65 46
REMARK SMILES IDX 64 47 35 49 57 50 42 51 56 52 43 53 46 54 55 55 69 56 44 57
REMARK SMILES IDX 45 58 54 60 70 61 47 62 36 63 37 64 41 65 38 66 40 67 39 68
REMARK SMILES IDX 58 69 59 70 63 71 60 72 62 73 61 74 48 75 49 76 53 77 50 78
REMARK SMILES IDX 52 79 51 80
REMARK H PARENT 19 6 6 16 24 29 68 48 46 59
REMARK Flexibility Score: inf
ROOT
ATOM      1  C   UNL     1      -0.169   1.135  -3.157  1.00  0.00     0.023 C 
ENDROOT
BRANCH   1   2
ATOM      2  C   UNL     1      -0.586   2.557  -2.746  1.00  0.00     0.116 C 
BRANCH   2   3
ATOM      3  N   UNL     1      -1.990   2.670  -2.391  1.00  0.00    -0.356 N 
ATOM      4  C   UNL     1      -2.596   2.569  -1.174  1.00  0.00     0.224 C 
ATOM      5  O   UNL     1      -3.829   2.590  -1.132  1.00  0.00    -0.275 OA
ATOM      6  H   UNL     1      -2.598   2.846  -3.146  1.00  0.00     0.163 HD
BRANCH   4   7
ATOM      7  C   UNL     1      -1.790   2.412   0.101  1.00  0.00     0.137 C 
BRANCH   7   8
ATOM      8  C   UNL     1      -1.079   1.082   0.211  1.00  0.00    -0.015 A 
ATOM      9  C   UNL     1       2.584  -0.017   0.298  1.00  0.00     0.044 C 
ATOM     10  C   UNL     1       1.086  -0.061   0.300  1.00  0.00    -0.051 A 
ATOM     11  C   UNL     1       0.422  -1.282   0.211  1.00  0.00     0.005 A 
ATOM     12  C   UNL     1       0.329   1.111   0.338  1.00  0.00     0.009 A 
ATOM     13  C   UNL     1      -0.973  -1.324   0.144  1.00  0.00     0.026 A 
ATOM     14  C   UNL     1      -1.754  -0.157   0.122  1.00  0.00     0.042 A 
BRANCH  14  15
ATOM     15  N   UNL     1      -3.161  -0.223   0.021  1.00  0.00    -0.352 N 
ATOM     16  H   UNL     1      -3.616   0.644  -0.077  1.00  0.00     0.167 HD
BRANCH  15  17
ATOM     17  C   UNL     1      -4.014  -1.353   0.041  1.00  0.00     0.094 A 
ATOM     18  C   UNL     1      -3.949  -2.323   1.053  1.00  0.00     0.148 A 
ATOM     19  C   UNL     1      -4.905  -1.595  -1.022  1.00  0.00     0.067 A 
ATOM     20  F   UNL     1      -3.137  -2.149   2.108  1.00  0.00    -0.205 F 
ATOM     21  C   UNL     1      -4.723  -3.483   1.015  1.00  0.00     0.041 A 
ATOM     22  C   UNL     1      -5.682  -2.759  -1.070  1.00  0.00     0.023 A 
ATOM     23  Cl  UNL     1      -5.037  -0.484  -2.345  1.00  0.00    -0.082 Cl
ATOM     24  C   UNL     1      -5.588  -3.706  -0.052  1.00  0.00     0.005 A 
ENDBRANCH  15  17
ENDBRANCH  14  15
ENDBRANCH   7   8
ENDBRANCH   4   7
ENDBRANCH   2   3
ENDBRANCH   1   2
BRANCH   1  25
ATOM     25  C   UNL     1      -0.963   0.513  -4.306  1.00  0.00     0.023 C 
BRANCH  25  26
ATOM     26  C   UNL     1      -0.687   1.148  -5.659  1.00  0.00     0.116 C 
BRANCH  26  27
ATOM     27  N   UNL     1       0.427   0.558  -6.393  1.00  0.00    -0.352 N 
ATOM     28  C   UNL     1       1.047   1.002  -7.551  1.00  0.00     0.251 C 
ATOM     29  H   UNL     1       0.790  -0.274  -6.012  1.00  0.00     0.163 HD
ATOM     30  O   UNL     1       1.937   0.345  -8.067  1.00  0.00    -0.269 OA
BRANCH  28  31
ATOM     31  C   UNL     1       0.723   2.355  -8.073  1.00  0.00     0.039 A 
ATOM     32  C   UNL     1       1.797   3.202  -8.368  1.00  0.00     0.014 A 
ATOM     33  C   UNL     1      -0.573   2.858  -8.022  1.00  0.00     0.014 A 
ATOM     34  C   UNL     1       1.607   4.578  -8.319  1.00  0.00     0.010 A 
ATOM     35  C   UNL     1      -0.746   4.220  -7.867  1.00  0.00     0.010 A 
ATOM     36  C   UNL     1       0.363   5.068  -7.928  1.00  0.00    -0.014 A 
BRANCH  36  37
ATOM     37  C   UNL     1       0.176   6.413  -7.402  1.00  0.00     0.031 A 
ATOM     38  C   UNL     1      -0.537   7.437  -8.182  1.00  0.00     0.074 A 
ATOM     39  C   UNL     1       0.624   6.710  -6.161  1.00  0.00     0.049 A 
ATOM     40  N   UNL     1      -0.435   8.703  -7.955  1.00  0.00    -0.248 NA
ATOM     41  C   UNL     1      -1.354   7.125  -9.351  1.00  0.00     0.031 C 
ATOM     42  C   UNL     1       0.299   7.875  -5.342  1.00  0.00     0.029 A 
ATOM     43  N   UNL     1       1.689   6.105  -5.491  1.00  0.00    -0.354 N 
ATOM     44  C   UNL     1      -1.398   9.328  -8.704  1.00  0.00     0.074 A 
ATOM     45  C   UNL     1      -1.824   8.338  -9.662  1.00  0.00     0.031 C 
ATOM     46  C   UNL     1       1.278   8.057  -4.441  1.00  0.00     0.029 A 
ATOM     47  C   UNL     1       2.337   7.116  -4.757  1.00  0.00     0.049 A 
ATOM     48  H   UNL     1       1.938   5.153  -5.526  1.00  0.00     0.167 HD
ATOM     49  C   UNL     1      -1.830  10.560  -8.321  1.00  0.00     0.031 A 
ATOM     50  C   UNL     1       3.628   7.460  -5.038  1.00  0.00     0.031 A 
ATOM     51  C   UNL     1      -0.950  11.167  -7.317  1.00  0.00     0.049 A 
ATOM     52  C   UNL     1       3.820   8.896  -5.494  1.00  0.00     0.074 A 
ATOM     53  C   UNL     1      -1.075  11.508  -5.981  1.00  0.00     0.029 A 
ATOM     54  N   UNL     1       0.400  11.299  -7.617  1.00  0.00    -0.354 N 
ATOM     55  N   UNL     1       2.856   9.749  -5.702  1.00  0.00    -0.248 NA
ATOM     56  C   UNL     1       5.127   9.442  -5.857  1.00  0.00     0.031 C 
ATOM     57  C   UNL     1       0.223  11.830  -5.480  1.00  0.00     0.029 A 
ATOM     58  C   UNL     1       1.127  11.714  -6.519  1.00  0.00     0.049 A 
ATOM     59  H   UNL     1       0.789  11.120  -8.503  1.00  0.00     0.167 HD
ATOM     60  C   UNL     1       3.364  10.893  -6.266  1.00  0.00     0.074 A 
ATOM     61  C   UNL     1       4.793  10.649  -6.343  1.00  0.00     0.031 C 
ATOM     62  C   UNL     1       2.562  11.923  -6.674  1.00  0.00     0.031 A 
BRANCH  49  63
ATOM     63  C   UNL     1      -3.169  11.143  -8.722  1.00  0.00    -0.014 A 
ATOM     64  C   UNL     1      -3.576  12.380  -8.190  1.00  0.00     0.009 A 
ATOM     65  C   UNL     1      -4.124  10.483  -9.520  1.00  0.00     0.009 A 
ATOM     66  C   UNL     1      -4.857  12.907  -8.424  1.00  0.00     0.001 A 
ATOM     67  C   UNL     1      -5.393  11.015  -9.784  1.00  0.00     0.001 A 
ATOM     68  C   UNL     1      -5.765  12.225  -9.225  1.00  0.00     0.000 A 
ENDBRANCH  49  63
BRANCH  50  69
ATOM     69  C   UNL     1       4.458   6.310  -5.503  1.00  0.00    -0.014 A 
ATOM     70  C   UNL     1       4.694   5.246  -4.608  1.00  0.00     0.009 A 
ATOM     71  C   UNL     1       4.708   6.104  -6.866  1.00  0.00     0.009 A 
ATOM     72  C   UNL     1       5.055   3.980  -5.078  1.00  0.00     0.001 A 
ATOM     73  C   UNL     1       5.087   4.838  -7.331  1.00  0.00     0.001 A 
ATOM     74  C   UNL     1       5.224   3.771  -6.444  1.00  0.00     0.000 A 
ENDBRANCH  50  69
BRANCH  62  75
ATOM     75  C   UNL     1       3.034  13.206  -7.327  1.00  0.00    -0.014 A 
ATOM     76  C   UNL     1       4.298  13.776  -7.134  1.00  0.00     0.009 A 
ATOM     77  C   UNL     1       2.133  13.948  -8.126  1.00  0.00     0.009 A 
ATOM     78  C   UNL     1       4.672  14.968  -7.777  1.00  0.00     0.001 A 
ATOM     79  C   UNL     1       2.489  15.147  -8.749  1.00  0.00     0.001 A 
ATOM     80  C   UNL     1       3.770  15.649  -8.589  1.00  0.00     0.000 A 
ENDBRANCH  62  75
ENDBRANCH  36  37
ENDBRANCH  28  31
ENDBRANCH  26  27
ENDBRANCH  25  26
ENDBRANCH   1  25
TORSDOF 14
