REMARK SMILES C[C@H](C(=O)NCCCCNC(=O)c1ccc(-c2c3nc(c(-c4ccccc4)c4ccc([nH]4)c(-c4ccccc4)c4nc(c(-c5ccccc5)c5ccc2[nH]5)C=C4)C=C3)cc1)[C@H](C)[NH+]1CCN(S(C)(=O)=O)CC1
REMARK SMILES IDX 7 1 6 2 5 3 3 4 4 5 2 7 1 8 61 9 62 10 63 11 64 12 72 13
REMARK SMILES IDX 65 15 71 16 66 17 67 18 68 19 69 20 70 21 8 22 9 23 10 24
REMARK SMILES IDX 11 25 12 27 13 28 14 29 60 30 15 31 59 32 16 33 17 34 18 35
REMARK SMILES IDX 53 36 19 37 58 38 52 39 54 40 20 41 57 42 51 43 50 44 21 46
REMARK SMILES IDX 43 47 28 48 42 49 29 50 32 51 41 52 55 53 30 54 31 55 40 57
REMARK SMILES IDX 56 58 33 59 22 60 23 61 27 62 24 63 26 64 25 65 44 66 45 67
REMARK SMILES IDX 49 68 46 69 48 70 47 71 34 72 35 73 39 74 36 75 38 76 37 77
REMARK H PARENT 5 6 63 14 10 26 54 45 32 56
REMARK Flexibility Score: inf
ROOT
ATOM      1  C   UNL     1      -1.194   1.567  -2.095  1.00  0.00     0.023 C 
ENDROOT
BRANCH   1   2
ATOM      2  C   UNL     1      -1.985   0.264  -2.009  1.00  0.00     0.116 C 
BRANCH   2   3
ATOM      3  N   UNL     1      -1.116  -0.890  -1.942  1.00  0.00    -0.356 N 
ATOM      4  C   UNL     1      -0.886  -1.749  -0.917  1.00  0.00     0.228 C 
ATOM      5  O   UNL     1      -0.086  -2.665  -1.115  1.00  0.00    -0.275 OA
ATOM      6  H   UNL     1      -0.615  -1.083  -2.767  1.00  0.00     0.163 HD
BRANCH   4   7
ATOM      7  C   UNL     1      -1.561  -1.532   0.436  1.00  0.00     0.133 C 
ATOM      8  C   UNL     1      -1.710  -2.912   1.078  1.00  0.00     0.024 C 
BRANCH   7   9
ATOM      9  C   UNL     1      -0.823  -0.404   1.251  1.00  0.00     0.193 C 
ATOM     10  C   UNL     1       0.696  -0.392   1.032  1.00  0.00     0.076 C 
BRANCH   9  11
ATOM     11  N   UNL     1      -1.265  -0.248   2.659  1.00  0.00    -0.330 N 
ATOM     12  C   UNL     1      -0.838  -1.273   3.624  1.00  0.00     0.279 C 
ATOM     13  C   UNL     1      -1.039   1.103   3.234  1.00  0.00     0.279 C 
ATOM     14  H   UNL     1      -2.267  -0.393   2.532  1.00  0.00     0.348 HD
ATOM     15  C   UNL     1       0.541  -1.086   4.264  1.00  0.00     0.163 C 
ATOM     16  C   UNL     1       0.265   1.363   4.034  1.00  0.00     0.163 C 
ATOM     17  N   UNL     1       0.642   0.232   4.912  1.00  0.00    -0.191 NA
BRANCH  17  18
ATOM     18  S   UNL     1       0.469   0.351   6.575  1.00  0.00     0.211 S 
ATOM     19  C   UNL     1      -1.290   0.222   6.819  1.00  0.00     0.176 C 
ATOM     20  O   UNL     1       1.076  -0.822   7.174  1.00  0.00    -0.212 OA
ATOM     21  O   UNL     1       0.870   1.681   6.970  1.00  0.00    -0.212 OA
ENDBRANCH  17  18
ENDBRANCH   9  11
ENDBRANCH   7   9
ENDBRANCH   4   7
ENDBRANCH   2   3
ENDBRANCH   1   2
BRANCH   1  22
ATOM     22  C   UNL     1      -0.200   1.643  -3.255  1.00  0.00     0.023 C 
BRANCH  22  23
ATOM     23  C   UNL     1      -0.759   1.244  -4.613  1.00  0.00     0.116 C 
BRANCH  23  24
ATOM     24  N   UNL     1      -1.911   2.038  -5.003  1.00  0.00    -0.352 N 
ATOM     25  C   UNL     1      -2.203   2.589  -6.225  1.00  0.00     0.251 C 
ATOM     26  H   UNL     1      -2.573   2.205  -4.294  1.00  0.00     0.163 HD
ATOM     27  O   UNL     1      -3.160   3.348  -6.344  1.00  0.00    -0.269 OA
BRANCH  25  28
ATOM     28  C   UNL     1      -1.347   2.287  -7.392  1.00  0.00     0.039 A 
ATOM     29  C   UNL     1      -0.997   3.328  -8.254  1.00  0.00     0.014 A 
ATOM     30  C   UNL     1      -0.900   0.987  -7.643  1.00  0.00     0.014 A 
ATOM     31  C   UNL     1      -0.174   3.070  -9.350  1.00  0.00     0.010 A 
ATOM     32  C   UNL     1      -0.004   0.749  -8.679  1.00  0.00     0.010 A 
ATOM     33  C   UNL     1       0.343   1.781  -9.563  1.00  0.00    -0.014 A 
BRANCH  33  34
ATOM     34  C   UNL     1       1.196   1.486 -10.741  1.00  0.00     0.031 A 
ATOM     35  C   UNL     1       0.716   0.520 -11.792  1.00  0.00     0.074 A 
ATOM     36  C   UNL     1       2.408   2.062 -10.856  1.00  0.00     0.049 A 
ATOM     37  N   UNL     1       1.307   0.140 -12.897  1.00  0.00    -0.248 NA
ATOM     38  C   UNL     1      -0.587  -0.124 -11.560  1.00  0.00     0.031 C 
ATOM     39  C   UNL     1       3.005   2.986  -9.889  1.00  0.00     0.029 A 
ATOM     40  N   UNL     1       3.353   1.960 -11.845  1.00  0.00    -0.354 N 
ATOM     41  C   UNL     1       0.460  -0.799 -13.474  1.00  0.00     0.074 A 
ATOM     42  C   UNL     1      -0.654  -0.977 -12.570  1.00  0.00     0.031 C 
ATOM     43  C   UNL     1       4.193   3.402 -10.356  1.00  0.00     0.029 A 
ATOM     44  C   UNL     1       4.459   2.746 -11.633  1.00  0.00     0.049 A 
ATOM     45  H   UNL     1       3.248   1.378 -12.633  1.00  0.00     0.167 HD
ATOM     46  C   UNL     1       0.581  -1.439 -14.661  1.00  0.00     0.031 A 
ATOM     47  C   UNL     1       5.560   2.924 -12.387  1.00  0.00     0.031 A 
ATOM     48  C   UNL     1       1.682  -1.251 -15.567  1.00  0.00     0.049 A 
ATOM     49  C   UNL     1       5.676   2.195 -13.698  1.00  0.00     0.074 A 
ATOM     50  C   UNL     1       1.872  -1.805 -16.821  1.00  0.00     0.029 A 
ATOM     51  N   UNL     1       2.784  -0.450 -15.311  1.00  0.00    -0.354 N 
ATOM     52  N   UNL     1       4.830   1.370 -14.266  1.00  0.00    -0.248 NA
ATOM     53  C   UNL     1       6.895   2.442 -14.481  1.00  0.00     0.031 C 
ATOM     54  C   UNL     1       3.118  -1.387 -17.298  1.00  0.00     0.029 A 
ATOM     55  C   UNL     1       3.670  -0.513 -16.374  1.00  0.00     0.049 A 
ATOM     56  H   UNL     1       2.917   0.086 -14.496  1.00  0.00     0.167 HD
ATOM     57  C   UNL     1       5.392   1.036 -15.492  1.00  0.00     0.074 A 
ATOM     58  C   UNL     1       6.646   1.756 -15.587  1.00  0.00     0.031 C 
ATOM     59  C   UNL     1       4.911   0.213 -16.456  1.00  0.00     0.031 A 
BRANCH  46  60
ATOM     60  C   UNL     1      -0.502  -2.416 -15.035  1.00  0.00    -0.014 A 
ATOM     61  C   UNL     1      -1.809  -1.989 -15.324  1.00  0.00     0.009 A 
ATOM     62  C   UNL     1      -0.205  -3.785 -15.116  1.00  0.00     0.009 A 
ATOM     63  C   UNL     1      -2.804  -2.916 -15.639  1.00  0.00     0.001 A 
ATOM     64  C   UNL     1      -1.193  -4.707 -15.466  1.00  0.00     0.001 A 
ATOM     65  C   UNL     1      -2.494  -4.273 -15.715  1.00  0.00     0.000 A 
ENDBRANCH  46  60
BRANCH  47  66
ATOM     66  C   UNL     1       6.626   3.863 -11.946  1.00  0.00    -0.014 A 
ATOM     67  C   UNL     1       6.849   5.062 -12.641  1.00  0.00     0.009 A 
ATOM     68  C   UNL     1       7.438   3.559 -10.842  1.00  0.00     0.009 A 
ATOM     69  C   UNL     1       7.883   5.920 -12.261  1.00  0.00     0.001 A 
ATOM     70  C   UNL     1       8.450   4.435 -10.445  1.00  0.00     0.001 A 
ATOM     71  C   UNL     1       8.680   5.608 -11.162  1.00  0.00     0.000 A 
ENDBRANCH  47  66
BRANCH  59  72
ATOM     72  C   UNL     1       5.710   0.099 -17.726  1.00  0.00    -0.014 A 
ATOM     73  C   UNL     1       6.959  -0.540 -17.761  1.00  0.00     0.009 A 
ATOM     74  C   UNL     1       5.185   0.626 -18.917  1.00  0.00     0.009 A 
ATOM     75  C   UNL     1       7.686  -0.606 -18.951  1.00  0.00     0.001 A 
ATOM     76  C   UNL     1       5.896   0.526 -20.113  1.00  0.00     0.001 A 
ATOM     77  C   UNL     1       7.152  -0.077 -20.127  1.00  0.00     0.000 A 
ENDBRANCH  59  72
ENDBRANCH  33  34
ENDBRANCH  25  28
ENDBRANCH  23  24
ENDBRANCH  22  23
ENDBRANCH   1  22
TORSDOF 14
