REMARK SMILES Cc1ccccc1OCC(=O)N[C@@H](Cc1c[nH]c2ccccc12)C(=O)NCCCCNC(=O)c1ccc(-c2c3nc(c(-c4ccccc4)c4ccc([nH]4)c(-c4ccccc4)c4nc(c(-c5ccccc5)c5ccc2[nH]5)C=C4)C=C3)cc1
REMARK SMILES IDX 27 1 26 2 24 3 25 4 13 6 12 7 10 8 11 9 9 11 8 12 7 13 1 14
REMARK SMILES IDX 2 15 3 16 4 17 6 18 5 19 14 20 15 21 16 22 23 23 17 24 18 25
REMARK SMILES IDX 22 26 19 28 21 29 20 30 28 31 29 32 30 33 31 34 32 35 33 37
REMARK SMILES IDX 34 38 35 39 81 40 36 41 80 42 37 43 38 44 39 45 74 46 40 47
REMARK SMILES IDX 79 48 73 49 75 50 41 51 78 52 72 53 71 54 42 56 64 57 49 58
REMARK SMILES IDX 63 59 50 60 53 61 62 62 76 63 51 64 52 65 61 67 77 68 54 69
REMARK SMILES IDX 43 70 44 71 48 72 45 73 47 74 46 75 65 76 66 77 70 78 67 79
REMARK SMILES IDX 69 80 68 81 55 82 56 83 60 84 57 85 59 86 58 87
REMARK H PARENT 26 5 12 10 17 27 31 36 75 55 53 66
REMARK Flexibility Score: inf
ROOT
ATOM      1  C   UNL     1       3.391   2.786   5.249  1.00  0.00     0.116 C 
ENDROOT
BRANCH   1   2
ATOM      2  N   UNL     1       3.337   4.000   4.449  1.00  0.00    -0.354 N 
ATOM      3  C   UNL     1       2.459   4.393   3.475  1.00  0.00     0.242 C 
ATOM      4  O   UNL     1       2.371   5.612   3.274  1.00  0.00    -0.273 OA
ATOM      5  H   UNL     1       4.053   4.648   4.641  1.00  0.00     0.163 HD
BRANCH   3   6
ATOM      6  C   UNL     1       1.538   3.419   2.690  1.00  0.00     0.175 C 
BRANCH   6   7
ATOM      7  N   UNL     1       2.246   2.182   2.359  1.00  0.00    -0.341 N 
ATOM      8  C   UNL     1       2.947   1.944   1.215  1.00  0.00     0.258 C 
ATOM      9  O   UNL     1       3.981   1.276   1.284  1.00  0.00    -0.271 OA
ATOM     10  H   UNL     1       2.212   1.456   3.023  1.00  0.00     0.164 HD
BRANCH   8  11
ATOM     11  C   UNL     1       2.426   2.497  -0.113  1.00  0.00     0.329 C 
BRANCH  11  12
ATOM     12  O   UNL     1       1.064   2.295  -0.439  1.00  0.00    -0.484 OA
BRANCH  12  13
ATOM     13  C   UNL     1       0.452   1.081  -0.294  1.00  0.00     0.122 A 
ATOM     14  C   UNL     1       2.421  -0.587  -0.590  1.00  0.00     0.048 C 
ATOM     15  C   UNL     1       0.988  -0.215  -0.338  1.00  0.00    -0.009 A 
ATOM     16  C   UNL     1       0.120  -1.311  -0.120  1.00  0.00     0.007 A 
ATOM     17  C   UNL     1      -1.249  -1.140   0.072  1.00  0.00     0.001 A 
ATOM     18  C   UNL     1      -0.937   1.232  -0.122  1.00  0.00     0.047 A 
ATOM     19  C   UNL     1      -1.783   0.138   0.059  1.00  0.00     0.004 A 
ENDBRANCH  12  13
ENDBRANCH  11  12
ENDBRANCH   8  11
ENDBRANCH   6   7
BRANCH   6  20
ATOM     20  C   UNL     1       0.143   3.236   3.318  1.00  0.00     0.072 C 
BRANCH  20  21
ATOM     21  C   UNL     1       0.124   2.582   4.661  1.00  0.00    -0.020 A 
ATOM     22  C   UNL     1       0.125   3.224   5.885  1.00  0.00     0.087 A 
ATOM     23  C   UNL     1       0.155   1.177   4.929  1.00  0.00     0.003 A 
ATOM     24  N   UNL     1       0.256   2.279   6.868  1.00  0.00    -0.361 N 
ATOM     25  C   UNL     1       0.344   1.027   6.303  1.00  0.00     0.046 A 
ATOM     26  C   UNL     1       0.124   0.022   4.120  1.00  0.00     0.010 A 
ATOM     27  H   UNL     1       0.284   2.468   7.834  1.00  0.00     0.166 HD
ATOM     28  C   UNL     1       0.587  -0.218   6.891  1.00  0.00     0.026 A 
ATOM     29  C   UNL     1       0.311  -1.234   4.705  1.00  0.00     0.001 A 
ATOM     30  C   UNL     1       0.560  -1.348   6.070  1.00  0.00     0.002 A 
ENDBRANCH  20  21
ENDBRANCH   6  20
ENDBRANCH   3   6
ENDBRANCH   1   2
BRANCH   1  31
ATOM     31  C   UNL     1       4.757   2.103   5.300  1.00  0.00     0.023 C 
BRANCH  31  32
ATOM     32  C   UNL     1       5.841   2.848   6.077  1.00  0.00     0.023 C 
BRANCH  32  33
ATOM     33  C   UNL     1       5.520   3.121   7.542  1.00  0.00     0.116 C 
BRANCH  33  34
ATOM     34  N   UNL     1       5.667   1.994   8.446  1.00  0.00    -0.352 N 
ATOM     35  C   UNL     1       5.418   1.898   9.812  1.00  0.00     0.251 C 
ATOM     36  H   UNL     1       5.995   1.167   8.026  1.00  0.00     0.163 HD
ATOM     37  O   UNL     1       5.732   0.884  10.399  1.00  0.00    -0.269 OA
BRANCH  35  38
ATOM     38  C   UNL     1       4.630   2.950  10.531  1.00  0.00     0.039 A 
ATOM     39  C   UNL     1       3.835   2.531  11.611  1.00  0.00     0.014 A 
ATOM     40  C   UNL     1       4.485   4.246  10.053  1.00  0.00     0.014 A 
ATOM     41  C   UNL     1       2.731   3.290  11.995  1.00  0.00     0.010 A 
ATOM     42  C   UNL     1       3.330   4.941  10.336  1.00  0.00     0.010 A 
ATOM     43  C   UNL     1       2.413   4.416  11.244  1.00  0.00    -0.014 A 
BRANCH  43  44
ATOM     44  C   UNL     1       1.086   5.008  11.198  1.00  0.00     0.031 A 
ATOM     45  C   UNL     1       0.815   6.290  11.873  1.00  0.00     0.074 A 
ATOM     46  C   UNL     1       0.158   4.421  10.409  1.00  0.00     0.049 A 
ATOM     47  N   UNL     1      -0.355   6.677  12.256  1.00  0.00    -0.248 NA
ATOM     48  C   UNL     1       1.881   7.219  12.231  1.00  0.00     0.031 C 
ATOM     49  C   UNL     1      -1.102   4.989   9.941  1.00  0.00     0.029 A 
ATOM     50  N   UNL     1       0.081   3.069  10.041  1.00  0.00    -0.354 N 
ATOM     51  C   UNL     1      -0.241   7.995  12.642  1.00  0.00     0.074 A 
ATOM     52  C   UNL     1       1.179   8.255  12.694  1.00  0.00     0.031 C 
ATOM     53  C   UNL     1      -1.933   3.981   9.623  1.00  0.00     0.029 A 
ATOM     54  C   UNL     1      -1.286   2.748  10.049  1.00  0.00     0.049 A 
ATOM     55  H   UNL     1       0.831   2.470   9.823  1.00  0.00     0.167 HD
ATOM     56  C   UNL     1      -1.355   8.775  12.728  1.00  0.00     0.031 A 
ATOM     57  C   UNL     1      -1.841   1.821  10.883  1.00  0.00     0.031 A 
ATOM     58  C   UNL     1      -2.567   8.015  12.441  1.00  0.00     0.049 A 
ATOM     59  C   UNL     1      -2.960   2.389  11.721  1.00  0.00     0.074 A 
ATOM     60  C   UNL     1      -3.316   7.869  11.285  1.00  0.00     0.029 A 
ATOM     61  N   UNL     1      -2.980   7.016  13.314  1.00  0.00    -0.354 N 
ATOM     62  N   UNL     1      -3.066   3.653  12.023  1.00  0.00    -0.248 NA
ATOM     63  C   UNL     1      -3.988   1.565  12.348  1.00  0.00     0.031 C 
ATOM     64  C   UNL     1      -4.127   6.717  11.436  1.00  0.00     0.029 A 
ATOM     65  C   UNL     1      -3.897   6.189  12.695  1.00  0.00     0.049 A 
ATOM     66  H   UNL     1      -2.665   6.912  14.241  1.00  0.00     0.167 HD
ATOM     67  C   UNL     1      -4.127   3.820  12.870  1.00  0.00     0.074 A 
ATOM     68  C   UNL     1      -4.677   2.487  13.041  1.00  0.00     0.031 C 
ATOM     69  C   UNL     1      -4.453   5.037  13.388  1.00  0.00     0.031 A 
BRANCH  56  70
ATOM     70  C   UNL     1      -1.306  10.286  12.743  1.00  0.00    -0.014 A 
ATOM     71  C   UNL     1      -2.369  11.017  12.178  1.00  0.00     0.009 A 
ATOM     72  C   UNL     1      -0.230  11.047  13.230  1.00  0.00     0.009 A 
ATOM     73  C   UNL     1      -2.312  12.407  12.009  1.00  0.00     0.001 A 
ATOM     74  C   UNL     1      -0.146  12.433  13.028  1.00  0.00     0.001 A 
ATOM     75  C   UNL     1      -1.183  13.112  12.404  1.00  0.00     0.000 A 
ENDBRANCH  56  70
BRANCH  57  76
ATOM     76  C   UNL     1      -0.900   0.798  11.413  1.00  0.00    -0.014 A 
ATOM     77  C   UNL     1      -0.402  -0.190  10.548  1.00  0.00     0.009 A 
ATOM     78  C   UNL     1      -0.252   1.007  12.640  1.00  0.00     0.009 A 
ATOM     79  C   UNL     1       0.781  -0.871  10.852  1.00  0.00     0.001 A 
ATOM     80  C   UNL     1       0.924   0.313  12.946  1.00  0.00     0.001 A 
ATOM     81  C   UNL     1       1.459  -0.597  12.037  1.00  0.00     0.000 A 
ENDBRANCH  57  76
BRANCH  69  82
ATOM     82  C   UNL     1      -5.383   5.257  14.550  1.00  0.00    -0.014 A 
ATOM     83  C   UNL     1      -5.633   4.294  15.537  1.00  0.00     0.009 A 
ATOM     84  C   UNL     1      -5.926   6.543  14.760  1.00  0.00     0.009 A 
ATOM     85  C   UNL     1      -6.429   4.584  16.653  1.00  0.00     0.001 A 
ATOM     86  C   UNL     1      -6.680   6.849  15.894  1.00  0.00     0.001 A 
ATOM     87  C   UNL     1      -6.943   5.864  16.836  1.00  0.00     0.000 A 
ENDBRANCH  69  82
ENDBRANCH  43  44
ENDBRANCH  35  38
ENDBRANCH  33  34
ENDBRANCH  32  33
ENDBRANCH  31  32
ENDBRANCH   1  31
TORSDOF 17
