REMARK SMILES C[C@@]1(C(=O)NCCCCNC(=O)c2ccc(-c3c4nc(c(-c5ccccc5)c5ccc([nH]5)c(-c5ccccc5)c5nc(c(-c6ccccc6)c6ccc3[nH]6)C=C5)C=C4)cc2)[C@@H]2C=C[C@@]3(CN(c4ccccc4)C(=O)[C@H]13)O2
REMARK SMILES IDX 8 1 7 2 6 3 5 4 3 5 4 6 2 8 1 9 61 10 75 11 62 12 76 13
REMARK SMILES IDX 64 14 73 15 63 16 65 17 66 18 74 19 67 20 68 21 72 22 69 23
REMARK SMILES IDX 71 24 70 25 9 26 10 27 11 28 12 30 13 31 14 32 60 33 15 34
REMARK SMILES IDX 59 35 16 36 17 37 18 38 53 39 19 40 58 41 52 42 54 43 20 44
REMARK SMILES IDX 57 45 51 46 50 47 21 49 43 50 28 51 42 52 29 53 32 54 41 55
REMARK SMILES IDX 55 56 30 57 31 58 40 60 56 61 33 62 22 63 23 64 27 65 24 66
REMARK SMILES IDX 26 67 25 68 44 69 45 70 49 71 46 72 48 73 47 74 34 75 35 76
REMARK SMILES IDX 39 77 36 78 38 79 37 80
REMARK H PARENT 5 7 10 29 54 48 32 59
REMARK Flexibility Score: inf
ROOT
ATOM      1  C   UNL     1       2.197   1.237  -6.600  1.00  0.00     0.023 C 
ENDROOT
BRANCH   1   2
ATOM      2  C   UNL     1       1.460   1.801  -5.401  1.00  0.00     0.023 C 
BRANCH   2   3
ATOM      3  C   UNL     1       0.618   0.827  -4.588  1.00  0.00     0.116 C 
BRANCH   3   4
ATOM      4  N   UNL     1       1.357   0.020  -3.645  1.00  0.00    -0.356 N 
ATOM      5  C   UNL     1       1.242  -0.231  -2.318  1.00  0.00     0.229 C 
ATOM      6  O   UNL     1       1.968  -1.164  -1.938  1.00  0.00    -0.274 OA
ATOM      7  H   UNL     1       2.114  -0.454  -4.059  1.00  0.00     0.163 HD
BRANCH   5   8
ATOM      8  C   UNL     1       0.309   0.463  -1.294  1.00  0.00     0.091 C 
ATOM      9  C   UNL     1       0.918   0.168   0.112  1.00  0.00     0.026 C 
ATOM     10  C   UNL     1      -1.174  -0.026  -1.232  1.00  0.00     0.158 C 
ATOM     11  C   UNL     1       0.061   1.967  -1.373  1.00  0.00     0.135 C 
ATOM     12  C   UNL     1      -1.844   0.020  -2.564  1.00  0.00     0.004 C 
ATOM     13  O   UNL     1      -1.853   1.177  -0.623  1.00  0.00    -0.360 OA
ATOM     14  C   UNL     1      -1.445   2.079  -1.659  1.00  0.00     0.118 C 
ATOM     15  C   UNL     1       0.648   3.016  -2.250  1.00  0.00     0.234 C 
ATOM     16  C   UNL     1      -2.018   1.320  -2.830  1.00  0.00     0.009 C 
ATOM     17  C   UNL     1      -1.607   3.587  -1.713  1.00  0.00     0.166 C 
ATOM     18  N   UNL     1      -0.374   3.983  -2.417  1.00  0.00    -0.309 N 
ATOM     19  O   UNL     1       1.819   3.058  -2.580  1.00  0.00    -0.274 OA
BRANCH  18  20
ATOM     20  C   UNL     1      -0.242   5.184  -3.158  1.00  0.00     0.044 A 
ATOM     21  C   UNL     1      -1.105   6.263  -2.937  1.00  0.00     0.026 A 
ATOM     22  C   UNL     1       0.747   5.322  -4.143  1.00  0.00     0.026 A 
ATOM     23  C   UNL     1      -0.970   7.448  -3.671  1.00  0.00     0.002 A 
ATOM     24  C   UNL     1       0.860   6.490  -4.902  1.00  0.00     0.002 A 
ATOM     25  C   UNL     1       0.005   7.558  -4.660  1.00  0.00     0.000 A 
ENDBRANCH  18  20
ENDBRANCH   5   8
ENDBRANCH   3   4
ENDBRANCH   2   3
ENDBRANCH   1   2
BRANCH   1  26
ATOM     26  C   UNL     1       1.359   0.409  -7.559  1.00  0.00     0.116 C 
BRANCH  26  27
ATOM     27  N   UNL     1       0.130   1.054  -8.011  1.00  0.00    -0.352 N 
ATOM     28  C   UNL     1      -0.344   1.234  -9.292  1.00  0.00     0.251 C 
ATOM     29  H   UNL     1      -0.443   1.414  -7.296  1.00  0.00     0.163 HD
ATOM     30  O   UNL     1      -1.398   1.828  -9.493  1.00  0.00    -0.269 OA
BRANCH  28  31
ATOM     31  C   UNL     1       0.469   0.758 -10.427  1.00  0.00     0.039 A 
ATOM     32  C   UNL     1       0.801   1.657 -11.443  1.00  0.00     0.014 A 
ATOM     33  C   UNL     1       1.009  -0.528 -10.413  1.00  0.00     0.014 A 
ATOM     34  C   UNL     1       1.782   1.308 -12.372  1.00  0.00     0.010 A 
ATOM     35  C   UNL     1       2.061  -0.829 -11.267  1.00  0.00     0.010 A 
ATOM     36  C   UNL     1       2.471   0.092 -12.244  1.00  0.00    -0.014 A 
BRANCH  36  37
ATOM     37  C   UNL     1       3.643  -0.239 -13.094  1.00  0.00     0.031 A 
ATOM     38  C   UNL     1       3.628  -1.484 -13.936  1.00  0.00     0.074 A 
ATOM     39  C   UNL     1       4.764   0.508 -13.016  1.00  0.00     0.049 A 
ATOM     40  N   UNL     1       4.600  -2.028 -14.623  1.00  0.00    -0.248 NA
ATOM     41  C   UNL     1       2.368  -2.245 -13.970  1.00  0.00     0.031 C 
ATOM     42  C   UNL     1       4.942   1.699 -12.181  1.00  0.00     0.029 A 
ATOM     43  N   UNL     1       5.977   0.362 -13.642  1.00  0.00    -0.354 N 
ATOM     44  C   UNL     1       4.084  -3.217 -15.122  1.00  0.00     0.074 A 
ATOM     45  C   UNL     1       2.729  -3.334 -14.631  1.00  0.00     0.031 C 
ATOM     46  C   UNL     1       6.179   2.189 -12.369  1.00  0.00     0.029 A 
ATOM     47  C   UNL     1       6.893   1.329 -13.304  1.00  0.00     0.049 A 
ATOM     48  H   UNL     1       6.173  -0.368 -14.273  1.00  0.00     0.167 HD
ATOM     49  C   UNL     1       4.677  -4.123 -15.934  1.00  0.00     0.031 A 
ATOM     50  C   UNL     1       8.168   1.500 -13.699  1.00  0.00     0.031 A 
ATOM     51  C   UNL     1       5.998  -3.978 -16.478  1.00  0.00     0.049 A 
ATOM     52  C   UNL     1       8.778   0.522 -14.662  1.00  0.00     0.074 A 
ATOM     53  C   UNL     1       6.647  -4.787 -17.393  1.00  0.00     0.029 A 
ATOM     54  N   UNL     1       6.866  -2.944 -16.166  1.00  0.00    -0.354 N 
ATOM     55  N   UNL     1       8.250  -0.557 -15.185  1.00  0.00    -0.248 NA
ATOM     56  C   UNL     1      10.157   0.792 -15.095  1.00  0.00     0.031 C 
ATOM     57  C   UNL     1       7.922  -4.256 -17.617  1.00  0.00     0.029 A 
ATOM     58  C   UNL     1       8.051  -3.100 -16.864  1.00  0.00     0.049 A 
ATOM     59  H   UNL     1       6.670  -2.209 -15.541  1.00  0.00     0.167 HD
ATOM     60  C   UNL     1       9.223  -1.085 -16.023  1.00  0.00     0.074 A 
ATOM     61  C   UNL     1      10.367  -0.200 -15.950  1.00  0.00     0.031 C 
ATOM     62  C   UNL     1       9.173  -2.204 -16.783  1.00  0.00     0.031 A 
BRANCH  49  63
ATOM     63  C   UNL     1       3.889  -5.351 -16.285  1.00  0.00    -0.014 A 
ATOM     64  C   UNL     1       2.797  -5.286 -17.166  1.00  0.00     0.009 A 
ATOM     65  C   UNL     1       4.253  -6.591 -15.741  1.00  0.00     0.009 A 
ATOM     66  C   UNL     1       2.061  -6.434 -17.463  1.00  0.00     0.001 A 
ATOM     67  C   UNL     1       3.530  -7.742 -16.060  1.00  0.00     0.001 A 
ATOM     68  C   UNL     1       2.430  -7.661 -16.913  1.00  0.00     0.000 A 
ENDBRANCH  49  63
BRANCH  50  69
ATOM     69  C   UNL     1       8.953   2.660 -13.205  1.00  0.00    -0.014 A 
ATOM     70  C   UNL     1       9.208   3.752 -14.050  1.00  0.00     0.009 A 
ATOM     71  C   UNL     1       9.458   2.680 -11.897  1.00  0.00     0.009 A 
ATOM     72  C   UNL     1       9.975   4.829 -13.602  1.00  0.00     0.001 A 
ATOM     73  C   UNL     1      10.206   3.770 -11.444  1.00  0.00     0.001 A 
ATOM     74  C   UNL     1      10.471   4.839 -12.300  1.00  0.00     0.000 A 
ENDBRANCH  50  69
BRANCH  62  75
ATOM     75  C   UNL     1      10.378  -2.518 -17.619  1.00  0.00    -0.014 A 
ATOM     76  C   UNL     1      11.533  -3.067 -17.042  1.00  0.00     0.009 A 
ATOM     77  C   UNL     1      10.337  -2.308 -19.005  1.00  0.00     0.009 A 
ATOM     78  C   UNL     1      12.635  -3.379 -17.839  1.00  0.00     0.001 A 
ATOM     79  C   UNL     1      11.433  -2.640 -19.802  1.00  0.00     0.001 A 
ATOM     80  C   UNL     1      12.583  -3.170 -19.217  1.00  0.00     0.000 A 
ENDBRANCH  62  75
ENDBRANCH  36  37
ENDBRANCH  28  31
ENDBRANCH  26  27
ENDBRANCH   1  26
TORSDOF 12
