REMARK SMILES C[C@H]1CCCCN1c1nc2nc(CC(=O)NCCCCNC(=O)c3ccc(-c4c5nc(c(-c6ccccc6)c6ccc([nH]6)c(-c6ccccc6)c6nc(c(-c7ccccc7)c7ccc4[nH]7)C=C6)C=C5)cc3)cc(O)n2n1
REMARK SMILES IDX 18 1 17 2 16 3 14 4 15 5 13 7 12 8 8 9 9 10 76 11 10 12
REMARK SMILES IDX 75 13 11 14 73 15 72 16 7 17 1 18 2 19 3 20 4 21 6 22 5 23
REMARK SMILES IDX 74 24 19 26 20 27 21 28 22 29 23 31 24 32 25 33 71 34 26 35
REMARK SMILES IDX 70 36 27 37 28 38 29 39 64 40 30 41 69 42 63 43 65 44 31 45
REMARK SMILES IDX 68 46 62 47 61 48 32 50 54 51 39 52 53 53 40 54 43 55 52 56
REMARK SMILES IDX 66 57 41 58 42 59 51 61 67 62 44 63 33 64 34 65 38 66 35 67
REMARK SMILES IDX 37 68 36 69 55 70 56 71 60 72 57 73 59 74 58 75 45 76 46 77
REMARK SMILES IDX 50 78 47 79 49 80 48 81
REMARK H PARENT 16 6 74 25 21 30 65 49 43 60
REMARK Flexibility Score: inf
ROOT
ATOM      1  C   UNL     1       0.879  -7.499  -1.669  1.00  0.00     0.023 C 
ENDROOT
BRANCH   1   2
ATOM      2  C   UNL     1       1.548  -8.128  -2.895  1.00  0.00     0.116 C 
BRANCH   2   3
ATOM      3  N   UNL     1       0.817  -7.879  -4.122  1.00  0.00    -0.356 N 
ATOM      4  C   UNL     1       1.040  -6.965  -5.110  1.00  0.00     0.226 C 
ATOM      5  O   UNL     1       0.303  -6.991  -6.097  1.00  0.00    -0.275 OA
ATOM      6  H   UNL     1       0.036  -8.462  -4.264  1.00  0.00     0.163 HD
BRANCH   4   7
ATOM      7  C   UNL     1       2.230  -6.037  -5.045  1.00  0.00     0.156 C 
BRANCH   7   8
ATOM      8  C   UNL     1       2.256  -5.118  -3.846  1.00  0.00     0.059 A 
ATOM      9  C   UNL     1       0.983  -2.180  -0.943  1.00  0.00     0.247 A 
ATOM     10  N   UNL     1       0.397  -2.702  -2.060  1.00  0.00    -0.173 NA
ATOM     11  N   UNL     1       2.151  -2.728  -0.620  1.00  0.00    -0.123 NA
ATOM     12  C   UNL     1       1.287  -3.552  -2.517  1.00  0.00     0.257 A 
ATOM     13  N   UNL     1       2.361  -3.598  -1.627  1.00  0.00    -0.161 N 
ATOM     14  N   UNL     1       1.244  -4.330  -3.639  1.00  0.00    -0.215 NA
ATOM     15  C   UNL     1       3.449  -4.457  -1.851  1.00  0.00     0.217 A 
ATOM     16  C   UNL     1       3.468  -5.207  -2.962  1.00  0.00     0.092 A 
BRANCH   9  17
ATOM     17  N   UNL     1       0.360  -1.175  -0.298  1.00  0.00    -0.337 N 
ATOM     18  C   UNL     1       2.522   0.136  -0.074  1.00  0.00     0.031 C 
ATOM     19  C   UNL     1       1.046  -0.023   0.301  1.00  0.00     0.082 C 
ATOM     20  C   UNL     1       0.299   1.252  -0.146  1.00  0.00     0.025 C 
ATOM     21  C   UNL     1      -1.187   1.188   0.199  1.00  0.00     0.004 C 
ATOM     22  C   UNL     1      -1.057  -1.322   0.026  1.00  0.00     0.120 C 
ATOM     23  C   UNL     1      -1.827  -0.070  -0.380  1.00  0.00     0.022 C 
ENDBRANCH   9  17
BRANCH  15  24
ATOM     24  O   UNL     1       4.471  -4.508  -0.916  1.00  0.00    -0.493 OA
ATOM     25  H   UNL     1       5.203  -5.077  -1.053  1.00  0.00     0.295 HD
ENDBRANCH  15  24
ENDBRANCH   7   8
ENDBRANCH   4   7
ENDBRANCH   2   3
ENDBRANCH   1   2
BRANCH   1  26
ATOM     26  C   UNL     1      -0.484  -8.087  -1.279  1.00  0.00     0.023 C 
BRANCH  26  27
ATOM     27  C   UNL     1      -0.453  -9.565  -0.918  1.00  0.00     0.116 C 
BRANCH  27  28
ATOM     28  N   UNL     1       0.385  -9.842   0.244  1.00  0.00    -0.352 N 
ATOM     29  C   UNL     1       0.670 -11.066   0.814  1.00  0.00     0.251 C 
ATOM     30  H   UNL     1       0.797  -9.058   0.675  1.00  0.00     0.163 HD
ATOM     31  O   UNL     1       1.049 -11.143   1.974  1.00  0.00    -0.269 OA
BRANCH  29  32
ATOM     32  C   UNL     1       0.530 -12.286  -0.000  1.00  0.00     0.039 A 
ATOM     33  C   UNL     1       0.030 -13.464   0.562  1.00  0.00     0.014 A 
ATOM     34  C   UNL     1       0.938 -12.253  -1.334  1.00  0.00     0.014 A 
ATOM     35  C   UNL     1      -0.107 -14.589  -0.245  1.00  0.00     0.010 A 
ATOM     36  C   UNL     1       0.694 -13.323  -2.160  1.00  0.00     0.010 A 
ATOM     37  C   UNL     1       0.220 -14.506  -1.608  1.00  0.00    -0.014 A 
BRANCH  37  38
ATOM     38  C   UNL     1      -0.002 -15.642  -2.488  1.00  0.00     0.031 A 
ATOM     39  C   UNL     1      -1.403 -16.126  -2.552  1.00  0.00     0.074 A 
ATOM     40  C   UNL     1       0.942 -16.143  -3.310  1.00  0.00     0.049 A 
ATOM     41  N   UNL     1      -1.863 -17.222  -2.052  1.00  0.00    -0.248 NA
ATOM     42  C   UNL     1      -2.431 -15.254  -3.138  1.00  0.00     0.031 C 
ATOM     43  C   UNL     1       2.284 -15.629  -3.603  1.00  0.00     0.029 A 
ATOM     44  N   UNL     1       0.841 -17.212  -4.142  1.00  0.00    -0.354 N 
ATOM     45  C   UNL     1      -3.208 -17.274  -2.398  1.00  0.00     0.074 A 
ATOM     46  C   UNL     1      -3.535 -15.980  -2.945  1.00  0.00     0.031 C 
ATOM     47  C   UNL     1       2.777 -16.255  -4.698  1.00  0.00     0.029 A 
ATOM     48  C   UNL     1       1.868 -17.324  -5.069  1.00  0.00     0.049 A 
ATOM     49  H   UNL     1       0.099 -17.858  -4.091  1.00  0.00     0.167 HD
ATOM     50  C   UNL     1      -3.895 -18.449  -2.395  1.00  0.00     0.031 A 
ATOM     51  C   UNL     1       1.940 -18.228  -6.076  1.00  0.00     0.031 A 
ATOM     52  C   UNL     1      -3.165 -19.495  -1.729  1.00  0.00     0.049 A 
ATOM     53  C   UNL     1       1.080 -19.370  -5.687  1.00  0.00     0.074 A 
ATOM     54  C   UNL     1      -2.690 -19.684  -0.447  1.00  0.00     0.029 A 
ATOM     55  N   UNL     1      -2.466 -20.371  -2.527  1.00  0.00    -0.354 N 
ATOM     56  N   UNL     1       1.344 -20.150  -4.677  1.00  0.00    -0.248 NA
ATOM     57  C   UNL     1      -0.302 -19.377  -6.141  1.00  0.00     0.031 C 
ATOM     58  C   UNL     1      -1.411 -20.288  -0.620  1.00  0.00     0.029 A 
ATOM     59  C   UNL     1      -1.213 -20.494  -1.988  1.00  0.00     0.049 A 
ATOM     60  H   UNL     1      -2.803 -20.825  -3.333  1.00  0.00     0.167 HD
ATOM     61  C   UNL     1       0.110 -20.404  -4.098  1.00  0.00     0.074 A 
ATOM     62  C   UNL     1      -0.873 -19.986  -5.097  1.00  0.00     0.031 C 
ATOM     63  C   UNL     1      -0.004 -20.663  -2.763  1.00  0.00     0.031 A 
BRANCH  50  64
ATOM     64  C   UNL     1      -5.041 -18.759  -3.316  1.00  0.00    -0.014 A 
ATOM     65  C   UNL     1      -5.761 -19.952  -3.125  1.00  0.00     0.009 A 
ATOM     66  C   UNL     1      -5.252 -18.071  -4.524  1.00  0.00     0.009 A 
ATOM     67  C   UNL     1      -6.603 -20.459  -4.121  1.00  0.00     0.001 A 
ATOM     68  C   UNL     1      -6.121 -18.555  -5.505  1.00  0.00     0.001 A 
ATOM     69  C   UNL     1      -6.777 -19.763  -5.313  1.00  0.00     0.000 A 
ENDBRANCH  50  64
BRANCH  51  70
ATOM     70  C   UNL     1       2.442 -18.048  -7.457  1.00  0.00    -0.014 A 
ATOM     71  C   UNL     1       2.593 -19.157  -8.306  1.00  0.00     0.009 A 
ATOM     72  C   UNL     1       2.486 -16.769  -8.041  1.00  0.00     0.009 A 
ATOM     73  C   UNL     1       2.715 -18.994  -9.693  1.00  0.00     0.001 A 
ATOM     74  C   UNL     1       2.614 -16.606  -9.426  1.00  0.00     0.001 A 
ATOM     75  C   UNL     1       2.707 -17.720 -10.254  1.00  0.00     0.000 A 
ENDBRANCH  51  70
BRANCH  63  76
ATOM     76  C   UNL     1       1.257 -20.875  -1.964  1.00  0.00    -0.014 A 
ATOM     77  C   UNL     1       2.181 -19.844  -1.716  1.00  0.00     0.009 A 
ATOM     78  C   UNL     1       1.392 -22.078  -1.256  1.00  0.00     0.009 A 
ATOM     79  C   UNL     1       3.205 -20.014  -0.778  1.00  0.00     0.001 A 
ATOM     80  C   UNL     1       2.404 -22.241  -0.309  1.00  0.00     0.001 A 
ATOM     81  C   UNL     1       3.307 -21.208  -0.066  1.00  0.00     0.000 A 
ENDBRANCH  63  76
ENDBRANCH  37  38
ENDBRANCH  29  32
ENDBRANCH  27  28
ENDBRANCH  26  27
ENDBRANCH   1  26
TORSDOF 14
