REMARK SMILES C[C@H](C(=O)NCCCCNC(=O)c1ccc(-c2c3nc(c(-c4ccccc4)c4ccc([nH]4)c(-c4ccccc4)c4nc(c(-c5ccccc5)c5ccc2[nH]5)C=C4)C=C3)cc1)c1ccc(C[C@H]2CCC[C@@H]2O)cc1
REMARK SMILES IDX 6 1 5 2 3 3 4 4 2 6 1 7 61 8 62 9 73 10 63 11 72 12 64 13
REMARK SMILES IDX 65 14 66 15 67 16 70 17 68 18 69 19 71 20 7 22 8 23 9 24
REMARK SMILES IDX 10 25 11 26 12 28 13 29 14 30 60 31 15 32 59 33 16 34 17 35
REMARK SMILES IDX 18 36 53 37 19 38 58 39 52 40 54 41 20 42 57 43 51 44 50 45
REMARK SMILES IDX 21 47 43 48 28 49 42 50 29 51 32 52 41 53 55 54 30 55 31 56
REMARK SMILES IDX 40 58 56 59 33 60 22 61 23 62 27 63 24 64 26 65 25 66 44 67
REMARK SMILES IDX 45 68 49 69 46 70 48 71 47 72 34 73 35 74 39 75 36 76 38 77
REMARK SMILES IDX 37 78
REMARK H PARENT 5 5 71 21 10 27 54 46 32 57
REMARK Flexibility Score: inf
ROOT
ATOM      1  C   UNL     1      -1.305  -0.758  -1.088  1.00  0.00     0.116 C 
ENDROOT
BRANCH   1   2
ATOM      2  N   UNL     1       0.131  -0.795  -0.879  1.00  0.00    -0.356 N 
ATOM      3  C   UNL     1       0.929  -0.016  -0.091  1.00  0.00     0.227 C 
ATOM      4  O   UNL     1       2.086  -0.429   0.070  1.00  0.00    -0.274 OA
ATOM      5  H   UNL     1       0.605  -1.493  -1.386  1.00  0.00     0.163 HD
BRANCH   3   6
ATOM      6  C   UNL     1       0.530   1.352   0.504  1.00  0.00     0.105 C 
ATOM      7  C   UNL     1       1.184   2.433  -0.366  1.00  0.00     0.023 C 
BRANCH   6   8
ATOM      8  C   UNL     1      -0.945   1.564   0.800  1.00  0.00    -0.036 A 
ATOM      9  C   UNL     1      -1.729   2.515   0.128  1.00  0.00     0.005 A 
ATOM     10  C   UNL     1      -1.580   0.711   1.715  1.00  0.00     0.005 A 
ATOM     11  C   UNL     1      -3.119   2.514   0.259  1.00  0.00     0.004 A 
ATOM     12  C   UNL     1      -2.972   0.690   1.820  1.00  0.00     0.004 A 
ATOM     13  C   UNL     1      -3.759   1.571   1.070  1.00  0.00    -0.048 A 
BRANCH  13  14
ATOM     14  C   UNL     1      -5.268   1.480   1.081  1.00  0.00     0.041 C 
BRANCH  14  15
ATOM     15  C   UNL     1      -5.998   2.145   2.254  1.00  0.00     0.022 C 
ATOM     16  C   UNL     1      -5.748   1.511   3.634  1.00  0.00     0.007 C 
ATOM     17  C   UNL     1      -5.690   3.640   2.422  1.00  0.00     0.117 C 
ATOM     18  C   UNL     1      -5.238   2.640   4.522  1.00  0.00     0.003 C 
ATOM     19  C   UNL     1      -5.863   3.883   3.914  1.00  0.00     0.032 C 
BRANCH  17  20
ATOM     20  O   UNL     1      -6.586   4.425   1.655  1.00  0.00    -0.393 OA
ATOM     21  H   UNL     1      -7.497   4.226   1.920  1.00  0.00     0.210 HD
ENDBRANCH  17  20
ENDBRANCH  14  15
ENDBRANCH  13  14
ENDBRANCH   6   8
ENDBRANCH   3   6
ENDBRANCH   1   2
BRANCH   1  22
ATOM     22  C   UNL     1      -1.820  -1.605  -2.248  1.00  0.00     0.023 C 
BRANCH  22  23
ATOM     23  C   UNL     1      -1.462  -3.089  -2.216  1.00  0.00     0.023 C 
BRANCH  23  24
ATOM     24  C   UNL     1      -1.751  -3.819  -0.908  1.00  0.00     0.116 C 
BRANCH  24  25
ATOM     25  N   UNL     1      -3.172  -3.957  -0.615  1.00  0.00    -0.352 N 
ATOM     26  C   UNL     1      -3.980  -5.072  -0.645  1.00  0.00     0.251 C 
ATOM     27  H   UNL     1      -3.626  -3.123  -0.356  1.00  0.00     0.163 HD
ATOM     28  O   UNL     1      -5.189  -4.968  -0.457  1.00  0.00    -0.269 OA
BRANCH  26  29
ATOM     29  C   UNL     1      -3.400  -6.397  -0.951  1.00  0.00     0.039 A 
ATOM     30  C   UNL     1      -3.983  -7.182  -1.951  1.00  0.00     0.014 A 
ATOM     31  C   UNL     1      -2.258  -6.845  -0.287  1.00  0.00     0.014 A 
ATOM     32  C   UNL     1      -3.348  -8.354  -2.371  1.00  0.00     0.010 A 
ATOM     33  C   UNL     1      -1.582  -7.962  -0.764  1.00  0.00     0.010 A 
ATOM     34  C   UNL     1      -2.107  -8.717  -1.825  1.00  0.00    -0.014 A 
BRANCH  34  35
ATOM     35  C   UNL     1      -1.307  -9.852  -2.355  1.00  0.00     0.031 A 
ATOM     36  C   UNL     1      -0.929 -10.989  -1.449  1.00  0.00     0.074 A 
ATOM     37  C   UNL     1      -0.797  -9.790  -3.601  1.00  0.00     0.049 A 
ATOM     38  N   UNL     1      -0.068 -11.955  -1.648  1.00  0.00    -0.248 NA
ATOM     39  C   UNL     1      -1.576 -11.018  -0.129  1.00  0.00     0.031 C 
ATOM     40  C   UNL     1      -1.045  -8.723  -4.572  1.00  0.00     0.029 A 
ATOM     41  N   UNL     1       0.069 -10.635  -4.252  1.00  0.00    -0.354 N 
ATOM     42  C   UNL     1      -0.034 -12.675  -0.460  1.00  0.00     0.074 A 
ATOM     43  C   UNL     1      -0.936 -12.017   0.460  1.00  0.00     0.031 C 
ATOM     44  C   UNL     1      -0.353  -8.979  -5.694  1.00  0.00     0.029 A 
ATOM     45  C   UNL     1       0.424 -10.199  -5.505  1.00  0.00     0.049 A 
ATOM     46  H   UNL     1       0.403 -11.473  -3.858  1.00  0.00     0.167 HD
ATOM     47  C   UNL     1       0.680 -13.787  -0.163  1.00  0.00     0.031 A 
ATOM     48  C   UNL     1       1.297 -10.706  -6.397  1.00  0.00     0.031 A 
ATOM     49  C   UNL     1       1.554 -14.460  -1.086  1.00  0.00     0.049 A 
ATOM     50  C   UNL     1       2.059 -11.955  -6.059  1.00  0.00     0.074 A 
ATOM     51  C   UNL     1       2.260 -15.636  -0.904  1.00  0.00     0.029 A 
ATOM     52  N   UNL     1       1.839 -14.014  -2.367  1.00  0.00    -0.354 N 
ATOM     53  N   UNL     1       2.041 -12.656  -4.952  1.00  0.00    -0.248 NA
ATOM     54  C   UNL     1       2.956 -12.486  -7.096  1.00  0.00     0.031 C 
ATOM     55  C   UNL     1       3.003 -15.883  -2.063  1.00  0.00     0.029 A 
ATOM     56  C   UNL     1       2.723 -14.884  -2.983  1.00  0.00     0.049 A 
ATOM     57  H   UNL     1       1.468 -13.201  -2.779  1.00  0.00     0.167 HD
ATOM     58  C   UNL     1       2.902 -13.724  -5.166  1.00  0.00     0.074 A 
ATOM     59  C   UNL     1       3.421 -13.582  -6.511  1.00  0.00     0.031 C 
ATOM     60  C   UNL     1       3.228 -14.734  -4.323  1.00  0.00     0.031 A 
BRANCH  47  61
ATOM     61  C   UNL     1       0.553 -14.328   1.233  1.00  0.00    -0.014 A 
ATOM     62  C   UNL     1      -0.634 -14.930   1.680  1.00  0.00     0.009 A 
ATOM     63  C   UNL     1       1.639 -14.231   2.117  1.00  0.00     0.009 A 
ATOM     64  C   UNL     1      -0.749 -15.375   2.998  1.00  0.00     0.001 A 
ATOM     65  C   UNL     1       1.532 -14.705   3.426  1.00  0.00     0.001 A 
ATOM     66  C   UNL     1       0.334 -15.264   3.869  1.00  0.00     0.000 A 
ENDBRANCH  47  61
BRANCH  48  67
ATOM     67  C   UNL     1       1.488 -10.027  -7.704  1.00  0.00    -0.014 A 
ATOM     68  C   UNL     1       0.931 -10.570  -8.871  1.00  0.00     0.009 A 
ATOM     69  C   UNL     1       2.198  -8.819  -7.787  1.00  0.00     0.009 A 
ATOM     70  C   UNL     1       1.093  -9.924 -10.099  1.00  0.00     0.001 A 
ATOM     71  C   UNL     1       2.338  -8.164  -9.012  1.00  0.00     0.001 A 
ATOM     72  C   UNL     1       1.791  -8.719 -10.167  1.00  0.00     0.000 A 
ENDBRANCH  48  67
BRANCH  60  73
ATOM     73  C   UNL     1       4.158 -15.793  -4.840  1.00  0.00    -0.014 A 
ATOM     74  C   UNL     1       5.535 -15.556  -4.962  1.00  0.00     0.009 A 
ATOM     75  C   UNL     1       3.654 -17.066  -5.148  1.00  0.00     0.009 A 
ATOM     76  C   UNL     1       6.387 -16.572  -5.402  1.00  0.00     0.001 A 
ATOM     77  C   UNL     1       4.511 -18.085  -5.565  1.00  0.00     0.001 A 
ATOM     78  C   UNL     1       5.876 -17.835  -5.697  1.00  0.00     0.000 A 
ENDBRANCH  60  73
ENDBRANCH  34  35
ENDBRANCH  26  29
ENDBRANCH  24  25
ENDBRANCH  23  24
ENDBRANCH  22  23
ENDBRANCH   1  22
TORSDOF 15
