REMARK SMILES O=C(NCCCCNC(=O)[C@H]1CCC[N@@H+](C2CC[NH+](Cc3ccccc3)CC2)C1)c1ccc(-c2c3nc(c(-c4ccccc4)c4ccc([nH]4)c(-c4ccccc4)c4nc(c(-c5ccccc5)c5ccc2[nH]5)C=C4)C=C3)cc1
REMARK SMILES IDX 6 1 5 2 4 3 3 4 1 5 2 6 30 8 31 9 77 10 32 11 76 12 33 13
REMARK SMILES IDX 34 14 35 15 70 16 36 17 75 18 69 19 71 20 37 21 74 22 68 23
REMARK SMILES IDX 67 24 38 26 60 27 45 28 59 29 46 30 49 31 58 32 72 33 47 34
REMARK SMILES IDX 48 35 57 37 73 38 50 39 39 40 40 41 44 42 41 43 43 44 42 45
REMARK SMILES IDX 61 46 62 47 66 48 63 49 65 50 64 51 51 52 52 53 56 54 53 55
REMARK SMILES IDX 55 56 54 57 7 58 8 59 9 60 10 62 11 63 12 64 29 65 13 66
REMARK SMILES IDX 15 67 14 68 16 70 17 71 28 72 18 73 27 74 19 75 20 77 21 78
REMARK SMILES IDX 22 79 26 80 23 81 25 82 24 83
REMARK H PARENT 3 7 71 25 49 36 8 61 15 69 19 76
REMARK Flexibility Score: inf
ROOT
ATOM      1  C   UNL     1       7.020  -5.737   8.499  1.00  0.00     0.023 C 
ENDROOT
BRANCH   1   2
ATOM      2  C   UNL     1       6.949  -5.136   9.900  1.00  0.00     0.023 C 
BRANCH   2   3
ATOM      3  C   UNL     1       5.812  -5.655  10.767  1.00  0.00     0.116 C 
BRANCH   3   4
ATOM      4  N   UNL     1       5.830  -7.100  10.926  1.00  0.00    -0.352 N 
ATOM      5  O   UNL     1       5.762  -9.052  12.058  1.00  0.00    -0.269 OA
ATOM      6  C   UNL     1       5.596  -7.841  12.060  1.00  0.00     0.251 C 
ATOM      7  H   UNL     1       6.037  -7.617  10.114  1.00  0.00     0.163 HD
BRANCH   6   8
ATOM      8  C   UNL     1       5.174  -7.146  13.292  1.00  0.00     0.039 A 
ATOM      9  C   UNL     1       4.133  -6.213  13.262  1.00  0.00     0.014 A 
ATOM     10  C   UNL     1       5.851  -7.421  14.482  1.00  0.00     0.014 A 
ATOM     11  C   UNL     1       3.846  -5.466  14.399  1.00  0.00     0.010 A 
ATOM     12  C   UNL     1       5.516  -6.717  15.638  1.00  0.00     0.010 A 
ATOM     13  C   UNL     1       4.530  -5.718  15.597  1.00  0.00    -0.014 A 
BRANCH  13  14
ATOM     14  C   UNL     1       4.174  -4.976  16.826  1.00  0.00     0.031 A 
ATOM     15  C   UNL     1       5.151  -4.035  17.464  1.00  0.00     0.074 A 
ATOM     16  C   UNL     1       2.969  -5.191  17.386  1.00  0.00     0.049 A 
ATOM     17  N   UNL     1       5.047  -3.381  18.593  1.00  0.00    -0.248 NA
ATOM     18  C   UNL     1       6.415  -3.804  16.747  1.00  0.00     0.031 C 
ATOM     19  C   UNL     1       1.937  -6.081  16.849  1.00  0.00     0.029 A 
ATOM     20  N   UNL     1       2.417  -4.690  18.535  1.00  0.00    -0.354 N 
ATOM     21  C   UNL     1       6.240  -2.686  18.739  1.00  0.00     0.074 A 
ATOM     22  C   UNL     1       7.059  -3.007  17.589  1.00  0.00     0.031 C 
ATOM     23  C   UNL     1       0.875  -6.060  17.666  1.00  0.00     0.029 A 
ATOM     24  C   UNL     1       1.175  -5.206  18.809  1.00  0.00     0.049 A 
ATOM     25  H   UNL     1       2.865  -4.025  19.106  1.00  0.00     0.167 HD
ATOM     26  C   UNL     1       6.616  -1.859  19.744  1.00  0.00     0.031 A 
ATOM     27  C   UNL     1       0.380  -5.044  19.881  1.00  0.00     0.031 A 
ATOM     28  C   UNL     1       5.796  -1.550  20.885  1.00  0.00     0.049 A 
ATOM     29  C   UNL     1       0.833  -4.157  21.000  1.00  0.00     0.074 A 
ATOM     30  C   UNL     1       6.069  -0.692  21.937  1.00  0.00     0.029 A 
ATOM     31  N   UNL     1       4.545  -2.096  21.128  1.00  0.00    -0.354 N 
ATOM     32  N   UNL     1       1.950  -3.480  21.110  1.00  0.00    -0.248 NA
ATOM     33  C   UNL     1      -0.081  -4.010  22.140  1.00  0.00     0.031 C 
ATOM     34  C   UNL     1       5.004  -0.759  22.842  1.00  0.00     0.029 A 
ATOM     35  C   UNL     1       4.045  -1.617  22.327  1.00  0.00     0.049 A 
ATOM     36  H   UNL     1       4.081  -2.731  20.536  1.00  0.00     0.167 HD
ATOM     37  C   UNL     1       1.867  -2.809  22.322  1.00  0.00     0.074 A 
ATOM     38  C   UNL     1       0.586  -3.156  22.906  1.00  0.00     0.031 C 
ATOM     39  C   UNL     1       2.770  -1.976  22.894  1.00  0.00     0.031 A 
BRANCH  26  40
ATOM     40  C   UNL     1       7.996  -1.268  19.671  1.00  0.00    -0.014 A 
ATOM     41  C   UNL     1       8.319  -0.269  18.739  1.00  0.00     0.009 A 
ATOM     42  C   UNL     1       8.986  -1.706  20.565  1.00  0.00     0.009 A 
ATOM     43  C   UNL     1       9.615   0.249  18.679  1.00  0.00     0.001 A 
ATOM     44  C   UNL     1      10.273  -1.169  20.520  1.00  0.00     0.001 A 
ATOM     45  C   UNL     1      10.590  -0.199  19.570  1.00  0.00     0.000 A 
ENDBRANCH  26  40
BRANCH  27  46
ATOM     46  C   UNL     1      -0.912  -5.771  19.935  1.00  0.00    -0.014 A 
ATOM     47  C   UNL     1      -2.122  -5.094  19.727  1.00  0.00     0.009 A 
ATOM     48  C   UNL     1      -0.932  -7.163  20.124  1.00  0.00     0.009 A 
ATOM     49  C   UNL     1      -3.328  -5.798  19.710  1.00  0.00     0.001 A 
ATOM     50  C   UNL     1      -2.137  -7.866  20.082  1.00  0.00     0.001 A 
ATOM     51  C   UNL     1      -3.334  -7.183  19.878  1.00  0.00     0.000 A 
ENDBRANCH  27  46
BRANCH  39  52
ATOM     52  C   UNL     1       2.392  -1.354  24.207  1.00  0.00    -0.014 A 
ATOM     53  C   UNL     1       2.437  -2.090  25.400  1.00  0.00     0.009 A 
ATOM     54  C   UNL     1       2.047   0.005  24.254  1.00  0.00     0.009 A 
ATOM     55  C   UNL     1       2.125  -1.478  26.615  1.00  0.00     0.001 A 
ATOM     56  C   UNL     1       1.757   0.619  25.472  1.00  0.00     0.001 A 
ATOM     57  C   UNL     1       1.792  -0.124  26.651  1.00  0.00     0.000 A 
ENDBRANCH  39  52
ENDBRANCH  13  14
ENDBRANCH   6   8
ENDBRANCH   3   4
ENDBRANCH   2   3
ENDBRANCH   1   2
BRANCH   1  58
ATOM     58  C   UNL     1       5.779  -5.502   7.634  1.00  0.00     0.116 C 
BRANCH  58  59
ATOM     59  N   UNL     1       5.693  -4.128   7.180  1.00  0.00    -0.356 N 
ATOM     60  C   UNL     1       6.083  -3.538   6.017  1.00  0.00     0.228 C 
ATOM     61  H   UNL     1       5.278  -3.513   7.827  1.00  0.00     0.163 HD
ATOM     62  O   UNL     1       5.918  -2.317   5.933  1.00  0.00    -0.275 OA
BRANCH  60  63
ATOM     63  C   UNL     1       6.654  -4.318   4.836  1.00  0.00     0.133 C 
ATOM     64  C   UNL     1       7.896  -5.139   5.175  1.00  0.00     0.025 C 
ATOM     65  C   UNL     1       5.554  -5.136   4.141  1.00  0.00     0.275 C 
ATOM     66  C   UNL     1       8.341  -5.968   3.987  1.00  0.00     0.062 C 
ATOM     67  N   UNL     1       6.061  -5.957   3.027  1.00  0.00    -0.331 N 
ATOM     68  C   UNL     1       7.184  -6.799   3.432  1.00  0.00     0.262 C 
ATOM     69  H   UNL     1       6.485  -5.336   2.339  1.00  0.00     0.348 HD
BRANCH  67  70
ATOM     70  C   UNL     1       4.983  -6.579   2.213  1.00  0.00     0.195 C 
ATOM     71  C   UNL     1       3.810  -7.254   2.944  1.00  0.00     0.126 C 
ATOM     72  C   UNL     1       5.434  -7.563   1.117  1.00  0.00     0.126 C 
ATOM     73  C   UNL     1       4.207  -8.594   3.545  1.00  0.00     0.268 C 
ATOM     74  C   UNL     1       5.712  -8.988   1.617  1.00  0.00     0.268 C 
ATOM     75  N   UNL     1       4.730  -9.536   2.557  1.00  0.00    -0.331 N 
ATOM     76  H   UNL     1       3.921  -9.743   1.971  1.00  0.00     0.348 HD
BRANCH  75  77
ATOM     77  C   UNL     1       5.177 -10.810   3.164  1.00  0.00     0.299 C 
BRANCH  77  78
ATOM     78  C   UNL     1       6.399 -10.742   4.070  1.00  0.00     0.006 A 
ATOM     79  C   UNL     1       7.676 -11.047   3.574  1.00  0.00     0.009 A 
ATOM     80  C   UNL     1       6.284 -10.354   5.415  1.00  0.00     0.009 A 
ATOM     81  C   UNL     1       8.807 -10.928   4.386  1.00  0.00     0.001 A 
ATOM     82  C   UNL     1       7.416 -10.219   6.223  1.00  0.00     0.001 A 
ATOM     83  C   UNL     1       8.678 -10.502   5.707  1.00  0.00     0.000 A 
ENDBRANCH  77  78
ENDBRANCH  75  77
ENDBRANCH  67  70
ENDBRANCH  60  63
ENDBRANCH  58  59
ENDBRANCH   1  58
TORSDOF 14
