REMARK SMILES CC[C@H]1CC[C@](O)([C@H](F)C(=O)NCCCCNC(=O)c2ccc(-c3c4nc(c(-c5ccccc5)c5ccc([nH]5)c(-c5ccccc5)c5nc(c(-c6ccccc6)c6ccc3[nH]6)C=C5)C=C4)cc2)CC1
REMARK SMILES IDX 14 1 13 2 12 3 10 4 11 5 8 7 9 8 6 9 3 10 4 11 69 12 5 13
REMARK SMILES IDX 68 14 2 15 1 16 7 17 15 19 16 20 17 21 18 22 19 24 20 25
REMARK SMILES IDX 21 26 67 27 22 28 66 29 23 30 24 31 25 32 60 33 26 34 65 35
REMARK SMILES IDX 59 36 61 37 27 38 64 39 58 40 57 41 28 43 50 44 35 45 49 46
REMARK SMILES IDX 36 47 39 48 48 49 62 50 37 51 38 52 47 54 63 55 40 56 29 57
REMARK SMILES IDX 30 58 34 59 31 60 33 61 32 62 51 63 52 64 56 65 53 66 55 67
REMARK SMILES IDX 54 68 41 69 42 70 46 71 43 72 45 73 44 74
REMARK H PARENT 12 6 7 18 17 23 61 42 39 53
REMARK Flexibility Score: inf
ROOT
ATOM      1  C   UNL     1       5.772   1.246  -0.543  1.00  0.00     0.023 C 
ENDROOT
BRANCH   1   2
ATOM      2  C   UNL     1       4.937   0.652  -1.664  1.00  0.00     0.116 C 
BRANCH   2   3
ATOM      3  N   UNL     1       5.581  -0.347  -2.479  1.00  0.00    -0.353 N 
ATOM      4  C   UNL     1       4.968  -1.224  -3.336  1.00  0.00     0.257 C 
ATOM      5  O   UNL     1       5.684  -1.787  -4.170  1.00  0.00    -0.272 OA
ATOM      6  H   UNL     1       6.562  -0.405  -2.414  1.00  0.00     0.163 HD
BRANCH   4   7
ATOM      7  C   UNL     1       3.458  -1.501  -3.263  1.00  0.00     0.286 C 
ATOM      8  F   UNL     1       2.969  -1.435  -1.984  1.00  0.00    -0.234 F 
BRANCH   7   9
ATOM      9  C   UNL     1       2.485  -0.759  -4.237  1.00  0.00     0.105 C 
ATOM     10  C   UNL     1       2.951   2.252  -4.315  1.00  0.00    -0.011 C 
ATOM     11  C   UNL     1       3.783   1.268  -5.157  1.00  0.00     0.006 C 
ATOM     12  C   UNL     1       2.050   1.607  -3.246  1.00  0.00     0.006 C 
ATOM     13  C   UNL     1       3.128  -0.078  -5.451  1.00  0.00     0.039 C 
ATOM     14  C   UNL     1       1.511   0.219  -3.554  1.00  0.00     0.039 C 
BRANCH  10  15
ATOM     15  C   UNL     1       2.201   3.303  -5.160  1.00  0.00    -0.000 C 
ATOM     16  C   UNL     1       1.185   2.760  -6.146  1.00  0.00     0.004 C 
ENDBRANCH  10  15
BRANCH   9  17
ATOM     17  O   UNL     1       1.636  -1.810  -4.787  1.00  0.00    -0.386 OA
ATOM     18  H   UNL     1       1.000  -1.420  -5.407  1.00  0.00     0.211 HD
ENDBRANCH   9  17
ENDBRANCH   7   9
ENDBRANCH   4   7
ENDBRANCH   2   3
ENDBRANCH   1   2
BRANCH   1  19
ATOM     19  C   UNL     1       7.020   2.017  -0.971  1.00  0.00     0.023 C 
BRANCH  19  20
ATOM     20  C   UNL     1       6.851   3.049  -2.085  1.00  0.00     0.116 C 
BRANCH  20  21
ATOM     21  N   UNL     1       5.951   4.145  -1.756  1.00  0.00    -0.352 N 
ATOM     22  C   UNL     1       6.187   5.504  -1.718  1.00  0.00     0.251 C 
ATOM     23  H   UNL     1       5.033   3.876  -1.525  1.00  0.00     0.163 HD
ATOM     24  O   UNL     1       5.304   6.272  -1.361  1.00  0.00    -0.269 OA
BRANCH  22  25
ATOM     25  C   UNL     1       7.527   6.035  -2.060  1.00  0.00     0.039 A 
ATOM     26  C   UNL     1       8.145   6.918  -1.170  1.00  0.00     0.014 A 
ATOM     27  C   UNL     1       8.189   5.640  -3.224  1.00  0.00     0.014 A 
ATOM     28  C   UNL     1       9.467   7.315  -1.390  1.00  0.00     0.010 A 
ATOM     29  C   UNL     1       9.530   5.976  -3.404  1.00  0.00     0.010 A 
ATOM     30  C   UNL     1      10.191   6.799  -2.478  1.00  0.00    -0.014 A 
BRANCH  30  31
ATOM     31  C   UNL     1      11.644   7.072  -2.639  1.00  0.00     0.031 A 
ATOM     32  C   UNL     1      12.153   7.819  -3.841  1.00  0.00     0.074 A 
ATOM     33  C   UNL     1      12.520   6.581  -1.738  1.00  0.00     0.049 A 
ATOM     34  N   UNL     1      13.390   8.073  -4.192  1.00  0.00    -0.248 NA
ATOM     35  C   UNL     1      11.145   8.330  -4.782  1.00  0.00     0.031 C 
ATOM     36  C   UNL     1      12.170   5.803  -0.547  1.00  0.00     0.029 A 
ATOM     37  N   UNL     1      13.891   6.654  -1.691  1.00  0.00    -0.354 N 
ATOM     38  C   UNL     1      13.307   8.761  -5.396  1.00  0.00     0.074 A 
ATOM     39  C   UNL     1      11.904   8.844  -5.739  1.00  0.00     0.031 C 
ATOM     40  C   UNL     1      13.292   5.490   0.121  1.00  0.00     0.029 A 
ATOM     41  C   UNL     1      14.443   6.007  -0.611  1.00  0.00     0.049 A 
ATOM     42  H   UNL     1      14.429   7.126  -2.368  1.00  0.00     0.167 HD
ATOM     43  C   UNL     1      14.305   9.295  -6.139  1.00  0.00     0.031 A 
ATOM     44  C   UNL     1      15.730   5.838  -0.253  1.00  0.00     0.031 A 
ATOM     45  C   UNL     1      15.702   9.226  -5.801  1.00  0.00     0.049 A 
ATOM     46  C   UNL     1      16.819   6.428  -1.107  1.00  0.00     0.074 A 
ATOM     47  C   UNL     1      16.780   9.769  -6.480  1.00  0.00     0.029 A 
ATOM     48  N   UNL     1      16.214   8.580  -4.689  1.00  0.00    -0.354 N 
ATOM     49  N   UNL     1      16.716   7.121  -2.213  1.00  0.00    -0.248 NA
ATOM     50  C   UNL     1      18.202   6.219  -0.652  1.00  0.00     0.031 C 
ATOM     51  C   UNL     1      17.949   9.419  -5.796  1.00  0.00     0.029 A 
ATOM     52  C   UNL     1      17.593   8.700  -4.667  1.00  0.00     0.049 A 
ATOM     53  H   UNL     1      15.677   8.105  -4.013  1.00  0.00     0.167 HD
ATOM     54  C   UNL     1      18.016   7.457  -2.570  1.00  0.00     0.074 A 
ATOM     55  C   UNL     1      18.888   6.906  -1.555  1.00  0.00     0.031 C 
ATOM     56  C   UNL     1      18.448   8.158  -3.645  1.00  0.00     0.031 A 
BRANCH  43  57
ATOM     57  C   UNL     1      13.919  10.018  -7.399  1.00  0.00    -0.014 A 
ATOM     58  C   UNL     1      13.296  11.275  -7.345  1.00  0.00     0.009 A 
ATOM     59  C   UNL     1      14.230   9.465  -8.650  1.00  0.00     0.009 A 
ATOM     60  C   UNL     1      12.967  11.952  -8.521  1.00  0.00     0.001 A 
ATOM     61  C   UNL     1      13.924  10.156  -9.824  1.00  0.00     0.001 A 
ATOM     62  C   UNL     1      13.286  11.395  -9.758  1.00  0.00     0.000 A 
ENDBRANCH  43  57
BRANCH  44  63
ATOM     63  C   UNL     1      16.076   5.077   0.977  1.00  0.00    -0.014 A 
ATOM     64  C   UNL     1      16.610   5.735   2.096  1.00  0.00     0.009 A 
ATOM     65  C   UNL     1      15.910   3.684   1.025  1.00  0.00     0.009 A 
ATOM     66  C   UNL     1      17.007   5.010   3.221  1.00  0.00     0.001 A 
ATOM     67  C   UNL     1      16.280   2.965   2.163  1.00  0.00     0.001 A 
ATOM     68  C   UNL     1      16.840   3.626   3.255  1.00  0.00     0.000 A 
ENDBRANCH  44  63
BRANCH  56  69
ATOM     69  C   UNL     1      19.925   8.410  -3.755  1.00  0.00    -0.014 A 
ATOM     70  C   UNL     1      20.815   7.384  -4.107  1.00  0.00     0.009 A 
ATOM     71  C   UNL     1      20.425   9.703  -3.539  1.00  0.00     0.009 A 
ATOM     72  C   UNL     1      22.184   7.643  -4.208  1.00  0.00     0.001 A 
ATOM     73  C   UNL     1      21.790   9.965  -3.668  1.00  0.00     0.001 A 
ATOM     74  C   UNL     1      22.669   8.933  -3.994  1.00  0.00     0.000 A 
ENDBRANCH  56  69
ENDBRANCH  30  31
ENDBRANCH  22  25
ENDBRANCH  20  21
ENDBRANCH  19  20
ENDBRANCH   1  19
TORSDOF 14
