REMARK SMILES Cc1cc(N2CCC[C@H](C(=O)NCCCCNC(=O)c3ccc(-c4c5nc(c(-c6ccccc6)c6ccc([nH]6)c(-c6ccccc6)c6nc(c(-c7ccccc7)c7ccc4[nH]7)C=C6)C=C5)cc3)C2)nc(C(C)C)n1
REMARK SMILES IDX 14 1 13 2 12 3 10 4 11 5 9 7 5 8 6 9 68 10 7 11 8 12 4 13
REMARK SMILES IDX 1 14 2 15 3 16 74 17 70 18 69 19 71 20 72 21 73 22 15 23
REMARK SMILES IDX 16 24 17 25 18 26 19 28 20 29 21 30 67 31 22 32 66 33 23 34
REMARK SMILES IDX 24 35 25 36 60 37 26 38 65 39 59 40 61 41 27 42 64 43 58 44
REMARK SMILES IDX 57 45 28 47 50 48 35 49 49 50 36 51 39 52 48 53 62 54 37 55
REMARK SMILES IDX 38 56 47 58 63 59 40 60 29 61 30 62 34 63 31 64 33 65 32 66
REMARK SMILES IDX 51 67 52 68 56 69 53 70 55 71 54 72 41 73 42 74 46 75 43 76
REMARK SMILES IDX 45 77 44 78
REMARK H PARENT 12 6 17 27 61 46 39 57
REMARK Flexibility Score: inf
ROOT
ATOM      1  C   UNL     1       5.703  -1.148   0.439  1.00  0.00     0.023 C 
ENDROOT
BRANCH   1   2
ATOM      2  C   UNL     1       4.473  -1.015  -0.454  1.00  0.00     0.116 C 
BRANCH   2   3
ATOM      3  N   UNL     1       4.674  -1.567  -1.774  1.00  0.00    -0.356 N 
ATOM      4  C   UNL     1       4.049  -2.590  -2.409  1.00  0.00     0.224 C 
ATOM      5  O   UNL     1       4.299  -2.716  -3.615  1.00  0.00    -0.275 OA
ATOM      6  H   UNL     1       5.381  -1.128  -2.300  1.00  0.00     0.163 HD
BRANCH   4   7
ATOM      7  C   UNL     1       3.078  -3.569  -1.743  1.00  0.00     0.098 C 
ATOM      8  N   UNL     1       1.580  -2.504  -0.112  1.00  0.00    -0.356 N 
ATOM      9  C   UNL     1       1.844  -3.431   0.970  1.00  0.00     0.118 C 
ATOM     10  C   UNL     1       1.700  -2.972  -1.482  1.00  0.00     0.131 C 
ATOM     11  C   UNL     1       3.259  -4.001   0.825  1.00  0.00     0.022 C 
ATOM     12  C   UNL     1       3.641  -4.420  -0.598  1.00  0.00     0.017 C 
BRANCH   8  13
ATOM     13  C   UNL     1       0.782  -1.397   0.080  1.00  0.00     0.132 A 
ATOM     14  C   UNL     1      -2.799  -0.308   0.130  1.00  0.00     0.067 C 
ATOM     15  C   UNL     1      -1.302  -0.312   0.161  1.00  0.00     0.043 A 
ATOM     16  C   UNL     1      -0.591  -1.495   0.132  1.00  0.00     0.070 A 
ATOM     17  N   UNL     1      -0.700   0.893   0.159  1.00  0.00    -0.238 NA
ATOM     18  C   UNL     1       0.644   0.898   0.121  1.00  0.00     0.133 A 
ATOM     19  N   UNL     1       1.404  -0.207   0.079  1.00  0.00    -0.216 NA
BRANCH  18  20
ATOM     20  C   UNL     1       1.362   2.226   0.040  1.00  0.00     0.051 C 
ATOM     21  C   UNL     1       1.041   2.934  -1.276  1.00  0.00     0.016 C 
ATOM     22  C   UNL     1       1.035   3.112   1.240  1.00  0.00     0.016 C 
ENDBRANCH  18  20
ENDBRANCH   8  13
ENDBRANCH   4   7
ENDBRANCH   2   3
ENDBRANCH   1   2
BRANCH   1  23
ATOM     23  C   UNL     1       6.542   0.122   0.546  1.00  0.00     0.023 C 
BRANCH  23  24
ATOM     24  C   UNL     1       5.807   1.343   1.092  1.00  0.00     0.116 C 
BRANCH  24  25
ATOM     25  N   UNL     1       5.249   1.172   2.427  1.00  0.00    -0.352 N 
ATOM     26  C   UNL     1       5.067   2.151   3.384  1.00  0.00     0.251 C 
ATOM     27  H   UNL     1       4.972   0.260   2.673  1.00  0.00     0.163 HD
ATOM     28  O   UNL     1       4.644   1.893   4.497  1.00  0.00    -0.269 OA
BRANCH  26  29
ATOM     29  C   UNL     1       5.445   3.534   3.025  1.00  0.00     0.039 A 
ATOM     30  C   UNL     1       6.447   4.178   3.753  1.00  0.00     0.014 A 
ATOM     31  C   UNL     1       4.894   4.123   1.885  1.00  0.00     0.014 A 
ATOM     32  C   UNL     1       6.964   5.386   3.280  1.00  0.00     0.010 A 
ATOM     33  C   UNL     1       5.455   5.289   1.382  1.00  0.00     0.010 A 
ATOM     34  C   UNL     1       6.503   5.924   2.068  1.00  0.00    -0.014 A 
BRANCH  34  35
ATOM     35  C   UNL     1       7.094   7.148   1.475  1.00  0.00     0.031 A 
ATOM     36  C   UNL     1       6.241   8.371   1.305  1.00  0.00     0.074 A 
ATOM     37  C   UNL     1       8.350   7.123   0.986  1.00  0.00     0.049 A 
ATOM     38  N   UNL     1       6.506   9.482   0.667  1.00  0.00    -0.248 NA
ATOM     39  C   UNL     1       4.896   8.322   1.902  1.00  0.00     0.031 C 
ATOM     40  C   UNL     1       9.268   5.984   1.051  1.00  0.00     0.029 A 
ATOM     41  N   UNL     1       9.062   8.085   0.315  1.00  0.00    -0.354 N 
ATOM     42  C   UNL     1       5.350  10.246   0.754  1.00  0.00     0.074 A 
ATOM     43  C   UNL     1       4.372   9.460   1.473  1.00  0.00     0.031 C 
ATOM     44  C   UNL     1      10.426   6.319   0.458  1.00  0.00     0.029 A 
ATOM     45  C   UNL     1      10.319   7.678  -0.063  1.00  0.00     0.049 A 
ATOM     46  H   UNL     1       8.706   8.983   0.122  1.00  0.00     0.167 HD
ATOM     47  C   UNL     1       5.127  11.498   0.289  1.00  0.00     0.031 A 
ATOM     48  C   UNL     1      11.272   8.324  -0.762  1.00  0.00     0.031 A 
ATOM     49  C   UNL     1       6.108  12.291  -0.399  1.00  0.00     0.049 A 
ATOM     50  C   UNL     1      11.008   9.722  -1.249  1.00  0.00     0.074 A 
ATOM     51  C   UNL     1       5.997  13.591  -0.859  1.00  0.00     0.029 A 
ATOM     52  N   UNL     1       7.386  11.858  -0.715  1.00  0.00    -0.354 N 
ATOM     53  N   UNL     1       9.927  10.451  -1.116  1.00  0.00    -0.248 NA
ATOM     54  C   UNL     1      12.100  10.388  -1.974  1.00  0.00     0.031 C 
ATOM     55  C   UNL     1       7.202  13.936  -1.480  1.00  0.00     0.029 A 
ATOM     56  C   UNL     1       8.073  12.864  -1.369  1.00  0.00     0.049 A 
ATOM     57  H   UNL     1       7.750  10.967  -0.506  1.00  0.00     0.167 HD
ATOM     58  C   UNL     1      10.220  11.672  -1.708  1.00  0.00     0.074 A 
ATOM     59  C   UNL     1      11.580  11.587  -2.199  1.00  0.00     0.031 C 
ATOM     60  C   UNL     1       9.433  12.768  -1.829  1.00  0.00     0.031 A 
BRANCH  47  61
ATOM     61  C   UNL     1       3.760  12.079   0.511  1.00  0.00    -0.014 A 
ATOM     62  C   UNL     1       3.337  12.468   1.791  1.00  0.00     0.009 A 
ATOM     63  C   UNL     1       2.891  12.253  -0.577  1.00  0.00     0.009 A 
ATOM     64  C   UNL     1       2.054  12.984   1.984  1.00  0.00     0.001 A 
ATOM     65  C   UNL     1       1.619  12.795  -0.385  1.00  0.00     0.001 A 
ATOM     66  C   UNL     1       1.198  13.149   0.896  1.00  0.00     0.000 A 
ENDBRANCH  47  61
BRANCH  48  67
ATOM     67  C   UNL     1      12.578   7.667  -1.024  1.00  0.00    -0.014 A 
ATOM     68  C   UNL     1      13.727   8.080  -0.332  1.00  0.00     0.009 A 
ATOM     69  C   UNL     1      12.687   6.633  -1.966  1.00  0.00     0.009 A 
ATOM     70  C   UNL     1      14.964   7.488  -0.596  1.00  0.00     0.001 A 
ATOM     71  C   UNL     1      13.921   6.026  -2.211  1.00  0.00     0.001 A 
ATOM     72  C   UNL     1      15.059   6.460  -1.532  1.00  0.00     0.000 A 
ENDBRANCH  48  67
BRANCH  60  73
ATOM     73  C   UNL     1      10.036  13.986  -2.464  1.00  0.00    -0.014 A 
ATOM     74  C   UNL     1      10.206  14.076  -3.853  1.00  0.00     0.009 A 
ATOM     75  C   UNL     1      10.372  15.087  -1.660  1.00  0.00     0.009 A 
ATOM     76  C   UNL     1      10.719  15.243  -4.424  1.00  0.00     0.001 A 
ATOM     77  C   UNL     1      10.863  16.259  -2.236  1.00  0.00     0.001 A 
ATOM     78  C   UNL     1      11.040  16.334  -3.616  1.00  0.00     0.000 A 
ENDBRANCH  60  73
ENDBRANCH  34  35
ENDBRANCH  26  29
ENDBRANCH  24  25
ENDBRANCH  23  24
ENDBRANCH   1  23
TORSDOF 13
