REMARK SMILES Cc1cc(N2CC[NH+]([C@@H](C(=O)NCCCCNC(=O)c3ccc(-c4c5nc(c(-c6ccccc6)c6ccc([nH]6)c(-c6ccccc6)c6nc(c(-c7ccccc7)c7ccc4[nH]7)C=C6)C=C5)cc3)c3c[nH]c4ccccc34)CC2)nc2ccccc12
REMARK SMILES IDX 14 1 13 2 12 3 10 4 11 5 9 7 8 8 5 9 6 10 78 11 7 12 77 13
REMARK SMILES IDX 4 15 1 16 2 17 3 18 85 19 80 20 84 21 79 22 81 23 83 24
REMARK SMILES IDX 82 25 68 26 69 27 76 28 70 29 71 30 75 31 72 33 74 34 73 35
REMARK SMILES IDX 15 36 16 37 17 38 18 39 19 41 20 42 21 43 67 44 22 45 66 46
REMARK SMILES IDX 23 47 24 48 25 49 60 50 26 51 65 52 59 53 61 54 27 55 64 56
REMARK SMILES IDX 58 57 57 58 28 60 50 61 35 62 49 63 36 64 39 65 48 66 62 67
REMARK SMILES IDX 37 68 38 69 47 71 63 72 40 73 29 74 30 75 34 76 31 77 33 78
REMARK SMILES IDX 32 79 51 80 52 81 56 82 53 83 55 84 54 85 41 86 42 87 46 88
REMARK SMILES IDX 43 89 45 90 44 91
REMARK H PARENT 12 6 8 14 70 32 17 40 61 59 39 70
REMARK Flexibility Score: inf
ROOT
ATOM      1  C   UNL     1      -4.486  -2.464  -3.115  1.00  0.00     0.023 C 
ENDROOT
BRANCH   1   2
ATOM      2  C   UNL     1      -4.533  -3.995  -2.829  1.00  0.00     0.116 C 
BRANCH   2   3
ATOM      3  N   UNL     1      -3.463  -4.565  -1.992  1.00  0.00    -0.351 N 
ATOM      4  C   UNL     1      -3.307  -5.098  -0.725  1.00  0.00     0.283 C 
ATOM      5  O   UNL     1      -2.192  -5.608  -0.547  1.00  0.00    -0.268 OA
ATOM      6  H   UNL     1      -2.607  -4.566  -2.477  1.00  0.00     0.163 HD
BRANCH   4   7
ATOM      7  C   UNL     1      -4.420  -5.154   0.375  1.00  0.00     0.307 C 
BRANCH   7   8
ATOM      8  N   UNL     1      -4.879  -3.870   1.034  1.00  0.00    -0.318 N 
ATOM      9  N   UNL     1      -2.895  -1.712   1.150  1.00  0.00    -0.345 N 
ATOM     10  C   UNL     1      -2.773  -2.846   2.054  1.00  0.00     0.179 C 
ATOM     11  C   UNL     1      -3.611  -1.998  -0.092  1.00  0.00     0.179 C 
ATOM     12  C   UNL     1      -4.210  -3.355   2.250  1.00  0.00     0.284 C 
ATOM     13  C   UNL     1      -4.962  -2.714   0.149  1.00  0.00     0.284 C 
ATOM     14  H   UNL     1      -5.782  -4.249   1.320  1.00  0.00     0.349 HD
BRANCH   9  15
ATOM     15  C   UNL     1      -1.801  -0.886   0.936  1.00  0.00     0.129 A 
ATOM     16  C   UNL     1      -1.472   2.743   0.008  1.00  0.00     0.045 C 
ATOM     17  C   UNL     1      -1.082   1.327   0.309  1.00  0.00    -0.038 A 
ATOM     18  C   UNL     1      -2.085   0.452   0.698  1.00  0.00     0.051 A 
ATOM     19  C   UNL     1       0.232   0.832   0.220  1.00  0.00     0.003 A 
ATOM     20  C   UNL     1       0.437  -0.547   0.474  1.00  0.00     0.073 A 
ATOM     21  C   UNL     1       1.334   1.648  -0.113  1.00  0.00     0.010 A 
ATOM     22  N   UNL     1      -0.557  -1.383   0.830  1.00  0.00    -0.231 NA
ATOM     23  C   UNL     1       1.721  -1.058   0.329  1.00  0.00     0.029 A 
ATOM     24  C   UNL     1       2.615   1.112  -0.223  1.00  0.00     0.001 A 
ATOM     25  C   UNL     1       2.807  -0.247  -0.017  1.00  0.00     0.002 A 
ENDBRANCH   9  15
ENDBRANCH   7   8
BRANCH   7  26
ATOM     26  C   UNL     1      -4.234  -6.264   1.467  1.00  0.00     0.044 A 
ATOM     27  C   UNL     1      -5.323  -6.868   2.104  1.00  0.00     0.094 A 
ATOM     28  C   UNL     1      -3.213  -6.381   2.492  1.00  0.00     0.009 A 
ATOM     29  N   UNL     1      -5.253  -6.275   3.358  1.00  0.00    -0.361 N 
ATOM     30  C   UNL     1      -3.918  -6.149   3.686  1.00  0.00     0.046 A 
ATOM     31  C   UNL     1      -1.806  -6.424   2.572  1.00  0.00     0.011 A 
ATOM     32  H   UNL     1      -6.016  -5.995   3.913  1.00  0.00     0.166 HD
ATOM     33  C   UNL     1      -3.304  -5.702   4.862  1.00  0.00     0.026 A 
ATOM     34  C   UNL     1      -1.174  -6.139   3.795  1.00  0.00     0.001 A 
ATOM     35  C   UNL     1      -1.910  -5.698   4.894  1.00  0.00     0.002 A 
ENDBRANCH   7  26
ENDBRANCH   4   7
ENDBRANCH   2   3
ENDBRANCH   1   2
BRANCH   1  36
ATOM     36  C   UNL     1      -3.105  -1.803  -3.224  1.00  0.00     0.023 C 
BRANCH  36  37
ATOM     37  C   UNL     1      -2.693  -1.467  -4.641  1.00  0.00     0.116 C 
BRANCH  37  38
ATOM     38  N   UNL     1      -3.453  -0.351  -5.185  1.00  0.00    -0.352 N 
ATOM     39  C   UNL     1      -3.007   0.721  -5.928  1.00  0.00     0.251 C 
ATOM     40  H   UNL     1      -4.419  -0.364  -4.997  1.00  0.00     0.163 HD
ATOM     41  O   UNL     1      -3.748   1.664  -6.153  1.00  0.00    -0.269 OA
BRANCH  39  42
ATOM     42  C   UNL     1      -1.613   0.732  -6.431  1.00  0.00     0.039 A 
ATOM     43  C   UNL     1      -0.904   1.937  -6.447  1.00  0.00     0.014 A 
ATOM     44  C   UNL     1      -1.006  -0.441  -6.885  1.00  0.00     0.014 A 
ATOM     45  C   UNL     1       0.425   1.950  -6.875  1.00  0.00     0.010 A 
ATOM     46  C   UNL     1       0.345  -0.449  -7.197  1.00  0.00     0.010 A 
ATOM     47  C   UNL     1       1.066   0.751  -7.225  1.00  0.00    -0.014 A 
BRANCH  47  48
ATOM     48  C   UNL     1       2.478   0.726  -7.674  1.00  0.00     0.031 A 
ATOM     49  C   UNL     1       2.807   0.238  -9.061  1.00  0.00     0.074 A 
ATOM     50  C   UNL     1       3.456   1.077  -6.817  1.00  0.00     0.049 A 
ATOM     51  N   UNL     1       3.978   0.074  -9.622  1.00  0.00    -0.248 NA
ATOM     52  C   UNL     1       1.674  -0.149  -9.921  1.00  0.00     0.031 C 
ATOM     53  C   UNL     1       3.257   1.513  -5.432  1.00  0.00     0.029 A 
ATOM     54  N   UNL     1       4.816   1.117  -6.984  1.00  0.00    -0.354 N 
ATOM     55  C   UNL     1       3.720  -0.458 -10.880  1.00  0.00     0.074 A 
ATOM     56  C   UNL     1       2.292  -0.644 -10.983  1.00  0.00     0.031 C 
ATOM     57  C   UNL     1       4.449   1.810  -4.889  1.00  0.00     0.029 A 
ATOM     58  C   UNL     1       5.496   1.541  -5.867  1.00  0.00     0.049 A 
ATOM     59  H   UNL     1       5.264   0.867  -7.824  1.00  0.00     0.167 HD
ATOM     60  C   UNL     1       4.595  -0.743 -11.871  1.00  0.00     0.031 A 
ATOM     61  C   UNL     1       6.818   1.687  -5.658  1.00  0.00     0.031 A 
ATOM     62  C   UNL     1       6.012  -0.527 -11.771  1.00  0.00     0.049 A 
ATOM     63  C   UNL     1       7.766   1.366  -6.782  1.00  0.00     0.074 A 
ATOM     64  C   UNL     1       6.982  -0.714 -12.739  1.00  0.00     0.029 A 
ATOM     65  N   UNL     1       6.658  -0.074 -10.632  1.00  0.00    -0.354 N 
ATOM     66  N   UNL     1       7.500   0.945  -7.995  1.00  0.00    -0.248 NA
ATOM     67  C   UNL     1       9.198   1.554  -6.511  1.00  0.00     0.031 C 
ATOM     68  C   UNL     1       8.224  -0.429 -12.166  1.00  0.00     0.029 A 
ATOM     69  C   UNL     1       8.020  -0.000 -10.864  1.00  0.00     0.049 A 
ATOM     70  H   UNL     1       6.215   0.161  -9.784  1.00  0.00     0.167 HD
ATOM     71  C   UNL     1       8.725   0.849  -8.641  1.00  0.00     0.074 A 
ATOM     72  C   UNL     1       9.732   1.278  -7.692  1.00  0.00     0.031 C 
ATOM     73  C   UNL     1       8.998   0.440  -9.904  1.00  0.00     0.031 A 
BRANCH  60  74
ATOM     74  C   UNL     1       4.049  -1.316 -13.150  1.00  0.00    -0.014 A 
ATOM     75  C   UNL     1       3.271  -0.541 -14.025  1.00  0.00     0.009 A 
ATOM     76  C   UNL     1       4.367  -2.634 -13.514  1.00  0.00     0.009 A 
ATOM     77  C   UNL     1       2.802  -1.081 -15.224  1.00  0.00     0.001 A 
ATOM     78  C   UNL     1       3.923  -3.162 -14.728  1.00  0.00     0.001 A 
ATOM     79  C   UNL     1       3.136  -2.388 -15.579  1.00  0.00     0.000 A 
ENDBRANCH  60  74
BRANCH  61  80
ATOM     80  C   UNL     1       7.328   2.157  -4.342  1.00  0.00    -0.014 A 
ATOM     81  C   UNL     1       7.968   3.401  -4.225  1.00  0.00     0.009 A 
ATOM     82  C   UNL     1       7.209   1.350  -3.200  1.00  0.00     0.009 A 
ATOM     83  C   UNL     1       8.516   3.806  -3.005  1.00  0.00     0.001 A 
ATOM     84  C   UNL     1       7.725   1.772  -1.973  1.00  0.00     0.001 A 
ATOM     85  C   UNL     1       8.392   2.993  -1.880  1.00  0.00     0.000 A 
ENDBRANCH  61  80
BRANCH  73  86
ATOM     86  C   UNL     1      10.434   0.483 -10.345  1.00  0.00    -0.014 A 
ATOM     87  C   UNL     1      11.382  -0.419  -9.839  1.00  0.00     0.009 A 
ATOM     88  C   UNL     1      10.829   1.415 -11.318  1.00  0.00     0.009 A 
ATOM     89  C   UNL     1      12.707  -0.362 -10.272  1.00  0.00     0.001 A 
ATOM     90  C   UNL     1      12.146   1.445 -11.775  1.00  0.00     0.001 A 
ATOM     91  C   UNL     1      13.086   0.565 -11.243  1.00  0.00     0.000 A 
ENDBRANCH  73  86
ENDBRANCH  47  48
ENDBRANCH  39  42
ENDBRANCH  37  38
ENDBRANCH  36  37
ENDBRANCH   1  36
TORSDOF 14
