REMARK SMILES CC[C@@](CC(F)(F)F)(C(=O)NCCCCNC(=O)c1ccc(-c2c3nc(c(-c4ccccc4)c4ccc([nH]4)c(-c4ccccc4)c4nc(c(-c5ccccc5)c5ccc2[nH]5)C=C4)C=C3)cc1)c1ccccc1
REMARK SMILES IDX 13 1 12 2 11 3 9 4 10 5 3 7 2 8 1 9 4 10 5 11 6 12 7 13 8 14
REMARK SMILES IDX 67 15 68 16 72 17 69 18 71 19 70 20 14 21 15 22 16 23 17 24
REMARK SMILES IDX 18 26 19 27 20 28 66 29 21 30 65 31 22 32 23 33 24 34 59 35
REMARK SMILES IDX 25 36 64 37 58 38 60 39 26 40 63 41 57 42 56 43 27 45 49 46
REMARK SMILES IDX 34 47 48 48 35 49 38 50 47 51 61 52 36 53 37 54 46 56 62 57
REMARK SMILES IDX 39 58 28 59 29 60 33 61 30 62 32 63 31 64 50 65 51 66 55 67
REMARK SMILES IDX 52 68 54 69 53 70 40 71 41 72 45 73 42 74 44 75 43 76
REMARK H PARENT 11 6 16 25 60 44 38 55
REMARK Flexibility Score: inf
ROOT
ATOM      1  C   UNL     1      -2.849  -2.631  -1.319  1.00  0.00     0.023 C 
ENDROOT
BRANCH   1   2
ATOM      2  C   UNL     1      -2.074  -2.725  -0.009  1.00  0.00     0.116 C 
BRANCH   2   3
ATOM      3  N   UNL     1      -0.999  -3.703  -0.053  1.00  0.00    -0.355 N 
ATOM      4  C   UNL     1       0.329  -3.686   0.264  1.00  0.00     0.230 C 
ATOM      5  O   UNL     1       0.824  -4.817   0.251  1.00  0.00    -0.274 OA
ATOM      6  H   UNL     1      -1.297  -4.579  -0.390  1.00  0.00     0.163 HD
BRANCH   4   7
ATOM      7  C   UNL     1       1.131  -2.385   0.657  1.00  0.00     0.082 C 
BRANCH   7   8
ATOM      8  C   UNL     1       0.800  -1.290  -0.426  1.00  0.00     0.019 C 
ATOM      9  C   UNL     1       0.638   0.165   0.004  1.00  0.00     0.005 C 
ENDBRANCH   7   8
BRANCH   7  10
ATOM     10  C   UNL     1       0.881  -2.076   2.168  1.00  0.00     0.137 C 
BRANCH  10  11
ATOM     11  C   UNL     1      -0.509  -1.984   2.741  1.00  0.00     0.390 C 
ATOM     12  F   UNL     1      -1.189  -3.142   2.653  1.00  0.00    -0.171 F 
ATOM     13  F   UNL     1      -0.433  -1.679   4.061  1.00  0.00    -0.171 F 
ATOM     14  F   UNL     1      -1.241  -1.010   2.168  1.00  0.00    -0.171 F 
ENDBRANCH  10  11
ENDBRANCH   7  10
BRANCH   7  15
ATOM     15  C   UNL     1       2.718  -2.533   0.636  1.00  0.00    -0.032 A 
ATOM     16  C   UNL     1       3.410  -3.755   0.608  1.00  0.00     0.005 A 
ATOM     17  C   UNL     1       3.522  -1.375   0.773  1.00  0.00     0.005 A 
ATOM     18  C   UNL     1       4.811  -3.813   0.674  1.00  0.00     0.000 A 
ATOM     19  C   UNL     1       4.919  -1.429   0.835  1.00  0.00     0.000 A 
ATOM     20  C   UNL     1       5.566  -2.653   0.782  1.00  0.00     0.000 A 
ENDBRANCH   7  15
ENDBRANCH   4   7
ENDBRANCH   2   3
ENDBRANCH   1   2
BRANCH   1  21
ATOM     21  C   UNL     1      -3.613  -3.892  -1.720  1.00  0.00     0.023 C 
BRANCH  21  22
ATOM     22  C   UNL     1      -4.511  -4.494  -0.645  1.00  0.00     0.116 C 
BRANCH  22  23
ATOM     23  N   UNL     1      -5.494  -3.560  -0.115  1.00  0.00    -0.352 N 
ATOM     24  C   UNL     1      -6.834  -3.761   0.123  1.00  0.00     0.251 C 
ATOM     25  H   UNL     1      -5.153  -2.662   0.102  1.00  0.00     0.163 HD
ATOM     26  O   UNL     1      -7.549  -2.842   0.498  1.00  0.00    -0.269 OA
BRANCH  24  27
ATOM     27  C   UNL     1      -7.413  -5.098  -0.122  1.00  0.00     0.039 A 
ATOM     28  C   UNL     1      -8.537  -5.206  -0.944  1.00  0.00     0.014 A 
ATOM     29  C   UNL     1      -6.811  -6.238   0.414  1.00  0.00     0.014 A 
ATOM     30  C   UNL     1      -9.011  -6.471  -1.299  1.00  0.00     0.010 A 
ATOM     31  C   UNL     1      -7.240  -7.495   0.005  1.00  0.00     0.010 A 
ATOM     32  C   UNL     1      -8.340  -7.623  -0.860  1.00  0.00    -0.014 A 
BRANCH  32  33
ATOM     33  C   UNL     1      -8.762  -8.980  -1.284  1.00  0.00     0.031 A 
ATOM     34  C   UNL     1      -9.252  -9.961  -0.257  1.00  0.00     0.074 A 
ATOM     35  C   UNL     1      -8.609  -9.364  -2.566  1.00  0.00     0.049 A 
ATOM     36  N   UNL     1      -9.527 -11.232  -0.392  1.00  0.00    -0.248 NA
ATOM     37  C   UNL     1      -9.424  -9.447   1.112  1.00  0.00     0.031 C 
ATOM     38  C   UNL     1      -8.111  -8.521  -3.654  1.00  0.00     0.029 A 
ATOM     39  N   UNL     1      -8.842 -10.577  -3.165  1.00  0.00    -0.354 N 
ATOM     40  C   UNL     1      -9.867 -11.679   0.879  1.00  0.00     0.074 A 
ATOM     41  C   UNL     1      -9.729 -10.552   1.776  1.00  0.00     0.031 C 
ATOM     42  C   UNL     1      -8.089  -9.237  -4.790  1.00  0.00     0.029 A 
ATOM     43  C   UNL     1      -8.531 -10.598  -4.503  1.00  0.00     0.049 A 
ATOM     44  H   UNL     1      -9.197 -11.358  -2.682  1.00  0.00     0.167 HD
ATOM     45  C   UNL     1     -10.269 -12.913   1.264  1.00  0.00     0.031 A 
ATOM     46  C   UNL     1      -8.584 -11.604  -5.395  1.00  0.00     0.031 A 
ATOM     47  C   UNL     1     -10.431 -14.026   0.369  1.00  0.00     0.049 A 
ATOM     48  C   UNL     1      -9.048 -12.962  -4.949  1.00  0.00     0.074 A 
ATOM     49  C   UNL     1     -10.890 -15.300   0.651  1.00  0.00     0.029 A 
ATOM     50  N   UNL     1     -10.142 -13.994  -0.986  1.00  0.00    -0.354 N 
ATOM     51  N   UNL     1      -9.412 -13.358  -3.753  1.00  0.00    -0.248 NA
ATOM     52  C   UNL     1      -9.116 -14.010  -5.978  1.00  0.00     0.031 C 
ATOM     53  C   UNL     1     -10.847 -16.051  -0.529  1.00  0.00     0.029 A 
ATOM     54  C   UNL     1     -10.403 -15.230  -1.553  1.00  0.00     0.049 A 
ATOM     55  H   UNL     1      -9.802 -13.209  -1.474  1.00  0.00     0.167 HD
ATOM     56  C   UNL     1      -9.779 -14.690  -3.891  1.00  0.00     0.074 A 
ATOM     57  C   UNL     1      -9.601 -15.033  -5.287  1.00  0.00     0.031 C 
ATOM     58  C   UNL     1     -10.227 -15.550  -2.945  1.00  0.00     0.031 A 
BRANCH  45  59
ATOM     59  C   UNL     1     -10.549 -13.117   2.725  1.00  0.00    -0.014 A 
ATOM     60  C   UNL     1     -11.672 -12.538   3.339  1.00  0.00     0.009 A 
ATOM     61  C   UNL     1      -9.682 -13.903   3.498  1.00  0.00     0.009 A 
ATOM     62  C   UNL     1     -11.895 -12.706   4.707  1.00  0.00     0.001 A 
ATOM     63  C   UNL     1      -9.923 -14.093   4.860  1.00  0.00     0.001 A 
ATOM     64  C   UNL     1     -11.022 -13.485   5.465  1.00  0.00     0.000 A 
ENDBRANCH  45  59
BRANCH  46  65
ATOM     65  C   UNL     1      -8.205 -11.361  -6.810  1.00  0.00    -0.014 A 
ATOM     66  C   UNL     1      -9.192 -11.289  -7.805  1.00  0.00     0.009 A 
ATOM     67  C   UNL     1      -6.860 -11.192  -7.173  1.00  0.00     0.009 A 
ATOM     68  C   UNL     1      -8.839 -11.074  -9.139  1.00  0.00     0.001 A 
ATOM     69  C   UNL     1      -6.512 -10.953  -8.505  1.00  0.00     0.001 A 
ATOM     70  C   UNL     1      -7.500 -10.902  -9.487  1.00  0.00     0.000 A 
ENDBRANCH  46  65
BRANCH  58  71
ATOM     71  C   UNL     1     -10.600 -16.933  -3.395  1.00  0.00    -0.014 A 
ATOM     72  C   UNL     1      -9.620 -17.889  -3.701  1.00  0.00     0.009 A 
ATOM     73  C   UNL     1     -11.954 -17.297  -3.459  1.00  0.00     0.009 A 
ATOM     74  C   UNL     1      -9.992 -19.178  -4.088  1.00  0.00     0.001 A 
ATOM     75  C   UNL     1     -12.321 -18.593  -3.824  1.00  0.00     0.001 A 
ATOM     76  C   UNL     1     -11.340 -19.530  -4.144  1.00  0.00     0.000 A 
ENDBRANCH  58  71
ENDBRANCH  32  33
ENDBRANCH  24  27
ENDBRANCH  22  23
ENDBRANCH  21  22
ENDBRANCH   1  21
TORSDOF 15
