REMARK SMILES O=C(Cn1c(=O)n(Cc2cccnc2)c(=O)c2sccc21)NCCCCNC(=O)c1ccc(-c2c3nc(c(-c4ccccc4)c4ccc([nH]4)c(-c4ccccc4)c4nc(c(-c5ccccc5)c5ccc2[nH]5)C=C4)C=C3)cc1
REMARK SMILES IDX 24 1 23 2 22 3 1 4 2 5 3 7 4 8 5 9 21 10 6 11 7 12 17 13
REMARK SMILES IDX 20 14 15 15 18 16 19 17 16 18 8 19 9 20 10 21 14 22 11 23
REMARK SMILES IDX 13 24 12 25 25 26 26 27 27 28 28 29 29 31 30 32 31 33 77 34
REMARK SMILES IDX 32 35 76 36 33 37 34 38 35 39 70 40 36 41 75 42 69 43 71 44
REMARK SMILES IDX 37 45 74 46 68 47 67 48 38 50 60 51 45 52 59 53 46 54 49 55
REMARK SMILES IDX 58 56 72 57 47 58 48 59 57 61 73 62 50 63 39 64 40 65 44 66
REMARK SMILES IDX 41 67 43 68 42 69 61 70 62 71 66 72 63 73 65 74 64 75 51 76
REMARK SMILES IDX 52 77 56 78 53 79 55 80 54 81
REMARK H PARENT 22 6 27 30 71 49 49 60
REMARK Flexibility Score: inf
ROOT
ATOM      1  C   UNL     1       2.426  -2.375   2.522  1.00  0.00     0.023 C 
ENDROOT
BRANCH   1   2
ATOM      2  C   UNL     1       2.103  -0.897   2.264  1.00  0.00     0.116 C 
BRANCH   2   3
ATOM      3  N   UNL     1       2.776  -0.339   1.105  1.00  0.00    -0.355 N 
ATOM      4  O   UNL     1       1.001  -0.597  -0.314  1.00  0.00    -0.273 OA
ATOM      5  C   UNL     1       2.136  -0.169  -0.108  1.00  0.00     0.240 C 
ATOM      6  H   UNL     1       3.721  -0.073   1.185  1.00  0.00     0.163 HD
BRANCH   5   7
ATOM      7  C   UNL     1       3.007   0.358  -1.255  1.00  0.00     0.227 C 
BRANCH   7   8
ATOM      8  N   UNL     1       3.877   1.491  -0.921  1.00  0.00    -0.283 N 
ATOM      9  C   UNL     1       3.319   2.777  -1.039  1.00  0.00     0.332 A 
ATOM     10  C   UNL     1       5.214   1.339  -0.551  1.00  0.00     0.070 A 
ATOM     11  O   UNL     1       2.124   2.928  -1.304  1.00  0.00    -0.247 OA
ATOM     12  N   UNL     1       4.176   3.871  -0.880  1.00  0.00    -0.254 N 
ATOM     13  C   UNL     1       6.012   2.443  -0.438  1.00  0.00     0.116 A 
ATOM     14  C   UNL     1       5.942   0.144  -0.273  1.00  0.00     0.039 A 
ATOM     15  C   UNL     1       5.565   3.777  -0.730  1.00  0.00     0.274 A 
ATOM     16  S   UNL     1       7.587   2.087   0.081  1.00  0.00    -0.136 S 
ATOM     17  C   UNL     1       7.240   0.410   0.116  1.00  0.00     0.068 A 
ATOM     18  O   UNL     1       6.315   4.737  -0.846  1.00  0.00    -0.268 OA
BRANCH  12  19
ATOM     19  C   UNL     1       3.605   5.213  -1.010  1.00  0.00     0.168 C 
BRANCH  19  20
ATOM     20  C   UNL     1       3.328   5.881   0.318  1.00  0.00    -0.010 A 
ATOM     21  C   UNL     1       2.054   6.311   0.698  1.00  0.00     0.009 A 
ATOM     22  C   UNL     1       4.359   6.166   1.201  1.00  0.00     0.116 A 
ATOM     23  C   UNL     1       1.881   7.006   1.898  1.00  0.00     0.020 A 
ATOM     24  N   UNL     1       4.220   6.816   2.377  1.00  0.00    -0.264 NA
ATOM     25  C   UNL     1       2.986   7.241   2.694  1.00  0.00     0.111 A 
ENDBRANCH  19  20
ENDBRANCH  12  19
ENDBRANCH   7   8
ENDBRANCH   5   7
ENDBRANCH   2   3
ENDBRANCH   1   2
BRANCH   1  26
ATOM     26  C   UNL     1       3.905  -2.735   2.726  1.00  0.00     0.023 C 
BRANCH  26  27
ATOM     27  C   UNL     1       4.620  -1.950   3.817  1.00  0.00     0.116 C 
BRANCH  27  28
ATOM     28  N   UNL     1       4.169  -2.261   5.169  1.00  0.00    -0.352 N 
ATOM     29  C   UNL     1       4.692  -1.781   6.358  1.00  0.00     0.251 C 
ATOM     30  H   UNL     1       3.408  -2.880   5.245  1.00  0.00     0.163 HD
ATOM     31  O   UNL     1       4.509  -2.383   7.410  1.00  0.00    -0.269 OA
BRANCH  29  32
ATOM     32  C   UNL     1       5.489  -0.535   6.344  1.00  0.00     0.039 A 
ATOM     33  C   UNL     1       6.619  -0.395   7.152  1.00  0.00     0.014 A 
ATOM     34  C   UNL     1       5.098   0.505   5.501  1.00  0.00     0.014 A 
ATOM     35  C   UNL     1       7.393   0.759   7.032  1.00  0.00     0.010 A 
ATOM     36  C   UNL     1       5.933   1.579   5.282  1.00  0.00     0.010 A 
ATOM     37  C   UNL     1       7.066   1.734   6.067  1.00  0.00    -0.014 A 
BRANCH  37  38
ATOM     38  C   UNL     1       7.997   2.828   5.785  1.00  0.00     0.031 A 
ATOM     39  C   UNL     1       9.400   2.379   5.582  1.00  0.00     0.074 A 
ATOM     40  C   UNL     1       7.661   4.119   5.558  1.00  0.00     0.049 A 
ATOM     41  N   UNL     1      10.384   2.541   6.401  1.00  0.00    -0.248 NA
ATOM     42  C   UNL     1       9.718   1.522   4.428  1.00  0.00     0.031 C 
ATOM     43  C   UNL     1       6.327   4.710   5.421  1.00  0.00     0.029 A 
ATOM     44  N   UNL     1       8.479   5.182   5.307  1.00  0.00    -0.354 N 
ATOM     45  C   UNL     1      11.500   2.002   5.775  1.00  0.00     0.074 A 
ATOM     46  C   UNL     1      11.004   1.241   4.655  1.00  0.00     0.031 C 
ATOM     47  C   UNL     1       6.432   5.946   4.878  1.00  0.00     0.029 A 
ATOM     48  C   UNL     1       7.835   6.308   4.795  1.00  0.00     0.049 A 
ATOM     49  H   UNL     1       9.449   5.156   5.473  1.00  0.00     0.167 HD
ATOM     50  C   UNL     1      12.749   2.450   6.080  1.00  0.00     0.031 A 
ATOM     51  C   UNL     1       8.416   7.445   4.325  1.00  0.00     0.031 A 
ATOM     52  C   UNL     1      12.756   3.209   7.307  1.00  0.00     0.049 A 
ATOM     53  C   UNL     1       9.772   7.517   4.901  1.00  0.00     0.074 A 
ATOM     54  C   UNL     1      12.361   2.962   8.608  1.00  0.00     0.029 A 
ATOM     55  N   UNL     1      12.838   4.578   7.195  1.00  0.00    -0.354 N 
ATOM     56  N   UNL     1      10.000   7.726   6.165  1.00  0.00    -0.248 NA
ATOM     57  C   UNL     1      10.854   6.899   4.153  1.00  0.00     0.031 C 
ATOM     58  C   UNL     1      11.742   4.172   9.036  1.00  0.00     0.029 A 
ATOM     59  C   UNL     1      11.877   5.109   8.011  1.00  0.00     0.049 A 
ATOM     60  H   UNL     1      13.470   5.081   6.632  1.00  0.00     0.167 HD
ATOM     61  C   UNL     1      11.035   6.859   6.469  1.00  0.00     0.074 A 
ATOM     62  C   UNL     1      11.582   6.444   5.176  1.00  0.00     0.031 C 
ATOM     63  C   UNL     1      11.162   6.328   7.719  1.00  0.00     0.031 A 
BRANCH  50  64
ATOM     64  C   UNL     1      13.845   2.609   5.054  1.00  0.00    -0.014 A 
ATOM     65  C   UNL     1      15.089   3.112   5.480  1.00  0.00     0.009 A 
ATOM     66  C   UNL     1      13.610   2.595   3.667  1.00  0.00     0.009 A 
ATOM     67  C   UNL     1      15.996   3.673   4.575  1.00  0.00     0.001 A 
ATOM     68  C   UNL     1      14.534   3.112   2.756  1.00  0.00     0.001 A 
ATOM     69  C   UNL     1      15.711   3.684   3.214  1.00  0.00     0.000 A 
ENDBRANCH  50  64
BRANCH  51  70
ATOM     70  C   UNL     1       8.019   8.327   3.203  1.00  0.00    -0.014 A 
ATOM     71  C   UNL     1       8.581   9.600   3.017  1.00  0.00     0.009 A 
ATOM     72  C   UNL     1       7.308   7.782   2.128  1.00  0.00     0.009 A 
ATOM     73  C   UNL     1       8.442  10.284   1.797  1.00  0.00     0.001 A 
ATOM     74  C   UNL     1       7.151   8.464   0.916  1.00  0.00     0.001 A 
ATOM     75  C   UNL     1       7.730   9.714   0.745  1.00  0.00     0.000 A 
ENDBRANCH  51  70
BRANCH  63  76
ATOM     76  C   UNL     1      10.305   6.869   8.834  1.00  0.00    -0.014 A 
ATOM     77  C   UNL     1       8.902   6.775   8.845  1.00  0.00     0.009 A 
ATOM     78  C   UNL     1      10.956   7.286  10.004  1.00  0.00     0.009 A 
ATOM     79  C   UNL     1       8.177   7.085  10.003  1.00  0.00     0.001 A 
ATOM     80  C   UNL     1      10.235   7.575  11.163  1.00  0.00     0.001 A 
ATOM     81  C   UNL     1       8.846   7.471  11.164  1.00  0.00     0.000 A 
ENDBRANCH  63  76
ENDBRANCH  37  38
ENDBRANCH  29  32
ENDBRANCH  27  28
ENDBRANCH  26  27
ENDBRANCH   1  26
TORSDOF 14
