REMARK SMILES CC(C)C[C@H](CNC(=O)[C@]1([NH3+])CCC[C@@H](C)C1)C(=O)NCCCCNC(=O)c1ccc(-c2c3nc(c(-c4ccccc4)c4ccc([nH]4)c(-c4ccccc4)c4nc(c(-c5ccccc5)c5ccc2[nH]5)C=C4)C=C3)cc1
REMARK SMILES IDX 21 1 20 2 18 3 19 4 5 6 4 7 2 8 1 9 3 10 6 11 7 12 8 13 9 15
REMARK SMILES IDX 10 16 12 17 17 18 13 19 15 20 14 21 16 22 11 23 22 27 23 28
REMARK SMILES IDX 24 29 25 30 26 31 27 33 28 34 29 35 75 36 30 37 74 38 31 39
REMARK SMILES IDX 32 40 33 41 68 42 34 43 73 44 67 45 69 46 35 47 72 48 66 49
REMARK SMILES IDX 65 50 36 52 58 53 43 54 57 55 44 56 47 57 56 58 70 59 45 60
REMARK SMILES IDX 46 61 55 63 71 64 48 65 37 66 38 67 42 68 39 69 41 70 40 71
REMARK SMILES IDX 59 72 60 73 64 74 61 75 63 76 62 77 49 78 50 79 54 80 51 81
REMARK SMILES IDX 53 82 52 83
REMARK H PARENT 20 5 7 14 11 24 11 25 11 26 25 32 69 51 47 62
REMARK Flexibility Score: inf
ROOT
ATOM      1  C   UNL     1       4.776  -6.170  -0.177  1.00  0.00     0.116 C 
ENDROOT
BRANCH   1   2
ATOM      2  N   UNL     1       4.636  -5.564  -1.485  1.00  0.00    -0.356 N 
ATOM      3  C   UNL     1       4.306  -4.294  -1.848  1.00  0.00     0.224 C 
ATOM      4  O   UNL     1       4.139  -4.083  -3.053  1.00  0.00    -0.275 OA
ATOM      5  H   UNL     1       4.807  -6.173  -2.239  1.00  0.00     0.163 HD
BRANCH   3   6
ATOM      6  C   UNL     1       4.205  -3.154  -0.837  1.00  0.00     0.098 C 
BRANCH   6   7
ATOM      7  C   UNL     1       5.575  -2.811  -0.209  1.00  0.00     0.018 C 
BRANCH   7   8
ATOM      8  C   UNL     1       6.715  -2.521  -1.208  1.00  0.00    -0.017 C 
ATOM      9  C   UNL     1       6.472  -1.233  -1.995  1.00  0.00     0.007 C 
ATOM     10  C   UNL     1       8.040  -2.419  -0.446  1.00  0.00     0.007 C 
ENDBRANCH   7   8
ENDBRANCH   6   7
BRANCH   6  11
ATOM     11  C   UNL     1       3.099  -3.419   0.202  1.00  0.00     0.129 C 
BRANCH  11  12
ATOM     12  N   UNL     1       3.105  -2.469   1.298  1.00  0.00    -0.350 N 
ATOM     13  C   UNL     1       2.561  -1.236   1.445  1.00  0.00     0.281 C 
ATOM     14  H   UNL     1       3.600  -2.781   2.089  1.00  0.00     0.163 HD
ATOM     15  O   UNL     1       2.989  -0.591   2.412  1.00  0.00    -0.268 OA
BRANCH  13  16
ATOM     16  C   UNL     1       1.372  -0.700   0.592  1.00  0.00     0.174 C 
ATOM     17  C   UNL     1       1.573   0.816   0.381  1.00  0.00     0.079 C 
ATOM     18  C   UNL     1       0.102  -0.949   1.443  1.00  0.00     0.082 C 
ATOM     19  C   UNL     1       0.333   1.519  -0.171  1.00  0.00     0.007 C 
ATOM     20  C   UNL     1      -1.167  -0.209   0.993  1.00  0.00    -0.008 C 
ATOM     21  C   UNL     1      -0.889   1.274   0.709  1.00  0.00     0.004 C 
ATOM     22  C   UNL     1      -1.874  -0.900  -0.174  1.00  0.00     0.008 C 
BRANCH  16  23
ATOM     23  N   UNL     1       1.276  -1.356  -0.727  1.00  0.00    -0.345 N 
ATOM     24  H   UNL     1       0.485  -0.970  -1.242  1.00  0.00     0.345 HD
ATOM     25  H   UNL     1       1.141  -2.359  -0.598  1.00  0.00     0.345 HD
ATOM     26  H   UNL     1       2.135  -1.193  -1.251  1.00  0.00     0.345 HD
ENDBRANCH  16  23
ENDBRANCH  13  16
ENDBRANCH  11  12
ENDBRANCH   6  11
ENDBRANCH   3   6
ENDBRANCH   1   2
BRANCH   1  27
ATOM     27  C   UNL     1       3.509  -6.937   0.206  1.00  0.00     0.023 C 
BRANCH  27  28
ATOM     28  C   UNL     1       3.376  -8.302  -0.462  1.00  0.00     0.023 C 
BRANCH  28  29
ATOM     29  C   UNL     1       4.559  -9.231  -0.241  1.00  0.00     0.116 C 
BRANCH  29  30
ATOM     30  N   UNL     1       4.911  -9.398   1.163  1.00  0.00    -0.352 N 
ATOM     31  C   UNL     1       5.399 -10.521   1.783  1.00  0.00     0.251 C 
ATOM     32  H   UNL     1       4.782  -8.608   1.737  1.00  0.00     0.163 HD
ATOM     33  O   UNL     1       5.560 -10.554   2.998  1.00  0.00    -0.269 OA
BRANCH  31  34
ATOM     34  C   UNL     1       5.685 -11.706   0.955  1.00  0.00     0.039 A 
ATOM     35  C   UNL     1       5.090 -12.922   1.292  1.00  0.00     0.014 A 
ATOM     36  C   UNL     1       6.462 -11.580  -0.199  1.00  0.00     0.014 A 
ATOM     37  C   UNL     1       5.220 -14.006   0.424  1.00  0.00     0.010 A 
ATOM     38  C   UNL     1       6.521 -12.634  -1.099  1.00  0.00     0.010 A 
ATOM     39  C   UNL     1       5.903 -13.857  -0.794  1.00  0.00    -0.014 A 
BRANCH  39  40
ATOM     40  C   UNL     1       5.992 -14.971  -1.765  1.00  0.00     0.031 A 
ATOM     41  C   UNL     1       7.332 -15.562  -2.100  1.00  0.00     0.074 A 
ATOM     42  C   UNL     1       4.882 -15.400  -2.395  1.00  0.00     0.049 A 
ATOM     43  N   UNL     1       7.629 -16.492  -2.971  1.00  0.00    -0.248 NA
ATOM     44  C   UNL     1       8.497 -15.014  -1.384  1.00  0.00     0.031 C 
ATOM     45  C   UNL     1       3.530 -14.871  -2.192  1.00  0.00     0.029 A 
ATOM     46  N   UNL     1       4.717 -16.377  -3.343  1.00  0.00    -0.354 N 
ATOM     47  C   UNL     1       9.010 -16.625  -2.921  1.00  0.00     0.074 A 
ATOM     48  C   UNL     1       9.499 -15.646  -1.976  1.00  0.00     0.031 C 
ATOM     49  C   UNL     1       2.672 -15.550  -2.970  1.00  0.00     0.029 A 
ATOM     50  C   UNL     1       3.415 -16.533  -3.752  1.00  0.00     0.049 A 
ATOM     51  H   UNL     1       5.461 -16.916  -3.697  1.00  0.00     0.167 HD
ATOM     52  C   UNL     1       9.801 -17.500  -3.584  1.00  0.00     0.031 A 
ATOM     53  C   UNL     1       2.881 -17.373  -4.658  1.00  0.00     0.031 A 
ATOM     54  C   UNL     1       9.312 -18.486  -4.509  1.00  0.00     0.049 A 
ATOM     55  C   UNL     1       3.780 -18.339  -5.378  1.00  0.00     0.074 A 
ATOM     56  C   UNL     1      10.024 -19.458  -5.189  1.00  0.00     0.029 A 
ATOM     57  N   UNL     1       7.984 -18.626  -4.880  1.00  0.00    -0.354 N 
ATOM     58  N   UNL     1       5.077 -18.499  -5.269  1.00  0.00    -0.248 NA
ATOM     59  C   UNL     1       3.138 -19.248  -6.338  1.00  0.00     0.031 C 
ATOM     60  C   UNL     1       9.131 -20.160  -6.004  1.00  0.00     0.029 A 
ATOM     61  C   UNL     1       7.857 -19.657  -5.793  1.00  0.00     0.049 A 
ATOM     62  H   UNL     1       7.242 -18.074  -4.543  1.00  0.00     0.167 HD
ATOM     63  C   UNL     1       5.402 -19.543  -6.125  1.00  0.00     0.074 A 
ATOM     64  C   UNL     1       4.165 -19.988  -6.733  1.00  0.00     0.031 C 
ATOM     65  C   UNL     1       6.617 -20.085  -6.384  1.00  0.00     0.031 A 
BRANCH  52  66
ATOM     66  C   UNL     1      11.279 -17.424  -3.328  1.00  0.00    -0.014 A 
ATOM     67  C   UNL     1      11.823 -17.827  -2.097  1.00  0.00     0.009 A 
ATOM     68  C   UNL     1      12.142 -16.967  -4.335  1.00  0.00     0.009 A 
ATOM     69  C   UNL     1      13.197 -17.737  -1.868  1.00  0.00     0.001 A 
ATOM     70  C   UNL     1      13.519 -16.905  -4.113  1.00  0.00     0.001 A 
ATOM     71  C   UNL     1      14.044 -17.281  -2.877  1.00  0.00     0.000 A 
ENDBRANCH  52  66
BRANCH  53  72
ATOM     72  C   UNL     1       1.419 -17.356  -4.922  1.00  0.00    -0.014 A 
ATOM     73  C   UNL     1       0.607 -18.414  -4.485  1.00  0.00     0.009 A 
ATOM     74  C   UNL     1       0.830 -16.289  -5.616  1.00  0.00     0.009 A 
ATOM     75  C   UNL     1      -0.762 -18.417  -4.764  1.00  0.00     0.001 A 
ATOM     76  C   UNL     1      -0.544 -16.282  -5.870  1.00  0.00     0.001 A 
ATOM     77  C   UNL     1      -1.337 -17.349  -5.452  1.00  0.00     0.000 A 
ENDBRANCH  53  72
BRANCH  65  78
ATOM     78  C   UNL     1       6.660 -21.242  -7.341  1.00  0.00    -0.014 A 
ATOM     79  C   UNL     1       6.486 -21.052  -8.720  1.00  0.00     0.009 A 
ATOM     80  C   UNL     1       6.922 -22.533  -6.856  1.00  0.00     0.009 A 
ATOM     81  C   UNL     1       6.543 -22.141  -9.593  1.00  0.00     0.001 A 
ATOM     82  C   UNL     1       7.005 -23.614  -7.734  1.00  0.00     0.001 A 
ATOM     83  C   UNL     1       6.808 -23.418  -9.100  1.00  0.00     0.000 A 
ENDBRANCH  65  78
ENDBRANCH  39  40
ENDBRANCH  31  34
ENDBRANCH  29  30
ENDBRANCH  28  29
ENDBRANCH  27  28
ENDBRANCH   1  27
TORSDOF 17
