REMARK SMILES CC(C)Cc1ccc(-c2cc(Cl)cc3c2O[C@H](C(F)(F)F)C(C(=O)NCCCCNC(=O)c2ccc(-c4c5nc(c(-c6ccccc6)c6ccc([nH]6)c(-c6ccccc6)c6nc(c(-c7ccccc7)c7ccc4[nH]7)C=C6)C=C5)cc2)=C3)cc1
REMARK SMILES IDX 27 1 26 2 25 3 23 4 24 5 22 7 9 8 10 9 15 10 11 11 14 12
REMARK SMILES IDX 16 13 12 14 13 15 81 16 17 17 8 18 5 19 6 20 83 21 7 22
REMARK SMILES IDX 82 23 4 24 2 25 1 26 3 27 18 28 19 29 20 30 21 31 28 32
REMARK SMILES IDX 29 33 30 34 31 35 32 37 33 38 34 39 80 40 35 41 79 42 36 43
REMARK SMILES IDX 37 44 38 45 73 46 39 47 78 48 72 49 74 50 40 51 77 52 71 53
REMARK SMILES IDX 70 54 41 56 63 57 48 58 62 59 49 60 52 61 61 62 75 63 50 64
REMARK SMILES IDX 51 65 60 67 76 68 53 69 42 70 43 71 47 72 44 73 46 74 45 75
REMARK SMILES IDX 64 76 65 77 69 78 66 79 68 80 67 81 54 82 55 83 59 84 56 85
REMARK SMILES IDX 58 86 57 87
REMARK H PARENT 25 6 30 36 74 55 52 66
REMARK Flexibility Score: inf
ROOT
ATOM      1  C   UNL     1      -0.920 -10.614   8.360  1.00  0.00     0.023 C 
ENDROOT
BRANCH   1   2
ATOM      2  C   UNL     1      -1.093 -10.361   6.855  1.00  0.00     0.116 C 
BRANCH   2   3
ATOM      3  N   UNL     1      -2.198  -9.454   6.644  1.00  0.00    -0.352 N 
ATOM      4  C   UNL     1      -2.282  -8.352   5.868  1.00  0.00     0.251 C 
ATOM      5  O   UNL     1      -3.058  -7.468   6.218  1.00  0.00    -0.270 OA
ATOM      6  H   UNL     1      -3.017  -9.674   7.143  1.00  0.00     0.163 HD
BRANCH   4   7
ATOM      7  C   UNL     1      -1.530  -8.318   4.577  1.00  0.00     0.067 C 
ATOM      8  C   UNL     1      -2.238  -4.438   3.594  1.00  0.00     0.026 A 
ATOM      9  C   UNL     1      -3.618  -4.200   3.819  1.00  0.00     0.033 A 
ATOM     10  C   UNL     1      -1.824  -5.782   3.587  1.00  0.00     0.135 A 
ATOM     11  C   UNL     1      -4.556  -5.228   3.841  1.00  0.00     0.042 A 
ATOM     12  C   UNL     1      -2.802  -6.801   3.492  1.00  0.00     0.019 A 
ATOM     13  O   UNL     1      -0.498  -6.170   3.724  1.00  0.00    -0.475 OA
ATOM     14  Cl  UNL     1      -6.210  -4.870   4.140  1.00  0.00    -0.084 Cl
ATOM     15  C   UNL     1      -4.163  -6.530   3.596  1.00  0.00     0.032 A 
ATOM     16  C   UNL     1      -2.337  -8.206   3.502  1.00  0.00     0.025 C 
ATOM     17  C   UNL     1      -0.314  -7.396   4.561  1.00  0.00     0.314 C 
BRANCH   8  18
ATOM     18  C   UNL     1      -1.476  -3.251   3.134  1.00  0.00    -0.015 A 
ATOM     19  C   UNL     1      -1.002  -0.763   1.820  1.00  0.00    -0.048 A 
ATOM     20  C   UNL     1      -1.294  -0.803   3.187  1.00  0.00     0.004 A 
ATOM     21  C   UNL     1      -0.868  -1.977   1.137  1.00  0.00     0.004 A 
ATOM     22  C   UNL     1      -1.522  -2.029   3.836  1.00  0.00     0.009 A 
ATOM     23  C   UNL     1      -1.076  -3.201   1.788  1.00  0.00     0.009 A 
BRANCH  19  24
ATOM     24  C   UNL     1      -0.861   0.557   1.089  1.00  0.00     0.038 C 
BRANCH  24  25
ATOM     25  C   UNL     1       0.597   1.036   0.954  1.00  0.00    -0.013 C 
ATOM     26  C   UNL     1       1.401   0.166  -0.016  1.00  0.00     0.008 C 
ATOM     27  C   UNL     1       0.648   2.491   0.479  1.00  0.00     0.008 C 
ENDBRANCH  24  25
ENDBRANCH  19  24
ENDBRANCH   8  18
BRANCH  17  28
ATOM     28  C   UNL     1       0.913  -8.222   4.109  1.00  0.00     0.429 C 
ATOM     29  F   UNL     1       1.317  -7.919   2.855  1.00  0.00    -0.167 F 
ATOM     30  F   UNL     1       1.966  -8.033   4.940  1.00  0.00    -0.167 F 
ATOM     31  F   UNL     1       0.665  -9.560   4.119  1.00  0.00    -0.167 F 
ENDBRANCH  17  28
ENDBRANCH   4   7
ENDBRANCH   2   3
ENDBRANCH   1   2
BRANCH   1  32
ATOM     32  C   UNL     1      -2.152 -11.194   9.071  1.00  0.00     0.023 C 
BRANCH  32  33
ATOM     33  C   UNL     1      -2.704 -12.473   8.454  1.00  0.00     0.116 C 
BRANCH  33  34
ATOM     34  N   UNL     1      -1.763 -13.575   8.561  1.00  0.00    -0.352 N 
ATOM     35  C   UNL     1      -1.925 -14.797   9.163  1.00  0.00     0.251 C 
ATOM     36  H   UNL     1      -0.884 -13.423   8.143  1.00  0.00     0.163 HD
ATOM     37  O   UNL     1      -0.953 -15.530   9.340  1.00  0.00    -0.269 OA
BRANCH  35  38
ATOM     38  C   UNL     1      -3.263 -15.225   9.620  1.00  0.00     0.039 A 
ATOM     39  C   UNL     1      -3.393 -15.803  10.885  1.00  0.00     0.014 A 
ATOM     40  C   UNL     1      -4.387 -15.059   8.806  1.00  0.00     0.014 A 
ATOM     41  C   UNL     1      -4.659 -16.154  11.359  1.00  0.00     0.010 A 
ATOM     42  C   UNL     1      -5.655 -15.339   9.309  1.00  0.00     0.010 A 
ATOM     43  C   UNL     1      -5.805 -15.892  10.590  1.00  0.00    -0.014 A 
BRANCH  43  44
ATOM     44  C   UNL     1      -7.166 -16.183  11.112  1.00  0.00     0.031 A 
ATOM     45  C   UNL     1      -8.043 -17.194  10.422  1.00  0.00     0.074 A 
ATOM     46  C   UNL     1      -7.636 -15.495  12.172  1.00  0.00     0.049 A 
ATOM     47  N   UNL     1      -9.274 -17.546  10.702  1.00  0.00    -0.248 NA
ATOM     48  C   UNL     1      -7.475 -17.885   9.253  1.00  0.00     0.031 C 
ATOM     49  C   UNL     1      -6.902 -14.464  12.910  1.00  0.00     0.029 A 
ATOM     50  N   UNL     1      -8.850 -15.558  12.812  1.00  0.00    -0.354 N 
ATOM     51  C   UNL     1      -9.631 -18.476   9.734  1.00  0.00     0.074 A 
ATOM     52  C   UNL     1      -8.506 -18.605   8.835  1.00  0.00     0.031 C 
ATOM     53  C   UNL     1      -7.667 -14.016  13.919  1.00  0.00     0.029 A 
ATOM     54  C   UNL     1      -8.960 -14.691  13.874  1.00  0.00     0.049 A 
ATOM     55  H   UNL     1      -9.573 -16.167  12.538  1.00  0.00     0.167 HD
ATOM     56  C   UNL     1     -10.786 -19.173   9.613  1.00  0.00     0.031 A 
ATOM     57  C   UNL     1      -9.989 -14.459  14.711  1.00  0.00     0.031 A 
ATOM     58  C   UNL     1     -11.898 -19.061  10.518  1.00  0.00     0.049 A 
ATOM     59  C   UNL     1     -11.267 -15.233  14.536  1.00  0.00     0.074 A 
ATOM     60  C   UNL     1     -13.081 -19.780  10.519  1.00  0.00     0.029 A 
ATOM     61  N   UNL     1     -11.968 -18.172  11.578  1.00  0.00    -0.354 N 
ATOM     62  N   UNL     1     -11.554 -16.173  13.668  1.00  0.00    -0.248 NA
ATOM     63  C   UNL     1     -12.361 -14.921  15.466  1.00  0.00     0.031 C 
ATOM     64  C   UNL     1     -13.894 -19.282  11.541  1.00  0.00     0.029 A 
ATOM     65  C   UNL     1     -13.189 -18.300  12.219  1.00  0.00     0.049 A 
ATOM     66  H   UNL     1     -11.256 -17.543  11.838  1.00  0.00     0.167 HD
ATOM     67  C   UNL     1     -12.844 -16.589  13.973  1.00  0.00     0.074 A 
ATOM     68  C   UNL     1     -13.276 -15.812  15.116  1.00  0.00     0.031 C 
ATOM     69  C   UNL     1     -13.602 -17.531  13.362  1.00  0.00     0.031 A 
BRANCH  56  70
ATOM     70  C   UNL     1     -10.918 -20.118   8.450  1.00  0.00    -0.014 A 
ATOM     71  C   UNL     1     -10.185 -21.314   8.392  1.00  0.00     0.009 A 
ATOM     72  C   UNL     1     -11.845 -19.840   7.432  1.00  0.00     0.009 A 
ATOM     73  C   UNL     1     -10.359 -22.198   7.325  1.00  0.00     0.001 A 
ATOM     74  C   UNL     1     -12.038 -20.740   6.383  1.00  0.00     0.001 A 
ATOM     75  C   UNL     1     -11.290 -21.914   6.326  1.00  0.00     0.000 A 
ENDBRANCH  56  70
BRANCH  57  76
ATOM     76  C   UNL     1      -9.868 -13.452  15.800  1.00  0.00    -0.014 A 
ATOM     77  C   UNL     1      -9.884 -13.853  17.146  1.00  0.00     0.009 A 
ATOM     78  C   UNL     1      -9.787 -12.082  15.505  1.00  0.00     0.009 A 
ATOM     79  C   UNL     1      -9.868 -12.903  18.170  1.00  0.00     0.001 A 
ATOM     80  C   UNL     1      -9.736 -11.136  16.531  1.00  0.00     0.001 A 
ATOM     81  C   UNL     1      -9.792 -11.546  17.862  1.00  0.00     0.000 A 
ENDBRANCH  57  76
BRANCH  69  82
ATOM     82  C   UNL     1     -14.957 -17.814  13.949  1.00  0.00    -0.014 A 
ATOM     83  C   UNL     1     -16.009 -16.889  13.850  1.00  0.00     0.009 A 
ATOM     84  C   UNL     1     -15.194 -19.047  14.578  1.00  0.00     0.009 A 
ATOM     85  C   UNL     1     -17.258 -17.180  14.403  1.00  0.00     0.001 A 
ATOM     86  C   UNL     1     -16.452 -19.348  15.099  1.00  0.00     0.001 A 
ATOM     87  C   UNL     1     -17.480 -18.410  15.022  1.00  0.00     0.000 A 
ENDBRANCH  69  82
ENDBRANCH  43  44
ENDBRANCH  35  38
ENDBRANCH  33  34
ENDBRANCH  32  33
ENDBRANCH   1  32
TORSDOF 15
