REMARK SMILES CCc1cccc(CC)c1N1/C(=[NH+]/C(=O)CCCC(=O)NCCCCNC(=O)c2ccc(-c3c4nc(c(-c5ccccc5)c5ccc([nH]5)c(-c5ccccc5)c5nc(c(-c6ccccc6)c6ccc3[nH]6)C=C5)C=C4)cc2)S[C@@H]2CS(=O)(=O)C[C@@H]21
REMARK SMILES IDX 22 1 21 2 19 3 20 4 18 6 17 7 16 8 14 9 11 10 12 11 84 12
REMARK SMILES IDX 13 13 77 14 78 15 83 16 79 18 80 19 15 20 81 21 82 22 10 23
REMARK SMILES IDX 3 24 4 25 5 26 7 27 6 28 2 29 1 30 8 31 9 32 23 33 24 34
REMARK SMILES IDX 25 35 26 36 27 37 28 39 29 40 30 41 76 42 31 43 75 44 32 45
REMARK SMILES IDX 33 46 34 47 69 48 35 49 74 50 68 51 70 52 36 53 73 54 67 55
REMARK SMILES IDX 66 56 37 58 59 59 44 60 58 61 45 62 48 63 57 64 71 65 46 66
REMARK SMILES IDX 47 67 56 69 72 70 49 71 38 72 39 73 43 74 40 75 42 76 41 77
REMARK SMILES IDX 60 78 61 79 65 80 62 81 64 82 63 83 50 84 51 85 55 86 52 87
REMARK SMILES IDX 54 88 53 89
REMARK H PARENT 21 5 13 17 26 38 70 57 48 68
REMARK Flexibility Score: inf
ROOT
ATOM      1  C   UNL     1       4.582  -0.915   0.718  1.00  0.00     0.116 C 
ENDROOT
BRANCH   1   2
ATOM      2  N   UNL     1       3.752  -1.327   1.824  1.00  0.00    -0.356 N 
ATOM      3  C   UNL     1       2.700  -0.673   2.389  1.00  0.00     0.220 C 
ATOM      4  O   UNL     1       2.218  -1.128   3.427  1.00  0.00    -0.275 OA
ATOM      5  H   UNL     1       3.975  -2.199   2.224  1.00  0.00     0.163 HD
BRANCH   3   6
ATOM      6  C   UNL     1       2.104   0.547   1.713  1.00  0.00     0.100 C 
BRANCH   6   7
ATOM      7  C   UNL     1       2.768   1.894   1.989  1.00  0.00     0.022 C 
BRANCH   7   8
ATOM      8  C   UNL     1       3.736   2.438   0.935  1.00  0.00     0.128 C 
BRANCH   8   9
ATOM      9  C   UNL     1       3.182   2.628  -0.468  1.00  0.00     0.307 C 
ATOM     10  N   UNL     1       2.567   0.513  -3.361  1.00  0.00    -0.216 N 
ATOM     11  C   UNL     1       3.118   1.393  -2.429  1.00  0.00     0.319 C 
ATOM     12  C   UNL     1       2.601   0.988  -4.767  1.00  0.00     0.212 C 
ATOM     13  N   UNL     1       2.880   1.477  -1.163  1.00  0.00    -0.204 N 
ATOM     14  S   UNL     1       4.194   2.508  -3.311  1.00  0.00    -0.029 SA
ATOM     15  C   UNL     1       3.075   2.454  -4.731  1.00  0.00     0.120 C 
ATOM     16  C   UNL     1       1.262   0.956  -5.496  1.00  0.00     0.188 C 
ATOM     17  H   UNL     1       2.480   0.712  -0.690  1.00  0.00     0.316 HD
ATOM     18  C   UNL     1       1.873   3.345  -4.459  1.00  0.00     0.156 C 
ATOM     19  S   UNL     1       0.557   2.581  -5.361  1.00  0.00     0.155 S 
ATOM     20  O   UNL     1       2.941   3.760  -0.882  1.00  0.00    -0.247 OA
ATOM     21  O   UNL     1      -0.617   2.523  -4.528  1.00  0.00    -0.229 OA
ATOM     22  O   UNL     1       0.538   3.166  -6.692  1.00  0.00    -0.229 OA
BRANCH  10  23
ATOM     23  C   UNL     1       2.021  -0.771  -3.115  1.00  0.00     0.134 A 
ATOM     24  C   UNL     1       0.772  -0.929  -2.450  1.00  0.00    -0.001 A 
ATOM     25  C   UNL     1       0.166  -2.204  -2.389  1.00  0.00     0.008 A 
ATOM     26  C   UNL     1       0.759  -3.320  -2.953  1.00  0.00     0.001 A 
ATOM     27  C   UNL     1       2.646  -1.943  -3.656  1.00  0.00    -0.001 A 
ATOM     28  C   UNL     1       1.984  -3.188  -3.585  1.00  0.00     0.008 A 
BRANCH  24  29
ATOM     29  C   UNL     1      -0.035   0.218  -1.869  1.00  0.00     0.036 C 
ATOM     30  C   UNL     1      -0.516  -0.062  -0.446  1.00  0.00     0.009 C 
ENDBRANCH  24  29
BRANCH  27  31
ATOM     31  C   UNL     1       3.982  -1.920  -4.382  1.00  0.00     0.036 C 
ATOM     32  C   UNL     1       4.959  -3.031  -4.001  1.00  0.00     0.009 C 
ENDBRANCH  27  31
ENDBRANCH  10  23
ENDBRANCH   8   9
ENDBRANCH   7   8
ENDBRANCH   6   7
ENDBRANCH   3   6
ENDBRANCH   1   2
BRANCH   1  33
ATOM     33  C   UNL     1       5.870  -0.276   1.236  1.00  0.00     0.023 C 
BRANCH  33  34
ATOM     34  C   UNL     1       6.994  -1.275   1.461  1.00  0.00     0.023 C 
BRANCH  34  35
ATOM     35  C   UNL     1       7.536  -1.865   0.168  1.00  0.00     0.116 C 
BRANCH  35  36
ATOM     36  N   UNL     1       8.132  -0.875  -0.722  1.00  0.00    -0.352 N 
ATOM     37  C   UNL     1       9.291  -0.982  -1.453  1.00  0.00     0.251 C 
ATOM     38  H   UNL     1       7.643  -0.025  -0.810  1.00  0.00     0.163 HD
ATOM     39  O   UNL     1       9.728  -0.036  -2.096  1.00  0.00    -0.269 OA
BRANCH  37  40
ATOM     40  C   UNL     1      10.025  -2.260  -1.405  1.00  0.00     0.039 A 
ATOM     41  C   UNL     1      11.363  -2.257  -1.013  1.00  0.00     0.014 A 
ATOM     42  C   UNL     1       9.343  -3.459  -1.625  1.00  0.00     0.014 A 
ATOM     43  C   UNL     1      11.999  -3.471  -0.758  1.00  0.00     0.010 A 
ATOM     44  C   UNL     1       9.948  -4.658  -1.277  1.00  0.00     0.010 A 
ATOM     45  C   UNL     1      11.282  -4.677  -0.840  1.00  0.00    -0.014 A 
BRANCH  45  46
ATOM     46  C   UNL     1      11.906  -5.970  -0.469  1.00  0.00     0.031 A 
ATOM     47  C   UNL     1      12.046  -7.056  -1.500  1.00  0.00     0.074 A 
ATOM     48  C   UNL     1      12.284  -6.191   0.806  1.00  0.00     0.049 A 
ATOM     49  N   UNL     1      12.516  -8.269  -1.361  1.00  0.00    -0.248 NA
ATOM     50  C   UNL     1      11.565  -6.752  -2.859  1.00  0.00     0.031 C 
ATOM     51  C   UNL     1      12.147  -5.239   1.913  1.00  0.00     0.029 A 
ATOM     52  N   UNL     1      12.859  -7.292   1.388  1.00  0.00    -0.354 N 
ATOM     53  C   UNL     1      12.367  -8.874  -2.601  1.00  0.00     0.074 A 
ATOM     54  C   UNL     1      11.713  -7.919  -3.467  1.00  0.00     0.031 C 
ATOM     55  C   UNL     1      12.660  -5.785   3.028  1.00  0.00     0.029 A 
ATOM     56  C   UNL     1      13.123  -7.135   2.728  1.00  0.00     0.049 A 
ATOM     57  H   UNL     1      13.063  -8.118   0.892  1.00  0.00     0.167 HD
ATOM     58  C   UNL     1      12.761 -10.107  -2.994  1.00  0.00     0.031 A 
ATOM     59  C   UNL     1      13.678  -7.984   3.613  1.00  0.00     0.031 A 
ATOM     60  C   UNL     1      13.440 -11.046  -2.144  1.00  0.00     0.049 A 
ATOM     61  C   UNL     1      14.116  -9.345   3.144  1.00  0.00     0.074 A 
ATOM     62  C   UNL     1      13.947 -12.291  -2.469  1.00  0.00     0.029 A 
ATOM     63  N   UNL     1      13.707 -10.840  -0.800  1.00  0.00    -0.354 N 
ATOM     64  N   UNL     1      14.045  -9.869   1.945  1.00  0.00    -0.248 NA
ATOM     65  C   UNL     1      14.723 -10.226   4.152  1.00  0.00     0.031 C 
ATOM     66  C   UNL     1      14.480 -12.860  -1.309  1.00  0.00     0.029 A 
ATOM     67  C   UNL     1      14.352 -11.946  -0.275  1.00  0.00     0.049 A 
ATOM     68  H   UNL     1      13.473 -10.029  -0.294  1.00  0.00     0.167 HD
ATOM     69  C   UNL     1      14.624 -11.127   2.048  1.00  0.00     0.074 A 
ATOM     70  C   UNL     1      15.059 -11.279   3.421  1.00  0.00     0.031 C 
ATOM     71  C   UNL     1      14.781 -12.075   1.092  1.00  0.00     0.031 A 
BRANCH  58  72
ATOM     72  C   UNL     1      12.474 -10.510  -4.413  1.00  0.00    -0.014 A 
ATOM     73  C   UNL     1      13.168  -9.931  -5.488  1.00  0.00     0.009 A 
ATOM     74  C   UNL     1      11.531 -11.515  -4.676  1.00  0.00     0.009 A 
ATOM     75  C   UNL     1      12.902 -10.331  -6.799  1.00  0.00     0.001 A 
ATOM     76  C   UNL     1      11.288 -11.933  -5.985  1.00  0.00     0.001 A 
ATOM     77  C   UNL     1      11.968 -11.336  -7.045  1.00  0.00     0.000 A 
ENDBRANCH  58  72
BRANCH  59  78
ATOM     78  C   UNL     1      13.871  -7.578   5.030  1.00  0.00    -0.014 A 
ATOM     79  C   UNL     1      15.162  -7.368   5.540  1.00  0.00     0.009 A 
ATOM     80  C   UNL     1      12.772  -7.432   5.890  1.00  0.00     0.009 A 
ATOM     81  C   UNL     1      15.350  -7.059   6.890  1.00  0.00     0.001 A 
ATOM     82  C   UNL     1      12.961  -7.092   7.231  1.00  0.00     0.001 A 
ATOM     83  C   UNL     1      14.250  -6.919   7.733  1.00  0.00     0.000 A 
ENDBRANCH  59  78
BRANCH  71  84
ATOM     84  C   UNL     1      15.482 -13.342   1.491  1.00  0.00    -0.014 A 
ATOM     85  C   UNL     1      14.859 -14.291   2.316  1.00  0.00     0.009 A 
ATOM     86  C   UNL     1      16.772 -13.603   1.002  1.00  0.00     0.009 A 
ATOM     87  C   UNL     1      15.530 -15.462   2.672  1.00  0.00     0.001 A 
ATOM     88  C   UNL     1      17.427 -14.789   1.335  1.00  0.00     0.001 A 
ATOM     89  C   UNL     1      16.810 -15.712   2.178  1.00  0.00     0.000 A 
ENDBRANCH  71  84
ENDBRANCH  45  46
ENDBRANCH  37  40
ENDBRANCH  35  36
ENDBRANCH  34  35
ENDBRANCH  33  34
ENDBRANCH   1  33
TORSDOF 17
