REMARK SMILES O=C(NCCCCNC(=O)c1cccc(Nc2ccc([N+](=O)[O-])cc2)c1)c1ccc(-c2c3nc(c(-c4ccccc4)c4ccc([nH]4)c(-c4ccccc4)c4nc(c(-c5ccccc5)c5ccc2[nH]5)C=C4)C=C3)cc1
REMARK SMILES IDX 6 1 5 2 4 3 3 4 1 5 2 6 27 8 28 9 74 10 29 11 73 12 30 13
REMARK SMILES IDX 31 14 32 15 67 16 33 17 72 18 66 19 68 20 34 21 71 22 65 23
REMARK SMILES IDX 64 24 35 26 57 27 42 28 56 29 43 30 46 31 55 32 69 33 44 34
REMARK SMILES IDX 45 35 54 37 70 38 47 39 36 40 37 41 41 42 38 43 40 44 39 45
REMARK SMILES IDX 58 46 59 47 63 48 60 49 62 50 61 51 48 52 49 53 53 54 50 55
REMARK SMILES IDX 52 56 51 57 7 58 8 59 9 60 10 62 11 63 12 64 26 65 13 66
REMARK SMILES IDX 15 67 14 68 16 69 17 71 18 72 25 73 19 74 24 75 20 76 21 77
REMARK SMILES IDX 22 78 23 79
REMARK H PARENT 3 7 68 25 46 36 8 61 16 70
REMARK Flexibility Score: inf
ROOT
ATOM      1  C   UNL     1       4.360  -0.882  -3.878  1.00  0.00     0.023 C 
ENDROOT
BRANCH   1   2
ATOM      2  C   UNL     1       4.839  -1.224  -2.470  1.00  0.00     0.023 C 
BRANCH   2   3
ATOM      3  C   UNL     1       4.525  -0.181  -1.406  1.00  0.00     0.116 C 
BRANCH   3   4
ATOM      4  N   UNL     1       3.098   0.028  -1.214  1.00  0.00    -0.352 N 
ATOM      5  O   UNL     1       1.132   0.032  -0.104  1.00  0.00    -0.269 OA
ATOM      6  C   UNL     1       2.357  -0.049  -0.059  1.00  0.00     0.251 C 
ATOM      7  H   UNL     1       2.592   0.256  -2.026  1.00  0.00     0.163 HD
BRANCH   6   8
ATOM      8  C   UNL     1       3.035  -0.263   1.237  1.00  0.00     0.039 A 
ATOM      9  C   UNL     1       4.174   0.471   1.573  1.00  0.00     0.014 A 
ATOM     10  C   UNL     1       2.529  -1.218   2.123  1.00  0.00     0.014 A 
ATOM     11  C   UNL     1       4.893   0.143   2.717  1.00  0.00     0.010 A 
ATOM     12  C   UNL     1       3.205  -1.486   3.317  1.00  0.00     0.010 A 
ATOM     13  C   UNL     1       4.412  -0.832   3.607  1.00  0.00    -0.014 A 
BRANCH  13  14
ATOM     14  C   UNL     1       5.165  -1.103   4.857  1.00  0.00     0.031 A 
ATOM     15  C   UNL     1       5.818  -2.435   5.104  1.00  0.00     0.074 A 
ATOM     16  C   UNL     1       5.296  -0.110   5.757  1.00  0.00     0.049 A 
ATOM     17  N   UNL     1       6.547  -2.815   6.124  1.00  0.00    -0.248 NA
ATOM     18  C   UNL     1       5.628  -3.476   4.081  1.00  0.00     0.031 C 
ATOM     19  C   UNL     1       4.707   1.226   5.631  1.00  0.00     0.029 A 
ATOM     20  N   UNL     1       5.987  -0.058   6.940  1.00  0.00    -0.354 N 
ATOM     21  C   UNL     1       6.893  -4.138   5.874  1.00  0.00     0.074 A 
ATOM     22  C   UNL     1       6.271  -4.505   4.619  1.00  0.00     0.031 C 
ATOM     23  C   UNL     1       5.105   1.981   6.665  1.00  0.00     0.029 A 
ATOM     24  C   UNL     1       5.924   1.168   7.556  1.00  0.00     0.049 A 
ATOM     25  H   UNL     1       6.480  -0.825   7.312  1.00  0.00     0.167 HD
ATOM     26  C   UNL     1       7.664  -4.967   6.618  1.00  0.00     0.031 A 
ATOM     27  C   UNL     1       6.455   1.592   8.716  1.00  0.00     0.031 A 
ATOM     28  C   UNL     1       8.278  -4.604   7.869  1.00  0.00     0.049 A 
ATOM     29  C   UNL     1       7.275   0.641   9.535  1.00  0.00     0.074 A 
ATOM     30  C   UNL     1       9.084  -5.374   8.691  1.00  0.00     0.029 A 
ATOM     31  N   UNL     1       8.155  -3.365   8.479  1.00  0.00    -0.354 N 
ATOM     32  N   UNL     1       7.606  -0.600   9.272  1.00  0.00    -0.248 NA
ATOM     33  C   UNL     1       7.795   1.150  10.811  1.00  0.00     0.031 C 
ATOM     34  C   UNL     1       9.414  -4.615   9.819  1.00  0.00     0.029 A 
ATOM     35  C   UNL     1       8.855  -3.356   9.675  1.00  0.00     0.049 A 
ATOM     36  H   UNL     1       7.646  -2.605   8.116  1.00  0.00     0.167 HD
ATOM     37  C   UNL     1       8.383  -1.016  10.343  1.00  0.00     0.074 A 
ATOM     38  C   UNL     1       8.495   0.112  11.245  1.00  0.00     0.031 C 
ATOM     39  C   UNL     1       8.949  -2.227  10.563  1.00  0.00     0.031 A 
BRANCH  26  40
ATOM     40  C   UNL     1       7.874  -6.366   6.107  1.00  0.00    -0.014 A 
ATOM     41  C   UNL     1       8.718  -6.620   5.014  1.00  0.00     0.009 A 
ATOM     42  C   UNL     1       7.263  -7.448   6.760  1.00  0.00     0.009 A 
ATOM     43  C   UNL     1       8.924  -7.928   4.569  1.00  0.00     0.001 A 
ATOM     44  C   UNL     1       7.490  -8.757   6.327  1.00  0.00     0.001 A 
ATOM     45  C   UNL     1       8.314  -8.995   5.229  1.00  0.00     0.000 A 
ENDBRANCH  26  40
BRANCH  27  46
ATOM     46  C   UNL     1       6.210   2.983   9.176  1.00  0.00    -0.014 A 
ATOM     47  C   UNL     1       7.250   3.924   9.196  1.00  0.00     0.009 A 
ATOM     48  C   UNL     1       4.928   3.375   9.592  1.00  0.00     0.009 A 
ATOM     49  C   UNL     1       7.014   5.226   9.644  1.00  0.00     0.001 A 
ATOM     50  C   UNL     1       4.689   4.685  10.011  1.00  0.00     0.001 A 
ATOM     51  C   UNL     1       5.734   5.606  10.046  1.00  0.00     0.000 A 
ENDBRANCH  27  46
BRANCH  39  52
ATOM     52  C   UNL     1       9.758  -2.378  11.819  1.00  0.00    -0.014 A 
ATOM     53  C   UNL     1       9.138  -2.465  13.075  1.00  0.00     0.009 A 
ATOM     54  C   UNL     1      11.158  -2.445  11.741  1.00  0.00     0.009 A 
ATOM     55  C   UNL     1       9.908  -2.580  14.234  1.00  0.00     0.001 A 
ATOM     56  C   UNL     1      11.923  -2.586  12.900  1.00  0.00     0.001 A 
ATOM     57  C   UNL     1      11.298  -2.643  14.145  1.00  0.00     0.000 A 
ENDBRANCH  39  52
ENDBRANCH  13  14
ENDBRANCH   6   8
ENDBRANCH   3   4
ENDBRANCH   2   3
ENDBRANCH   1   2
BRANCH   1  58
ATOM     58  C   UNL     1       4.769   0.496  -4.389  1.00  0.00     0.116 C 
BRANCH  58  59
ATOM     59  N   UNL     1       6.212   0.683  -4.396  1.00  0.00    -0.352 N 
ATOM     60  C   UNL     1       7.042   0.970  -5.450  1.00  0.00     0.251 C 
ATOM     61  H   UNL     1       6.654   0.591  -3.522  1.00  0.00     0.163 HD
ATOM     62  O   UNL     1       8.260   0.948  -5.304  1.00  0.00    -0.269 OA
BRANCH  60  63
ATOM     63  C   UNL     1       6.464   1.289  -6.768  1.00  0.00     0.041 A 
ATOM     64  C   UNL     1       6.901   0.575  -7.883  1.00  0.00     0.014 A 
ATOM     65  C   UNL     1       5.501   2.299  -6.896  1.00  0.00     0.039 A 
ATOM     66  C   UNL     1       6.325   0.834  -9.122  1.00  0.00     0.003 A 
ATOM     67  C   UNL     1       4.909   2.562  -8.134  1.00  0.00     0.039 A 
ATOM     68  C   UNL     1       5.327   1.807  -9.239  1.00  0.00     0.026 A 
BRANCH  67  69
ATOM     69  N   UNL     1       3.895   3.536  -8.207  1.00  0.00    -0.356 N 
ATOM     70  H   UNL     1       3.791   4.089  -7.399  1.00  0.00     0.167 HD
BRANCH  69  71
ATOM     71  C   UNL     1       3.010   3.841  -9.253  1.00  0.00     0.039 A 
ATOM     72  C   UNL     1       2.878   5.176  -9.659  1.00  0.00     0.033 A 
ATOM     73  C   UNL     1       2.339   2.845  -9.976  1.00  0.00     0.033 A 
ATOM     74  C   UNL     1       2.124   5.511 -10.787  1.00  0.00     0.088 A 
ATOM     75  C   UNL     1       1.572   3.166 -11.100  1.00  0.00     0.088 A 
ATOM     76  C   UNL     1       1.484   4.500 -11.512  1.00  0.00     0.269 A 
BRANCH  76  77
ATOM     77  N   UNL     1       0.740   4.840 -12.730  1.00  0.00     0.062 N 
ATOM     78  O   UNL     1       0.714   6.029 -13.077  1.00  0.00    -0.258 OA
ATOM     79  O   UNL     1       0.189   3.916 -13.346  1.00  0.00    -0.258 OA
ENDBRANCH  76  77
ENDBRANCH  69  71
ENDBRANCH  67  69
ENDBRANCH  60  63
ENDBRANCH  58  59
ENDBRANCH   1  58
TORSDOF 14
