REMARK SMILES Cc1ccc(C(=O)NCCCCNC(=O)c2ccc(-c3c4nc(c(-c5ccccc5)c5ccc([nH]5)c(-c5ccccc5)c5nc(c(-c6ccccc6)c6ccc3[nH]6)C=C5)C=C4)cc2)cc1N1CC(C)C1
REMARK SMILES IDX 11 1 10 2 9 3 8 4 6 5 7 6 5 8 1 9 2 10 3 11 65 12 4 13 64 14
REMARK SMILES IDX 66 15 67 16 70 17 68 18 69 19 12 20 13 21 14 22 15 24 16 25
REMARK SMILES IDX 17 26 63 27 18 28 62 29 19 30 20 31 21 32 56 33 22 34 61 35
REMARK SMILES IDX 55 36 57 37 23 38 60 39 54 40 53 41 24 43 46 44 31 45 45 46
REMARK SMILES IDX 32 47 35 48 44 49 58 50 33 51 34 52 43 54 59 55 36 56 25 57
REMARK SMILES IDX 26 58 30 59 27 60 29 61 28 62 47 63 48 64 52 65 49 66 51 67
REMARK SMILES IDX 50 68 37 69 38 70 42 71 39 72 41 73 40 74
REMARK H PARENT 8 7 13 23 57 42 35 53
REMARK Flexibility Score: inf
ROOT
ATOM      1  C   UNL     1      -4.680   3.517  -2.075  1.00  0.00     0.023 C 
ENDROOT
BRANCH   1   2
ATOM      2  C   UNL     1      -3.369   3.347  -1.294  1.00  0.00     0.023 C 
BRANCH   2   3
ATOM      3  C   UNL     1      -3.526   2.675   0.079  1.00  0.00     0.116 C 
BRANCH   3   4
ATOM      4  N   UNL     1      -3.771   1.250  -0.033  1.00  0.00    -0.352 N 
ATOM      5  C   UNL     1      -2.972   0.137  -0.092  1.00  0.00     0.251 C 
ATOM      6  O   UNL     1      -3.567  -0.943  -0.160  1.00  0.00    -0.269 OA
ATOM      7  H   UNL     1      -4.730   1.031  -0.075  1.00  0.00     0.163 HD
BRANCH   5   8
ATOM      8  C   UNL     1      -1.475   0.129  -0.072  1.00  0.00     0.041 A 
ATOM      9  C   UNL     1       2.846  -0.311   0.015  1.00  0.00     0.046 C 
ATOM     10  C   UNL     1       1.356  -0.114  -0.014  1.00  0.00    -0.028 A 
ATOM     11  C   UNL     1       0.538  -1.251  -0.033  1.00  0.00     0.006 A 
ATOM     12  C   UNL     1       0.755   1.156  -0.022  1.00  0.00     0.040 A 
ATOM     13  C   UNL     1      -0.854  -1.129  -0.046  1.00  0.00     0.014 A 
ATOM     14  C   UNL     1      -0.649   1.254  -0.084  1.00  0.00     0.040 A 
BRANCH  12  15
ATOM     15  N   UNL     1       1.543   2.326   0.044  1.00  0.00    -0.371 N 
ATOM     16  C   UNL     1       1.256   3.538   0.757  1.00  0.00     0.121 C 
ATOM     17  C   UNL     1       2.091   3.003  -1.098  1.00  0.00     0.121 C 
ATOM     18  C   UNL     1       1.594   4.329  -0.508  1.00  0.00     0.025 C 
ATOM     19  C   UNL     1       2.614   5.439  -0.355  1.00  0.00     0.011 C 
ENDBRANCH  12  15
ENDBRANCH   5   8
ENDBRANCH   3   4
ENDBRANCH   2   3
ENDBRANCH   1   2
BRANCH   1  20
ATOM     20  C   UNL     1      -5.657   4.494  -1.431  1.00  0.00     0.116 C 
BRANCH  20  21
ATOM     21  N   UNL     1      -5.375   5.904  -1.656  1.00  0.00    -0.352 N 
ATOM     22  C   UNL     1      -5.894   7.036  -1.039  1.00  0.00     0.251 C 
ATOM     23  H   UNL     1      -4.709   6.085  -2.359  1.00  0.00     0.163 HD
ATOM     24  O   UNL     1      -5.617   8.135  -1.483  1.00  0.00    -0.269 OA
BRANCH  22  25
ATOM     25  C   UNL     1      -6.648   6.928   0.244  1.00  0.00     0.039 A 
ATOM     26  C   UNL     1      -6.459   7.941   1.197  1.00  0.00     0.014 A 
ATOM     27  C   UNL     1      -7.323   5.771   0.606  1.00  0.00     0.014 A 
ATOM     28  C   UNL     1      -6.675   7.667   2.545  1.00  0.00     0.010 A 
ATOM     29  C   UNL     1      -7.401   5.443   1.941  1.00  0.00     0.010 A 
ATOM     30  C   UNL     1      -7.012   6.371   2.909  1.00  0.00    -0.014 A 
BRANCH  30  31
ATOM     31  C   UNL     1      -6.924   5.845   4.261  1.00  0.00     0.031 A 
ATOM     32  C   UNL     1      -8.160   5.555   5.008  1.00  0.00     0.074 A 
ATOM     33  C   UNL     1      -5.716   5.458   4.728  1.00  0.00     0.049 A 
ATOM     34  N   UNL     1      -8.200   5.292   6.268  1.00  0.00    -0.248 NA
ATOM     35  C   UNL     1      -9.486   5.612   4.391  1.00  0.00     0.031 C 
ATOM     36  C   UNL     1      -5.425   4.559   5.841  1.00  0.00     0.029 A 
ATOM     37  N   UNL     1      -4.475   6.007   4.397  1.00  0.00    -0.354 N 
ATOM     38  C   UNL     1      -9.461   4.819   6.538  1.00  0.00     0.074 A 
ATOM     39  C   UNL     1     -10.256   5.179   5.393  1.00  0.00     0.031 C 
ATOM     40  C   UNL     1      -4.175   4.792   6.275  1.00  0.00     0.029 A 
ATOM     41  C   UNL     1      -3.698   5.972   5.572  1.00  0.00     0.049 A 
ATOM     42  H   UNL     1      -4.198   6.350   3.517  1.00  0.00     0.167 HD
ATOM     43  C   UNL     1      -9.640   4.022   7.625  1.00  0.00     0.031 A 
ATOM     44  C   UNL     1      -3.319   7.132   6.190  1.00  0.00     0.031 A 
ATOM     45  C   UNL     1      -8.479   4.070   8.513  1.00  0.00     0.049 A 
ATOM     46  C   UNL     1      -3.865   7.270   7.596  1.00  0.00     0.074 A 
ATOM     47  C   UNL     1      -7.448   3.186   8.779  1.00  0.00     0.029 A 
ATOM     48  N   UNL     1      -8.098   5.297   9.051  1.00  0.00    -0.354 N 
ATOM     49  N   UNL     1      -4.912   6.628   8.039  1.00  0.00    -0.248 NA
ATOM     50  C   UNL     1      -3.285   8.152   8.606  1.00  0.00     0.031 C 
ATOM     51  C   UNL     1      -6.386   3.928   9.368  1.00  0.00     0.029 A 
ATOM     52  C   UNL     1      -6.797   5.243   9.509  1.00  0.00     0.049 A 
ATOM     53  H   UNL     1      -8.676   6.092   9.098  1.00  0.00     0.167 HD
ATOM     54  C   UNL     1      -5.141   6.968   9.345  1.00  0.00     0.074 A 
ATOM     55  C   UNL     1      -4.097   7.929   9.655  1.00  0.00     0.031 C 
ATOM     56  C   UNL     1      -6.167   6.432  10.068  1.00  0.00     0.031 A 
BRANCH  43  57
ATOM     57  C   UNL     1     -10.755   3.008   7.755  1.00  0.00    -0.014 A 
ATOM     58  C   UNL     1     -10.766   2.134   8.858  1.00  0.00     0.009 A 
ATOM     59  C   UNL     1     -11.742   2.768   6.779  1.00  0.00     0.009 A 
ATOM     60  C   UNL     1     -11.689   1.081   8.964  1.00  0.00     0.001 A 
ATOM     61  C   UNL     1     -12.683   1.736   6.889  1.00  0.00     0.001 A 
ATOM     62  C   UNL     1     -12.650   0.884   7.980  1.00  0.00     0.000 A 
ENDBRANCH  43  57
BRANCH  44  63
ATOM     63  C   UNL     1      -3.119   8.263   5.238  1.00  0.00    -0.014 A 
ATOM     64  C   UNL     1      -2.085   8.152   4.285  1.00  0.00     0.009 A 
ATOM     65  C   UNL     1      -4.141   9.196   5.010  1.00  0.00     0.009 A 
ATOM     66  C   UNL     1      -2.150   8.845   3.072  1.00  0.00     0.001 A 
ATOM     67  C   UNL     1      -4.188   9.907   3.803  1.00  0.00     0.001 A 
ATOM     68  C   UNL     1      -3.221   9.697   2.819  1.00  0.00     0.000 A 
ENDBRANCH  44  63
BRANCH  56  69
ATOM     69  C   UNL     1      -6.643   6.930  11.410  1.00  0.00    -0.014 A 
ATOM     70  C   UNL     1      -6.454   8.238  11.876  1.00  0.00     0.009 A 
ATOM     71  C   UNL     1      -7.459   6.087  12.199  1.00  0.00     0.009 A 
ATOM     72  C   UNL     1      -7.006   8.665  13.091  1.00  0.00     0.001 A 
ATOM     73  C   UNL     1      -8.050   6.524  13.386  1.00  0.00     0.001 A 
ATOM     74  C   UNL     1      -7.811   7.812  13.841  1.00  0.00     0.000 A 
ENDBRANCH  56  69
ENDBRANCH  30  31
ENDBRANCH  22  25
ENDBRANCH  20  21
ENDBRANCH   1  20
TORSDOF 12
