REMARK SMILES N#Cc1ccc(C(=O)N2CCC(Oc3ccccc3)(C(=O)NCCCCNC(=O)c3ccc(-c4c5nc(c(-c6ccccc6)c6ccc([nH]6)c(-c6ccccc6)c6nc(c(-c7ccccc7)c7ccc4[nH]7)C=C6)C=C5)cc3)CC2)cc1
REMARK SMILES IDX 24 1 23 2 22 3 20 4 21 5 12 7 7 8 8 9 9 10 10 11 79 12 11 13
REMARK SMILES IDX 78 14 6 15 3 16 4 17 81 18 5 19 80 20 2 21 1 22 13 23 14 24
REMARK SMILES IDX 15 25 19 26 16 27 18 28 17 29 25 30 26 31 27 32 28 33 29 35
REMARK SMILES IDX 30 36 31 37 77 38 32 39 76 40 33 41 34 42 35 43 70 44 36 45
REMARK SMILES IDX 75 46 69 47 71 48 37 49 74 50 68 51 67 52 38 54 60 55 45 56
REMARK SMILES IDX 59 57 46 58 49 59 58 60 72 61 47 62 48 63 57 65 73 66 50 67
REMARK SMILES IDX 39 68 40 69 44 70 41 71 43 72 42 73 61 74 62 75 66 76 63 77
REMARK SMILES IDX 65 78 64 79 51 80 52 81 56 82 53 83 55 84 54 85
REMARK H PARENT 22 6 27 34 71 53 49 64
REMARK Flexibility Score: inf
ROOT
ATOM      1  C   UNL     1       7.197  -5.133   3.203  1.00  0.00     0.023 C 
ENDROOT
BRANCH   1   2
ATOM      2  C   UNL     1       7.570  -5.291   1.731  1.00  0.00     0.116 C 
BRANCH   2   3
ATOM      3  N   UNL     1       6.386  -5.449   0.911  1.00  0.00    -0.353 N 
ATOM      4  C   UNL     1       5.855  -4.622  -0.037  1.00  0.00     0.264 C 
ATOM      5  O   UNL     1       4.842  -5.037  -0.608  1.00  0.00    -0.270 OA
ATOM      6  H   UNL     1       5.885  -6.283   1.060  1.00  0.00     0.163 HD
BRANCH   4   7
ATOM      7  C   UNL     1       6.489  -3.234  -0.355  1.00  0.00     0.190 C 
ATOM      8  C   UNL     1       3.667  -0.194   0.319  1.00  0.00     0.253 C 
ATOM      9  O   UNL     1       4.230   0.756   0.856  1.00  0.00    -0.269 OA
ATOM     10  N   UNL     1       4.287  -1.419   0.137  1.00  0.00    -0.338 N 
ATOM     11  C   UNL     1       5.000  -1.993   1.257  1.00  0.00     0.124 C 
ATOM     12  C   UNL     1       4.292  -2.149  -1.129  1.00  0.00     0.124 C 
ATOM     13  C   UNL     1       6.426  -2.304   0.871  1.00  0.00     0.080 C 
ATOM     14  C   UNL     1       5.712  -2.580  -1.526  1.00  0.00     0.080 C 
BRANCH   8  15
ATOM     15  C   UNL     1       2.205  -0.118   0.044  1.00  0.00     0.040 A 
ATOM     16  C   UNL     1      -0.589   0.088  -0.093  1.00  0.00     0.052 A 
ATOM     17  C   UNL     1       0.202   1.242  -0.110  1.00  0.00     0.020 A 
ATOM     18  C   UNL     1       0.018  -1.169  -0.016  1.00  0.00     0.020 A 
ATOM     19  C   UNL     1       1.596   1.140  -0.040  1.00  0.00     0.015 A 
ATOM     20  C   UNL     1       1.407  -1.270   0.063  1.00  0.00     0.015 A 
BRANCH  16  21
ATOM     21  C   UNL     1      -2.020   0.184  -0.115  1.00  0.00     0.099 C 
ATOM     22  N   UNL     1      -3.176   0.246  -0.122  1.00  0.00    -0.192 NA
ENDBRANCH  16  21
ENDBRANCH   8  15
BRANCH   7  23
ATOM     23  O   UNL     1       7.824  -3.630  -0.765  1.00  0.00    -0.477 OA
BRANCH  23  24
ATOM     24  C   UNL     1       8.732  -2.662  -1.070  1.00  0.00     0.120 A 
ATOM     25  C   UNL     1       9.190  -2.606  -2.384  1.00  0.00     0.046 A 
ATOM     26  C   UNL     1       9.314  -1.849  -0.099  1.00  0.00     0.046 A 
ATOM     27  C   UNL     1      10.159  -1.668  -2.744  1.00  0.00     0.004 A 
ATOM     28  C   UNL     1      10.259  -0.890  -0.462  1.00  0.00     0.004 A 
ATOM     29  C   UNL     1      10.675  -0.795  -1.788  1.00  0.00     0.000 A 
ENDBRANCH  23  24
ENDBRANCH   7  23
ENDBRANCH   4   7
ENDBRANCH   2   3
ENDBRANCH   1   2
BRANCH   1  30
ATOM     30  C   UNL     1       6.580  -6.383   3.828  1.00  0.00     0.023 C 
BRANCH  30  31
ATOM     31  C   UNL     1       7.437  -7.636   3.715  1.00  0.00     0.116 C 
BRANCH  31  32
ATOM     32  N   UNL     1       8.739  -7.484   4.346  1.00  0.00    -0.352 N 
ATOM     33  C   UNL     1       9.365  -8.316   5.241  1.00  0.00     0.251 C 
ATOM     34  H   UNL     1       9.239  -6.673   4.097  1.00  0.00     0.163 HD
ATOM     35  O   UNL     1      10.389  -7.957   5.810  1.00  0.00    -0.269 OA
BRANCH  33  36
ATOM     36  C   UNL     1       8.775  -9.638   5.533  1.00  0.00     0.039 A 
ATOM     37  C   UNL     1       8.676 -10.057   6.861  1.00  0.00     0.014 A 
ATOM     38  C   UNL     1       8.295 -10.447   4.500  1.00  0.00     0.014 A 
ATOM     39  C   UNL     1       8.038 -11.263   7.155  1.00  0.00     0.010 A 
ATOM     40  C   UNL     1       7.577 -11.598   4.801  1.00  0.00     0.010 A 
ATOM     41  C   UNL     1       7.449 -12.025   6.131  1.00  0.00    -0.014 A 
BRANCH  41  42
ATOM     42  C   UNL     1       6.712 -13.278   6.430  1.00  0.00     0.031 A 
ATOM     43  C   UNL     1       7.196 -14.588   5.868  1.00  0.00     0.074 A 
ATOM     44  C   UNL     1       5.584 -13.235   7.166  1.00  0.00     0.049 A 
ATOM     45  N   UNL     1       6.664 -15.779   5.975  1.00  0.00    -0.248 NA
ATOM     46  C   UNL     1       8.428 -14.553   5.062  1.00  0.00     0.031 C 
ATOM     47  C   UNL     1       4.993 -12.027   7.747  1.00  0.00     0.029 A 
ATOM     48  N   UNL     1       4.731 -14.238   7.553  1.00  0.00    -0.354 N 
ATOM     49  C   UNL     1       7.490 -16.628   5.249  1.00  0.00     0.074 A 
ATOM     50  C   UNL     1       8.519 -15.809   4.650  1.00  0.00     0.031 C 
ATOM     51  C   UNL     1       3.899 -12.366   8.449  1.00  0.00     0.029 A 
ATOM     52  C   UNL     1       3.678 -13.802   8.322  1.00  0.00     0.049 A 
ATOM     53  H   UNL     1       4.861 -15.182   7.304  1.00  0.00     0.167 HD
ATOM     54  C   UNL     1       7.418 -17.973   5.115  1.00  0.00     0.031 A 
ATOM     55  C   UNL     1       2.646 -14.482   8.857  1.00  0.00     0.031 A 
ATOM     56  C   UNL     1       6.392 -18.790   5.706  1.00  0.00     0.049 A 
ATOM     57  C   UNL     1       2.555 -15.968   8.635  1.00  0.00     0.074 A 
ATOM     58  C   UNL     1       6.248 -20.165   5.651  1.00  0.00     0.029 A 
ATOM     59  N   UNL     1       5.332 -18.305   6.457  1.00  0.00    -0.354 N 
ATOM     60  N   UNL     1       3.378 -16.763   7.995  1.00  0.00    -0.248 NA
ATOM     61  C   UNL     1       1.394 -16.653   9.222  1.00  0.00     0.031 C 
ATOM     62  C   UNL     1       5.065 -20.506   6.311  1.00  0.00     0.029 A 
ATOM     63  C   UNL     1       4.516 -19.353   6.848  1.00  0.00     0.049 A 
ATOM     64  H   UNL     1       5.183 -17.358   6.678  1.00  0.00     0.167 HD
ATOM     65  C   UNL     1       2.858 -18.044   8.141  1.00  0.00     0.074 A 
ATOM     66  C   UNL     1       1.660 -17.920   8.944  1.00  0.00     0.031 C 
ATOM     67  C   UNL     1       3.332 -19.218   7.656  1.00  0.00     0.031 A 
BRANCH  54  68
ATOM     68  C   UNL     1       8.480 -18.648   4.290  1.00  0.00    -0.014 A 
ATOM     69  C   UNL     1       9.815 -18.702   4.725  1.00  0.00     0.009 A 
ATOM     70  C   UNL     1       8.136 -19.279   3.084  1.00  0.00     0.009 A 
ATOM     71  C   UNL     1      10.787 -19.343   3.954  1.00  0.00     0.001 A 
ATOM     72  C   UNL     1       9.103 -19.950   2.333  1.00  0.00     0.001 A 
ATOM     73  C   UNL     1      10.428 -19.973   2.763  1.00  0.00     0.000 A 
ENDBRANCH  54  68
BRANCH  55  74
ATOM     74  C   UNL     1       1.606 -13.777   9.657  1.00  0.00    -0.014 A 
ATOM     75  C   UNL     1       1.442 -14.057  11.023  1.00  0.00     0.009 A 
ATOM     76  C   UNL     1       0.738 -12.856   9.049  1.00  0.00     0.009 A 
ATOM     77  C   UNL     1       0.403 -13.470  11.749  1.00  0.00     0.001 A 
ATOM     78  C   UNL     1      -0.275 -12.240   9.787  1.00  0.00     0.001 A 
ATOM     79  C   UNL     1      -0.453 -12.561  11.131  1.00  0.00     0.000 A 
ENDBRANCH  55  74
BRANCH  67  80
ATOM     80  C   UNL     1       2.590 -20.472   8.033  1.00  0.00    -0.014 A 
ATOM     81  C   UNL     1       1.305 -20.748   7.541  1.00  0.00     0.009 A 
ATOM     82  C   UNL     1       3.213 -21.415   8.867  1.00  0.00     0.009 A 
ATOM     83  C   UNL     1       0.642 -21.920   7.913  1.00  0.00     0.001 A 
ATOM     84  C   UNL     1       2.565 -22.603   9.205  1.00  0.00     0.001 A 
ATOM     85  C   UNL     1       1.276 -22.849   8.739  1.00  0.00     0.000 A 
ENDBRANCH  67  80
ENDBRANCH  41  42
ENDBRANCH  33  36
ENDBRANCH  31  32
ENDBRANCH  30  31
ENDBRANCH   1  30
TORSDOF 15
