REMARK SMILES O=C(NCCCCNC(=O)c1cc(SCCn2cccn2)cs1)c1ccc(-c2c3nc(c(-c4ccccc4)c4ccc([nH]4)c(-c4ccccc4)c4nc(c(-c5ccccc5)c5ccc2[nH]5)C=C4)C=C3)cc1
REMARK SMILES IDX 6 1 5 2 4 3 3 4 1 5 2 6 24 8 25 9 71 10 26 11 70 12 27 13
REMARK SMILES IDX 28 14 29 15 64 16 30 17 69 18 63 19 65 20 31 21 68 22 62 23
REMARK SMILES IDX 61 24 32 26 54 27 39 28 53 29 40 30 43 31 52 32 66 33 41 34
REMARK SMILES IDX 42 35 51 37 67 38 44 39 33 40 34 41 38 42 35 43 37 44 36 45
REMARK SMILES IDX 55 46 56 47 60 48 57 49 59 50 58 51 45 52 46 53 50 54 47 55
REMARK SMILES IDX 49 56 48 57 7 58 8 59 9 60 10 62 11 63 12 64 23 65 13 66
REMARK SMILES IDX 22 67 14 68 15 69 16 70 17 71 18 72 21 73 19 74 20 75
REMARK H PARENT 3 7 65 25 43 36 8 61
REMARK Flexibility Score: inf
ROOT
ATOM      1  C   UNL     1       5.405   3.294  -0.542  1.00  0.00     0.023 C 
ENDROOT
BRANCH   1   2
ATOM      2  C   UNL     1       5.600   1.783  -0.697  1.00  0.00     0.023 C 
BRANCH   2   3
ATOM      3  C   UNL     1       4.971   0.855   0.351  1.00  0.00     0.116 C 
BRANCH   3   4
ATOM      4  N   UNL     1       3.536   0.963   0.554  1.00  0.00    -0.352 N 
ATOM      5  O   UNL     1       1.413   0.360   0.720  1.00  0.00    -0.269 OA
ATOM      6  C   UNL     1       2.444   0.306   0.044  1.00  0.00     0.251 C 
ATOM      7  H   UNL     1       3.293   1.664   1.202  1.00  0.00     0.163 HD
BRANCH   6   8
ATOM      8  C   UNL     1       2.382  -0.383  -1.276  1.00  0.00     0.039 A 
ATOM      9  C   UNL     1       3.471  -0.631  -2.106  1.00  0.00     0.014 A 
ATOM     10  C   UNL     1       1.098  -0.744  -1.738  1.00  0.00     0.014 A 
ATOM     11  C   UNL     1       3.277  -1.122  -3.397  1.00  0.00     0.010 A 
ATOM     12  C   UNL     1       0.901  -1.261  -3.019  1.00  0.00     0.010 A 
ATOM     13  C   UNL     1       1.991  -1.411  -3.869  1.00  0.00    -0.014 A 
BRANCH  13  14
ATOM     14  C   UNL     1       1.877  -1.950  -5.226  1.00  0.00     0.031 A 
ATOM     15  C   UNL     1       2.598  -3.232  -5.484  1.00  0.00     0.074 A 
ATOM     16  C   UNL     1       1.108  -1.441  -6.208  1.00  0.00     0.049 A 
ATOM     17  N   UNL     1       3.549  -3.464  -6.332  1.00  0.00    -0.248 NA
ATOM     18  C   UNL     1       2.232  -4.390  -4.656  1.00  0.00     0.031 C 
ATOM     19  C   UNL     1       0.078  -0.405  -6.122  1.00  0.00     0.029 A 
ATOM     20  N   UNL     1       1.042  -1.840  -7.514  1.00  0.00    -0.354 N 
ATOM     21  C   UNL     1       3.824  -4.828  -6.243  1.00  0.00     0.074 A 
ATOM     22  C   UNL     1       3.038  -5.333  -5.144  1.00  0.00     0.031 C 
ATOM     23  C   UNL     1      -0.651  -0.410  -7.262  1.00  0.00     0.029 A 
ATOM     24  C   UNL     1      -0.050  -1.340  -8.204  1.00  0.00     0.049 A 
ATOM     25  H   UNL     1       1.712  -2.431  -7.928  1.00  0.00     0.167 HD
ATOM     26  C   UNL     1       4.574  -5.496  -7.163  1.00  0.00     0.031 A 
ATOM     27  C   UNL     1      -0.461  -1.703  -9.442  1.00  0.00     0.031 A 
ATOM     28  C   UNL     1       5.355  -4.619  -7.987  1.00  0.00     0.049 A 
ATOM     29  C   UNL     1       0.668  -2.354 -10.139  1.00  0.00     0.074 A 
ATOM     30  C   UNL     1       6.370  -3.711  -7.762  1.00  0.00     0.029 A 
ATOM     31  N   UNL     1       4.918  -4.375  -9.265  1.00  0.00    -0.354 N 
ATOM     32  N   UNL     1       1.731  -1.725 -10.549  1.00  0.00    -0.248 NA
ATOM     33  C   UNL     1       0.785  -3.802 -10.081  1.00  0.00     0.031 C 
ATOM     34  C   UNL     1       6.149  -2.668  -8.710  1.00  0.00     0.029 A 
ATOM     35  C   UNL     1       5.029  -3.023  -9.464  1.00  0.00     0.049 A 
ATOM     36  H   UNL     1       4.589  -5.040  -9.912  1.00  0.00     0.167 HD
ATOM     37  C   UNL     1       2.764  -2.637 -10.400  1.00  0.00     0.074 A 
ATOM     38  C   UNL     1       2.106  -3.928 -10.233  1.00  0.00     0.031 C 
ATOM     39  C   UNL     1       4.042  -2.222 -10.152  1.00  0.00     0.031 A 
BRANCH  26  40
ATOM     40  C   UNL     1       4.378  -6.948  -7.511  1.00  0.00    -0.014 A 
ATOM     41  C   UNL     1       5.316  -7.595  -8.336  1.00  0.00     0.009 A 
ATOM     42  C   UNL     1       3.169  -7.628  -7.269  1.00  0.00     0.009 A 
ATOM     43  C   UNL     1       5.040  -8.838  -8.919  1.00  0.00     0.001 A 
ATOM     44  C   UNL     1       2.908  -8.887  -7.816  1.00  0.00     0.001 A 
ATOM     45  C   UNL     1       3.835  -9.483  -8.660  1.00  0.00     0.000 A 
ENDBRANCH  26  40
BRANCH  27  46
ATOM     46  C   UNL     1      -1.834  -1.740  -9.981  1.00  0.00    -0.014 A 
ATOM     47  C   UNL     1      -2.069  -1.752 -11.364  1.00  0.00     0.009 A 
ATOM     48  C   UNL     1      -2.913  -2.033  -9.127  1.00  0.00     0.009 A 
ATOM     49  C   UNL     1      -3.333  -2.079 -11.873  1.00  0.00     0.001 A 
ATOM     50  C   UNL     1      -4.174  -2.356  -9.635  1.00  0.00     0.001 A 
ATOM     51  C   UNL     1      -4.380  -2.393 -11.009  1.00  0.00     0.000 A 
ENDBRANCH  27  46
BRANCH  39  52
ATOM     52  C   UNL     1       4.349  -0.751 -10.299  1.00  0.00    -0.014 A 
ATOM     53  C   UNL     1       3.689   0.238  -9.549  1.00  0.00     0.009 A 
ATOM     54  C   UNL     1       5.431  -0.363 -11.103  1.00  0.00     0.009 A 
ATOM     55  C   UNL     1       4.074   1.579  -9.630  1.00  0.00     0.001 A 
ATOM     56  C   UNL     1       5.831   0.974 -11.166  1.00  0.00     0.001 A 
ATOM     57  C   UNL     1       5.149   1.946 -10.436  1.00  0.00     0.000 A 
ENDBRANCH  39  52
ENDBRANCH  13  14
ENDBRANCH   6   8
ENDBRANCH   3   4
ENDBRANCH   2   3
ENDBRANCH   1   2
BRANCH   1  58
ATOM     58  C   UNL     1       5.713   3.918   0.813  1.00  0.00     0.116 C 
BRANCH  58  59
ATOM     59  N   UNL     1       7.085   3.998   1.242  1.00  0.00    -0.351 N 
ATOM     60  C   UNL     1       7.556   4.754   2.312  1.00  0.00     0.261 C 
ATOM     61  H   UNL     1       7.746   3.472   0.736  1.00  0.00     0.163 HD
ATOM     62  O   UNL     1       8.678   4.492   2.738  1.00  0.00    -0.268 OA
BRANCH  60  63
ATOM     63  C   UNL     1       6.732   5.826   2.868  1.00  0.00     0.093 A 
ATOM     64  C   UNL     1       6.041   5.909   4.075  1.00  0.00     0.040 A 
ATOM     65  S   UNL     1       6.713   7.329   2.041  1.00  0.00    -0.137 S 
ATOM     66  C   UNL     1       5.438   7.196   4.278  1.00  0.00     0.019 A 
ATOM     67  C   UNL     1       5.771   8.065   3.260  1.00  0.00     0.080 A 
BRANCH  66  68
ATOM     68  S   UNL     1       4.525   7.783   5.674  1.00  0.00    -0.123 SA
BRANCH  68  69
ATOM     69  C   UNL     1       3.429   6.450   6.259  1.00  0.00     0.098 C 
BRANCH  69  70
ATOM     70  C   UNL     1       2.065   6.357   5.562  1.00  0.00     0.155 C 
BRANCH  70  71
ATOM     71  N   UNL     1       2.198   5.671   4.298  1.00  0.00    -0.272 N 
ATOM     72  C   UNL     1       2.235   6.246   3.064  1.00  0.00     0.108 A 
ATOM     73  N   UNL     1       2.654   4.408   4.320  1.00  0.00    -0.182 NA
ATOM     74  C   UNL     1       2.992   5.393   2.299  1.00  0.00     0.042 A 
ATOM     75  C   UNL     1       3.226   4.280   3.127  1.00  0.00     0.135 A 
ENDBRANCH  70  71
ENDBRANCH  69  70
ENDBRANCH  68  69
ENDBRANCH  66  68
ENDBRANCH  60  63
ENDBRANCH  58  59
ENDBRANCH   1  58
TORSDOF 15
