REMARK SMILES COc1ccc(C(=O)NCCCCNC(=O)c2ccc(-c3c4nc(c(-c5ccccc5)c5ccc([nH]5)c(-c5ccccc5)c5nc(c(-c6ccccc6)c6ccc3[nH]6)C=C5)C=C4)cc2)cc1S(=O)(=O)Nc1cc2c(cc1Cl)OCCCO2
REMARK SMILES IDX 7 1 8 2 9 3 6 5 3 6 4 7 66 8 5 9 65 10 2 11 1 12 67 13 68 14
REMARK SMILES IDX 69 15 70 16 71 18 72 19 76 20 73 21 75 22 77 23 74 24 82 25
REMARK SMILES IDX 81 26 78 28 79 29 80 30 10 32 11 33 12 34 13 35 14 36 15 37
REMARK SMILES IDX 16 39 17 40 18 41 64 42 19 43 63 44 20 45 21 46 22 47 57 48
REMARK SMILES IDX 23 49 62 50 56 51 58 52 24 53 61 54 55 55 54 56 25 58 47 59
REMARK SMILES IDX 32 60 46 61 33 62 36 63 45 64 59 65 34 66 35 67 44 69 60 70
REMARK SMILES IDX 37 71 26 72 27 73 31 74 28 75 30 76 29 77 48 78 49 79 53 80
REMARK SMILES IDX 50 81 52 82 51 83 38 84 39 85 43 86 40 87 42 88 41 89
REMARK H PARENT 9 4 70 17 14 38 58 57 36 68
REMARK Flexibility Score: 80.00
ROOT
ATOM      1  C   UNL     1       2.068  -6.008   2.251  1.00  0.00     0.251 C 
ATOM      2  O   UNL     1       1.355  -6.698   2.973  1.00  0.00    -0.269 OA
ATOM      3  N   UNL     1       3.246  -6.518   1.767  1.00  0.00    -0.352 N 
ATOM      4  H   UNL     1       3.430  -7.449   2.030  1.00  0.00     0.163 HD
ENDROOT
BRANCH   1   5
ATOM      5  C   UNL     1       1.579  -4.689   1.791  1.00  0.00     0.041 A 
ATOM      6  C   UNL     1       0.743  -2.445   0.381  1.00  0.00     0.139 A 
ATOM      7  C   UNL     1      -0.126  -3.530   0.550  1.00  0.00     0.049 A 
ATOM      8  C   UNL     1       1.951  -2.396   1.071  1.00  0.00     0.130 A 
ATOM      9  C   UNL     1       0.294  -4.656   1.248  1.00  0.00     0.018 A 
ATOM     10  C   UNL     1       2.367  -3.533   1.789  1.00  0.00     0.040 A 
BRANCH   6  11
ATOM     11  O   UNL     1       0.325  -1.488  -0.488  1.00  0.00    -0.495 OA
ATOM     12  C   UNL     1       0.859  -1.682  -1.799  1.00  0.00     0.278 C 
ENDBRANCH   6  11
BRANCH   8  13
ATOM     13  S   UNL     1       3.119  -1.063   0.955  1.00  0.00     0.265 S 
ATOM     14  O   UNL     1       3.911  -1.098   2.167  1.00  0.00    -0.201 OA
ATOM     15  O   UNL     1       3.770  -1.243  -0.328  1.00  0.00    -0.201 OA
BRANCH  13  16
ATOM     16  N   UNL     1       2.364   0.438   0.855  1.00  0.00    -0.278 N 
ATOM     17  H   UNL     1       2.774   1.124   0.279  1.00  0.00     0.180 HD
BRANCH  16  18
ATOM     18  C   UNL     1       1.164   0.778   1.554  1.00  0.00     0.071 A 
ATOM     19  C   UNL     1       0.041   0.962   0.742  1.00  0.00     0.078 A 
ATOM     20  C   UNL     1       1.018   0.892   2.946  1.00  0.00     0.069 A 
ATOM     21  C   UNL     1      -1.218   1.045   1.315  1.00  0.00     0.163 A 
ATOM     22  C   UNL     1      -0.243   1.155   3.506  1.00  0.00     0.073 A 
ATOM     23  Cl  UNL     1       2.351   0.792   4.031  1.00  0.00    -0.082 Cl
ATOM     24  C   UNL     1      -1.365   1.191   2.687  1.00  0.00     0.162 A 
BRANCH  21  25
ATOM     25  O   UNL     1      -2.299   0.804   0.508  1.00  0.00    -0.489 OA
BRANCH  25  26
ATOM     26  C   UNL     1      -2.833  -0.478   0.880  1.00  0.00     0.233 CG0
ATOM     27  G   UNL     1      -3.891  -0.336   1.965  1.00  0.00     0.000 G0
ENDBRANCH  25  26
ENDBRANCH  21  25
BRANCH  24  28
ATOM     28  O   UNL     1      -2.604   1.407   3.220  1.00  0.00    -0.490 OA
BRANCH  28  29
ATOM     29  C   UNL     1      -3.361   0.197   3.300  1.00  0.00     0.233 C 
BRANCH  29  30
ATOM     30  C   UNL     1      -3.891  -0.336   1.965  1.00  0.00     0.083 CG0
ATOM     31  G   UNL     1      -2.833  -0.478   0.880  1.00  0.00     0.000 G0
ENDBRANCH  29  30
ENDBRANCH  28  29
ENDBRANCH  24  28
ENDBRANCH  16  18
ENDBRANCH  13  16
ENDBRANCH   8  13
ENDBRANCH   1   5
BRANCH   3  32
ATOM     32  C   UNL     1       4.269  -5.910   0.931  1.00  0.00     0.116 C 
BRANCH  32  33
ATOM     33  C   UNL     1       5.488  -5.552   1.779  1.00  0.00     0.023 C 
BRANCH  33  34
ATOM     34  C   UNL     1       6.333  -6.766   2.180  1.00  0.00     0.023 C 
BRANCH  34  35
ATOM     35  C   UNL     1       7.012  -7.481   1.017  1.00  0.00     0.116 C 
BRANCH  35  36
ATOM     36  N   UNL     1       7.925  -6.624   0.277  1.00  0.00    -0.352 N 
ATOM     37  C   UNL     1       9.108  -6.962  -0.331  1.00  0.00     0.251 C 
ATOM     38  H   UNL     1       7.660  -5.679   0.203  1.00  0.00     0.163 HD
ATOM     39  O   UNL     1       9.828  -6.100  -0.824  1.00  0.00    -0.269 OA
BRANCH  37  40
ATOM     40  C   UNL     1       9.528  -8.376  -0.352  1.00  0.00     0.039 A 
ATOM     41  C   UNL     1      10.811  -8.702   0.093  1.00  0.00     0.014 A 
ATOM     42  C   UNL     1       8.648  -9.374  -0.779  1.00  0.00     0.014 A 
ATOM     43  C   UNL     1      11.192 -10.042   0.170  1.00  0.00     0.010 A 
ATOM     44  C   UNL     1       9.007 -10.711  -0.644  1.00  0.00     0.010 A 
ATOM     45  C   UNL     1      10.281 -11.057  -0.166  1.00  0.00    -0.014 A 
BRANCH  45  46
ATOM     46  C   UNL     1      10.640 -12.487  -0.015  1.00  0.00     0.031 A 
ATOM     47  C   UNL     1      10.753 -13.369  -1.227  1.00  0.00     0.074 A 
ATOM     48  C   UNL     1      10.799 -13.006   1.218  1.00  0.00     0.049 A 
ATOM     49  N   UNL     1      11.000 -14.652  -1.292  1.00  0.00    -0.248 NA
ATOM     50  C   UNL     1      10.537 -12.729  -2.535  1.00  0.00     0.031 C 
ATOM     51  C   UNL     1      10.673 -12.263   2.474  1.00  0.00     0.029 A 
ATOM     52  N   UNL     1      11.092 -14.285   1.616  1.00  0.00    -0.354 N 
ATOM     53  C   UNL     1      10.950 -14.977  -2.641  1.00  0.00     0.074 A 
ATOM     54  C   UNL     1      10.607 -13.767  -3.356  1.00  0.00     0.031 C 
ATOM     55  C   UNL     1      10.913 -13.094   3.501  1.00  0.00     0.029 A 
ATOM     56  C   UNL     1      11.173 -14.432   2.979  1.00  0.00     0.049 A 
ATOM     57  H   UNL     1      11.232 -15.028   0.985  1.00  0.00     0.167 HD
ATOM     58  C   UNL     1      11.185 -16.171  -3.234  1.00  0.00     0.031 A 
ATOM     59  C   UNL     1      11.426 -15.523   3.726  1.00  0.00     0.031 A 
ATOM     60  C   UNL     1      11.543 -17.370  -2.525  1.00  0.00     0.049 A 
ATOM     61  C   UNL     1      11.683 -16.837   3.042  1.00  0.00     0.074 A 
ATOM     62  C   UNL     1      11.861 -18.614  -3.041  1.00  0.00     0.029 A 
ATOM     63  N   UNL     1      11.630 -17.473  -1.146  1.00  0.00    -0.354 N 
ATOM     64  N   UNL     1      11.700 -17.112   1.761  1.00  0.00    -0.248 NA
ATOM     65  C   UNL     1      11.968 -17.988   3.910  1.00  0.00     0.031 C 
ATOM     66  C   UNL     1      12.100 -19.482  -1.971  1.00  0.00     0.029 A 
ATOM     67  C   UNL     1      11.978 -18.765  -0.791  1.00  0.00     0.049 A 
ATOM     68  H   UNL     1      11.469 -16.736  -0.512  1.00  0.00     0.167 HD
ATOM     69  C   UNL     1      12.025 -18.458   1.667  1.00  0.00     0.074 A 
ATOM     70  C   UNL     1      12.210 -18.941   3.021  1.00  0.00     0.031 C 
ATOM     71  C   UNL     1      12.161 -19.226   0.560  1.00  0.00     0.031 A 
BRANCH  58  72
ATOM     72  C   UNL     1      11.059 -16.237  -4.730  1.00  0.00    -0.014 A 
ATOM     73  C   UNL     1      12.008 -15.628  -5.566  1.00  0.00     0.009 A 
ATOM     74  C   UNL     1       9.997 -16.947  -5.311  1.00  0.00     0.009 A 
ATOM     75  C   UNL     1      11.876 -15.700  -6.954  1.00  0.00     0.001 A 
ATOM     76  C   UNL     1       9.883 -17.040  -6.699  1.00  0.00     0.001 A 
ATOM     77  C   UNL     1      10.817 -16.409  -7.519  1.00  0.00     0.000 A 
ENDBRANCH  58  72
BRANCH  59  78
ATOM     78  C   UNL     1      11.469 -15.420   5.207  1.00  0.00    -0.014 A 
ATOM     79  C   UNL     1      12.691 -15.517   5.890  1.00  0.00     0.009 A 
ATOM     80  C   UNL     1      10.291 -15.235   5.946  1.00  0.00     0.009 A 
ATOM     81  C   UNL     1      12.729 -15.459   7.284  1.00  0.00     0.001 A 
ATOM     82  C   UNL     1      10.335 -15.150   7.339  1.00  0.00     0.001 A 
ATOM     83  C   UNL     1      11.553 -15.272   8.008  1.00  0.00     0.000 A 
ENDBRANCH  59  78
BRANCH  71  84
ATOM     84  C   UNL     1      12.563 -20.658   0.763  1.00  0.00    -0.014 A 
ATOM     85  C   UNL     1      11.655 -21.606   1.259  1.00  0.00     0.009 A 
ATOM     86  C   UNL     1      13.858 -21.072   0.411  1.00  0.00     0.009 A 
ATOM     87  C   UNL     1      12.046 -22.936   1.427  1.00  0.00     0.001 A 
ATOM     88  C   UNL     1      14.238 -22.406   0.556  1.00  0.00     0.001 A 
ATOM     89  C   UNL     1      13.335 -23.335   1.070  1.00  0.00     0.000 A 
ENDBRANCH  71  84
ENDBRANCH  45  46
ENDBRANCH  37  40
ENDBRANCH  35  36
ENDBRANCH  34  35
ENDBRANCH  33  34
ENDBRANCH  32  33
ENDBRANCH   3  32
TORSDOF 15
