REMARK SMILES CCCn1nc(C(=O)NCCCCNC(=O)c2ccc(-c3c4nc(c(-c5ccccc5)c5ccc([nH]5)c(-c5ccccc5)c5nc(c(-c6ccccc6)c6ccc3[nH]6)C=C5)C=C4)cc2)c2c1CC[C@@H]([NH+]1CC[NH+](Cc3ccccn3)CC1)C2
REMARK SMILES IDX 11 1 10 2 9 3 7 4 8 5 6 7 4 8 5 9 66 10 65 11 67 12 83 13
REMARK SMILES IDX 68 14 69 15 3 16 2 17 1 18 70 19 71 20 82 21 72 23 81 24
REMARK SMILES IDX 73 25 74 27 75 28 76 29 80 30 77 31 79 32 78 33 12 34 13 35
REMARK SMILES IDX 14 36 15 37 16 39 17 40 18 41 64 42 19 43 63 44 20 45 21 46
REMARK SMILES IDX 22 47 57 48 23 49 62 50 56 51 58 52 24 53 61 54 55 55 54 56
REMARK SMILES IDX 25 58 47 59 32 60 46 61 33 62 36 63 45 64 59 65 34 66 35 67
REMARK SMILES IDX 44 69 60 70 37 71 26 72 27 73 31 74 28 75 30 76 29 77 48 78
REMARK SMILES IDX 49 79 53 80 50 81 52 82 51 83 38 84 39 85 43 86 40 87 42 88
REMARK SMILES IDX 41 89
REMARK H PARENT 9 6 70 22 73 26 14 38 58 57 36 68
REMARK Flexibility Score: inf
ROOT
ATOM      1  C   UNL     1      -0.351   3.686  -7.173  1.00  0.00     0.023 C 
ENDROOT
BRANCH   1   2
ATOM      2  C   UNL     1      -1.475   2.822  -6.561  1.00  0.00     0.116 C 
BRANCH   2   3
ATOM      3  N   UNL     1      -0.987   1.595  -5.939  1.00  0.00    -0.351 N 
ATOM      4  C   UNL     1      -0.687   1.149  -4.663  1.00  0.00     0.272 C 
ATOM      5  O   UNL     1      -0.475  -0.071  -4.621  1.00  0.00    -0.267 OA
ATOM      6  H   UNL     1      -0.827   0.893  -6.610  1.00  0.00     0.163 HD
BRANCH   4   7
ATOM      7  C   UNL     1      -0.597   1.982  -3.426  1.00  0.00     0.153 A 
ATOM      8  N   UNL     1      -0.199   2.333  -1.324  1.00  0.00    -0.269 N 
ATOM      9  N   UNL     1      -0.404   1.361  -2.231  1.00  0.00    -0.167 NA
ATOM     10  C   UNL     1      -0.420   3.576  -1.846  1.00  0.00     0.043 A 
ATOM     11  C   UNL     1      -0.556   3.386  -3.204  1.00  0.00     0.012 A 
ATOM     12  C   UNL     1      -0.260   4.879  -1.145  1.00  0.00     0.062 C 
ATOM     13  C   UNL     1      -0.479   4.519  -4.138  1.00  0.00     0.105 C 
ATOM     14  C   UNL     1      -0.323   6.051  -2.144  1.00  0.00     0.072 C 
ATOM     15  C   UNL     1       0.204   5.773  -3.573  1.00  0.00     0.189 C 
BRANCH   8  16
ATOM     16  C   UNL     1       0.486   2.063  -0.068  1.00  0.00     0.144 C 
BRANCH  16  17
ATOM     17  C   UNL     1       0.157   0.763   0.662  1.00  0.00     0.020 C 
ATOM     18  C   UNL     1       0.935  -0.438   0.142  1.00  0.00     0.006 C 
ENDBRANCH  16  17
ENDBRANCH   8  16
BRANCH  15  19
ATOM     19  N   UNL     1       1.665   5.730  -3.838  1.00  0.00    -0.323 N 
ATOM     20  C   UNL     1       2.459   4.848  -2.982  1.00  0.00     0.324 C 
ATOM     21  C   UNL     1       2.228   7.073  -4.041  1.00  0.00     0.324 C 
ATOM     22  H   UNL     1       1.747   5.245  -4.731  1.00  0.00     0.348 HD
ATOM     23  C   UNL     1       3.986   4.998  -3.096  1.00  0.00     0.324 C 
ATOM     24  C   UNL     1       3.772   7.183  -4.043  1.00  0.00     0.324 C 
ATOM     25  N   UNL     1       4.476   6.374  -3.042  1.00  0.00    -0.321 N 
ATOM     26  H   UNL     1       5.464   6.349  -3.294  1.00  0.00     0.348 HD
BRANCH  25  27
ATOM     27  C   UNL     1       4.574   6.978  -1.700  1.00  0.00     0.319 C 
BRANCH  27  28
ATOM     28  C   UNL     1       3.347   7.588  -1.035  1.00  0.00     0.095 A 
ATOM     29  C   UNL     1       2.681   6.923  -0.006  1.00  0.00     0.030 A 
ATOM     30  N   UNL     1       2.954   8.821  -1.456  1.00  0.00    -0.255 NA
ATOM     31  C   UNL     1       1.562   7.520   0.577  1.00  0.00     0.004 A 
ATOM     32  C   UNL     1       1.856   9.367  -0.886  1.00  0.00     0.111 A 
ATOM     33  C   UNL     1       1.131   8.759   0.121  1.00  0.00     0.020 A 
ENDBRANCH  27  28
ENDBRANCH  25  27
ENDBRANCH  15  19
ENDBRANCH   4   7
ENDBRANCH   2   3
ENDBRANCH   1   2
BRANCH   1  34
ATOM     34  C   UNL     1      -0.280   3.759  -8.700  1.00  0.00     0.023 C 
BRANCH  34  35
ATOM     35  C   UNL     1      -1.332   4.674  -9.322  1.00  0.00     0.116 C 
BRANCH  35  36
ATOM     36  N   UNL     1      -1.085   6.097  -9.080  1.00  0.00    -0.352 N 
ATOM     37  C   UNL     1      -2.000   7.124  -9.195  1.00  0.00     0.251 C 
ATOM     38  H   UNL     1      -0.172   6.347  -8.808  1.00  0.00     0.163 HD
ATOM     39  O   UNL     1      -1.659   8.293  -9.337  1.00  0.00    -0.269 OA
BRANCH  37  40
ATOM     40  C   UNL     1      -3.422   6.766  -9.133  1.00  0.00     0.039 A 
ATOM     41  C   UNL     1      -4.258   6.990 -10.226  1.00  0.00     0.014 A 
ATOM     42  C   UNL     1      -3.856   6.056  -8.012  1.00  0.00     0.014 A 
ATOM     43  C   UNL     1      -5.518   6.397 -10.235  1.00  0.00     0.010 A 
ATOM     44  C   UNL     1      -5.077   5.413  -8.057  1.00  0.00     0.010 A 
ATOM     45  C   UNL     1      -5.914   5.574  -9.167  1.00  0.00    -0.014 A 
BRANCH  45  46
ATOM     46  C   UNL     1      -7.127   4.760  -9.303  1.00  0.00     0.031 A 
ATOM     47  C   UNL     1      -7.219   3.901 -10.524  1.00  0.00     0.074 A 
ATOM     48  C   UNL     1      -8.029   4.563  -8.319  1.00  0.00     0.049 A 
ATOM     49  N   UNL     1      -8.120   3.933 -11.453  1.00  0.00    -0.248 NA
ATOM     50  C   UNL     1      -6.157   2.910 -10.760  1.00  0.00     0.031 C 
ATOM     51  C   UNL     1      -7.968   5.032  -6.931  1.00  0.00     0.029 A 
ATOM     52  N   UNL     1      -9.144   3.775  -8.329  1.00  0.00    -0.354 N 
ATOM     53  C   UNL     1      -7.845   2.865 -12.305  1.00  0.00     0.074 A 
ATOM     54  C   UNL     1      -6.564   2.342 -11.897  1.00  0.00     0.031 C 
ATOM     55  C   UNL     1      -8.848   4.331  -6.184  1.00  0.00     0.029 A 
ATOM     56  C   UNL     1      -9.647   3.500  -7.067  1.00  0.00     0.049 A 
ATOM     57  H   UNL     1      -9.554   3.434  -9.157  1.00  0.00     0.167 HD
ATOM     58  C   UNL     1      -8.783   2.355 -13.152  1.00  0.00     0.031 A 
ATOM     59  C   UNL     1     -10.638   2.639  -6.746  1.00  0.00     0.031 A 
ATOM     60  C   UNL     1      -9.906   3.238 -13.319  1.00  0.00     0.049 A 
ATOM     61  C   UNL     1     -11.442   2.388  -7.959  1.00  0.00     0.074 A 
ATOM     62  C   UNL     1     -10.086   4.535 -13.755  1.00  0.00     0.029 A 
ATOM     63  N   UNL     1     -11.072   2.893 -12.681  1.00  0.00    -0.354 N 
ATOM     64  N   UNL     1     -12.198   3.287  -8.519  1.00  0.00    -0.248 NA
ATOM     65  C   UNL     1     -11.138   1.230  -8.783  1.00  0.00     0.031 C 
ATOM     66  C   UNL     1     -11.138   5.052 -12.940  1.00  0.00     0.029 A 
ATOM     67  C   UNL     1     -11.559   4.027 -12.090  1.00  0.00     0.049 A 
ATOM     68  H   UNL     1     -11.481   1.998 -12.654  1.00  0.00     0.167 HD
ATOM     69  C   UNL     1     -12.098   3.034  -9.878  1.00  0.00     0.074 A 
ATOM     70  C   UNL     1     -11.562   1.680  -9.967  1.00  0.00     0.031 C 
ATOM     71  C   UNL     1     -12.188   4.049 -10.789  1.00  0.00     0.031 A 
BRANCH  58  72
ATOM     72  C   UNL     1      -8.886   0.890 -13.518  1.00  0.00    -0.014 A 
ATOM     73  C   UNL     1      -9.867   0.491 -14.448  1.00  0.00     0.009 A 
ATOM     74  C   UNL     1      -8.280  -0.131 -12.764  1.00  0.00     0.009 A 
ATOM     75  C   UNL     1     -10.280  -0.843 -14.549  1.00  0.00     0.001 A 
ATOM     76  C   UNL     1      -8.658  -1.471 -12.896  1.00  0.00     0.001 A 
ATOM     77  C   UNL     1      -9.681  -1.823 -13.765  1.00  0.00     0.000 A 
ENDBRANCH  58  72
BRANCH  59  78
ATOM     78  C   UNL     1     -10.844   1.901  -5.487  1.00  0.00    -0.014 A 
ATOM     79  C   UNL     1     -12.113   1.436  -5.117  1.00  0.00     0.009 A 
ATOM     80  C   UNL     1      -9.732   1.446  -4.752  1.00  0.00     0.009 A 
ATOM     81  C   UNL     1     -12.261   0.523  -4.065  1.00  0.00     0.001 A 
ATOM     82  C   UNL     1      -9.881   0.538  -3.700  1.00  0.00     0.001 A 
ATOM     83  C   UNL     1     -11.145   0.066  -3.366  1.00  0.00     0.000 A 
ENDBRANCH  59  78
BRANCH  71  84
ATOM     84  C   UNL     1     -12.702   5.384 -10.314  1.00  0.00    -0.014 A 
ATOM     85  C   UNL     1     -12.075   6.129  -9.300  1.00  0.00     0.009 A 
ATOM     86  C   UNL     1     -13.769   5.974 -11.009  1.00  0.00     0.009 A 
ATOM     87  C   UNL     1     -12.529   7.408  -8.964  1.00  0.00     0.001 A 
ATOM     88  C   UNL     1     -14.206   7.262 -10.691  1.00  0.00     0.001 A 
ATOM     89  C   UNL     1     -13.592   7.975  -9.663  1.00  0.00     0.000 A 
ENDBRANCH  71  84
ENDBRANCH  45  46
ENDBRANCH  37  40
ENDBRANCH  35  36
ENDBRANCH  34  35
ENDBRANCH   1  34
TORSDOF 16
