REMARK SMILES O=C(NCCCCNC(=O)c1cn(C2C[NH+](Cc3cc(F)ccc3F)C2)nn1)c1ccc(-c2c3nc(c(-c4ccccc4)c4ccc([nH]4)c(-c4ccccc4)c4nc(c(-c5ccccc5)c5ccc2[nH]5)C=C4)C=C3)cc1
REMARK SMILES IDX 6 1 5 2 4 3 3 4 1 5 2 6 29 8 30 9 76 10 31 11 75 12 32 13
REMARK SMILES IDX 33 14 34 15 69 16 35 17 74 18 68 19 70 20 36 21 73 22 67 23
REMARK SMILES IDX 66 24 37 26 59 27 44 28 58 29 45 30 48 31 57 32 71 33 46 34
REMARK SMILES IDX 47 35 56 37 72 38 49 39 38 40 39 41 43 42 40 43 42 44 41 45
REMARK SMILES IDX 60 46 61 47 65 48 62 49 64 50 63 51 50 52 51 53 55 54 52 55
REMARK SMILES IDX 54 56 53 57 7 58 8 59 9 60 10 62 11 63 12 64 28 65 13 66
REMARK SMILES IDX 27 67 14 68 15 69 26 70 16 71 17 73 18 74 19 75 24 76 20 77
REMARK SMILES IDX 23 78 25 79 21 80 22 81
REMARK H PARENT 3 7 70 25 48 36 8 61 16 72
REMARK Flexibility Score: inf
ROOT
ATOM      1  C   UNL     1       4.478   3.043  -1.454  1.00  0.00     0.023 C 
ENDROOT
BRANCH   1   2
ATOM      2  C   UNL     1       4.943   1.581  -1.398  1.00  0.00     0.023 C 
BRANCH   2   3
ATOM      3  C   UNL     1       4.608   0.834  -0.109  1.00  0.00     0.116 C 
BRANCH   3   4
ATOM      4  N   UNL     1       3.197   0.818   0.213  1.00  0.00    -0.352 N 
ATOM      5  O   UNL     1       1.114   0.228   0.591  1.00  0.00    -0.269 OA
ATOM      6  C   UNL     1       2.152  -0.027  -0.029  1.00  0.00     0.251 C 
ATOM      7  H   UNL     1       2.925   1.608   0.733  1.00  0.00     0.163 HD
BRANCH   6   8
ATOM      8  C   UNL     1       2.135  -1.158  -1.000  1.00  0.00     0.039 A 
ATOM      9  C   UNL     1       3.221  -1.656  -1.721  1.00  0.00     0.014 A 
ATOM     10  C   UNL     1       0.868  -1.735  -1.226  1.00  0.00     0.014 A 
ATOM     11  C   UNL     1       3.027  -2.646  -2.691  1.00  0.00     0.010 A 
ATOM     12  C   UNL     1       0.669  -2.717  -2.190  1.00  0.00     0.010 A 
ATOM     13  C   UNL     1       1.745  -3.148  -2.955  1.00  0.00    -0.014 A 
BRANCH  13  14
ATOM     14  C   UNL     1       1.586  -4.233  -3.926  1.00  0.00     0.031 A 
ATOM     15  C   UNL     1       2.286  -5.497  -3.556  1.00  0.00     0.074 A 
ATOM     16  C   UNL     1       0.770  -4.195  -5.003  1.00  0.00     0.049 A 
ATOM     17  N   UNL     1       3.257  -6.075  -4.184  1.00  0.00    -0.248 NA
ATOM     18  C   UNL     1       1.932  -6.144  -2.282  1.00  0.00     0.031 C 
ATOM     19  C   UNL     1      -0.205  -3.165  -5.373  1.00  0.00     0.029 A 
ATOM     20  N   UNL     1       0.580  -5.144  -5.967  1.00  0.00    -0.354 N 
ATOM     21  C   UNL     1       3.540  -7.244  -3.480  1.00  0.00     0.074 A 
ATOM     22  C   UNL     1       2.775  -7.179  -2.260  1.00  0.00     0.031 C 
ATOM     23  C   UNL     1      -1.029  -3.647  -6.335  1.00  0.00     0.029 A 
ATOM     24  C   UNL     1      -0.551  -4.953  -6.756  1.00  0.00     0.049 A 
ATOM     25  H   UNL     1       1.195  -5.903  -6.094  1.00  0.00     0.167 HD
ATOM     26  C   UNL     1       4.239  -8.269  -4.044  1.00  0.00     0.031 A 
ATOM     27  C   UNL     1      -1.071  -5.817  -7.667  1.00  0.00     0.031 A 
ATOM     28  C   UNL     1       4.928  -7.854  -5.235  1.00  0.00     0.049 A 
ATOM     29  C   UNL     1       0.003  -6.759  -8.050  1.00  0.00     0.074 A 
ATOM     30  C   UNL     1       5.929  -6.949  -5.520  1.00  0.00     0.029 A 
ATOM     31  N   UNL     1       4.334  -8.153  -6.436  1.00  0.00    -0.354 N 
ATOM     32  N   UNL     1       1.058  -6.407  -8.724  1.00  0.00    -0.248 NA
ATOM     33  C   UNL     1       0.114  -8.003  -7.307  1.00  0.00     0.031 C 
ATOM     34  C   UNL     1       5.556  -6.381  -6.773  1.00  0.00     0.029 A 
ATOM     35  C   UNL     1       4.397  -7.025  -7.208  1.00  0.00     0.049 A 
ATOM     36  H   UNL     1       3.937  -9.016  -6.693  1.00  0.00     0.167 HD
ATOM     37  C   UNL     1       2.094  -7.119  -8.140  1.00  0.00     0.074 A 
ATOM     38  C   UNL     1       1.441  -8.151  -7.336  1.00  0.00     0.031 C 
ATOM     39  C   UNL     1       3.368  -6.632  -8.142  1.00  0.00     0.031 A 
BRANCH  26  40
ATOM     40  C   UNL     1       3.981  -9.728  -3.759  1.00  0.00    -0.014 A 
ATOM     41  C   UNL     1       4.779 -10.691  -4.407  1.00  0.00     0.009 A 
ATOM     42  C   UNL     1       2.809 -10.192  -3.136  1.00  0.00     0.009 A 
ATOM     43  C   UNL     1       4.373 -12.027  -4.508  1.00  0.00     0.001 A 
ATOM     44  C   UNL     1       2.422 -11.534  -3.201  1.00  0.00     0.001 A 
ATOM     45  C   UNL     1       3.187 -12.444  -3.915  1.00  0.00     0.000 A 
ENDBRANCH  26  40
BRANCH  27  46
ATOM     46  C   UNL     1      -2.485  -6.085  -8.022  1.00  0.00    -0.014 A 
ATOM     47  C   UNL     1      -2.821  -6.769  -9.204  1.00  0.00     0.009 A 
ATOM     48  C   UNL     1      -3.488  -5.942  -7.047  1.00  0.00     0.009 A 
ATOM     49  C   UNL     1      -4.098  -7.323  -9.383  1.00  0.00     0.001 A 
ATOM     50  C   UNL     1      -4.762  -6.496  -7.225  1.00  0.00     0.001 A 
ATOM     51  C   UNL     1      -5.063  -7.199  -8.387  1.00  0.00     0.000 A 
ENDBRANCH  27  46
BRANCH  39  52
ATOM     52  C   UNL     1       3.674  -5.425  -8.992  1.00  0.00    -0.014 A 
ATOM     53  C   UNL     1       3.090  -4.163  -8.779  1.00  0.00     0.009 A 
ATOM     54  C   UNL     1       4.723  -5.529  -9.916  1.00  0.00     0.009 A 
ATOM     55  C   UNL     1       3.543  -3.042  -9.483  1.00  0.00     0.001 A 
ATOM     56  C   UNL     1       5.188  -4.406 -10.602  1.00  0.00     0.001 A 
ATOM     57  C   UNL     1       4.598  -3.163 -10.386  1.00  0.00     0.000 A 
ENDBRANCH  39  52
ENDBRANCH  13  14
ENDBRANCH   6   8
ENDBRANCH   3   4
ENDBRANCH   2   3
ENDBRANCH   1   2
BRANCH   1  58
ATOM     58  C   UNL     1       4.919   3.937  -0.294  1.00  0.00     0.116 C 
BRANCH  58  59
ATOM     59  N   UNL     1       6.363   4.048  -0.188  1.00  0.00    -0.351 N 
ATOM     60  C   UNL     1       7.160   5.168  -0.207  1.00  0.00     0.273 C 
ATOM     61  H   UNL     1       6.843   3.194  -0.088  1.00  0.00     0.163 HD
ATOM     62  O   UNL     1       8.383   5.011  -0.270  1.00  0.00    -0.267 OA
BRANCH  60  63
ATOM     63  C   UNL     1       6.549   6.482  -0.171  1.00  0.00     0.170 A 
ATOM     64  C   UNL     1       5.556   6.964   0.666  1.00  0.00     0.145 A 
ATOM     65  N   UNL     1       6.928   7.483  -1.028  1.00  0.00    -0.125 NA
ATOM     66  N   UNL     1       5.296   8.212   0.179  1.00  0.00    -0.237 N 
ATOM     67  N   UNL     1       6.147   8.530  -0.813  1.00  0.00    -0.066 NA
BRANCH  66  68
ATOM     68  C   UNL     1       4.195   9.076   0.463  1.00  0.00     0.218 C 
ATOM     69  C   UNL     1       2.832   8.355   0.644  1.00  0.00     0.296 C 
ATOM     70  C   UNL     1       3.994   9.487   1.939  1.00  0.00     0.296 C 
ATOM     71  N   UNL     1       2.540   9.233   1.792  1.00  0.00    -0.327 N 
ATOM     72  H   UNL     1       1.993   8.903   2.587  1.00  0.00     0.348 HD
BRANCH  71  73
ATOM     73  C   UNL     1       1.712  10.421   1.459  1.00  0.00     0.302 C 
BRANCH  73  74
ATOM     74  C   UNL     1       2.186  11.419   0.421  1.00  0.00     0.045 A 
ATOM     75  C   UNL     1       2.137  11.137  -0.955  1.00  0.00     0.051 A 
ATOM     76  C   UNL     1       2.739  12.644   0.817  1.00  0.00     0.132 A 
ATOM     77  C   UNL     1       2.751  11.991  -1.869  1.00  0.00     0.123 A 
ATOM     78  C   UNL     1       3.309  13.521  -0.106  1.00  0.00     0.043 A 
ATOM     79  F   UNL     1       2.747  12.987   2.112  1.00  0.00    -0.206 F 
ATOM     80  F   UNL     1       2.801  11.642  -3.160  1.00  0.00    -0.207 F 
ATOM     81  C   UNL     1       3.346  13.176  -1.455  1.00  0.00     0.042 A 
ENDBRANCH  73  74
ENDBRANCH  71  73
ENDBRANCH  66  68
ENDBRANCH  60  63
ENDBRANCH  58  59
ENDBRANCH   1  58
TORSDOF 14
