REMARK SMILES O=C(NCCCCNC(=O)[C@@H]1C[C@H]1C(=O)N[C@@H]1CONC1=O)c1ccc(-c2c3nc(c(-c4ccccc4)c4ccc([nH]4)c(-c4ccccc4)c4nc(c(-c5ccccc5)c5ccc2[nH]5)C=C4)C=C3)cc1
REMARK SMILES IDX 5 1 4 2 3 3 1 4 2 5 23 7 24 8 70 9 25 10 69 11 26 12 27 13
REMARK SMILES IDX 28 14 63 15 29 16 68 17 62 18 64 19 30 20 67 21 61 22 60 23
REMARK SMILES IDX 31 25 53 26 38 27 52 28 39 29 42 30 51 31 65 32 40 33 41 34
REMARK SMILES IDX 50 36 66 37 43 38 32 39 33 40 37 41 34 42 36 43 35 44 54 45
REMARK SMILES IDX 55 46 59 47 56 48 58 49 57 50 44 51 45 52 49 53 46 54 48 55
REMARK SMILES IDX 47 56 6 57 7 58 8 59 9 60 10 62 11 63 12 64 13 65 14 66
REMARK SMILES IDX 15 67 16 68 17 70 18 71 21 72 19 73 20 74 22 75
REMARK H PARENT 3 6 64 24 42 35 8 61 16 69 20 76
REMARK Flexibility Score: inf
ROOT
ATOM      1  C   UNL     1       5.152   0.984  -2.510  1.00  0.00     0.023 C 
ENDROOT
BRANCH   1   2
ATOM      2  C   UNL     1       4.720   0.932  -1.052  1.00  0.00     0.116 C 
BRANCH   2   3
ATOM      3  N   UNL     1       3.273   0.911  -0.867  1.00  0.00    -0.352 N 
ATOM      4  O   UNL     1       1.276   0.067  -0.209  1.00  0.00    -0.269 OA
ATOM      5  C   UNL     1       2.501   0.002  -0.177  1.00  0.00     0.251 C 
ATOM      6  H   UNL     1       2.780   1.649  -1.294  1.00  0.00     0.163 HD
BRANCH   5   7
ATOM      7  C   UNL     1       3.167  -1.082   0.578  1.00  0.00     0.039 A 
ATOM      8  C   UNL     1       4.274  -0.793   1.375  1.00  0.00     0.014 A 
ATOM      9  C   UNL     1       2.725  -2.401   0.440  1.00  0.00     0.014 A 
ATOM     10  C   UNL     1       5.057  -1.830   1.856  1.00  0.00     0.010 A 
ATOM     11  C   UNL     1       3.450  -3.441   1.034  1.00  0.00     0.010 A 
ATOM     12  C   UNL     1       4.648  -3.168   1.710  1.00  0.00    -0.014 A 
BRANCH  12  13
ATOM     13  C   UNL     1       5.474  -4.229   2.343  1.00  0.00     0.031 A 
ATOM     14  C   UNL     1       6.161  -5.294   1.531  1.00  0.00     0.074 A 
ATOM     15  C   UNL     1       5.667  -4.166   3.676  1.00  0.00     0.049 A 
ATOM     16  N   UNL     1       6.983  -6.230   1.938  1.00  0.00    -0.248 NA
ATOM     17  C   UNL     1       5.893  -5.323   0.085  1.00  0.00     0.031 C 
ATOM     18  C   UNL     1       5.047  -3.184   4.571  1.00  0.00     0.029 A 
ATOM     19  N   UNL     1       6.471  -4.905   4.504  1.00  0.00    -0.354 N 
ATOM     20  C   UNL     1       7.317  -6.966   0.808  1.00  0.00     0.074 A 
ATOM     21  C   UNL     1       6.591  -6.384  -0.301  1.00  0.00     0.031 C 
ATOM     22  C   UNL     1       5.554  -3.327   5.802  1.00  0.00     0.029 A 
ATOM     23  C   UNL     1       6.470  -4.460   5.804  1.00  0.00     0.049 A 
ATOM     24  H   UNL     1       6.997  -5.679   4.198  1.00  0.00     0.167 HD
ATOM     25  C   UNL     1       8.156  -8.026   0.705  1.00  0.00     0.031 A 
ATOM     26  C   UNL     1       7.121  -4.916   6.888  1.00  0.00     0.031 A 
ATOM     27  C   UNL     1       8.878  -8.603   1.811  1.00  0.00     0.049 A 
ATOM     28  C   UNL     1       8.027  -6.100   6.743  1.00  0.00     0.074 A 
ATOM     29  C   UNL     1       9.756  -9.675   1.803  1.00  0.00     0.029 A 
ATOM     30  N   UNL     1       8.809  -8.156   3.121  1.00  0.00    -0.354 N 
ATOM     31  N   UNL     1       8.337  -6.773   5.662  1.00  0.00    -0.248 NA
ATOM     32  C   UNL     1       8.669  -6.590   7.969  1.00  0.00     0.031 C 
ATOM     33  C   UNL     1      10.183  -9.903   3.115  1.00  0.00     0.029 A 
ATOM     34  C   UNL     1       9.613  -8.941   3.932  1.00  0.00     0.049 A 
ATOM     35  H   UNL     1       8.268  -7.393   3.430  1.00  0.00     0.167 HD
ATOM     36  C   UNL     1       9.213  -7.765   6.076  1.00  0.00     0.074 A 
ATOM     37  C   UNL     1       9.415  -7.579   7.499  1.00  0.00     0.031 C 
ATOM     38  C   UNL     1       9.789  -8.751   5.348  1.00  0.00     0.031 A 
BRANCH  25  39
ATOM     39  C   UNL     1       8.332  -8.653  -0.651  1.00  0.00    -0.014 A 
ATOM     40  C   UNL     1       9.086  -8.021  -1.653  1.00  0.00     0.009 A 
ATOM     41  C   UNL     1       7.802  -9.928  -0.905  1.00  0.00     0.009 A 
ATOM     42  C   UNL     1       9.288  -8.646  -2.887  1.00  0.00     0.001 A 
ATOM     43  C   UNL     1       8.025 -10.560  -2.130  1.00  0.00     0.001 A 
ATOM     44  C   UNL     1       8.764  -9.916  -3.122  1.00  0.00     0.000 A 
ENDBRANCH  25  39
BRANCH  26  45
ATOM     45  C   UNL     1       6.906  -4.270   8.208  1.00  0.00    -0.014 A 
ATOM     46  C   UNL     1       7.938  -3.562   8.841  1.00  0.00     0.009 A 
ATOM     47  C   UNL     1       5.656  -4.360   8.842  1.00  0.00     0.009 A 
ATOM     48  C   UNL     1       7.729  -2.981  10.094  1.00  0.00     0.001 A 
ATOM     49  C   UNL     1       5.439  -3.748  10.076  1.00  0.00     0.001 A 
ATOM     50  C   UNL     1       6.480  -3.070  10.707  1.00  0.00     0.000 A 
ENDBRANCH  26  45
BRANCH  38  51
ATOM     51  C   UNL     1      10.698  -9.689   6.089  1.00  0.00    -0.014 A 
ATOM     52  C   UNL     1      10.183 -10.636   6.988  1.00  0.00     0.009 A 
ATOM     53  C   UNL     1      12.085  -9.619   5.890  1.00  0.00     0.009 A 
ATOM     54  C   UNL     1      11.045 -11.464   7.709  1.00  0.00     0.001 A 
ATOM     55  C   UNL     1      12.942 -10.469   6.590  1.00  0.00     0.001 A 
ATOM     56  C   UNL     1      12.422 -11.381   7.508  1.00  0.00     0.000 A 
ENDBRANCH  38  51
ENDBRANCH  12  13
ENDBRANCH   5   7
ENDBRANCH   2   3
ENDBRANCH   1   2
BRANCH   1  57
ATOM     57  C   UNL     1       4.768   2.258  -3.248  1.00  0.00     0.023 C 
BRANCH  57  58
ATOM     58  C   UNL     1       5.286   3.545  -2.619  1.00  0.00     0.116 C 
BRANCH  58  59
ATOM     59  N   UNL     1       6.716   3.724  -2.732  1.00  0.00    -0.356 N 
ATOM     60  C   UNL     1       7.383   4.832  -3.196  1.00  0.00     0.223 C 
ATOM     61  H   UNL     1       7.275   2.966  -2.444  1.00  0.00     0.163 HD
ATOM     62  O   UNL     1       8.601   4.892  -3.133  1.00  0.00    -0.275 OA
BRANCH  60  63
ATOM     63  C   UNL     1       6.582   5.963  -3.760  1.00  0.00     0.091 C 
ATOM     64  C   UNL     1       7.269   7.174  -4.347  1.00  0.00     0.028 C 
ATOM     65  C   UNL     1       6.577   7.277  -3.011  1.00  0.00     0.091 C 
BRANCH  65  66
ATOM     66  C   UNL     1       5.505   8.287  -2.808  1.00  0.00     0.224 C 
ATOM     67  O   UNL     1       5.750   9.237  -2.066  1.00  0.00    -0.275 OA
ATOM     68  N   UNL     1       4.265   8.263  -3.384  1.00  0.00    -0.342 N 
ATOM     69  H   UNL     1       3.691   9.027  -3.148  1.00  0.00     0.164 HD
BRANCH  68  70
ATOM     70  C   UNL     1       3.654   7.310  -4.278  1.00  0.00     0.202 C 
ATOM     71  C   UNL     1       2.456   7.812  -5.070  1.00  0.00     0.228 C 
ATOM     72  C   UNL     1       2.942   6.164  -3.593  1.00  0.00     0.268 C 
ATOM     73  O   UNL     1       1.826   6.608  -5.549  1.00  0.00    -0.271 OA
ATOM     74  N   UNL     1       2.035   5.671  -4.505  1.00  0.00    -0.233 N 
ATOM     75  O   UNL     1       3.149   5.712  -2.480  1.00  0.00    -0.270 OA
ATOM     76  H   UNL     1       1.593   4.794  -4.440  1.00  0.00     0.199 HD
ENDBRANCH  68  70
ENDBRANCH  65  66
ENDBRANCH  60  63
ENDBRANCH  58  59
ENDBRANCH  57  58
ENDBRANCH   1  57
TORSDOF 13
