REMARK SMILES C[C@@H](SCCC(=O)NCCCCNC(=O)c1ccc(-c2c3nc(c(-c4ccccc4)c4ccc([nH]4)c(-c4ccccc4)c4nc(c(-c5ccccc5)c5ccc2[nH]5)C=C4)C=C3)cc1)C(=O)Nc1ccc(C(N)=O)cc1
REMARK SMILES IDX 6 1 7 2 8 3 5 5 4 6 3 7 2 8 1 9 64 10 65 11 66 12 67 14
REMARK SMILES IDX 68 15 75 16 69 17 74 18 70 19 71 20 72 21 73 22 9 25 10 26
REMARK SMILES IDX 11 27 12 28 13 29 14 30 15 32 16 33 17 34 63 35 18 36 62 37
REMARK SMILES IDX 19 38 20 39 21 40 56 41 22 42 61 43 55 44 57 45 23 46 60 47
REMARK SMILES IDX 54 48 53 49 24 51 46 52 31 53 45 54 32 55 35 56 44 57 58 58
REMARK SMILES IDX 33 59 34 60 43 62 59 63 36 64 25 65 26 66 30 67 27 68 29 69
REMARK SMILES IDX 28 70 47 71 48 72 52 73 49 74 51 75 50 76 37 77 38 78 42 79
REMARK SMILES IDX 39 80 41 81 40 82
REMARK H PARENT 8 4 66 13 72 23 72 24 13 31 57 50 35 61
REMARK Flexibility Score: inf
ROOT
ATOM      1  C   UNL     1       2.899   2.380  -1.175  1.00  0.00     0.220 C 
ATOM      2  O   UNL     1       3.511   2.057  -0.155  1.00  0.00    -0.275 OA
ATOM      3  N   UNL     1       2.034   3.424  -1.093  1.00  0.00    -0.356 N 
ATOM      4  H   UNL     1       2.030   3.884  -0.222  1.00  0.00     0.163 HD
ENDROOT
BRANCH   1   5
ATOM      5  C   UNL     1       3.125   1.672  -2.491  1.00  0.00     0.111 C 
BRANCH   5   6
ATOM      6  C   UNL     1       3.120   0.149  -2.351  1.00  0.00     0.080 C 
BRANCH   6   7
ATOM      7  S   UNL     1       1.492  -0.650  -2.671  1.00  0.00    -0.148 SA
BRANCH   7   8
ATOM      8  C   UNL     1       0.565  -0.165  -1.170  1.00  0.00     0.133 C 
ATOM      9  C   UNL     1       1.150  -0.686   0.132  1.00  0.00     0.030 C 
BRANCH   8  10
ATOM     10  C   UNL     1      -0.963  -0.314  -1.376  1.00  0.00     0.237 C 
ATOM     11  O   UNL     1      -1.612   0.520  -2.019  1.00  0.00    -0.273 OA
ATOM     12  N   UNL     1      -1.670  -1.391  -0.895  1.00  0.00    -0.325 N 
ATOM     13  H   UNL     1      -2.456  -1.266  -0.315  1.00  0.00     0.169 HD
BRANCH  12  14
ATOM     14  C   UNL     1      -1.236  -2.671  -1.258  1.00  0.00     0.041 A 
ATOM     15  C   UNL     1      -1.523  -3.104  -2.553  1.00  0.00     0.027 A 
ATOM     16  C   UNL     1      -0.385  -3.387  -0.427  1.00  0.00     0.027 A 
ATOM     17  C   UNL     1      -0.811  -4.174  -3.084  1.00  0.00     0.016 A 
ATOM     18  C   UNL     1       0.340  -4.445  -0.963  1.00  0.00     0.016 A 
ATOM     19  C   UNL     1       0.159  -4.816  -2.303  1.00  0.00     0.039 A 
BRANCH  19  20
ATOM     20  C   UNL     1       1.086  -5.819  -2.879  1.00  0.00     0.248 C 
ATOM     21  N   UNL     1       0.689  -6.482  -4.000  1.00  0.00    -0.366 N 
ATOM     22  O   UNL     1       2.179  -6.046  -2.365  1.00  0.00    -0.270 OA
ATOM     23  H   UNL     1      -0.190  -6.290  -4.401  1.00  0.00     0.159 HD
ATOM     24  H   UNL     1       1.280  -7.155  -4.409  1.00  0.00     0.159 HD
ENDBRANCH  19  20
ENDBRANCH  12  14
ENDBRANCH   8  10
ENDBRANCH   7   8
ENDBRANCH   6   7
ENDBRANCH   5   6
ENDBRANCH   1   5
BRANCH   3  25
ATOM     25  C   UNL     1       1.113   3.976  -2.070  1.00  0.00     0.116 C 
BRANCH  25  26
ATOM     26  C   UNL     1      -0.262   3.311  -2.039  1.00  0.00     0.023 C 
BRANCH  26  27
ATOM     27  C   UNL     1      -0.806   3.126  -0.616  1.00  0.00     0.023 C 
BRANCH  27  28
ATOM     28  C   UNL     1      -2.276   3.444  -0.462  1.00  0.00     0.116 C 
BRANCH  28  29
ATOM     29  N   UNL     1      -3.195   2.715  -1.310  1.00  0.00    -0.352 N 
ATOM     30  C   UNL     1      -4.561   2.571  -1.183  1.00  0.00     0.251 C 
ATOM     31  H   UNL     1      -2.790   2.260  -2.083  1.00  0.00     0.163 HD
ATOM     32  O   UNL     1      -5.192   1.935  -2.024  1.00  0.00    -0.269 OA
BRANCH  30  33
ATOM     33  C   UNL     1      -5.267   3.075   0.030  1.00  0.00     0.039 A 
ATOM     34  C   UNL     1      -6.367   2.352   0.504  1.00  0.00     0.014 A 
ATOM     35  C   UNL     1      -4.829   4.181   0.756  1.00  0.00     0.014 A 
ATOM     36  C   UNL     1      -6.955   2.688   1.728  1.00  0.00     0.010 A 
ATOM     37  C   UNL     1      -5.303   4.415   2.039  1.00  0.00     0.010 A 
ATOM     38  C   UNL     1      -6.392   3.691   2.530  1.00  0.00    -0.014 A 
BRANCH  38  39
ATOM     39  C   UNL     1      -6.944   4.036   3.862  1.00  0.00     0.031 A 
ATOM     40  C   UNL     1      -7.420   5.440   4.135  1.00  0.00     0.074 A 
ATOM     41  C   UNL     1      -6.958   3.107   4.838  1.00  0.00     0.049 A 
ATOM     42  N   UNL     1      -7.889   5.952   5.244  1.00  0.00    -0.248 NA
ATOM     43  C   UNL     1      -7.319   6.409   3.029  1.00  0.00     0.031 C 
ATOM     44  C   UNL     1      -6.455   1.735   4.716  1.00  0.00     0.029 A 
ATOM     45  N   UNL     1      -7.416   3.176   6.129  1.00  0.00    -0.354 N 
ATOM     46  C   UNL     1      -8.123   7.294   4.968  1.00  0.00     0.074 A 
ATOM     47  C   UNL     1      -7.663   7.540   3.622  1.00  0.00     0.031 C 
ATOM     48  C   UNL     1      -6.679   1.080   5.866  1.00  0.00     0.029 A 
ATOM     49  C   UNL     1      -7.297   1.993   6.819  1.00  0.00     0.049 A 
ATOM     50  H   UNL     1      -7.793   3.995   6.524  1.00  0.00     0.167 HD
ATOM     51  C   UNL     1      -8.709   8.233   5.748  1.00  0.00     0.031 A 
ATOM     52  C   UNL     1      -7.652   1.683   8.080  1.00  0.00     0.031 A 
ATOM     53  C   UNL     1      -9.182   7.978   7.080  1.00  0.00     0.049 A 
ATOM     54  C   UNL     1      -8.304   2.742   8.926  1.00  0.00     0.074 A 
ATOM     55  C   UNL     1      -9.829   8.840   7.946  1.00  0.00     0.029 A 
ATOM     56  N   UNL     1      -9.063   6.761   7.734  1.00  0.00    -0.354 N 
ATOM     57  N   UNL     1      -8.583   3.988   8.623  1.00  0.00    -0.248 NA
ATOM     58  C   UNL     1      -8.707   2.345  10.281  1.00  0.00     0.031 C 
ATOM     59  C   UNL     1     -10.060   8.157   9.145  1.00  0.00     0.029 A 
ATOM     60  C   UNL     1      -9.613   6.852   9.000  1.00  0.00     0.049 A 
ATOM     61  H   UNL     1      -8.649   5.953   7.354  1.00  0.00     0.167 HD
ATOM     62  C   UNL     1      -9.220   4.514   9.739  1.00  0.00     0.074 A 
ATOM     63  C   UNL     1      -9.309   3.444  10.712  1.00  0.00     0.031 C 
ATOM     64  C   UNL     1      -9.687   5.770   9.947  1.00  0.00     0.031 A 
BRANCH  51  65
ATOM     65  C   UNL     1      -8.881   9.609   5.163  1.00  0.00    -0.014 A 
ATOM     66  C   UNL     1      -9.762   9.836   4.091  1.00  0.00     0.009 A 
ATOM     67  C   UNL     1      -8.173  10.696   5.697  1.00  0.00     0.009 A 
ATOM     68  C   UNL     1      -9.896  11.112   3.540  1.00  0.00     0.001 A 
ATOM     69  C   UNL     1      -8.336  11.978   5.167  1.00  0.00     0.001 A 
ATOM     70  C   UNL     1      -9.188  12.183   4.082  1.00  0.00     0.000 A 
ENDBRANCH  51  65
BRANCH  52  71
ATOM     71  C   UNL     1      -7.420   0.313   8.613  1.00  0.00    -0.014 A 
ATOM     72  C   UNL     1      -8.500  -0.533   8.910  1.00  0.00     0.009 A 
ATOM     73  C   UNL     1      -6.116  -0.151   8.846  1.00  0.00     0.009 A 
ATOM     74  C   UNL     1      -8.281  -1.796   9.466  1.00  0.00     0.001 A 
ATOM     75  C   UNL     1      -5.898  -1.428   9.369  1.00  0.00     0.001 A 
ATOM     76  C   UNL     1      -6.981  -2.244   9.692  1.00  0.00     0.000 A 
ENDBRANCH  52  71
BRANCH  64  77
ATOM     77  C   UNL     1     -10.368   6.034  11.260  1.00  0.00    -0.014 A 
ATOM     78  C   UNL     1      -9.647   6.076  12.463  1.00  0.00     0.009 A 
ATOM     79  C   UNL     1     -11.752   6.271  11.286  1.00  0.00     0.009 A 
ATOM     80  C   UNL     1     -10.306   6.302  13.672  1.00  0.00     0.001 A 
ATOM     81  C   UNL     1     -12.402   6.532  12.491  1.00  0.00     0.001 A 
ATOM     82  C   UNL     1     -11.681   6.535  13.684  1.00  0.00     0.000 A 
ENDBRANCH  64  77
ENDBRANCH  38  39
ENDBRANCH  30  33
ENDBRANCH  28  29
ENDBRANCH  27  28
ENDBRANCH  26  27
ENDBRANCH  25  26
ENDBRANCH   3  25
TORSDOF 17
