REMARK SMILES O=C(Cn1cc(NC(=O)N2CC[N@H+]3CCC[C@@H]3C2)cn1)NCCCCNC(=O)c1ccc(-c2c3nc(c(-c4ccccc4)c4ccc([nH]4)c(-c4ccccc4)c4nc(c(-c5ccccc5)c5ccc2[nH]5)C=C4)C=C3)cc1
REMARK SMILES IDX 23 1 22 2 21 3 1 4 2 5 3 7 4 8 5 9 20 10 6 11 19 12 7 13
REMARK SMILES IDX 8 14 9 16 10 17 11 18 18 19 12 20 17 21 13 22 16 23 14 24
REMARK SMILES IDX 15 26 24 27 25 28 26 29 27 30 28 32 29 33 30 34 76 35 31 36
REMARK SMILES IDX 75 37 32 38 33 39 34 40 69 41 35 42 74 43 68 44 70 45 36 46
REMARK SMILES IDX 73 47 67 48 66 49 37 51 59 52 44 53 58 54 45 55 48 56 57 57
REMARK SMILES IDX 71 58 46 59 47 60 56 62 72 63 49 64 38 65 39 66 43 67 40 68
REMARK SMILES IDX 42 69 41 70 60 71 61 72 65 73 62 74 64 75 63 76 50 77 51 78
REMARK SMILES IDX 55 79 52 80 54 81 53 82
REMARK H PARENT 21 6 7 15 13 25 26 31 70 50 48 61
REMARK Flexibility Score: inf
ROOT
ATOM      1  C   UNL     1       2.546  -1.232  -3.333  1.00  0.00     0.023 C 
ENDROOT
BRANCH   1   2
ATOM      2  C   UNL     1       2.251  -1.521  -1.856  1.00  0.00     0.116 C 
BRANCH   2   3
ATOM      3  N   UNL     1       2.922  -0.611  -0.941  1.00  0.00    -0.354 N 
ATOM      4  O   UNL     1       1.084   0.713  -0.573  1.00  0.00    -0.273 OA
ATOM      5  C   UNL     1       2.250   0.423  -0.307  1.00  0.00     0.241 C 
ATOM      6  H   UNL     1       3.884  -0.733  -0.766  1.00  0.00     0.163 HD
BRANCH   5   7
ATOM      7  C   UNL     1       3.076   1.271   0.648  1.00  0.00     0.244 C 
BRANCH   7   8
ATOM      8  N   UNL     1       3.589   0.540   1.794  1.00  0.00    -0.261 N 
ATOM      9  C   UNL     1       4.791   0.738   2.428  1.00  0.00     0.135 A 
ATOM     10  N   UNL     1       2.861  -0.445   2.340  1.00  0.00    -0.179 NA
ATOM     11  C   UNL     1       4.908  -0.281   3.344  1.00  0.00     0.081 A 
ATOM     12  C   UNL     1       3.653  -0.934   3.292  1.00  0.00     0.161 A 
BRANCH  11  13
ATOM     13  N   UNL     1       6.031  -0.544   4.112  1.00  0.00    -0.305 N 
ATOM     14  C   UNL     1       6.246  -1.671   4.862  1.00  0.00     0.322 C 
ATOM     15  H   UNL     1       6.739   0.141   4.120  1.00  0.00     0.171 HD
ATOM     16  O   UNL     1       6.916  -1.614   5.893  1.00  0.00    -0.248 OA
BRANCH  14  17
ATOM     17  N   UNL     1       5.709  -2.853   4.405  1.00  0.00    -0.313 N 
ATOM     18  C   UNL     1       5.795  -3.257   2.982  1.00  0.00     0.183 C 
ATOM     19  C   UNL     1       4.910  -3.649   5.349  1.00  0.00     0.186 C 
ATOM     20  C   UNL     1       5.305  -4.675   2.635  1.00  0.00     0.284 C 
ATOM     21  C   UNL     1       4.730  -5.076   4.875  1.00  0.00     0.204 C 
ATOM     22  N   UNL     1       4.204  -5.101   3.503  1.00  0.00    -0.330 N 
ATOM     23  C   UNL     1       3.783  -5.970   5.636  1.00  0.00     0.073 C 
ATOM     24  C   UNL     1       3.746  -6.471   3.278  1.00  0.00     0.262 C 
ATOM     25  H   UNL     1       3.417  -4.479   3.319  1.00  0.00     0.348 HD
ATOM     26  C   UNL     1       3.644  -7.127   4.658  1.00  0.00     0.068 C 
ENDBRANCH  14  17
ENDBRANCH  11  13
ENDBRANCH   7   8
ENDBRANCH   5   7
ENDBRANCH   2   3
ENDBRANCH   1   2
BRANCH   1  27
ATOM     27  C   UNL     1       4.019  -1.329  -3.760  1.00  0.00     0.023 C 
BRANCH  27  28
ATOM     28  C   UNL     1       4.667  -2.699  -3.570  1.00  0.00     0.116 C 
BRANCH  28  29
ATOM     29  N   UNL     1       4.187  -3.717  -4.499  1.00  0.00    -0.352 N 
ATOM     30  C   UNL     1       4.651  -5.015  -4.660  1.00  0.00     0.251 C 
ATOM     31  H   UNL     1       3.441  -3.449  -5.084  1.00  0.00     0.163 HD
ATOM     32  O   UNL     1       4.466  -5.608  -5.711  1.00  0.00    -0.269 OA
BRANCH  30  33
ATOM     33  C   UNL     1       5.369  -5.688  -3.547  1.00  0.00     0.039 A 
ATOM     34  C   UNL     1       6.435  -6.563  -3.792  1.00  0.00     0.014 A 
ATOM     35  C   UNL     1       4.952  -5.468  -2.237  1.00  0.00     0.014 A 
ATOM     36  C   UNL     1       7.140  -7.119  -2.713  1.00  0.00     0.010 A 
ATOM     37  C   UNL     1       5.693  -5.955  -1.175  1.00  0.00     0.010 A 
ATOM     38  C   UNL     1       6.790  -6.782  -1.394  1.00  0.00    -0.014 A 
BRANCH  38  39
ATOM     39  C   UNL     1       7.707  -6.977  -0.258  1.00  0.00     0.031 A 
ATOM     40  C   UNL     1       9.042  -6.398  -0.502  1.00  0.00     0.074 A 
ATOM     41  C   UNL     1       7.396  -7.499   0.953  1.00  0.00     0.049 A 
ATOM     42  N   UNL     1      10.073  -7.105  -0.821  1.00  0.00    -0.248 NA
ATOM     43  C   UNL     1       9.251  -4.951  -0.606  1.00  0.00     0.031 C 
ATOM     44  C   UNL     1       6.192  -8.257   1.281  1.00  0.00     0.029 A 
ATOM     45  N   UNL     1       8.080  -7.474   2.155  1.00  0.00    -0.354 N 
ATOM     46  C   UNL     1      11.135  -6.221  -0.869  1.00  0.00     0.074 A 
ATOM     47  C   UNL     1      10.541  -4.910  -0.956  1.00  0.00     0.031 C 
ATOM     48  C   UNL     1       6.192  -8.558   2.601  1.00  0.00     0.029 A 
ATOM     49  C   UNL     1       7.349  -7.943   3.257  1.00  0.00     0.049 A 
ATOM     50  H   UNL     1       9.008  -7.154   2.232  1.00  0.00     0.167 HD
ATOM     51  C   UNL     1      12.362  -6.649  -0.456  1.00  0.00     0.031 A 
ATOM     52  C   UNL     1       7.750  -8.313   4.511  1.00  0.00     0.031 A 
ATOM     53  C   UNL     1      12.384  -8.095  -0.341  1.00  0.00     0.049 A 
ATOM     54  C   UNL     1       9.118  -8.822   4.352  1.00  0.00     0.074 A 
ATOM     55  C   UNL     1      12.403  -9.188  -1.182  1.00  0.00     0.029 A 
ATOM     56  N   UNL     1      11.938  -8.537   0.877  1.00  0.00    -0.354 N 
ATOM     57  N   UNL     1       9.351  -9.976   3.808  1.00  0.00    -0.248 NA
ATOM     58  C   UNL     1      10.263  -7.925   4.466  1.00  0.00     0.031 C 
ATOM     59  C   UNL     1      11.805 -10.268  -0.457  1.00  0.00     0.029 A 
ATOM     60  C   UNL     1      11.492  -9.826   0.822  1.00  0.00     0.049 A 
ATOM     61  H   UNL     1      11.940  -7.990   1.696  1.00  0.00     0.167 HD
ATOM     62  C   UNL     1      10.499  -9.753   3.083  1.00  0.00     0.074 A 
ATOM     63  C   UNL     1      11.117  -8.570   3.670  1.00  0.00     0.031 C 
ATOM     64  C   UNL     1      10.666 -10.354   1.875  1.00  0.00     0.031 A 
BRANCH  51  65
ATOM     65  C   UNL     1      13.275  -5.802   0.419  1.00  0.00    -0.014 A 
ATOM     66  C   UNL     1      14.402  -6.424   0.993  1.00  0.00     0.009 A 
ATOM     67  C   UNL     1      12.934  -4.540   0.938  1.00  0.00     0.009 A 
ATOM     68  C   UNL     1      15.081  -5.861   2.082  1.00  0.00     0.001 A 
ATOM     69  C   UNL     1      13.622  -3.962   2.010  1.00  0.00     0.001 A 
ATOM     70  C   UNL     1      14.680  -4.636   2.600  1.00  0.00     0.000 A 
ENDBRANCH  51  65
BRANCH  52  71
ATOM     71  C   UNL     1       7.453  -7.602   5.789  1.00  0.00    -0.014 A 
ATOM     72  C   UNL     1       7.139  -8.322   6.954  1.00  0.00     0.009 A 
ATOM     73  C   UNL     1       7.663  -6.220   5.924  1.00  0.00     0.009 A 
ATOM     74  C   UNL     1       6.971  -7.669   8.188  1.00  0.00     0.001 A 
ATOM     75  C   UNL     1       7.465  -5.561   7.147  1.00  0.00     0.001 A 
ATOM     76  C   UNL     1       7.111  -6.286   8.279  1.00  0.00     0.000 A 
ENDBRANCH  52  71
BRANCH  64  77
ATOM     77  C   UNL     1       9.807 -11.551   1.611  1.00  0.00    -0.014 A 
ATOM     78  C   UNL     1       8.436 -11.471   1.313  1.00  0.00     0.009 A 
ATOM     79  C   UNL     1      10.411 -12.810   1.670  1.00  0.00     0.009 A 
ATOM     80  C   UNL     1       7.684 -12.630   1.102  1.00  0.00     0.001 A 
ATOM     81  C   UNL     1       9.665 -13.966   1.442  1.00  0.00     0.001 A 
ATOM     82  C   UNL     1       8.302 -13.877   1.162  1.00  0.00     0.000 A 
ENDBRANCH  64  77
ENDBRANCH  38  39
ENDBRANCH  30  33
ENDBRANCH  28  29
ENDBRANCH  27  28
ENDBRANCH   1  27
TORSDOF 14
