REMARK SMILES COc1cc(OC)c([C@H]2CC[NH2+][C@H]2C(=O)NCCCCNC(=O)c2ccc(-c3c4nc(c(-c5ccccc5)c5ccc([nH]5)c(-c5ccccc5)c5nc(c(-c6ccccc6)c6ccc3[nH]6)C=C5)C=C4)cc2)cc1OC
REMARK SMILES IDX 18 1 17 2 16 3 14 4 15 5 13 7 9 8 10 9 11 10 12 11 8 14 3 15
REMARK SMILES IDX 4 16 73 17 5 18 72 19 2 20 1 21 74 22 75 23 6 24 7 25 19 26
REMARK SMILES IDX 20 27 21 28 22 29 23 31 24 32 25 33 71 34 26 35 70 36 27 37
REMARK SMILES IDX 28 38 29 39 64 40 30 41 69 42 63 43 65 44 31 45 68 46 62 47
REMARK SMILES IDX 61 48 32 50 54 51 39 52 53 53 40 54 43 55 52 56 66 57 41 58
REMARK SMILES IDX 42 59 51 61 67 62 44 63 33 64 34 65 38 66 35 67 37 68 36 69
REMARK SMILES IDX 55 70 56 71 60 72 57 73 59 74 58 75 45 76 46 77 50 78 47 79
REMARK SMILES IDX 49 80 48 81
REMARK H PARENT 16 6 12 12 12 13 21 30 65 49 43 60
REMARK Flexibility Score: inf
ROOT
ATOM      1  C   UNL     1       2.613  -5.142   8.610  1.00  0.00     0.023 C 
ENDROOT
BRANCH   1   2
ATOM      2  C   UNL     1       3.657  -5.848   7.752  1.00  0.00     0.116 C 
BRANCH   2   3
ATOM      3  N   UNL     1       3.080  -6.722   6.756  1.00  0.00    -0.351 N 
ATOM      4  C   UNL     1       2.805  -6.542   5.437  1.00  0.00     0.278 C 
ATOM      5  O   UNL     1       2.423  -7.548   4.825  1.00  0.00    -0.268 OA
ATOM      6  H   UNL     1       2.842  -7.614   7.096  1.00  0.00     0.163 HD
BRANCH   4   7
ATOM      7  C   UNL     1       2.957  -5.192   4.686  1.00  0.00     0.280 C 
ATOM      8  C   UNL     1       2.129  -3.945   5.099  1.00  0.00     0.097 C 
ATOM      9  C   UNL     1       3.195  -3.072   5.777  1.00  0.00     0.076 C 
ATOM     10  C   UNL     1       4.495  -3.421   5.077  1.00  0.00     0.262 C 
ATOM     11  N   UNL     1       4.391  -4.804   4.633  1.00  0.00    -0.335 N 
ATOM     12  H   UNL     1       4.937  -5.408   5.248  1.00  0.00     0.346 HD
ATOM     13  H   UNL     1       4.752  -4.902   3.684  1.00  0.00     0.346 HD
BRANCH   8  14
ATOM     14  C   UNL     1       0.795  -4.139   5.817  1.00  0.00     0.008 A 
ATOM     15  C   UNL     1      -1.513  -4.724   7.388  1.00  0.00     0.164 A 
ATOM     16  C   UNL     1      -0.914  -3.463   7.447  1.00  0.00     0.097 A 
ATOM     17  C   UNL     1      -1.031  -5.659   6.474  1.00  0.00     0.161 A 
ATOM     18  C   UNL     1       0.203  -3.167   6.645  1.00  0.00     0.126 A 
ATOM     19  C   UNL     1       0.074  -5.339   5.672  1.00  0.00     0.058 A 
BRANCH  15  20
ATOM     20  O   UNL     1      -2.666  -4.956   8.089  1.00  0.00    -0.493 OA
ATOM     21  C   UNL     1      -2.428  -5.248   9.466  1.00  0.00     0.278 C 
ENDBRANCH  15  20
BRANCH  17  22
ATOM     22  O   UNL     1      -1.577  -6.889   6.221  1.00  0.00    -0.493 OA
ATOM     23  C   UNL     1      -1.836  -7.683   7.373  1.00  0.00     0.278 C 
ENDBRANCH  17  22
BRANCH  18  24
ATOM     24  O   UNL     1       0.709  -1.897   6.754  1.00  0.00    -0.496 OA
ATOM     25  C   UNL     1       0.398  -1.115   5.594  1.00  0.00     0.278 C 
ENDBRANCH  18  24
ENDBRANCH   8  14
ENDBRANCH   4   7
ENDBRANCH   2   3
ENDBRANCH   1   2
BRANCH   1  26
ATOM     26  C   UNL     1       1.816  -6.035   9.551  1.00  0.00     0.023 C 
BRANCH  26  27
ATOM     27  C   UNL     1       2.676  -6.783  10.549  1.00  0.00     0.116 C 
BRANCH  27  28
ATOM     28  N   UNL     1       3.543  -5.902  11.319  1.00  0.00    -0.352 N 
ATOM     29  C   UNL     1       3.985  -6.057  12.606  1.00  0.00     0.251 C 
ATOM     30  H   UNL     1       3.852  -5.091  10.854  1.00  0.00     0.163 HD
ATOM     31  O   UNL     1       4.613  -5.164  13.164  1.00  0.00    -0.269 OA
BRANCH  29  32
ATOM     32  C   UNL     1       3.660  -7.303  13.320  1.00  0.00     0.039 A 
ATOM     33  C   UNL     1       3.170  -7.225  14.623  1.00  0.00     0.014 A 
ATOM     34  C   UNL     1       3.804  -8.539  12.684  1.00  0.00     0.014 A 
ATOM     35  C   UNL     1       2.794  -8.394  15.279  1.00  0.00     0.010 A 
ATOM     36  C   UNL     1       3.328  -9.686  13.296  1.00  0.00     0.010 A 
ATOM     37  C   UNL     1       2.854  -9.629  14.613  1.00  0.00    -0.014 A 
BRANCH  37  38
ATOM     38  C   UNL     1       2.491 -10.886  15.305  1.00  0.00     0.031 A 
ATOM     39  C   UNL     1       3.542 -11.940  15.525  1.00  0.00     0.074 A 
ATOM     40  C   UNL     1       1.221 -11.089  15.699  1.00  0.00     0.049 A 
ATOM     41  N   UNL     1       3.430 -13.108  16.102  1.00  0.00    -0.248 NA
ATOM     42  C   UNL     1       4.890 -11.658  15.001  1.00  0.00     0.031 C 
ATOM     43  C   UNL     1       0.107 -10.161  15.494  1.00  0.00     0.029 A 
ATOM     44  N   UNL     1       0.657 -12.146  16.365  1.00  0.00    -0.354 N 
ATOM     45  C   UNL     1       4.682 -13.701  15.992  1.00  0.00     0.074 A 
ATOM     46  C   UNL     1       5.517 -12.800  15.232  1.00  0.00     0.031 C 
ATOM     47  C   UNL     1      -0.998 -10.670  16.063  1.00  0.00     0.029 A 
ATOM     48  C   UNL     1      -0.677 -11.971  16.639  1.00  0.00     0.049 A 
ATOM     49  H   UNL     1       1.159 -12.952  16.622  1.00  0.00     0.167 HD
ATOM     50  C   UNL     1       5.111 -14.878  16.506  1.00  0.00     0.031 A 
ATOM     51  C   UNL     1      -1.540 -12.771  17.292  1.00  0.00     0.031 A 
ATOM     52  C   UNL     1       4.282 -15.762  17.277  1.00  0.00     0.049 A 
ATOM     53  C   UNL     1      -1.038 -14.071  17.858  1.00  0.00     0.074 A 
ATOM     54  C   UNL     1       4.626 -16.953  17.890  1.00  0.00     0.029 A 
ATOM     55  N   UNL     1       2.937 -15.548  17.540  1.00  0.00    -0.354 N 
ATOM     56  N   UNL     1       0.168 -14.586  17.810  1.00  0.00    -0.248 NA
ATOM     57  C   UNL     1      -2.016 -14.890  18.586  1.00  0.00     0.031 C 
ATOM     58  C   UNL     1       3.476 -17.485  18.482  1.00  0.00     0.029 A 
ATOM     59  C   UNL     1       2.431 -16.594  18.291  1.00  0.00     0.049 A 
ATOM     60  H   UNL     1       2.420 -14.767  17.237  1.00  0.00     0.167 HD
ATOM     61  C   UNL     1       0.101 -15.773  18.528  1.00  0.00     0.074 A 
ATOM     62  C   UNL     1      -1.258 -15.887  19.018  1.00  0.00     0.031 C 
ATOM     63  C   UNL     1       1.073 -16.689  18.762  1.00  0.00     0.031 A 
BRANCH  50  64
ATOM     64  C   UNL     1       6.540 -15.265  16.242  1.00  0.00    -0.014 A 
ATOM     65  C   UNL     1       7.607 -14.551  16.813  1.00  0.00     0.009 A 
ATOM     66  C   UNL     1       6.826 -16.364  15.418  1.00  0.00     0.009 A 
ATOM     67  C   UNL     1       8.929 -14.903  16.529  1.00  0.00     0.001 A 
ATOM     68  C   UNL     1       8.148 -16.735  15.164  1.00  0.00     0.001 A 
ATOM     69  C   UNL     1       9.197 -15.997  15.710  1.00  0.00     0.000 A 
ENDBRANCH  50  64
BRANCH  51  70
ATOM     70  C   UNL     1      -2.954 -12.355  17.477  1.00  0.00    -0.014 A 
ATOM     71  C   UNL     1      -3.437 -12.015  18.750  1.00  0.00     0.009 A 
ATOM     72  C   UNL     1      -3.834 -12.307  16.384  1.00  0.00     0.009 A 
ATOM     73  C   UNL     1      -4.779 -11.672  18.932  1.00  0.00     0.001 A 
ATOM     74  C   UNL     1      -5.168 -11.933  16.563  1.00  0.00     0.001 A 
ATOM     75  C   UNL     1      -5.642 -11.628  17.838  1.00  0.00     0.000 A 
ENDBRANCH  51  70
BRANCH  63  76
ATOM     76  C   UNL     1       0.705 -17.870  19.616  1.00  0.00    -0.014 A 
ATOM     77  C   UNL     1      -0.170 -18.865  19.152  1.00  0.00     0.009 A 
ATOM     78  C   UNL     1       1.256 -17.993  20.901  1.00  0.00     0.009 A 
ATOM     79  C   UNL     1      -0.524 -19.933  19.978  1.00  0.00     0.001 A 
ATOM     80  C   UNL     1       0.928 -19.081  21.710  1.00  0.00     0.001 A 
ATOM     81  C   UNL     1       0.028 -20.041  21.254  1.00  0.00     0.000 A 
ENDBRANCH  63  76
ENDBRANCH  37  38
ENDBRANCH  29  32
ENDBRANCH  27  28
ENDBRANCH  26  27
ENDBRANCH   1  26
TORSDOF 15
