REMARK SMILES CC[NH+]1CC[NH+]([C@@H]2CC(=O)N(c3ccc(C(=O)NCCCCNC(=O)c4ccc(-c5c6nc(c(-c7ccccc7)c7ccc([nH]7)c(-c7ccccc7)c7nc(c(-c8ccccc8)c8ccc5[nH]8)C=C7)C=C6)cc4)cc3)C2=O)CC1
REMARK SMILES IDX 20 1 19 2 18 3 16 4 17 5 15 7 12 8 13 9 75 10 14 11 74 12
REMARK SMILES IDX 11 13 7 14 8 15 76 16 9 17 77 18 10 19 6 20 3 21 4 22 79 23
REMARK SMILES IDX 5 25 78 26 2 28 1 29 21 30 22 31 23 32 24 33 25 35 26 36
REMARK SMILES IDX 27 37 73 38 28 39 72 40 29 41 30 42 31 43 66 44 32 45 71 46
REMARK SMILES IDX 65 47 67 48 33 49 70 50 64 51 63 52 34 54 56 55 41 56 55 57
REMARK SMILES IDX 42 58 45 59 54 60 68 61 43 62 44 63 53 65 69 66 46 67 35 68
REMARK SMILES IDX 36 69 40 70 37 71 39 72 38 73 57 74 58 75 62 76 59 77 61 78
REMARK SMILES IDX 60 79 47 80 48 81 52 82 49 83 51 84 50 85
REMARK H PARENT 18 6 3 24 6 27 23 34 67 53 45 64
REMARK Flexibility Score: inf
ROOT
ATOM      1  C   UNL     1       1.617 -11.705  -4.763  1.00  0.00     0.023 C 
ENDROOT
BRANCH   1   2
ATOM      2  C   UNL     1       0.234 -11.058  -4.891  1.00  0.00     0.116 C 
BRANCH   2   3
ATOM      3  N   UNL     1      -0.474 -11.103  -3.629  1.00  0.00    -0.352 N 
ATOM      4  C   UNL     1      -0.530 -10.220  -2.579  1.00  0.00     0.251 C 
ATOM      5  O   UNL     1      -1.262 -10.514  -1.634  1.00  0.00    -0.269 OA
ATOM      6  H   UNL     1      -1.014 -11.916  -3.499  1.00  0.00     0.163 HD
BRANCH   4   7
ATOM      7  C   UNL     1       0.215  -8.925  -2.546  1.00  0.00     0.039 A 
ATOM      8  C   UNL     1       1.489  -6.414  -2.393  1.00  0.00     0.052 A 
ATOM      9  C   UNL     1       0.410  -6.707  -1.554  1.00  0.00     0.027 A 
ATOM     10  C   UNL     1       1.947  -7.381  -3.278  1.00  0.00     0.027 A 
ATOM     11  C   UNL     1      -0.241  -7.943  -1.654  1.00  0.00     0.016 A 
ATOM     12  C   UNL     1       1.347  -8.637  -3.311  1.00  0.00     0.016 A 
BRANCH   8  13
ATOM     13  N   UNL     1       2.130  -5.167  -2.344  1.00  0.00    -0.245 N 
ATOM     14  C   UNL     1       3.118  -3.217  -1.506  1.00  0.00     0.285 C 
ATOM     15  C   UNL     1       3.120  -3.165  -3.027  1.00  0.00     0.176 C 
ATOM     16  C   UNL     1       2.561  -4.594  -1.174  1.00  0.00     0.292 C 
ATOM     17  C   UNL     1       2.466  -4.439  -3.455  1.00  0.00     0.240 C 
ATOM     18  O   UNL     1       2.534  -5.086  -0.053  1.00  0.00    -0.267 OA
ATOM     19  O   UNL     1       2.268  -4.721  -4.630  1.00  0.00    -0.274 OA
BRANCH  14  20
ATOM     20  N   UNL     1       2.401  -2.180  -0.753  1.00  0.00    -0.315 N 
ATOM     21  N   UNL     1       0.807   0.017  -2.040  1.00  0.00    -0.326 N 
ATOM     22  C   UNL     1       2.271   0.078  -1.955  1.00  0.00     0.324 C 
ATOM     23  C   UNL     1       0.293  -1.349  -1.911  1.00  0.00     0.324 C 
ATOM     24  H   UNL     1       0.587   0.306  -2.993  1.00  0.00     0.348 HD
ATOM     25  C   UNL     1       2.942  -0.825  -0.891  1.00  0.00     0.325 C 
ATOM     26  C   UNL     1       0.934  -2.200  -0.801  1.00  0.00     0.325 C 
ATOM     27  H   UNL     1       2.612  -2.484   0.198  1.00  0.00     0.349 HD
BRANCH  21  28
ATOM     28  C   UNL     1       0.094   1.012  -1.237  1.00  0.00     0.259 C 
ATOM     29  C   UNL     1       0.377   1.074   0.258  1.00  0.00     0.071 C 
ENDBRANCH  21  28
ENDBRANCH  14  20
ENDBRANCH   8  13
ENDBRANCH   4   7
ENDBRANCH   2   3
ENDBRANCH   1   2
BRANCH   1  30
ATOM     30  C   UNL     1       1.615 -13.227  -4.871  1.00  0.00     0.023 C 
BRANCH  30  31
ATOM     31  C   UNL     1       1.163 -13.759  -6.221  1.00  0.00     0.116 C 
BRANCH  31  32
ATOM     32  N   UNL     1       1.970 -13.278  -7.333  1.00  0.00    -0.352 N 
ATOM     33  C   UNL     1       2.186 -13.893  -8.541  1.00  0.00     0.251 C 
ATOM     34  H   UNL     1       2.413 -12.408  -7.204  1.00  0.00     0.163 HD
ATOM     35  O   UNL     1       2.969 -13.421  -9.359  1.00  0.00    -0.269 OA
BRANCH  33  36
ATOM     36  C   UNL     1       1.495 -15.167  -8.817  1.00  0.00     0.039 A 
ATOM     37  C   UNL     1       2.257 -16.275  -9.191  1.00  0.00     0.014 A 
ATOM     38  C   UNL     1       0.114 -15.277  -8.635  1.00  0.00     0.014 A 
ATOM     39  C   UNL     1       1.638 -17.518  -9.318  1.00  0.00     0.010 A 
ATOM     40  C   UNL     1      -0.487 -16.527  -8.695  1.00  0.00     0.010 A 
ATOM     41  C   UNL     1       0.270 -17.659  -9.036  1.00  0.00    -0.014 A 
BRANCH  41  42
ATOM     42  C   UNL     1      -0.393 -18.982  -9.097  1.00  0.00     0.031 A 
ATOM     43  C   UNL     1      -1.451 -19.241 -10.131  1.00  0.00     0.074 A 
ATOM     44  C   UNL     1      -0.089 -19.923  -8.183  1.00  0.00     0.049 A 
ATOM     45  N   UNL     1      -2.190 -20.307 -10.305  1.00  0.00    -0.248 NA
ATOM     46  C   UNL     1      -1.733 -18.151 -11.079  1.00  0.00     0.031 C 
ATOM     47  C   UNL     1       0.892 -19.776  -7.104  1.00  0.00     0.029 A 
ATOM     48  N   UNL     1      -0.582 -21.192  -8.014  1.00  0.00    -0.354 N 
ATOM     49  C   UNL     1      -3.032 -20.010 -11.367  1.00  0.00     0.074 A 
ATOM     50  C   UNL     1      -2.748 -18.650 -11.770  1.00  0.00     0.031 C 
ATOM     51  C   UNL     1       0.946 -20.920  -6.402  1.00  0.00     0.029 A 
ATOM     52  C   UNL     1      -0.017 -21.865  -6.958  1.00  0.00     0.049 A 
ATOM     53  H   UNL     1      -1.274 -21.583  -8.594  1.00  0.00     0.167 HD
ATOM     54  C   UNL     1      -3.947 -20.805 -11.970  1.00  0.00     0.031 A 
ATOM     55  C   UNL     1      -0.253 -23.105  -6.490  1.00  0.00     0.031 A 
ATOM     56  C   UNL     1      -4.219 -22.162 -11.582  1.00  0.00     0.049 A 
ATOM     57  C   UNL     1      -1.277 -23.965  -7.175  1.00  0.00     0.074 A 
ATOM     58  C   UNL     1      -5.093 -23.066 -12.161  1.00  0.00     0.029 A 
ATOM     59  N   UNL     1      -3.615 -22.812 -10.518  1.00  0.00    -0.354 N 
ATOM     60  N   UNL     1      -2.024 -23.689  -8.217  1.00  0.00    -0.248 NA
ATOM     61  C   UNL     1      -1.481 -25.313  -6.626  1.00  0.00     0.031 C 
ATOM     62  C   UNL     1      -5.043 -24.253 -11.424  1.00  0.00     0.029 A 
ATOM     63  C   UNL     1      -4.106 -24.102 -10.414  1.00  0.00     0.049 A 
ATOM     64  H   UNL     1      -2.937 -22.416  -9.924  1.00  0.00     0.167 HD
ATOM     65  C   UNL     1      -2.766 -24.837  -8.463  1.00  0.00     0.074 A 
ATOM     66  C   UNL     1      -2.369 -25.816  -7.472  1.00  0.00     0.031 C 
ATOM     67  C   UNL     1      -3.693 -25.061  -9.425  1.00  0.00     0.031 A 
BRANCH  54  68
ATOM     68  C   UNL     1      -4.719 -20.220 -13.117  1.00  0.00    -0.014 A 
ATOM     69  C   UNL     1      -4.105 -19.991 -14.359  1.00  0.00     0.009 A 
ATOM     70  C   UNL     1      -6.082 -19.924 -12.967  1.00  0.00     0.009 A 
ATOM     71  C   UNL     1      -4.833 -19.447 -15.418  1.00  0.00     0.001 A 
ATOM     72  C   UNL     1      -6.814 -19.404 -14.035  1.00  0.00     0.001 A 
ATOM     73  C   UNL     1      -6.188 -19.158 -15.257  1.00  0.00     0.000 A 
ENDBRANCH  54  68
BRANCH  55  74
ATOM     74  C   UNL     1       0.505 -23.620  -5.322  1.00  0.00    -0.014 A 
ATOM     75  C   UNL     1       1.481 -24.615  -5.493  1.00  0.00     0.009 A 
ATOM     76  C   UNL     1       0.246 -23.138  -4.030  1.00  0.00     0.009 A 
ATOM     77  C   UNL     1       2.160 -25.137  -4.391  1.00  0.00     0.001 A 
ATOM     78  C   UNL     1       0.946 -23.644  -2.933  1.00  0.00     0.001 A 
ATOM     79  C   UNL     1       1.894 -24.649  -3.112  1.00  0.00     0.000 A 
ENDBRANCH  55  74
BRANCH  67  80
ATOM     80  C   UNL     1      -4.312 -26.427  -9.472  1.00  0.00    -0.014 A 
ATOM     81  C   UNL     1      -5.269 -26.825  -8.526  1.00  0.00     0.009 A 
ATOM     82  C   UNL     1      -3.961 -27.313 -10.503  1.00  0.00     0.009 A 
ATOM     83  C   UNL     1      -5.839 -28.097  -8.594  1.00  0.00     0.001 A 
ATOM     84  C   UNL     1      -4.551 -28.574 -10.583  1.00  0.00     0.001 A 
ATOM     85  C   UNL     1      -5.484 -28.968  -9.624  1.00  0.00     0.000 A 
ENDBRANCH  67  80
ENDBRANCH  41  42
ENDBRANCH  33  36
ENDBRANCH  31  32
ENDBRANCH  30  31
ENDBRANCH   1  30
TORSDOF 14
