REMARK SMILES NS(=O)(=O)c1ccc(-n2nc(C(F)(F)F)cc2-c2ccc(CC(=O)NCCCCNC(=O)c3ccc(-c4c5nc(c(-c6ccccc6)c6ccc([nH]6)c(-c6ccccc6)c6nc(c(-c7ccccc7)c7ccc4[nH]7)C=C6)C=C5)cc3)cc2)cc1
REMARK SMILES IDX 26 1 25 2 23 3 24 4 22 6 21 7 18 8 19 9 82 10 20 11 81 12
REMARK SMILES IDX 17 13 9 14 10 15 11 16 16 17 8 18 5 19 6 20 84 21 7 22 83 23
REMARK SMILES IDX 2 24 3 25 4 26 1 27 12 30 13 31 14 32 15 33 27 34 28 35
REMARK SMILES IDX 29 36 30 37 31 38 32 40 33 41 34 42 80 43 35 44 79 45 36 46
REMARK SMILES IDX 37 47 38 48 73 49 39 50 78 51 72 52 74 53 40 54 77 55 71 56
REMARK SMILES IDX 70 57 41 59 63 60 48 61 62 62 49 63 52 64 61 65 75 66 50 67
REMARK SMILES IDX 51 68 60 70 76 71 53 72 42 73 43 74 47 75 44 76 46 77 45 78
REMARK SMILES IDX 64 79 65 80 69 81 66 82 68 83 67 84 54 85 55 86 59 87 56 88
REMARK SMILES IDX 58 89 57 90
REMARK H PARENT 25 5 1 28 1 29 30 39 74 58 52 69
REMARK Flexibility Score: inf
ROOT
ATOM      1  C   UNL     1       2.958  -5.185  -0.841  1.00  0.00     0.116 C 
ENDROOT
BRANCH   1   2
ATOM      2  N   UNL     1       4.177  -4.454  -1.132  1.00  0.00    -0.356 N 
ATOM      3  C   UNL     1       5.401  -4.546  -0.533  1.00  0.00     0.224 C 
ATOM      4  O   UNL     1       6.269  -3.735  -0.864  1.00  0.00    -0.275 OA
ATOM      5  H   UNL     1       4.112  -3.799  -1.864  1.00  0.00     0.163 HD
BRANCH   3   6
ATOM      6  C   UNL     1       5.690  -5.655   0.466  1.00  0.00     0.135 C 
BRANCH   6   7
ATOM      7  C   UNL     1       4.937  -5.527   1.768  1.00  0.00    -0.039 A 
ATOM      8  C   UNL     1       3.392  -5.227   4.106  1.00  0.00     0.000 A 
ATOM      9  C   UNL     1       4.303  -4.234   3.718  1.00  0.00     0.010 A 
ATOM     10  C   UNL     1       3.307  -6.399   3.349  1.00  0.00     0.010 A 
ATOM     11  C   UNL     1       5.067  -4.380   2.558  1.00  0.00     0.005 A 
ATOM     12  C   UNL     1       4.081  -6.552   2.197  1.00  0.00     0.005 A 
BRANCH   8  13
ATOM     13  C   UNL     1       2.568  -5.059   5.303  1.00  0.00     0.075 A 
ATOM     14  N   UNL     1       1.836  -3.923   5.625  1.00  0.00    -0.233 N 
ATOM     15  N   UNL     1       1.410  -3.938   6.911  1.00  0.00    -0.163 NA
ATOM     16  C   UNL     1       1.644  -5.196   7.333  1.00  0.00     0.167 A 
ATOM     17  C   UNL     1       2.396  -5.915   6.372  1.00  0.00     0.064 A 
BRANCH  14  18
ATOM     18  C   UNL     1       1.446  -2.867   4.767  1.00  0.00     0.065 A 
ATOM     19  C   UNL     1       0.763  -0.794   3.042  1.00  0.00     0.082 A 
ATOM     20  C   UNL     1       0.514  -2.118   2.675  1.00  0.00     0.024 A 
ATOM     21  C   UNL     1       1.277  -0.499   4.306  1.00  0.00     0.024 A 
ATOM     22  C   UNL     1       0.909  -3.162   3.510  1.00  0.00     0.030 A 
ATOM     23  C   UNL     1       1.575  -1.539   5.193  1.00  0.00     0.030 A 
BRANCH  19  24
ATOM     24  S   UNL     1       0.439   0.504   1.883  1.00  0.00     0.238 S 
ATOM     25  O   UNL     1       1.135   1.705   2.308  1.00  0.00    -0.207 OA
ATOM     26  O   UNL     1      -0.953   0.485   1.536  1.00  0.00    -0.207 OA
BRANCH  24  27
ATOM     27  N   UNL     1       1.268   0.009   0.501  1.00  0.00    -0.225 NA
ATOM     28  H   UNL     1       1.142   0.701  -0.237  1.00  0.00     0.137 HD
ATOM     29  H   UNL     1       0.902  -0.891   0.190  1.00  0.00     0.137 HD
ENDBRANCH  24  27
ENDBRANCH  19  24
ENDBRANCH  14  18
BRANCH  16  30
ATOM     30  C   UNL     1       1.166  -5.723   8.659  1.00  0.00     0.435 C 
ATOM     31  F   UNL     1       1.479  -4.909   9.700  1.00  0.00    -0.164 F 
ATOM     32  F   UNL     1      -0.182  -5.902   8.679  1.00  0.00    -0.164 F 
ATOM     33  F   UNL     1       1.714  -6.939   8.941  1.00  0.00    -0.164 F 
ENDBRANCH  16  30
ENDBRANCH   8  13
ENDBRANCH   6   7
ENDBRANCH   3   6
ENDBRANCH   1   2
BRANCH   1  34
ATOM     34  C   UNL     1       1.996  -4.356   0.015  1.00  0.00     0.023 C 
BRANCH  34  35
ATOM     35  C   UNL     1       1.420  -3.125  -0.694  1.00  0.00     0.023 C 
BRANCH  35  36
ATOM     36  C   UNL     1       0.496  -3.433  -1.850  1.00  0.00     0.116 C 
BRANCH  36  37
ATOM     37  N   UNL     1      -0.716  -4.162  -1.460  1.00  0.00    -0.352 N 
ATOM     38  C   UNL     1      -1.749  -4.566  -2.291  1.00  0.00     0.251 C 
ATOM     39  H   UNL     1      -0.804  -4.389  -0.506  1.00  0.00     0.163 HD
ATOM     40  O   UNL     1      -2.849  -4.875  -1.854  1.00  0.00    -0.269 OA
BRANCH  38  41
ATOM     41  C   UNL     1      -1.468  -4.625  -3.733  1.00  0.00     0.039 A 
ATOM     42  C   UNL     1      -2.321  -4.075  -4.693  1.00  0.00     0.014 A 
ATOM     43  C   UNL     1      -0.233  -5.155  -4.086  1.00  0.00     0.014 A 
ATOM     44  C   UNL     1      -1.865  -3.981  -6.008  1.00  0.00     0.010 A 
ATOM     45  C   UNL     1       0.292  -4.848  -5.306  1.00  0.00     0.010 A 
ATOM     46  C   UNL     1      -0.543  -4.350  -6.298  1.00  0.00    -0.014 A 
BRANCH  46  47
ATOM     47  C   UNL     1       0.042  -4.176  -7.621  1.00  0.00     0.031 A 
ATOM     48  C   UNL     1       0.018  -2.786  -8.157  1.00  0.00     0.074 A 
ATOM     49  C   UNL     1       0.780  -5.154  -8.192  1.00  0.00     0.049 A 
ATOM     50  N   UNL     1      -0.553  -2.366  -9.236  1.00  0.00    -0.248 NA
ATOM     51  C   UNL     1       0.623  -1.712  -7.350  1.00  0.00     0.031 C 
ATOM     52  C   UNL     1       1.173  -6.459  -7.633  1.00  0.00     0.029 A 
ATOM     53  N   UNL     1       1.466  -5.127  -9.362  1.00  0.00    -0.354 N 
ATOM     54  C   UNL     1      -0.251  -1.010  -9.341  1.00  0.00     0.074 A 
ATOM     55  C   UNL     1       0.354  -0.633  -8.088  1.00  0.00     0.031 C 
ATOM     56  C   UNL     1       2.213  -6.962  -8.332  1.00  0.00     0.029 A 
ATOM     57  C   UNL     1       2.425  -6.124  -9.495  1.00  0.00     0.049 A 
ATOM     58  H   UNL     1       1.297  -4.455 -10.062  1.00  0.00     0.167 HD
ATOM     59  C   UNL     1      -0.338  -0.347 -10.528  1.00  0.00     0.031 A 
ATOM     60  C   UNL     1       3.344  -6.237 -10.484  1.00  0.00     0.031 A 
ATOM     61  C   UNL     1      -1.079  -1.103 -11.504  1.00  0.00     0.049 A 
ATOM     62  C   UNL     1       2.868  -5.408 -11.614  1.00  0.00     0.074 A 
ATOM     63  C   UNL     1      -2.379  -1.558 -11.590  1.00  0.00     0.029 A 
ATOM     64  N   UNL     1      -0.355  -1.856 -12.398  1.00  0.00    -0.354 N 
ATOM     65  N   UNL     1       1.787  -5.677 -12.290  1.00  0.00    -0.248 NA
ATOM     66  C   UNL     1       3.321  -4.028 -11.679  1.00  0.00     0.031 C 
ATOM     67  C   UNL     1      -2.266  -2.871 -12.135  1.00  0.00     0.029 A 
ATOM     68  C   UNL     1      -0.920  -3.106 -12.429  1.00  0.00     0.049 A 
ATOM     69  H   UNL     1       0.425  -1.555 -12.918  1.00  0.00     0.167 HD
ATOM     70  C   UNL     1       1.183  -4.444 -12.494  1.00  0.00     0.074 A 
ATOM     71  C   UNL     1       2.220  -3.459 -12.180  1.00  0.00     0.031 C 
ATOM     72  C   UNL     1      -0.173  -4.331 -12.615  1.00  0.00     0.031 A 
BRANCH  59  73
ATOM     73  C   UNL     1       0.545   0.809 -10.922  1.00  0.00    -0.014 A 
ATOM     74  C   UNL     1       0.314   1.455 -12.151  1.00  0.00     0.009 A 
ATOM     75  C   UNL     1       1.753   1.114 -10.266  1.00  0.00     0.009 A 
ATOM     76  C   UNL     1       1.270   2.306 -12.720  1.00  0.00     0.001 A 
ATOM     77  C   UNL     1       2.692   1.994 -10.813  1.00  0.00     0.001 A 
ATOM     78  C   UNL     1       2.462   2.569 -12.054  1.00  0.00     0.000 A 
ENDBRANCH  59  73
BRANCH  60  79
ATOM     79  C   UNL     1       4.721  -6.770 -10.416  1.00  0.00    -0.014 A 
ATOM     80  C   UNL     1       5.398  -7.165 -11.579  1.00  0.00     0.009 A 
ATOM     81  C   UNL     1       5.474  -6.623  -9.236  1.00  0.00     0.009 A 
ATOM     82  C   UNL     1       6.786  -7.365 -11.571  1.00  0.00     0.001 A 
ATOM     83  C   UNL     1       6.859  -6.821  -9.228  1.00  0.00     0.001 A 
ATOM     84  C   UNL     1       7.518  -7.178 -10.400  1.00  0.00     0.000 A 
ENDBRANCH  60  79
BRANCH  72  85
ATOM     85  C   UNL     1      -0.985  -5.605 -12.702  1.00  0.00    -0.014 A 
ATOM     86  C   UNL     1      -1.034  -6.562 -11.671  1.00  0.00     0.009 A 
ATOM     87  C   UNL     1      -1.857  -5.761 -13.788  1.00  0.00     0.009 A 
ATOM     88  C   UNL     1      -1.910  -7.652 -11.741  1.00  0.00     0.001 A 
ATOM     89  C   UNL     1      -2.746  -6.837 -13.848  1.00  0.00     0.001 A 
ATOM     90  C   UNL     1      -2.770  -7.785 -12.828  1.00  0.00     0.000 A 
ENDBRANCH  72  85
ENDBRANCH  46  47
ENDBRANCH  38  41
ENDBRANCH  36  37
ENDBRANCH  35  36
ENDBRANCH  34  35
ENDBRANCH   1  34
TORSDOF 17
