REMARK SMILES CC1(C)[C@H](C(=O)NCCCCNC(=O)c2ccc(-c3c4nc(c(-c5ccccc5)c5ccc([nH]5)c(-c5ccccc5)c5nc(c(-c6ccccc6)c6ccc3[nH]6)C=C5)C=C4)cc2)[C@@H]1C(=O)Nc1ccc(Cl)c(Br)c1
REMARK SMILES IDX 9 1 8 2 7 3 5 4 6 5 4 7 1 8 2 9 3 10 63 11 64 12 65 13 66 14
REMARK SMILES IDX 67 16 68 17 74 18 69 19 72 20 70 21 73 22 71 23 10 24 11 25
REMARK SMILES IDX 12 26 13 27 14 29 15 30 16 31 62 32 17 33 61 34 18 35 19 36
REMARK SMILES IDX 20 37 55 38 21 39 60 40 54 41 56 42 22 43 59 44 53 45 52 46
REMARK SMILES IDX 23 48 45 49 30 50 44 51 31 52 34 53 43 54 57 55 32 56 33 57
REMARK SMILES IDX 42 59 58 60 35 61 24 62 25 63 29 64 26 65 28 66 27 67 46 68
REMARK SMILES IDX 47 69 51 70 48 71 50 72 49 73 36 74 37 75 41 76 38 77 40 78
REMARK SMILES IDX 39 79
REMARK H PARENT 7 6 66 15 12 28 56 47 34 58
REMARK Flexibility Score: inf
ROOT
ATOM      1  C   UNL     1       0.339   4.167  -0.846  1.00  0.00     0.023 C 
ENDROOT
BRANCH   1   2
ATOM      2  C   UNL     1      -0.719   3.135  -0.470  1.00  0.00     0.116 C 
BRANCH   2   3
ATOM      3  N   UNL     1      -1.042   2.274  -1.584  1.00  0.00    -0.356 N 
ATOM      4  C   UNL     1      -1.083   0.925  -1.780  1.00  0.00     0.224 C 
ATOM      5  O   UNL     1      -1.410   0.573  -2.916  1.00  0.00    -0.275 OA
ATOM      6  H   UNL     1      -1.292   2.779  -2.391  1.00  0.00     0.163 HD
BRANCH   4   7
ATOM      7  C   UNL     1      -0.823  -0.165  -0.801  1.00  0.00     0.098 C 
ATOM      8  C   UNL     1       0.996  -1.682   0.183  1.00  0.00     0.013 C 
ATOM      9  C   UNL     1       0.339  -0.315   0.163  1.00  0.00    -0.011 C 
ATOM     10  C   UNL     1       1.347   0.789   0.342  1.00  0.00     0.013 C 
ATOM     11  C   UNL     1      -1.118  -0.236   0.671  1.00  0.00     0.098 C 
BRANCH  11  12
ATOM     12  C   UNL     1      -1.694   0.853   1.488  1.00  0.00     0.228 C 
ATOM     13  O   UNL     1      -1.091   1.251   2.481  1.00  0.00    -0.274 OA
ATOM     14  N   UNL     1      -2.891   1.443   1.145  1.00  0.00    -0.326 N 
ATOM     15  H   UNL     1      -3.166   2.187   1.727  1.00  0.00     0.169 HD
BRANCH  14  16
ATOM     16  C   UNL     1      -3.781   1.154   0.099  1.00  0.00     0.042 A 
ATOM     17  C   UNL     1      -4.451   2.233  -0.486  1.00  0.00     0.028 A 
ATOM     18  C   UNL     1      -3.995  -0.132  -0.398  1.00  0.00     0.043 A 
ATOM     19  C   UNL     1      -5.221   2.043  -1.637  1.00  0.00     0.024 A 
ATOM     20  C   UNL     1      -4.781  -0.329  -1.540  1.00  0.00     0.038 A 
ATOM     21  C   UNL     1      -5.374   0.764  -2.178  1.00  0.00     0.055 A 
ATOM     22  Br  UNL     1      -4.978  -2.112  -2.163  1.00  0.00    -0.049 Br
ATOM     23  Cl  UNL     1      -6.302   0.615  -3.626  1.00  0.00    -0.083 Cl
ENDBRANCH  14  16
ENDBRANCH  11  12
ENDBRANCH   4   7
ENDBRANCH   2   3
ENDBRANCH   1   2
BRANCH   1  24
ATOM     24  C   UNL     1      -0.190   5.329  -1.687  1.00  0.00     0.023 C 
BRANCH  24  25
ATOM     25  C   UNL     1      -1.327   6.124  -1.050  1.00  0.00     0.116 C 
BRANCH  25  26
ATOM     26  N   UNL     1      -1.001   6.634   0.275  1.00  0.00    -0.352 N 
ATOM     27  C   UNL     1      -1.111   7.917   0.756  1.00  0.00     0.251 C 
ATOM     28  H   UNL     1      -0.655   5.969   0.914  1.00  0.00     0.163 HD
ATOM     29  O   UNL     1      -0.684   8.216   1.865  1.00  0.00    -0.269 OA
BRANCH  27  30
ATOM     30  C   UNL     1      -1.723   8.944  -0.105  1.00  0.00     0.039 A 
ATOM     31  C   UNL     1      -0.989  10.089  -0.419  1.00  0.00     0.014 A 
ATOM     32  C   UNL     1      -2.981   8.720  -0.670  1.00  0.00     0.014 A 
ATOM     33  C   UNL     1      -1.475  10.967  -1.388  1.00  0.00     0.010 A 
ATOM     34  C   UNL     1      -3.434   9.562  -1.678  1.00  0.00     0.010 A 
ATOM     35  C   UNL     1      -2.672  10.678  -2.062  1.00  0.00    -0.014 A 
BRANCH  35  36
ATOM     36  C   UNL     1      -3.126  11.490  -3.216  1.00  0.00     0.031 A 
ATOM     37  C   UNL     1      -4.406  12.267  -3.136  1.00  0.00     0.074 A 
ATOM     38  C   UNL     1      -2.434  11.440  -4.372  1.00  0.00     0.049 A 
ATOM     39  N   UNL     1      -5.027  12.931  -4.077  1.00  0.00    -0.248 NA
ATOM     40  C   UNL     1      -5.093  12.275  -1.835  1.00  0.00     0.031 C 
ATOM     41  C   UNL     1      -1.193  10.691  -4.588  1.00  0.00     0.029 A 
ATOM     42  N   UNL     1      -2.689  12.017  -5.590  1.00  0.00    -0.354 N 
ATOM     43  C   UNL     1      -6.184  13.422  -3.487  1.00  0.00     0.074 A 
ATOM     44  C   UNL     1      -6.199  12.946  -2.121  1.00  0.00     0.031 C 
ATOM     45  C   UNL     1      -0.787  10.870  -5.855  1.00  0.00     0.029 A 
ATOM     46  C   UNL     1      -1.759  11.705  -6.552  1.00  0.00     0.049 A 
ATOM     47  H   UNL     1      -3.464  12.600  -5.758  1.00  0.00     0.167 HD
ATOM     48  C   UNL     1      -7.140  14.210  -4.032  1.00  0.00     0.031 A 
ATOM     49  C   UNL     1      -1.704  12.039  -7.854  1.00  0.00     0.031 A 
ATOM     50  C   UNL     1      -7.119  14.690  -5.387  1.00  0.00     0.049 A 
ATOM     51  C   UNL     1      -2.797  12.883  -8.444  1.00  0.00     0.074 A 
ATOM     52  C   UNL     1      -8.006  15.551  -6.010  1.00  0.00     0.029 A 
ATOM     53  N   UNL     1      -6.165  14.345  -6.331  1.00  0.00    -0.354 N 
ATOM     54  N   UNL     1      -3.852  13.393  -7.857  1.00  0.00    -0.248 NA
ATOM     55  C   UNL     1      -2.692  13.194  -9.877  1.00  0.00     0.031 C 
ATOM     56  C   UNL     1      -7.614  15.689  -7.346  1.00  0.00     0.029 A 
ATOM     57  C   UNL     1      -6.459  14.949  -7.541  1.00  0.00     0.049 A 
ATOM     58  H   UNL     1      -5.393  13.757  -6.165  1.00  0.00     0.167 HD
ATOM     59  C   UNL     1      -4.529  14.097  -8.843  1.00  0.00     0.074 A 
ATOM     60  C   UNL     1      -3.759  13.961 -10.062  1.00  0.00     0.031 C 
ATOM     61  C   UNL     1      -5.687  14.793  -8.746  1.00  0.00     0.031 A 
BRANCH  48  62
ATOM     62  C   UNL     1      -8.297  14.592  -3.155  1.00  0.00    -0.014 A 
ATOM     63  C   UNL     1      -8.139  15.511  -2.106  1.00  0.00     0.009 A 
ATOM     64  C   UNL     1      -9.567  14.045  -3.396  1.00  0.00     0.009 A 
ATOM     65  C   UNL     1      -9.223  15.848  -1.293  1.00  0.00     0.001 A 
ATOM     66  C   UNL     1     -10.654  14.403  -2.597  1.00  0.00     0.001 A 
ATOM     67  C   UNL     1     -10.479  15.297  -1.541  1.00  0.00     0.000 A 
ENDBRANCH  48  62
BRANCH  49  68
ATOM     68  C   UNL     1      -0.572  11.571  -8.693  1.00  0.00    -0.014 A 
ATOM     69  C   UNL     1       0.424  12.470  -9.104  1.00  0.00     0.009 A 
ATOM     70  C   UNL     1      -0.476  10.225  -9.082  1.00  0.00     0.009 A 
ATOM     71  C   UNL     1       1.483  12.035  -9.902  1.00  0.00     0.001 A 
ATOM     72  C   UNL     1       0.597   9.789  -9.861  1.00  0.00     0.001 A 
ATOM     73  C   UNL     1       1.572  10.695 -10.276  1.00  0.00     0.000 A 
ENDBRANCH  49  68
BRANCH  61  74
ATOM     74  C   UNL     1      -6.184  15.471  -9.989  1.00  0.00    -0.014 A 
ATOM     75  C   UNL     1      -6.795  14.735 -11.016  1.00  0.00     0.009 A 
ATOM     76  C   UNL     1      -6.086  16.865 -10.111  1.00  0.00     0.009 A 
ATOM     77  C   UNL     1      -7.279  15.383 -12.153  1.00  0.00     0.001 A 
ATOM     78  C   UNL     1      -6.592  17.512 -11.239  1.00  0.00     0.001 A 
ATOM     79  C   UNL     1      -7.183  16.770 -12.261  1.00  0.00     0.000 A 
ENDBRANCH  61  74
ENDBRANCH  35  36
ENDBRANCH  27  30
ENDBRANCH  25  26
ENDBRANCH  24  25
ENDBRANCH   1  24
TORSDOF 13
