REMARK SMILES CC(C)c1ccc(-c2cnc([C@@H]3[NH2+][C@H](C(=O)NCCCCNC(=O)c4ccc(-c5c6nc(c(-c7ccccc7)c7ccc([nH]7)c(-c7ccccc7)c7nc(c(-c8ccccc8)c8ccc5[nH]8)C=C7)C=C6)cc4)C(C)(C)S3)s2)cc1
REMARK SMILES IDX 19 1 18 2 17 3 15 4 16 5 14 7 12 8 13 9 76 10 73 13 74 14
REMARK SMILES IDX 75 15 11 16 8 17 9 18 77 19 10 20 7 21 4 22 5 23 79 24 6 25
REMARK SMILES IDX 78 26 2 27 1 28 3 29 20 30 21 31 22 32 23 33 24 35 25 36
REMARK SMILES IDX 26 37 72 38 27 39 71 40 28 41 29 42 30 43 65 44 31 45 70 46
REMARK SMILES IDX 64 47 66 48 32 49 69 50 63 51 62 52 33 54 55 55 40 56 54 57
REMARK SMILES IDX 41 58 44 59 53 60 67 61 42 62 43 63 52 65 68 66 45 67 34 68
REMARK SMILES IDX 35 69 39 70 36 71 38 72 37 73 56 74 57 75 61 76 58 77 60 78
REMARK SMILES IDX 59 79 46 80 47 81 51 82 48 83 50 84 49 85
REMARK H PARENT 17 6 13 11 13 12 22 34 66 53 44 64
REMARK Flexibility Score: inf
ROOT
ATOM      1  C   UNL     1     -15.432  -2.369  -0.819  1.00  0.00     0.023 C 
ENDROOT
BRANCH   1   2
ATOM      2  C   UNL     1     -14.226  -3.165  -1.331  1.00  0.00     0.116 C 
BRANCH   2   3
ATOM      3  N   UNL     1     -13.322  -2.314  -2.075  1.00  0.00    -0.351 N 
ATOM      4  C   UNL     1     -12.378  -1.476  -1.548  1.00  0.00     0.279 C 
ATOM      5  O   UNL     1     -12.351  -0.347  -2.028  1.00  0.00    -0.268 OA
ATOM      6  H   UNL     1     -13.393  -2.341  -3.056  1.00  0.00     0.163 HD
BRANCH   4   7
ATOM      7  C   UNL     1     -11.423  -2.013  -0.454  1.00  0.00     0.289 C 
ATOM      8  C   UNL     1      -9.250  -0.968  -0.745  1.00  0.00     0.304 C 
ATOM      9  N   UNL     1     -10.038  -2.196  -0.996  1.00  0.00    -0.318 N 
ATOM     10  S   UNL     1      -9.915  -0.142   0.732  1.00  0.00    -0.079 SA
ATOM     11  H   UNL     1      -9.592  -2.989  -0.533  1.00  0.00     0.348 HD
ATOM     12  H   UNL     1     -10.083  -2.375  -2.000  1.00  0.00     0.348 HD
ATOM     13  C   UNL     1     -11.365  -1.232   0.876  1.00  0.00     0.078 C 
ATOM     14  C   UNL     1     -11.082  -2.196   2.045  1.00  0.00     0.030 C 
ATOM     15  C   UNL     1     -12.611  -0.411   1.204  1.00  0.00     0.030 C 
BRANCH   8  16
ATOM     16  C   UNL     1      -9.144  -0.033  -1.932  1.00  0.00     0.162 A 
ATOM     17  C   UNL     1      -8.422   1.208  -3.910  1.00  0.00     0.055 A 
ATOM     18  C   UNL     1      -9.679   1.506  -3.421  1.00  0.00     0.132 A 
ATOM     19  S   UNL     1      -7.741  -0.041  -2.946  1.00  0.00    -0.112 S 
ATOM     20  N   UNL     1     -10.043   0.868  -2.267  1.00  0.00    -0.242 NA
BRANCH  17  21
ATOM     21  C   UNL     1      -7.727   1.844  -5.032  1.00  0.00    -0.007 A 
ATOM     22  C   UNL     1      -6.551   3.159  -7.261  1.00  0.00    -0.045 A 
ATOM     23  C   UNL     1      -6.331   1.794  -7.026  1.00  0.00     0.004 A 
ATOM     24  C   UNL     1      -7.341   3.862  -6.342  1.00  0.00     0.004 A 
ATOM     25  C   UNL     1      -6.910   1.144  -5.923  1.00  0.00     0.010 A 
ATOM     26  C   UNL     1      -7.923   3.215  -5.252  1.00  0.00     0.010 A 
BRANCH  22  27
ATOM     27  C   UNL     1      -5.981   3.917  -8.453  1.00  0.00     0.013 C 
ATOM     28  C   UNL     1      -4.971   3.140  -9.302  1.00  0.00     0.012 C 
ATOM     29  C   UNL     1      -7.108   4.434  -9.360  1.00  0.00     0.012 C 
ENDBRANCH  22  27
ENDBRANCH  17  21
ENDBRANCH   8  16
ENDBRANCH   4   7
ENDBRANCH   2   3
ENDBRANCH   1   2
BRANCH   1  30
ATOM     30  C   UNL     1     -16.198  -1.575  -1.885  1.00  0.00     0.023 C 
BRANCH  30  31
ATOM     31  C   UNL     1     -16.645  -2.374  -3.103  1.00  0.00     0.116 C 
BRANCH  31  32
ATOM     32  N   UNL     1     -17.504  -3.493  -2.754  1.00  0.00    -0.352 N 
ATOM     33  C   UNL     1     -18.698  -3.880  -3.304  1.00  0.00     0.251 C 
ATOM     34  H   UNL     1     -17.181  -4.056  -2.014  1.00  0.00     0.163 HD
ATOM     35  O   UNL     1     -19.345  -4.788  -2.780  1.00  0.00    -0.269 OA
BRANCH  33  36
ATOM     36  C   UNL     1     -19.232  -3.197  -4.502  1.00  0.00     0.039 A 
ATOM     37  C   UNL     1     -20.588  -2.862  -4.531  1.00  0.00     0.014 A 
ATOM     38  C   UNL     1     -18.413  -2.897  -5.594  1.00  0.00     0.014 A 
ATOM     39  C   UNL     1     -21.111  -2.173  -5.628  1.00  0.00     0.010 A 
ATOM     40  C   UNL     1     -18.920  -2.151  -6.657  1.00  0.00     0.010 A 
ATOM     41  C   UNL     1     -20.273  -1.784  -6.685  1.00  0.00    -0.014 A 
BRANCH  41  42
ATOM     42  C   UNL     1     -20.797  -0.994  -7.828  1.00  0.00     0.031 A 
ATOM     43  C   UNL     1     -20.816  -1.583  -9.211  1.00  0.00     0.074 A 
ATOM     44  C   UNL     1     -21.204   0.276  -7.633  1.00  0.00     0.049 A 
ATOM     45  N   UNL     1     -21.176  -1.028 -10.341  1.00  0.00    -0.248 NA
ATOM     46  C   UNL     1     -20.351  -2.973  -9.346  1.00  0.00     0.031 C 
ATOM     47  C   UNL     1     -21.209   0.978  -6.347  1.00  0.00     0.029 A 
ATOM     48  N   UNL     1     -21.688   1.204  -8.520  1.00  0.00    -0.354 N 
ATOM     49  C   UNL     1     -20.966  -1.991 -11.319  1.00  0.00     0.074 A 
ATOM     50  C   UNL     1     -20.406  -3.150 -10.658  1.00  0.00     0.031 C 
ATOM     51  C   UNL     1     -21.698   2.216  -6.525  1.00  0.00     0.029 A 
ATOM     52  C   UNL     1     -22.001   2.410  -7.940  1.00  0.00     0.049 A 
ATOM     53  H   UNL     1     -21.801   1.024  -9.481  1.00  0.00     0.167 HD
ATOM     54  C   UNL     1     -21.232  -1.927 -12.646  1.00  0.00     0.031 A 
ATOM     55  C   UNL     1     -22.472   3.546  -8.486  1.00  0.00     0.031 A 
ATOM     56  C   UNL     1     -21.799  -0.781 -13.305  1.00  0.00     0.049 A 
ATOM     57  C   UNL     1     -22.738   3.599  -9.964  1.00  0.00     0.074 A 
ATOM     58  C   UNL     1     -22.146  -0.637 -14.638  1.00  0.00     0.029 A 
ATOM     59  N   UNL     1     -22.102   0.418 -12.681  1.00  0.00    -0.354 N 
ATOM     60  N   UNL     1     -22.585   2.660 -10.866  1.00  0.00    -0.248 NA
ATOM     61  C   UNL     1     -23.250   4.869 -10.498  1.00  0.00     0.031 C 
ATOM     62  C   UNL     1     -22.620   0.665 -14.828  1.00  0.00     0.029 A 
ATOM     63  C   UNL     1     -22.615   1.314 -13.604  1.00  0.00     0.049 A 
ATOM     64  H   UNL     1     -21.972   0.606 -11.723  1.00  0.00     0.167 HD
ATOM     65  C   UNL     1     -23.010   3.215 -12.066  1.00  0.00     0.074 A 
ATOM     66  C   UNL     1     -23.440   4.567 -11.775  1.00  0.00     0.031 C 
ATOM     67  C   UNL     1     -23.043   2.654 -13.298  1.00  0.00     0.031 A 
BRANCH  54  68
ATOM     68  C   UNL     1     -20.908  -3.138 -13.475  1.00  0.00    -0.014 A 
ATOM     69  C   UNL     1     -21.670  -4.312 -13.370  1.00  0.00     0.009 A 
ATOM     70  C   UNL     1     -19.852  -3.093 -14.397  1.00  0.00     0.009 A 
ATOM     71  C   UNL     1     -21.358  -5.429 -14.148  1.00  0.00     0.001 A 
ATOM     72  C   UNL     1     -19.560  -4.201 -15.194  1.00  0.00     0.001 A 
ATOM     73  C   UNL     1     -20.307  -5.371 -15.062  1.00  0.00     0.000 A 
ENDBRANCH  54  68
BRANCH  55  74
ATOM     74  C   UNL     1     -22.740   4.731  -7.630  1.00  0.00    -0.014 A 
ATOM     75  C   UNL     1     -24.059   5.139  -7.376  1.00  0.00     0.009 A 
ATOM     76  C   UNL     1     -21.682   5.471  -7.080  1.00  0.00     0.009 A 
ATOM     77  C   UNL     1     -24.312   6.280  -6.612  1.00  0.00     0.001 A 
ATOM     78  C   UNL     1     -21.939   6.596  -6.293  1.00  0.00     0.001 A 
ATOM     79  C   UNL     1     -23.253   7.005  -6.069  1.00  0.00     0.000 A 
ENDBRANCH  55  74
BRANCH  67  80
ATOM     80  C   UNL     1     -23.599   3.487 -14.417  1.00  0.00    -0.014 A 
ATOM     81  C   UNL     1     -22.873   4.559 -14.959  1.00  0.00     0.009 A 
ATOM     82  C   UNL     1     -24.853   3.170 -14.961  1.00  0.00     0.009 A 
ATOM     83  C   UNL     1     -23.408   5.317 -16.002  1.00  0.00     0.001 A 
ATOM     84  C   UNL     1     -25.373   3.912 -16.022  1.00  0.00     0.001 A 
ATOM     85  C   UNL     1     -24.654   4.990 -16.536  1.00  0.00     0.000 A 
ENDBRANCH  67  80
ENDBRANCH  41  42
ENDBRANCH  33  36
ENDBRANCH  31  32
ENDBRANCH  30  31
ENDBRANCH   1  30
TORSDOF 14
