REMARK SMILES Cc1ccc(CN(CC(=O)NCCCCNC(=O)c2ccc(-c3c4nc(c(-c5ccccc5)c5ccc([nH]5)c(-c5ccccc5)c5nc(c(-c6ccccc6)c6ccc3[nH]6)C=C5)C=C4)cc2)C(=O)c2cc3c(s2)CCOC3)cc1
REMARK SMILES IDX 13 1 12 2 11 3 9 4 10 5 8 7 7 8 6 9 5 10 1 11 2 12 3 13
REMARK SMILES IDX 79 14 4 15 78 16 67 17 68 18 69 19 70 20 73 21 71 22 72 23
REMARK SMILES IDX 77 24 74 25 76 26 75 27 14 28 15 29 16 30 17 31 18 33 19 34
REMARK SMILES IDX 20 35 66 36 21 37 65 38 22 39 23 40 24 41 59 42 25 43 64 44
REMARK SMILES IDX 58 45 60 46 26 47 63 48 57 49 56 50 27 52 49 53 34 54 48 55
REMARK SMILES IDX 35 56 38 57 47 58 61 59 36 60 37 61 46 63 62 64 39 65 28 66
REMARK SMILES IDX 29 67 33 68 30 69 32 70 31 71 50 72 51 73 55 74 52 75 54 76
REMARK SMILES IDX 53 77 40 78 41 79 45 80 42 81 44 82 43 83
REMARK H PARENT 11 6 16 32 60 51 38 62
REMARK Flexibility Score: inf
ROOT
ATOM      1  C   UNL     1      -6.004   1.812  -0.688  1.00  0.00     0.023 C 
ENDROOT
BRANCH   1   2
ATOM      2  C   UNL     1      -6.434   0.500  -0.017  1.00  0.00     0.116 C 
BRANCH   2   3
ATOM      3  N   UNL     1      -6.737  -0.595  -0.919  1.00  0.00    -0.355 N 
ATOM      4  C   UNL     1      -5.999  -1.678  -1.296  1.00  0.00     0.239 C 
ATOM      5  O   UNL     1      -6.630  -2.645  -1.741  1.00  0.00    -0.273 OA
ATOM      6  H   UNL     1      -7.630  -0.548  -1.331  1.00  0.00     0.163 HD
BRANCH   4   7
ATOM      7  C   UNL     1      -4.475  -1.785  -1.103  1.00  0.00     0.220 C 
BRANCH   7   8
ATOM      8  N   UNL     1      -3.705  -0.558  -1.308  1.00  0.00    -0.324 N 
BRANCH   8   9
ATOM      9  C   UNL     1      -3.098   0.062  -0.132  1.00  0.00     0.156 C 
BRANCH   9  10
ATOM     10  C   UNL     1      -1.593  -0.018  -0.092  1.00  0.00    -0.029 A 
ATOM     11  C   UNL     1       2.716  -0.123   0.044  1.00  0.00     0.044 C 
ATOM     12  C   UNL     1       1.218  -0.082   0.013  1.00  0.00    -0.051 A 
ATOM     13  C   UNL     1       0.478  -1.272   0.005  1.00  0.00     0.004 A 
ATOM     14  C   UNL     1       0.544   1.140  -0.033  1.00  0.00     0.004 A 
ATOM     15  C   UNL     1      -0.918  -1.242  -0.044  1.00  0.00     0.006 A 
ATOM     16  C   UNL     1      -0.848   1.170  -0.084  1.00  0.00     0.006 A 
ENDBRANCH   9  10
ENDBRANCH   8   9
BRANCH   8  17
ATOM     17  C   UNL     1      -3.445   0.011  -2.570  1.00  0.00     0.264 C 
ATOM     18  O   UNL     1      -2.921   1.122  -2.658  1.00  0.00    -0.268 OA
BRANCH  17  19
ATOM     19  C   UNL     1      -3.784  -0.762  -3.757  1.00  0.00     0.093 A 
ATOM     20  C   UNL     1      -5.003  -1.224  -4.223  1.00  0.00     0.032 A 
ATOM     21  S   UNL     1      -2.511  -1.191  -4.832  1.00  0.00    -0.135 S 
ATOM     22  C   UNL     1      -4.854  -2.126  -5.318  1.00  0.00    -0.008 A 
ATOM     23  C   UNL     1      -3.551  -2.149  -5.762  1.00  0.00     0.013 A 
ATOM     24  C   UNL     1      -5.901  -3.006  -5.933  1.00  0.00     0.196 C 
ATOM     25  C   UNL     1      -3.121  -2.966  -6.935  1.00  0.00     0.075 C 
ATOM     26  O   UNL     1      -5.466  -3.629  -7.162  1.00  0.00    -0.376 OA
ATOM     27  C   UNL     1      -4.117  -4.127  -7.081  1.00  0.00     0.166 C 
ENDBRANCH  17  19
ENDBRANCH   8  17
ENDBRANCH   7   8
ENDBRANCH   4   7
ENDBRANCH   2   3
ENDBRANCH   1   2
BRANCH   1  28
ATOM     28  C   UNL     1      -6.956   2.413  -1.716  1.00  0.00     0.023 C 
BRANCH  28  29
ATOM     29  C   UNL     1      -8.277   2.894  -1.143  1.00  0.00     0.116 C 
BRANCH  29  30
ATOM     30  N   UNL     1      -8.243   4.207  -0.526  1.00  0.00    -0.352 N 
ATOM     31  C   UNL     1      -9.218   4.843   0.256  1.00  0.00     0.251 C 
ATOM     32  H   UNL     1      -7.419   4.724  -0.679  1.00  0.00     0.163 HD
ATOM     33  O   UNL     1      -9.055   5.967   0.646  1.00  0.00    -0.269 OA
BRANCH  31  34
ATOM     34  C   UNL     1     -10.387   4.042   0.715  1.00  0.00     0.039 A 
ATOM     35  C   UNL     1     -10.706   4.100   2.076  1.00  0.00     0.014 A 
ATOM     36  C   UNL     1     -10.973   3.080  -0.098  1.00  0.00     0.014 A 
ATOM     37  C   UNL     1     -11.366   3.024   2.664  1.00  0.00     0.010 A 
ATOM     38  C   UNL     1     -11.522   1.960   0.495  1.00  0.00     0.010 A 
ATOM     39  C   UNL     1     -11.637   1.900   1.885  1.00  0.00    -0.014 A 
BRANCH  39  40
ATOM     40  C   UNL     1     -11.915   0.589   2.458  1.00  0.00     0.031 A 
ATOM     41  C   UNL     1     -13.286   0.034   2.405  1.00  0.00     0.074 A 
ATOM     42  C   UNL     1     -10.914  -0.134   3.015  1.00  0.00     0.049 A 
ATOM     43  N   UNL     1     -13.744  -0.849   3.229  1.00  0.00    -0.248 NA
ATOM     44  C   UNL     1     -14.287   0.495   1.447  1.00  0.00     0.031 C 
ATOM     45  C   UNL     1     -10.970  -1.535   3.434  1.00  0.00     0.029 A 
ATOM     46  N   UNL     1      -9.655   0.256   3.459  1.00  0.00    -0.354 N 
ATOM     47  C   UNL     1     -14.947  -1.294   2.731  1.00  0.00     0.074 A 
ATOM     48  C   UNL     1     -15.298  -0.339   1.707  1.00  0.00     0.031 C 
ATOM     49  C   UNL     1      -9.994  -1.755   4.331  1.00  0.00     0.029 A 
ATOM     50  C   UNL     1      -9.394  -0.467   4.628  1.00  0.00     0.049 A 
ATOM     51  H   UNL     1      -9.060   0.914   3.033  1.00  0.00     0.167 HD
ATOM     52  C   UNL     1     -15.428  -2.504   3.135  1.00  0.00     0.031 A 
ATOM     53  C   UNL     1      -9.306   0.075   5.881  1.00  0.00     0.031 A 
ATOM     54  C   UNL     1     -14.638  -3.059   4.238  1.00  0.00     0.049 A 
ATOM     55  C   UNL     1     -10.305  -0.516   6.867  1.00  0.00     0.074 A 
ATOM     56  C   UNL     1     -13.685  -4.061   4.311  1.00  0.00     0.029 A 
ATOM     57  N   UNL     1     -14.577  -2.371   5.446  1.00  0.00    -0.354 N 
ATOM     58  N   UNL     1     -11.352  -1.210   6.512  1.00  0.00    -0.248 NA
ATOM     59  C   UNL     1     -10.242  -0.326   8.317  1.00  0.00     0.031 C 
ATOM     60  C   UNL     1     -12.985  -3.911   5.539  1.00  0.00     0.029 A 
ATOM     61  C   UNL     1     -13.539  -2.844   6.224  1.00  0.00     0.049 A 
ATOM     62  H   UNL     1     -15.190  -1.647   5.709  1.00  0.00     0.167 HD
ATOM     63  C   UNL     1     -12.088  -1.545   7.617  1.00  0.00     0.074 A 
ATOM     64  C   UNL     1     -11.343  -0.981   8.728  1.00  0.00     0.031 C 
ATOM     65  C   UNL     1     -13.259  -2.241   7.522  1.00  0.00     0.031 A 
BRANCH  52  66
ATOM     66  C   UNL     1     -16.438  -3.319   2.348  1.00  0.00    -0.014 A 
ATOM     67  C   UNL     1     -16.561  -4.700   2.599  1.00  0.00     0.009 A 
ATOM     68  C   UNL     1     -17.227  -2.829   1.293  1.00  0.00     0.009 A 
ATOM     69  C   UNL     1     -17.355  -5.539   1.801  1.00  0.00     0.001 A 
ATOM     70  C   UNL     1     -18.012  -3.660   0.481  1.00  0.00     0.001 A 
ATOM     71  C   UNL     1     -18.066  -5.021   0.727  1.00  0.00     0.000 A 
ENDBRANCH  52  66
BRANCH  53  72
ATOM     72  C   UNL     1      -8.835   1.484   5.920  1.00  0.00    -0.014 A 
ATOM     73  C   UNL     1      -7.506   1.755   5.541  1.00  0.00     0.009 A 
ATOM     74  C   UNL     1      -9.745   2.548   5.978  1.00  0.00     0.009 A 
ATOM     75  C   UNL     1      -7.132   3.029   5.106  1.00  0.00     0.001 A 
ATOM     76  C   UNL     1      -9.362   3.827   5.553  1.00  0.00     0.001 A 
ATOM     77  C   UNL     1      -8.070   4.057   5.081  1.00  0.00     0.000 A 
ENDBRANCH  53  72
BRANCH  65  78
ATOM     78  C   UNL     1     -14.237  -2.479   8.646  1.00  0.00    -0.014 A 
ATOM     79  C   UNL     1     -14.371  -1.646   9.764  1.00  0.00     0.009 A 
ATOM     80  C   UNL     1     -15.179  -3.525   8.517  1.00  0.00     0.009 A 
ATOM     81  C   UNL     1     -15.364  -1.875  10.728  1.00  0.00     0.001 A 
ATOM     82  C   UNL     1     -16.197  -3.730   9.452  1.00  0.00     0.001 A 
ATOM     83  C   UNL     1     -16.282  -2.909  10.567  1.00  0.00     0.000 A 
ENDBRANCH  65  78
ENDBRANCH  39  40
ENDBRANCH  31  34
ENDBRANCH  29  30
ENDBRANCH  28  29
ENDBRANCH   1  28
TORSDOF 16
