REMARK SMILES O=C(CCc1cn(-c2ccc(Br)cc2)nc1-c1ccccc1)NCCCCNC(=O)c1ccc(-c2c3nc(c(-c4ccccc4)c4ccc([nH]4)c(-c4ccccc4)c4nc(c(-c5ccccc5)c5ccc2[nH]5)C=C4)C=C3)cc1
REMARK SMILES IDX 25 1 24 2 23 3 1 4 2 5 3 7 4 8 5 9 6 10 16 11 7 12 15 13
REMARK SMILES IDX 17 14 18 15 22 16 19 17 21 18 20 19 8 20 9 21 14 22 10 23
REMARK SMILES IDX 13 24 11 25 12 26 26 27 27 28 28 29 29 30 30 32 31 33 32 34
REMARK SMILES IDX 78 35 33 36 77 37 34 38 35 39 36 40 71 41 37 42 76 43 70 44
REMARK SMILES IDX 72 45 38 46 75 47 69 48 68 49 39 51 61 52 46 53 60 54 47 55
REMARK SMILES IDX 50 56 59 57 73 58 48 59 49 60 58 62 74 63 51 64 40 65 41 66
REMARK SMILES IDX 45 67 42 68 44 69 43 70 62 71 63 72 67 73 64 74 66 75 65 76
REMARK SMILES IDX 52 77 53 78 57 79 54 80 56 81 55 82
REMARK H PARENT 23 6 28 31 72 50 50 61
REMARK Flexibility Score: inf
ROOT
ATOM      1  C   UNL     1       1.824  -3.051   2.350  1.00  0.00     0.023 C 
ENDROOT
BRANCH   1   2
ATOM      2  C   UNL     1       1.801  -1.530   2.595  1.00  0.00     0.116 C 
BRANCH   2   3
ATOM      3  N   UNL     1       2.264  -0.708   1.488  1.00  0.00    -0.356 N 
ATOM      4  O   UNL     1       0.207  -0.422   0.551  1.00  0.00    -0.275 OA
ATOM      5  C   UNL     1       1.418  -0.197   0.527  1.00  0.00     0.220 C 
ATOM      6  H   UNL     1       3.225  -0.506   1.422  1.00  0.00     0.163 HD
BRANCH   5   7
ATOM      7  C   UNL     1       2.014   0.567  -0.658  1.00  0.00     0.105 C 
BRANCH   7   8
ATOM      8  C   UNL     1       3.210   1.484  -0.467  1.00  0.00     0.049 C 
BRANCH   8   9
ATOM      9  C   UNL     1       4.473   0.871   0.032  1.00  0.00    -0.001 A 
ATOM     10  C   UNL     1       5.199   1.362   1.088  1.00  0.00     0.119 A 
ATOM     11  C   UNL     1       5.187  -0.297  -0.373  1.00  0.00     0.096 A 
ATOM     12  N   UNL     1       6.296   0.558   1.252  1.00  0.00    -0.240 N 
ATOM     13  N   UNL     1       6.280  -0.486   0.387  1.00  0.00    -0.168 NA
BRANCH  11  14
ATOM     14  C   UNL     1       4.715  -1.292  -1.331  1.00  0.00     0.002 A 
ATOM     15  C   UNL     1       3.851  -2.280  -0.854  1.00  0.00     0.010 A 
ATOM     16  C   UNL     1       4.924  -1.197  -2.702  1.00  0.00     0.010 A 
ATOM     17  C   UNL     1       3.155  -3.135  -1.701  1.00  0.00     0.001 A 
ATOM     18  C   UNL     1       4.240  -2.066  -3.567  1.00  0.00     0.001 A 
ATOM     19  C   UNL     1       3.347  -3.021  -3.069  1.00  0.00     0.000 A 
ENDBRANCH  11  14
BRANCH  12  20
ATOM     20  C   UNL     1       7.391   0.864   2.101  1.00  0.00     0.065 A 
ATOM     21  C   UNL     1       7.238   1.857   3.082  1.00  0.00     0.029 A 
ATOM     22  C   UNL     1       8.658   0.349   1.813  1.00  0.00     0.029 A 
ATOM     23  C   UNL     1       8.357   2.489   3.603  1.00  0.00     0.018 A 
ATOM     24  C   UNL     1       9.781   0.997   2.335  1.00  0.00     0.018 A 
ATOM     25  C   UNL     1       9.617   2.109   3.164  1.00  0.00     0.018 A 
ATOM     26  Br  UNL     1      11.072   3.223   3.591  1.00  0.00    -0.051 Br
ENDBRANCH  12  20
ENDBRANCH   8   9
ENDBRANCH   7   8
ENDBRANCH   5   7
ENDBRANCH   2   3
ENDBRANCH   1   2
BRANCH   1  27
ATOM     27  C   UNL     1       3.151  -3.839   2.384  1.00  0.00     0.023 C 
BRANCH  27  28
ATOM     28  C   UNL     1       4.122  -3.543   3.515  1.00  0.00     0.116 C 
BRANCH  28  29
ATOM     29  N   UNL     1       3.730  -4.191   4.761  1.00  0.00    -0.352 N 
ATOM     30  C   UNL     1       4.345  -4.103   5.987  1.00  0.00     0.251 C 
ATOM     31  H   UNL     1       2.928  -4.760   4.720  1.00  0.00     0.163 HD
ATOM     32  O   UNL     1       4.206  -5.009   6.819  1.00  0.00    -0.269 OA
BRANCH  30  33
ATOM     33  C   UNL     1       5.179  -2.934   6.313  1.00  0.00     0.039 A 
ATOM     34  C   UNL     1       6.339  -3.065   7.083  1.00  0.00     0.014 A 
ATOM     35  C   UNL     1       4.790  -1.681   5.854  1.00  0.00     0.014 A 
ATOM     36  C   UNL     1       7.131  -1.942   7.334  1.00  0.00     0.010 A 
ATOM     37  C   UNL     1       5.645  -0.606   5.981  1.00  0.00     0.010 A 
ATOM     38  C   UNL     1       6.797  -0.703   6.767  1.00  0.00    -0.014 A 
BRANCH  38  39
ATOM     39  C   UNL     1       7.680   0.469   6.929  1.00  0.00     0.031 A 
ATOM     40  C   UNL     1       9.142   0.286   6.621  1.00  0.00     0.074 A 
ATOM     41  C   UNL     1       7.191   1.719   7.122  1.00  0.00     0.049 A 
ATOM     42  N   UNL     1      10.163   0.771   7.256  1.00  0.00    -0.248 NA
ATOM     43  C   UNL     1       9.520  -0.550   5.470  1.00  0.00     0.031 C 
ATOM     44  C   UNL     1       5.783   2.139   7.181  1.00  0.00     0.029 A 
ATOM     45  N   UNL     1       7.855   2.914   7.146  1.00  0.00    -0.354 N 
ATOM     46  C   UNL     1      11.307   0.406   6.535  1.00  0.00     0.074 A 
ATOM     47  C   UNL     1      10.849  -0.436   5.462  1.00  0.00     0.031 C 
ATOM     48  C   UNL     1       5.695   3.462   6.937  1.00  0.00     0.029 A 
ATOM     49  C   UNL     1       7.036   4.012   6.902  1.00  0.00     0.049 A 
ATOM     50  H   UNL     1       8.821   2.991   7.319  1.00  0.00     0.167 HD
ATOM     51  C   UNL     1      12.545   0.907   6.822  1.00  0.00     0.031 A 
ATOM     52  C   UNL     1       7.414   5.287   6.650  1.00  0.00     0.031 A 
ATOM     53  C   UNL     1      12.597   1.407   8.170  1.00  0.00     0.049 A 
ATOM     54  C   UNL     1       8.777   5.465   7.189  1.00  0.00     0.074 A 
ATOM     55  C   UNL     1      12.472   0.822   9.413  1.00  0.00     0.029 A 
ATOM     56  N   UNL     1      12.472   2.759   8.367  1.00  0.00    -0.354 N 
ATOM     57  N   UNL     1       9.067   5.410   8.455  1.00  0.00    -0.248 NA
ATOM     58  C   UNL     1       9.912   5.384   6.290  1.00  0.00     0.031 C 
ATOM     59  C   UNL     1      11.831   1.802  10.222  1.00  0.00     0.029 A 
ATOM     60  C   UNL     1      11.647   2.948   9.445  1.00  0.00     0.049 A 
ATOM     61  H   UNL     1      12.898   3.466   7.831  1.00  0.00     0.167 HD
ATOM     62  C   UNL     1      10.322   4.825   8.500  1.00  0.00     0.074 A 
ATOM     63  C   UNL     1      10.850   4.977   7.149  1.00  0.00     0.031 C 
ATOM     64  C   UNL     1      10.685   4.026   9.547  1.00  0.00     0.031 A 
BRANCH  51  65
ATOM     65  C   UNL     1      13.633   1.219   5.810  1.00  0.00    -0.014 A 
ATOM     66  C   UNL     1      14.751   1.972   6.232  1.00  0.00     0.009 A 
ATOM     67  C   UNL     1      13.495   1.055   4.423  1.00  0.00     0.009 A 
ATOM     68  C   UNL     1      15.575   2.651   5.324  1.00  0.00     0.001 A 
ATOM     69  C   UNL     1      14.328   1.719   3.509  1.00  0.00     0.001 A 
ATOM     70  C   UNL     1      15.341   2.552   3.960  1.00  0.00     0.000 A 
ENDBRANCH  51  65
BRANCH  52  71
ATOM     71  C   UNL     1       6.745   6.307   5.814  1.00  0.00    -0.014 A 
ATOM     72  C   UNL     1       7.142   7.652   5.880  1.00  0.00     0.009 A 
ATOM     73  C   UNL     1       5.881   5.934   4.767  1.00  0.00     0.009 A 
ATOM     74  C   UNL     1       6.724   8.577   4.915  1.00  0.00     0.001 A 
ATOM     75  C   UNL     1       5.452   6.860   3.810  1.00  0.00     0.001 A 
ATOM     76  C   UNL     1       5.888   8.179   3.875  1.00  0.00     0.000 A 
ENDBRANCH  52  71
BRANCH  64  77
ATOM     77  C   UNL     1       9.830   4.053  10.795  1.00  0.00    -0.014 A 
ATOM     78  C   UNL     1       8.451   3.780  10.788  1.00  0.00     0.009 A 
ATOM     79  C   UNL     1      10.461   4.218  12.038  1.00  0.00     0.009 A 
ATOM     80  C   UNL     1       7.720   3.717  11.978  1.00  0.00     0.001 A 
ATOM     81  C   UNL     1       9.738   4.122  13.230  1.00  0.00     0.001 A 
ATOM     82  C   UNL     1       8.366   3.882  13.200  1.00  0.00     0.000 A 
ENDBRANCH  64  77
ENDBRANCH  38  39
ENDBRANCH  30  33
ENDBRANCH  28  29
ENDBRANCH  27  28
ENDBRANCH   1  27
TORSDOF 15
