REMARK SMILES CC[C@](C)([NH3+])C(=O)Nc1ccc(C(F)(F)F)cc1C(=O)NCCCCNC(=O)c1ccc(-c2c3nc(c(-c4ccccc4)c4ccc([nH]4)c(-c4ccccc4)c4nc(c(-c5ccccc5)c5ccc2[nH]5)C=C4)C=C3)cc1
REMARK SMILES IDX 23 1 22 2 21 3 19 4 20 5 18 7 9 8 10 9 11 10 17 11 12 12
REMARK SMILES IDX 8 13 6 14 7 15 3 17 4 18 2 19 1 20 5 21 13 25 14 26 15 27
REMARK SMILES IDX 16 28 24 29 25 30 26 31 27 32 28 34 29 35 30 36 76 37 31 38
REMARK SMILES IDX 75 39 32 40 33 41 34 42 69 43 35 44 74 45 68 46 70 47 36 48
REMARK SMILES IDX 73 49 67 50 66 51 37 53 59 54 44 55 58 56 45 57 48 58 57 59
REMARK SMILES IDX 71 60 46 61 47 62 56 64 72 65 49 66 38 67 39 68 43 69 40 70
REMARK SMILES IDX 42 71 41 72 60 73 61 74 65 75 62 76 64 77 63 78 50 79 51 80
REMARK SMILES IDX 55 81 52 82 54 83 53 84
REMARK H PARENT 21 6 8 16 5 22 5 23 5 24 26 33 70 52 48 63
REMARK Flexibility Score: inf
ROOT
ATOM      1  C   UNL     1       4.563   4.407   0.672  1.00  0.00     0.023 C 
ENDROOT
BRANCH   1   2
ATOM      2  C   UNL     1       3.618   4.098  -0.484  1.00  0.00     0.116 C 
BRANCH   2   3
ATOM      3  N   UNL     1       2.438   4.928  -0.546  1.00  0.00    -0.352 N 
ATOM      4  C   UNL     1       1.531   5.131  -1.563  1.00  0.00     0.253 C 
ATOM      5  O   UNL     1       0.610   5.922  -1.333  1.00  0.00    -0.269 OA
ATOM      6  H   UNL     1       2.249   5.434   0.277  1.00  0.00     0.163 HD
BRANCH   4   7
ATOM      7  C   UNL     1       1.636   4.549  -2.949  1.00  0.00     0.063 A 
ATOM      8  C   UNL     1       2.232   3.344  -3.358  1.00  0.00     0.054 A 
ATOM      9  C   UNL     1       2.511   3.150  -4.725  1.00  0.00     0.027 A 
ATOM     10  C   UNL     1       1.987   3.996  -5.700  1.00  0.00     0.015 A 
ATOM     11  C   UNL     1       1.067   5.369  -3.959  1.00  0.00     0.029 A 
ATOM     12  C   UNL     1       1.183   5.070  -5.327  1.00  0.00     0.056 A 
BRANCH   8  13
ATOM     13  N   UNL     1       2.605   2.249  -2.568  1.00  0.00    -0.320 N 
ATOM     14  C   UNL     1       1.956   1.500  -1.626  1.00  0.00     0.285 C 
ATOM     15  O   UNL     1       2.681   0.677  -1.042  1.00  0.00    -0.267 OA
ATOM     16  H   UNL     1       3.531   1.957  -2.725  1.00  0.00     0.170 HD
BRANCH  14  17
ATOM     17  C   UNL     1       0.410   1.483  -1.401  1.00  0.00     0.171 C 
ATOM     18  C   UNL     1       0.128   0.790  -0.054  1.00  0.00     0.090 C 
BRANCH  17  19
ATOM     19  C   UNL     1      -0.280   0.781  -2.592  1.00  0.00     0.075 C 
ATOM     20  C   UNL     1      -0.049  -0.724  -2.672  1.00  0.00     0.011 C 
ENDBRANCH  17  19
BRANCH  17  21
ATOM     21  N   UNL     1      -0.149   2.836  -1.279  1.00  0.00    -0.345 N 
ATOM     22  H   UNL     1       0.293   3.318  -0.497  1.00  0.00     0.345 HD
ATOM     23  H   UNL     1      -1.155   2.775  -1.116  1.00  0.00     0.345 HD
ATOM     24  H   UNL     1       0.024   3.354  -2.140  1.00  0.00     0.345 HD
ENDBRANCH  17  21
ENDBRANCH  14  17
ENDBRANCH   8  13
BRANCH  12  25
ATOM     25  C   UNL     1       0.467   5.878  -6.383  1.00  0.00     0.416 C 
ATOM     26  F   UNL     1       1.295   6.728  -7.046  1.00  0.00    -0.166 F 
ATOM     27  F   UNL     1      -0.097   5.085  -7.339  1.00  0.00    -0.166 F 
ATOM     28  F   UNL     1      -0.549   6.638  -5.891  1.00  0.00    -0.166 F 
ENDBRANCH  12  25
ENDBRANCH   4   7
ENDBRANCH   2   3
ENDBRANCH   1   2
BRANCH   1  29
ATOM     29  C   UNL     1       4.052   4.032   2.068  1.00  0.00     0.023 C 
BRANCH  29  30
ATOM     30  C   UNL     1       3.542   2.601   2.264  1.00  0.00     0.116 C 
BRANCH  30  31
ATOM     31  N   UNL     1       4.528   1.571   1.972  1.00  0.00    -0.352 N 
ATOM     32  C   UNL     1       5.098   0.619   2.791  1.00  0.00     0.251 C 
ATOM     33  H   UNL     1       4.838   1.550   1.037  1.00  0.00     0.163 HD
ATOM     34  O   UNL     1       5.994  -0.101   2.378  1.00  0.00    -0.269 OA
BRANCH  32  35
ATOM     35  C   UNL     1       4.649   0.490   4.196  1.00  0.00     0.039 A 
ATOM     36  C   UNL     1       5.609   0.449   5.211  1.00  0.00     0.014 A 
ATOM     37  C   UNL     1       3.291   0.419   4.515  1.00  0.00     0.014 A 
ATOM     38  C   UNL     1       5.204   0.448   6.549  1.00  0.00     0.010 A 
ATOM     39  C   UNL     1       2.889   0.494   5.847  1.00  0.00     0.010 A 
ATOM     40  C   UNL     1       3.841   0.528   6.878  1.00  0.00    -0.014 A 
BRANCH  40  41
ATOM     41  C   UNL     1       3.397   0.691   8.288  1.00  0.00     0.031 A 
ATOM     42  C   UNL     1       2.550  -0.359   8.953  1.00  0.00     0.074 A 
ATOM     43  C   UNL     1       3.695   1.826   8.952  1.00  0.00     0.049 A 
ATOM     44  N   UNL     1       2.026  -0.358  10.153  1.00  0.00    -0.248 NA
ATOM     45  C   UNL     1       2.230  -1.555   8.158  1.00  0.00     0.031 C 
ATOM     46  C   UNL     1       4.468   2.948   8.412  1.00  0.00     0.029 A 
ATOM     47  N   UNL     1       3.377   2.228  10.226  1.00  0.00    -0.354 N 
ATOM     48  C   UNL     1       1.303  -1.540  10.250  1.00  0.00     0.074 A 
ATOM     49  C   UNL     1       1.415  -2.210   8.972  1.00  0.00     0.031 C 
ATOM     50  C   UNL     1       4.589   3.894   9.357  1.00  0.00     0.029 A 
ATOM     51  C   UNL     1       3.871   3.468  10.553  1.00  0.00     0.049 A 
ATOM     52  H   UNL     1       2.844   1.680  10.847  1.00  0.00     0.167 HD
ATOM     53  C   UNL     1       0.622  -2.036  11.312  1.00  0.00     0.031 A 
ATOM     54  C   UNL     1       3.759   4.185  11.688  1.00  0.00     0.031 A 
ATOM     55  C   UNL     1       0.513  -1.380  12.587  1.00  0.00     0.049 A 
ATOM     56  C   UNL     1       2.990   3.617  12.848  1.00  0.00     0.074 A 
ATOM     57  C   UNL     1      -0.108  -1.831  13.739  1.00  0.00     0.029 A 
ATOM     58  N   UNL     1       1.037  -0.131  12.880  1.00  0.00    -0.354 N 
ATOM     59  N   UNL     1       2.372   2.466  12.945  1.00  0.00    -0.248 NA
ATOM     60  C   UNL     1       2.915   4.447  14.059  1.00  0.00     0.031 C 
ATOM     61  C   UNL     1       0.000  -0.835  14.715  1.00  0.00     0.029 A 
ATOM     62  C   UNL     1       0.735   0.214  14.187  1.00  0.00     0.049 A 
ATOM     63  H   UNL     1       1.548   0.429  12.251  1.00  0.00     0.167 HD
ATOM     64  C   UNL     1       1.859   2.420  14.235  1.00  0.00     0.074 A 
ATOM     65  C   UNL     1       2.251   3.652  14.887  1.00  0.00     0.031 C 
ATOM     66  C   UNL     1       1.130   1.442  14.825  1.00  0.00     0.031 A 
BRANCH  53  67
ATOM     67  C   UNL     1      -0.066  -3.361  11.131  1.00  0.00    -0.014 A 
ATOM     68  C   UNL     1       0.671  -4.551  11.018  1.00  0.00     0.009 A 
ATOM     69  C   UNL     1      -1.468  -3.426  11.107  1.00  0.00     0.009 A 
ATOM     70  C   UNL     1       0.019  -5.773  10.844  1.00  0.00     0.001 A 
ATOM     71  C   UNL     1      -2.118  -4.653  10.963  1.00  0.00     0.001 A 
ATOM     72  C   UNL     1      -1.374  -5.824  10.821  1.00  0.00     0.000 A 
ENDBRANCH  53  67
BRANCH  54  73
ATOM     73  C   UNL     1       4.411   5.516  11.795  1.00  0.00    -0.014 A 
ATOM     74  C   UNL     1       5.535   5.691  12.617  1.00  0.00     0.009 A 
ATOM     75  C   UNL     1       3.909   6.620  11.088  1.00  0.00     0.009 A 
ATOM     76  C   UNL     1       6.126   6.950  12.751  1.00  0.00     0.001 A 
ATOM     77  C   UNL     1       4.519   7.871  11.202  1.00  0.00     0.001 A 
ATOM     78  C   UNL     1       5.620   8.037  12.040  1.00  0.00     0.000 A 
ENDBRANCH  54  73
BRANCH  66  79
ATOM     79  C   UNL     1       0.739   1.649  16.261  1.00  0.00    -0.014 A 
ATOM     80  C   UNL     1      -0.251   2.575  16.622  1.00  0.00     0.009 A 
ATOM     81  C   UNL     1       1.347   0.877  17.264  1.00  0.00     0.009 A 
ATOM     82  C   UNL     1      -0.601   2.747  17.963  1.00  0.00     0.001 A 
ATOM     83  C   UNL     1       0.976   1.031  18.600  1.00  0.00     0.001 A 
ATOM     84  C   UNL     1       0.009   1.972  18.949  1.00  0.00     0.000 A 
ENDBRANCH  66  79
ENDBRANCH  40  41
ENDBRANCH  32  35
ENDBRANCH  30  31
ENDBRANCH  29  30
ENDBRANCH   1  29
TORSDOF 16
