REMARK SMILES O=C(NCCCCNC(=O)[C@H]1CCCN(C(=O)c2ccc(NC(=O)c3ccccc3)cc2)C1)c1ccc(-c2c3nc(c(-c4ccccc4)c4ccc([nH]4)c(-c4ccccc4)c4nc(c(-c5ccccc5)c5ccc2[nH]5)C=C4)C=C3)cc1
REMARK SMILES IDX 6 1 5 2 4 3 3 4 1 5 2 6 34 8 35 9 81 10 36 11 80 12 37 13
REMARK SMILES IDX 38 14 39 15 74 16 40 17 79 18 73 19 75 20 41 21 78 22 72 23
REMARK SMILES IDX 71 24 42 26 64 27 49 28 63 29 50 30 53 31 62 32 76 33 51 34
REMARK SMILES IDX 52 35 61 37 77 38 54 39 43 40 44 41 48 42 45 43 47 44 46 45
REMARK SMILES IDX 65 46 66 47 70 48 67 49 69 50 68 51 55 52 56 53 60 54 57 55
REMARK SMILES IDX 59 56 58 57 7 58 8 59 9 60 10 62 11 63 12 64 33 65 13 66
REMARK SMILES IDX 15 67 14 68 16 69 17 70 18 71 19 72 32 73 20 74 31 75 21 76
REMARK SMILES IDX 22 77 23 78 24 80 25 81 26 82 30 83 27 84 29 85 28 86
REMARK H PARENT 3 7 75 25 53 36 8 61 22 79
REMARK Flexibility Score: inf
ROOT
ATOM      1  C   UNL     1       3.006   7.754   3.663  1.00  0.00     0.023 C 
ENDROOT
BRANCH   1   2
ATOM      2  C   UNL     1       1.541   7.358   3.826  1.00  0.00     0.023 C 
BRANCH   2   3
ATOM      3  C   UNL     1       0.948   7.679   5.190  1.00  0.00     0.116 C 
BRANCH   3   4
ATOM      4  N   UNL     1       1.016   9.094   5.519  1.00  0.00    -0.352 N 
ATOM      5  O   UNL     1       0.196  11.067   6.264  1.00  0.00    -0.269 OA
ATOM      6  C   UNL     1       0.068   9.852   6.160  1.00  0.00     0.251 C 
ATOM      7  H   UNL     1       1.837   9.564   5.248  1.00  0.00     0.163 HD
BRANCH   6   8
ATOM      8  C   UNL     1      -1.124   9.175   6.703  1.00  0.00     0.039 A 
ATOM      9  C   UNL     1      -0.975   8.047   7.515  1.00  0.00     0.014 A 
ATOM     10  C   UNL     1      -2.392   9.655   6.370  1.00  0.00     0.014 A 
ATOM     11  C   UNL     1      -2.099   7.337   7.913  1.00  0.00     0.010 A 
ATOM     12  C   UNL     1      -3.523   8.981   6.832  1.00  0.00     0.010 A 
ATOM     13  C   UNL     1      -3.382   7.813   7.598  1.00  0.00    -0.014 A 
BRANCH  13  14
ATOM     14  C   UNL     1      -4.561   7.144   8.192  1.00  0.00     0.031 A 
ATOM     15  C   UNL     1      -5.551   6.399   7.348  1.00  0.00     0.074 A 
ATOM     16  C   UNL     1      -4.718   7.224   9.527  1.00  0.00     0.049 A 
ATOM     17  N   UNL     1      -6.633   5.767   7.725  1.00  0.00    -0.248 NA
ATOM     18  C   UNL     1      -5.306   6.360   5.897  1.00  0.00     0.031 C 
ATOM     19  C   UNL     1      -3.818   7.938  10.440  1.00  0.00     0.029 A 
ATOM     20  N   UNL     1      -5.676   6.697  10.351  1.00  0.00    -0.354 N 
ATOM     21  C   UNL     1      -7.210   5.273   6.563  1.00  0.00     0.074 A 
ATOM     22  C   UNL     1      -6.364   5.685   5.463  1.00  0.00     0.031 C 
ATOM     23  C   UNL     1      -4.247   7.773  11.699  1.00  0.00     0.029 A 
ATOM     24  C   UNL     1      -5.481   6.999  11.676  1.00  0.00     0.049 A 
ATOM     25  H   UNL     1      -6.429   6.154  10.025  1.00  0.00     0.167 HD
ATOM     26  C   UNL     1      -8.343   4.544   6.433  1.00  0.00     0.031 A 
ATOM     27  C   UNL     1      -6.229   6.711  12.756  1.00  0.00     0.031 A 
ATOM     28  C   UNL     1      -9.173   4.132   7.536  1.00  0.00     0.049 A 
ATOM     29  C   UNL     1      -7.492   5.927  12.571  1.00  0.00     0.074 A 
ATOM     30  C   UNL     1     -10.309   3.341   7.510  1.00  0.00     0.029 A 
ATOM     31  N   UNL     1      -8.963   4.487   8.859  1.00  0.00    -0.354 N 
ATOM     32  N   UNL     1      -7.993   5.422  11.471  1.00  0.00    -0.248 NA
ATOM     33  C   UNL     1      -8.296   5.682  13.775  1.00  0.00     0.031 C 
ATOM     34  C   UNL     1     -10.815   3.260   8.811  1.00  0.00     0.029 A 
ATOM     35  C   UNL     1      -9.969   3.963   9.653  1.00  0.00     0.049 A 
ATOM     36  H   UNL     1      -8.210   5.030   9.186  1.00  0.00     0.167 HD
ATOM     37  C   UNL     1      -9.171   4.796  11.848  1.00  0.00     0.074 A 
ATOM     38  C   UNL     1      -9.293   4.960  13.283  1.00  0.00     0.031 C 
ATOM     39  C   UNL     1     -10.078   4.152  11.075  1.00  0.00     0.031 A 
BRANCH  26  40
ATOM     40  C   UNL     1      -8.780   4.158   5.049  1.00  0.00    -0.014 A 
ATOM     41  C   UNL     1      -8.148   3.121   4.347  1.00  0.00     0.009 A 
ATOM     42  C   UNL     1      -9.901   4.783   4.478  1.00  0.00     0.009 A 
ATOM     43  C   UNL     1      -8.624   2.726   3.094  1.00  0.00     0.001 A 
ATOM     44  C   UNL     1     -10.384   4.373   3.234  1.00  0.00     0.001 A 
ATOM     45  C   UNL     1      -9.744   3.347   2.542  1.00  0.00     0.000 A 
ENDBRANCH  26  40
BRANCH  27  46
ATOM     46  C   UNL     1      -5.819   7.207  14.093  1.00  0.00    -0.014 A 
ATOM     47  C   UNL     1      -5.366   6.320  15.079  1.00  0.00     0.009 A 
ATOM     48  C   UNL     1      -5.872   8.580  14.383  1.00  0.00     0.009 A 
ATOM     49  C   UNL     1      -4.996   6.797  16.339  1.00  0.00     0.001 A 
ATOM     50  C   UNL     1      -5.473   9.057  15.632  1.00  0.00     0.001 A 
ATOM     51  C   UNL     1      -5.045   8.164  16.612  1.00  0.00     0.000 A 
ENDBRANCH  27  46
BRANCH  39  52
ATOM     52  C   UNL     1     -11.274   3.582  11.777  1.00  0.00    -0.014 A 
ATOM     53  C   UNL     1     -12.306   4.417  12.232  1.00  0.00     0.009 A 
ATOM     54  C   UNL     1     -11.378   2.196  11.970  1.00  0.00     0.009 A 
ATOM     55  C   UNL     1     -13.406   3.876  12.898  1.00  0.00     0.001 A 
ATOM     56  C   UNL     1     -12.491   1.657  12.615  1.00  0.00     0.001 A 
ATOM     57  C   UNL     1     -13.499   2.497  13.086  1.00  0.00     0.000 A 
ENDBRANCH  39  52
ENDBRANCH  13  14
ENDBRANCH   6   8
ENDBRANCH   3   4
ENDBRANCH   2   3
ENDBRANCH   1   2
BRANCH   1  58
ATOM     58  C   UNL     1       3.940   7.139   4.701  1.00  0.00     0.116 C 
BRANCH  58  59
ATOM     59  N   UNL     1       4.075   5.706   4.509  1.00  0.00    -0.356 N 
ATOM     60  C   UNL     1       5.136   4.960   4.089  1.00  0.00     0.224 C 
ATOM     61  H   UNL     1       3.266   5.186   4.717  1.00  0.00     0.163 HD
ATOM     62  O   UNL     1       4.960   3.750   3.936  1.00  0.00    -0.275 OA
BRANCH  60  63
ATOM     63  C   UNL     1       6.497   5.588   3.835  1.00  0.00     0.098 C 
ATOM     64  C   UNL     1       6.477   6.575   2.661  1.00  0.00     0.017 C 
ATOM     65  C   UNL     1       7.069   6.119   5.154  1.00  0.00     0.133 C 
ATOM     66  C   UNL     1       7.737   7.426   2.598  1.00  0.00     0.022 C 
ATOM     67  N   UNL     1       8.207   7.016   4.979  1.00  0.00    -0.338 N 
ATOM     68  C   UNL     1       8.060   8.044   3.949  1.00  0.00     0.120 C 
BRANCH  67  69
ATOM     69  C   UNL     1       9.279   6.873   5.861  1.00  0.00     0.253 C 
ATOM     70  O   UNL     1       9.322   6.015   6.741  1.00  0.00    -0.269 OA
BRANCH  69  71
ATOM     71  C   UNL     1      10.469   7.731   5.712  1.00  0.00     0.040 A 
ATOM     72  C   UNL     1      11.693   7.098   5.505  1.00  0.00     0.016 A 
ATOM     73  C   UNL     1      10.410   9.121   5.812  1.00  0.00     0.016 A 
ATOM     74  C   UNL     1      12.842   7.859   5.296  1.00  0.00     0.027 A 
ATOM     75  C   UNL     1      11.560   9.878   5.561  1.00  0.00     0.027 A 
ATOM     76  C   UNL     1      12.773   9.252   5.241  1.00  0.00     0.041 A 
BRANCH  76  77
ATOM     77  N   UNL     1      13.852  10.087   4.895  1.00  0.00    -0.322 N 
ATOM     78  C   UNL     1      15.070   9.833   4.303  1.00  0.00     0.255 C 
ATOM     79  H   UNL     1      13.708  11.035   5.118  1.00  0.00     0.170 HD
ATOM     80  O   UNL     1      15.923  10.719   4.254  1.00  0.00    -0.269 OA
BRANCH  78  81
ATOM     81  C   UNL     1      15.373   8.533   3.677  1.00  0.00     0.040 A 
ATOM     82  C   UNL     1      16.489   7.821   4.129  1.00  0.00     0.014 A 
ATOM     83  C   UNL     1      14.557   8.008   2.667  1.00  0.00     0.014 A 
ATOM     84  C   UNL     1      16.746   6.548   3.620  1.00  0.00     0.001 A 
ATOM     85  C   UNL     1      14.816   6.730   2.168  1.00  0.00     0.001 A 
ATOM     86  C   UNL     1      15.902   5.998   2.653  1.00  0.00     0.000 A 
ENDBRANCH  78  81
ENDBRANCH  76  77
ENDBRANCH  69  71
ENDBRANCH  67  69
ENDBRANCH  60  63
ENDBRANCH  58  59
ENDBRANCH   1  58
TORSDOF 15
