REMARK SMILES Cc1c(Cl)ccc2c(OCC(=O)NCCCCNC(=O)c3ccc(-c4c5nc(c(-c6ccccc6)c6ccc([nH]6)c(-c6ccccc6)c6nc(c(-c7ccccc7)c7ccc4[nH]7)C=C6)C=C5)cc3)ccnc12
REMARK SMILES IDX 15 1 14 2 13 3 11 4 12 5 10 7 9 8 8 9 1 10 2 11 3 12 72 13
REMARK SMILES IDX 4 14 5 15 7 16 71 17 6 18 70 19 69 20 16 21 17 22 18 23
REMARK SMILES IDX 19 24 20 26 21 27 22 28 68 29 23 30 67 31 24 32 25 33 26 34
REMARK SMILES IDX 61 35 27 36 66 37 60 38 62 39 28 40 65 41 59 42 58 43 29 45
REMARK SMILES IDX 51 46 36 47 50 48 37 49 40 50 49 51 63 52 38 53 39 54 48 56
REMARK SMILES IDX 64 57 41 58 30 59 31 60 35 61 32 62 34 63 33 64 52 65 53 66
REMARK SMILES IDX 57 67 54 68 56 69 55 70 42 71 43 72 47 73 44 74 46 75 45 76
REMARK H PARENT 13 6 18 25 62 44 40 55
REMARK Flexibility Score: inf
ROOT
ATOM      1  C   UNL     1       0.522  -5.138   4.568  1.00  0.00     0.023 C 
ENDROOT
BRANCH   1   2
ATOM      2  C   UNL     1      -0.795  -5.847   4.881  1.00  0.00     0.116 C 
BRANCH   2   3
ATOM      3  N   UNL     1      -1.750  -4.976   5.539  1.00  0.00    -0.353 N 
ATOM      4  C   UNL     1      -2.891  -4.425   5.035  1.00  0.00     0.257 C 
ATOM      5  O   UNL     1      -3.575  -3.707   5.768  1.00  0.00    -0.271 OA
ATOM      6  H   UNL     1      -1.547  -4.753   6.477  1.00  0.00     0.163 HD
BRANCH   4   7
ATOM      7  C   UNL     1      -3.319  -4.736   3.597  1.00  0.00     0.329 C 
BRANCH   7   8
ATOM      8  O   UNL     1      -2.378  -4.453   2.575  1.00  0.00    -0.483 OA
BRANCH   8   9
ATOM      9  C   UNL     1      -2.045  -3.145   2.321  1.00  0.00     0.131 A 
ATOM     10  C   UNL     1       0.919   0.019  -0.074  1.00  0.00     0.048 C 
ATOM     11  C   UNL     1       0.466  -1.391   0.215  1.00  0.00    -0.006 A 
ATOM     12  C   UNL     1       1.058  -2.478  -0.454  1.00  0.00     0.046 A 
ATOM     13  C   UNL     1      -0.584  -1.615   1.123  1.00  0.00     0.078 A 
ATOM     14  Cl  UNL     1       2.311  -2.258  -1.627  1.00  0.00    -0.084 Cl
ATOM     15  C   UNL     1       0.645  -3.781  -0.202  1.00  0.00     0.022 A 
ATOM     16  C   UNL     1      -1.001  -2.941   1.386  1.00  0.00     0.043 A 
ATOM     17  N   UNL     1      -1.178  -0.570   1.730  1.00  0.00    -0.256 NA
ATOM     18  C   UNL     1      -0.371  -4.011   0.717  1.00  0.00     0.016 A 
ATOM     19  C   UNL     1      -2.187  -0.796   2.594  1.00  0.00     0.115 A 
ATOM     20  C   UNL     1      -2.655  -2.050   2.919  1.00  0.00     0.067 A 
ENDBRANCH   8   9
ENDBRANCH   7   8
ENDBRANCH   4   7
ENDBRANCH   2   3
ENDBRANCH   1   2
BRANCH   1  21
ATOM     21  C   UNL     1       1.231  -4.516   5.775  1.00  0.00     0.023 C 
BRANCH  21  22
ATOM     22  C   UNL     1       1.449  -5.448   6.961  1.00  0.00     0.116 C 
BRANCH  22  23
ATOM     23  N   UNL     1       2.303  -6.581   6.642  1.00  0.00    -0.352 N 
ATOM     24  C   UNL     1       3.422  -7.022   7.305  1.00  0.00     0.251 C 
ATOM     25  H   UNL     1       2.044  -7.101   5.847  1.00  0.00     0.163 HD
ATOM     26  O   UNL     1       4.105  -7.932   6.848  1.00  0.00    -0.269 OA
BRANCH  24  27
ATOM     27  C   UNL     1       3.817  -6.362   8.564  1.00  0.00     0.039 A 
ATOM     28  C   UNL     1       5.103  -5.828   8.669  1.00  0.00     0.014 A 
ATOM     29  C   UNL     1       2.905  -6.239   9.618  1.00  0.00     0.014 A 
ATOM     30  C   UNL     1       5.458  -5.112   9.812  1.00  0.00     0.010 A 
ATOM     31  C   UNL     1       3.245  -5.483  10.737  1.00  0.00     0.010 A 
ATOM     32  C   UNL     1       4.522  -4.913  10.841  1.00  0.00    -0.014 A 
BRANCH  32  33
ATOM     33  C   UNL     1       4.882  -4.118  12.038  1.00  0.00     0.031 A 
ATOM     34  C   UNL     1       5.074  -4.800  13.361  1.00  0.00     0.074 A 
ATOM     35  C   UNL     1       5.022  -2.783  11.938  1.00  0.00     0.049 A 
ATOM     36  N   UNL     1       5.422  -4.278  14.509  1.00  0.00    -0.248 NA
ATOM     37  C   UNL     1       4.834  -6.251  13.406  1.00  0.00     0.031 C 
ATOM     38  C   UNL     1       4.833  -2.001  10.714  1.00  0.00     0.029 A 
ATOM     39  N   UNL     1       5.366  -1.848  12.882  1.00  0.00    -0.354 N 
ATOM     40  C   UNL     1       5.446  -5.335  15.408  1.00  0.00     0.074 A 
ATOM     41  C   UNL     1       5.031  -6.519  14.689  1.00  0.00     0.031 C 
ATOM     42  C   UNL     1       5.102  -0.710  10.974  1.00  0.00     0.029 A 
ATOM     43  C   UNL     1       5.460  -0.571  12.383  1.00  0.00     0.049 A 
ATOM     44  H   UNL     1       5.530  -2.071  13.827  1.00  0.00     0.167 HD
ATOM     45  C   UNL     1       5.808  -5.326  16.711  1.00  0.00     0.031 A 
ATOM     46  C   UNL     1       5.809   0.580  12.989  1.00  0.00     0.031 A 
ATOM     47  C   UNL     1       6.242  -4.158  17.423  1.00  0.00     0.049 A 
ATOM     48  C   UNL     1       6.179   0.570  14.444  1.00  0.00     0.074 A 
ATOM     49  C   UNL     1       6.690  -4.068  18.730  1.00  0.00     0.029 A 
ATOM     50  N   UNL     1       6.285  -2.881  16.890  1.00  0.00    -0.354 N 
ATOM     51  N   UNL     1       6.252  -0.449  15.265  1.00  0.00    -0.248 NA
ATOM     52  C   UNL     1       6.515   1.864  15.057  1.00  0.00     0.031 C 
ATOM     53  C   UNL     1       6.972  -2.726  18.998  1.00  0.00     0.029 A 
ATOM     54  C   UNL     1       6.730  -1.990  17.849  1.00  0.00     0.049 A 
ATOM     55  H   UNL     1       6.037  -2.644  15.968  1.00  0.00     0.167 HD
ATOM     56  C   UNL     1       6.659   0.076  16.484  1.00  0.00     0.074 A 
ATOM     57  C   UNL     1       6.818   1.503  16.299  1.00  0.00     0.031 C 
ATOM     58  C   UNL     1       6.882  -0.574  17.650  1.00  0.00     0.031 A 
BRANCH  45  59
ATOM     59  C   UNL     1       5.774  -6.629  17.450  1.00  0.00    -0.014 A 
ATOM     60  C   UNL     1       6.782  -7.585  17.256  1.00  0.00     0.009 A 
ATOM     61  C   UNL     1       4.767  -6.875  18.394  1.00  0.00     0.009 A 
ATOM     62  C   UNL     1       6.773  -8.775  17.985  1.00  0.00     0.001 A 
ATOM     63  C   UNL     1       4.771  -8.058  19.134  1.00  0.00     0.001 A 
ATOM     64  C   UNL     1       5.771  -9.008  18.927  1.00  0.00     0.000 A 
ENDBRANCH  45  59
BRANCH  46  65
ATOM     65  C   UNL     1       5.867   1.833  12.197  1.00  0.00    -0.014 A 
ATOM     66  C   UNL     1       7.104   2.340  11.772  1.00  0.00     0.009 A 
ATOM     67  C   UNL     1       4.692   2.506  11.831  1.00  0.00     0.009 A 
ATOM     68  C   UNL     1       7.163   3.501  10.999  1.00  0.00     0.001 A 
ATOM     69  C   UNL     1       4.754   3.659  11.045  1.00  0.00     0.001 A 
ATOM     70  C   UNL     1       5.989   4.157  10.632  1.00  0.00     0.000 A 
ENDBRANCH  46  65
BRANCH  58  71
ATOM     71  C   UNL     1       7.329   0.231  18.833  1.00  0.00    -0.014 A 
ATOM     72  C   UNL     1       6.394   0.915  19.622  1.00  0.00     0.009 A 
ATOM     73  C   UNL     1       8.671   0.181  19.242  1.00  0.00     0.009 A 
ATOM     74  C   UNL     1       6.795   1.531  20.808  1.00  0.00     0.001 A 
ATOM     75  C   UNL     1       9.065   0.786  20.436  1.00  0.00     0.001 A 
ATOM     76  C   UNL     1       8.126   1.458  21.219  1.00  0.00     0.000 A 
ENDBRANCH  58  71
ENDBRANCH  32  33
ENDBRANCH  24  27
ENDBRANCH  22  23
ENDBRANCH  21  22
ENDBRANCH   1  21
TORSDOF 13
