REMARK SMILES O=C(NCCCCNC(=O)c1c(-c2ccc(Cl)cc2)noc1CO[C@@H]1CCCCO1)c1ccc(-c2c3nc(c(-c4ccccc4)c4ccc([nH]4)c(-c4ccccc4)c4nc(c(-c5ccccc5)c5ccc2[nH]5)C=C4)C=C3)cc1
REMARK SMILES IDX 6 1 5 2 4 3 3 4 1 5 2 6 31 8 32 9 78 10 33 11 77 12 34 13
REMARK SMILES IDX 35 14 36 15 71 16 37 17 76 18 70 19 72 20 38 21 75 22 69 23
REMARK SMILES IDX 68 24 39 26 61 27 46 28 60 29 47 30 50 31 59 32 73 33 48 34
REMARK SMILES IDX 49 35 58 37 74 38 51 39 40 40 41 41 45 42 42 43 44 44 43 45
REMARK SMILES IDX 62 46 63 47 67 48 64 49 66 50 65 51 52 52 53 53 57 54 54 55
REMARK SMILES IDX 56 56 55 57 7 58 8 59 9 60 10 62 11 63 12 64 22 65 20 66
REMARK SMILES IDX 21 67 13 68 14 69 19 70 15 71 18 72 16 73 17 74 23 75 24 76
REMARK SMILES IDX 25 77 26 78 30 79 27 80 29 81 28 82
REMARK H PARENT 3 7 72 25 50 36 8 61
REMARK Flexibility Score: inf
ROOT
ATOM      1  C   UNL     1       3.649  -4.182  -0.393  1.00  0.00     0.023 C 
ENDROOT
BRANCH   1   2
ATOM      2  C   UNL     1       4.119  -3.140   0.628  1.00  0.00     0.023 C 
BRANCH   2   3
ATOM      3  C   UNL     1       4.197  -1.694   0.143  1.00  0.00     0.116 C 
BRANCH   3   4
ATOM      4  N   UNL     1       2.916  -1.163  -0.286  1.00  0.00    -0.352 N 
ATOM      5  O   UNL     1       1.204   0.293  -0.406  1.00  0.00    -0.269 OA
ATOM      6  C   UNL     1       2.348   0.062  -0.026  1.00  0.00     0.251 C 
ATOM      7  H   UNL     1       2.376  -1.767  -0.845  1.00  0.00     0.163 HD
BRANCH   6   8
ATOM      8  C   UNL     1       3.085   1.093   0.741  1.00  0.00     0.039 A 
ATOM      9  C   UNL     1       4.402   1.439   0.428  1.00  0.00     0.014 A 
ATOM     10  C   UNL     1       2.419   1.749   1.783  1.00  0.00     0.014 A 
ATOM     11  C   UNL     1       5.085   2.363   1.222  1.00  0.00     0.010 A 
ATOM     12  C   UNL     1       3.093   2.695   2.560  1.00  0.00     0.010 A 
ATOM     13  C   UNL     1       4.441   2.982   2.305  1.00  0.00    -0.014 A 
BRANCH  13  14
ATOM     14  C   UNL     1       5.201   3.910   3.175  1.00  0.00     0.031 A 
ATOM     15  C   UNL     1       5.722   3.447   4.506  1.00  0.00     0.074 A 
ATOM     16  C   UNL     1       5.463   5.160   2.754  1.00  0.00     0.049 A 
ATOM     17  N   UNL     1       6.482   4.086   5.360  1.00  0.00    -0.248 NA
ATOM     18  C   UNL     1       5.339   2.092   4.934  1.00  0.00     0.031 C 
ATOM     19  C   UNL     1       5.002   5.745   1.495  1.00  0.00     0.029 A 
ATOM     20  N   UNL     1       6.205   6.155   3.338  1.00  0.00    -0.354 N 
ATOM     21  C   UNL     1       6.655   3.221   6.431  1.00  0.00     0.074 A 
ATOM     22  C   UNL     1       5.923   2.010   6.122  1.00  0.00     0.031 C 
ATOM     23  C   UNL     1       5.503   6.987   1.383  1.00  0.00     0.029 A 
ATOM     24  C   UNL     1       6.316   7.280   2.561  1.00  0.00     0.049 A 
ATOM     25  H   UNL     1       6.617   6.071   4.229  1.00  0.00     0.167 HD
ATOM     26  C   UNL     1       7.361   3.411   7.571  1.00  0.00     0.031 A 
ATOM     27  C   UNL     1       7.016   8.411   2.761  1.00  0.00     0.031 A 
ATOM     28  C   UNL     1       8.114   4.593   7.886  1.00  0.00     0.049 A 
ATOM     29  C   UNL     1       7.843   8.574   4.001  1.00  0.00     0.074 A 
ATOM     30  C   UNL     1       8.867   4.864   9.017  1.00  0.00     0.029 A 
ATOM     31  N   UNL     1       8.216   5.700   7.062  1.00  0.00    -0.354 N 
ATOM     32  N   UNL     1       8.007   7.739   4.997  1.00  0.00    -0.248 NA
ATOM     33  C   UNL     1       8.588   9.835   4.137  1.00  0.00     0.031 C 
ATOM     34  C   UNL     1       9.431   6.138   8.872  1.00  0.00     0.029 A 
ATOM     35  C   UNL     1       9.027   6.654   7.652  1.00  0.00     0.049 A 
ATOM     36  H   UNL     1       7.777   5.795   6.186  1.00  0.00     0.167 HD
ATOM     37  C   UNL     1       8.876   8.369   5.875  1.00  0.00     0.074 A 
ATOM     38  C   UNL     1       9.208   9.655   5.295  1.00  0.00     0.031 C 
ATOM     39  C   UNL     1       9.355   7.920   7.059  1.00  0.00     0.031 A 
BRANCH  26  40
ATOM     40  C   UNL     1       7.346   2.295   8.568  1.00  0.00    -0.014 A 
ATOM     41  C   UNL     1       8.298   1.267   8.500  1.00  0.00     0.009 A 
ATOM     42  C   UNL     1       6.387   2.279   9.591  1.00  0.00     0.009 A 
ATOM     43  C   UNL     1       8.278   0.230   9.434  1.00  0.00     0.001 A 
ATOM     44  C   UNL     1       6.373   1.241  10.524  1.00  0.00     0.001 A 
ATOM     45  C   UNL     1       7.316   0.217  10.444  1.00  0.00     0.000 A 
ENDBRANCH  26  40
BRANCH  27  46
ATOM     46  C   UNL     1       7.001   9.471   1.729  1.00  0.00    -0.014 A 
ATOM     47  C   UNL     1       7.975   9.479   0.719  1.00  0.00     0.009 A 
ATOM     48  C   UNL     1       6.016  10.467   1.746  1.00  0.00     0.009 A 
ATOM     49  C   UNL     1       7.966  10.477  -0.256  1.00  0.00     0.001 A 
ATOM     50  C   UNL     1       6.010  11.462   0.767  1.00  0.00     0.001 A 
ATOM     51  C   UNL     1       6.984  11.468  -0.232  1.00  0.00     0.000 A 
ENDBRANCH  27  46
BRANCH  39  52
ATOM     52  C   UNL     1      10.294   8.824   7.795  1.00  0.00    -0.014 A 
ATOM     53  C   UNL     1       9.800   9.780   8.694  1.00  0.00     0.009 A 
ATOM     54  C   UNL     1      11.679   8.707   7.604  1.00  0.00     0.009 A 
ATOM     55  C   UNL     1      10.681  10.617   9.381  1.00  0.00     0.001 A 
ATOM     56  C   UNL     1      12.556   9.544   8.295  1.00  0.00     0.001 A 
ATOM     57  C   UNL     1      12.057  10.500   9.181  1.00  0.00     0.000 A 
ENDBRANCH  39  52
ENDBRANCH  13  14
ENDBRANCH   6   8
ENDBRANCH   3   4
ENDBRANCH   2   3
ENDBRANCH   1   2
BRANCH   1  58
ATOM     58  C   UNL     1       4.343  -4.168  -1.755  1.00  0.00     0.116 C 
BRANCH  58  59
ATOM     59  N   UNL     1       5.790  -4.233  -1.662  1.00  0.00    -0.352 N 
ATOM     60  C   UNL     1       6.694  -5.043  -2.300  1.00  0.00     0.257 C 
ATOM     61  H   UNL     1       6.190  -3.586  -1.036  1.00  0.00     0.163 HD
ATOM     62  O   UNL     1       7.877  -4.946  -1.983  1.00  0.00    -0.269 OA
BRANCH  60  63
ATOM     63  C   UNL     1       6.246  -5.980  -3.300  1.00  0.00     0.113 A 
ATOM     64  C   UNL     1       6.593  -7.359  -3.444  1.00  0.00     0.127 A 
ATOM     65  C   UNL     1       5.519  -5.697  -4.440  1.00  0.00     0.175 A 
ATOM     66  N   UNL     1       6.005  -7.876  -4.535  1.00  0.00    -0.079 NA
ATOM     67  O   UNL     1       5.331  -6.843  -5.143  1.00  0.00    -0.357 OA
BRANCH  64  68
ATOM     68  C   UNL     1       7.463  -8.189  -2.609  1.00  0.00     0.005 A 
ATOM     69  C   UNL     1       7.447  -8.092  -1.211  1.00  0.00     0.012 A 
ATOM     70  C   UNL     1       8.345  -9.100  -3.215  1.00  0.00     0.012 A 
ATOM     71  C   UNL     1       8.310  -8.876  -0.436  1.00  0.00     0.021 A 
ATOM     72  C   UNL     1       9.207  -9.882  -2.441  1.00  0.00     0.021 A 
ATOM     73  C   UNL     1       9.187  -9.764  -1.054  1.00  0.00     0.041 A 
ATOM     74  Cl  UNL     1      10.252 -10.720  -0.099  1.00  0.00    -0.084 Cl
ENDBRANCH  64  68
BRANCH  65  75
ATOM     75  C   UNL     1       4.965  -4.454  -5.030  1.00  0.00     0.242 C 
BRANCH  75  76
ATOM     76  O   UNL     1       5.048  -4.514  -6.440  1.00  0.00    -0.345 OA
BRANCH  76  77
ATOM     77  C   UNL     1       6.145  -3.894  -7.104  1.00  0.00     0.250 C 
ATOM     78  C   UNL     1       7.550  -4.348  -6.690  1.00  0.00     0.062 C 
ATOM     79  O   UNL     1       5.996  -2.484  -7.260  1.00  0.00    -0.353 OA
ATOM     80  C   UNL     1       8.197  -3.455  -5.640  1.00  0.00     0.008 C 
ATOM     81  C   UNL     1       6.580  -1.660  -6.264  1.00  0.00     0.163 C 
ATOM     82  C   UNL     1       8.042  -1.993  -6.023  1.00  0.00     0.029 C 
ENDBRANCH  76  77
ENDBRANCH  75  76
ENDBRANCH  65  75
ENDBRANCH  60  63
ENDBRANCH  58  59
ENDBRANCH   1  58
TORSDOF 15
