REMARK SMILES Cc1cc2c(=O)c3ccccc3oc2c(C(=O)NCCCCNC(=O)c2ccc(-c3c4nc(c(-c5ccccc5)c5ccc([nH]5)c(-c5ccccc5)c5nc(c(-c6ccccc6)c6ccc3[nH]6)C=C5)C=C4)cc2)c1C
REMARK SMILES IDX 21 1 20 2 19 3 18 4 16 5 17 6 15 8 1 9 2 10 3 11 74 12 4 13
REMARK SMILES IDX 75 14 5 15 14 16 6 17 7 18 13 19 8 20 12 21 9 22 11 23 10 24
REMARK SMILES IDX 22 25 23 26 24 27 25 29 26 30 27 31 73 32 28 33 72 34 29 35
REMARK SMILES IDX 30 36 31 37 66 38 32 39 71 40 65 41 67 42 33 43 70 44 64 45
REMARK SMILES IDX 63 46 34 48 56 49 41 50 55 51 42 52 45 53 54 54 68 55 43 56
REMARK SMILES IDX 44 57 53 59 69 60 46 61 35 62 36 63 40 64 37 65 39 66 38 67
REMARK SMILES IDX 57 68 58 69 62 70 59 71 61 72 60 73 47 74 48 75 52 76 49 77
REMARK SMILES IDX 51 78 50 79
REMARK H PARENT 18 7 23 28 67 47 45 58
REMARK Flexibility Score: inf
ROOT
ATOM      1  C   UNL     1      -1.529  -1.837   6.121  1.00  0.00     0.023 C 
ENDROOT
BRANCH   1   2
ATOM      2  C   UNL     1      -0.875  -1.101   4.954  1.00  0.00     0.023 C 
BRANCH   2   3
ATOM      3  C   UNL     1      -1.826  -0.173   4.201  1.00  0.00     0.116 C 
BRANCH   3   4
ATOM      4  N   UNL     1      -1.256   1.155   4.027  1.00  0.00    -0.352 N 
ATOM      5  C   UNL     1      -1.588   1.949   2.949  1.00  0.00     0.255 C 
ATOM      6  O   UNL     1      -2.606   2.628   2.943  1.00  0.00    -0.269 OA
ATOM      7  H   UNL     1      -0.618   1.494   4.695  1.00  0.00     0.163 HD
BRANCH   5   8
ATOM      8  C   UNL     1      -0.543   2.101   1.899  1.00  0.00     0.086 A 
ATOM      9  C   UNL     1       1.453   0.057  -0.666  1.00  0.00     0.044 C 
ATOM     10  C   UNL     1       0.915   1.194   0.162  1.00  0.00    -0.046 A 
ATOM     11  C   UNL     1       1.482   2.461   0.002  1.00  0.00     0.019 A 
ATOM     12  C   UNL     1      -0.184   1.035   1.036  1.00  0.00    -0.032 A 
ATOM     13  C   UNL     1       1.019   3.540   0.754  1.00  0.00     0.066 A 
ATOM     14  C   UNL     1      -0.975  -0.243   0.976  1.00  0.00     0.045 C 
ATOM     15  C   UNL     1       1.529   4.888   0.467  1.00  0.00     0.200 A 
ATOM     16  C   UNL     1       0.053   3.369   1.744  1.00  0.00     0.151 A 
ATOM     17  O   UNL     1       2.357   5.088  -0.412  1.00  0.00    -0.288 OA
ATOM     18  C   UNL     1       0.975   5.985   1.263  1.00  0.00     0.065 A 
ATOM     19  O   UNL     1      -0.337   4.398   2.575  1.00  0.00    -0.455 OA
ATOM     20  C   UNL     1       1.331   7.310   0.992  1.00  0.00     0.016 A 
ATOM     21  C   UNL     1       0.091   5.674   2.292  1.00  0.00     0.138 A 
ATOM     22  C   UNL     1       0.813   8.335   1.780  1.00  0.00     0.001 A 
ATOM     23  C   UNL     1      -0.410   6.703   3.091  1.00  0.00     0.048 A 
ATOM     24  C   UNL     1      -0.049   8.030   2.836  1.00  0.00     0.004 A 
ENDBRANCH   5   8
ENDBRANCH   3   4
ENDBRANCH   2   3
ENDBRANCH   1   2
BRANCH   1  25
ATOM     25  C   UNL     1      -2.789  -2.627   5.794  1.00  0.00     0.116 C 
BRANCH  25  26
ATOM     26  N   UNL     1      -2.603  -3.723   4.855  1.00  0.00    -0.352 N 
ATOM     27  C   UNL     1      -3.276  -4.932   4.837  1.00  0.00     0.251 C 
ATOM     28  H   UNL     1      -1.923  -3.589   4.156  1.00  0.00     0.163 HD
ATOM     29  O   UNL     1      -3.019  -5.792   4.011  1.00  0.00    -0.269 OA
BRANCH  27  30
ATOM     30  C   UNL     1      -4.274  -5.182   5.902  1.00  0.00     0.039 A 
ATOM     31  C   UNL     1      -5.292  -4.255   6.131  1.00  0.00     0.014 A 
ATOM     32  C   UNL     1      -4.074  -6.252   6.777  1.00  0.00     0.014 A 
ATOM     33  C   UNL     1      -5.962  -4.275   7.349  1.00  0.00     0.010 A 
ATOM     34  C   UNL     1      -4.817  -6.320   7.959  1.00  0.00     0.010 A 
ATOM     35  C   UNL     1      -5.711  -5.289   8.290  1.00  0.00    -0.014 A 
BRANCH  35  36
ATOM     36  C   UNL     1      -6.357  -5.218   9.629  1.00  0.00     0.031 A 
ATOM     37  C   UNL     1      -5.531  -5.036  10.879  1.00  0.00     0.074 A 
ATOM     38  C   UNL     1      -7.701  -5.232   9.714  1.00  0.00     0.049 A 
ATOM     39  N   UNL     1      -5.934  -4.926  12.121  1.00  0.00    -0.248 NA
ATOM     40  C   UNL     1      -4.069  -4.968  10.721  1.00  0.00     0.031 C 
ATOM     41  C   UNL     1      -8.613  -5.367   8.578  1.00  0.00     0.029 A 
ATOM     42  N   UNL     1      -8.533  -5.093  10.796  1.00  0.00    -0.354 N 
ATOM     43  C   UNL     1      -4.782  -4.805  12.889  1.00  0.00     0.074 A 
ATOM     44  C   UNL     1      -3.660  -4.873  11.979  1.00  0.00     0.031 C 
ATOM     45  C   UNL     1      -9.874  -5.231   9.011  1.00  0.00     0.029 A 
ATOM     46  C   UNL     1      -9.865  -5.077  10.462  1.00  0.00     0.049 A 
ATOM     47  H   UNL     1      -8.207  -5.013  11.722  1.00  0.00     0.167 HD
ATOM     48  C   UNL     1      -4.668  -4.645  14.229  1.00  0.00     0.031 A 
ATOM     49  C   UNL     1     -10.963  -4.963  11.232  1.00  0.00     0.031 A 
ATOM     50  C   UNL     1      -5.783  -4.553  15.135  1.00  0.00     0.049 A 
ATOM     51  C   UNL     1     -10.811  -4.829  12.718  1.00  0.00     0.074 A 
ATOM     52  C   UNL     1      -5.761  -4.376  16.508  1.00  0.00     0.029 A 
ATOM     53  N   UNL     1      -7.115  -4.621  14.761  1.00  0.00    -0.354 N 
ATOM     54  N   UNL     1      -9.712  -4.739  13.427  1.00  0.00    -0.248 NA
ATOM     55  C   UNL     1     -12.047  -4.793  13.512  1.00  0.00     0.031 C 
ATOM     56  C   UNL     1      -7.078  -4.387  16.972  1.00  0.00     0.029 A 
ATOM     57  C   UNL     1      -7.923  -4.513  15.881  1.00  0.00     0.049 A 
ATOM     58  H   UNL     1      -7.439  -4.730  13.838  1.00  0.00     0.167 HD
ATOM     59  C   UNL     1     -10.122  -4.633  14.748  1.00  0.00     0.074 A 
ATOM     60  C   UNL     1     -11.570  -4.645  14.742  1.00  0.00     0.031 C 
ATOM     61  C   UNL     1      -9.362  -4.538  15.865  1.00  0.00     0.031 A 
BRANCH  48  62
ATOM     62  C   UNL     1      -3.287  -4.575  14.821  1.00  0.00    -0.014 A 
ATOM     63  C   UNL     1      -2.813  -5.638  15.607  1.00  0.00     0.009 A 
ATOM     64  C   UNL     1      -2.496  -3.424  14.690  1.00  0.00     0.009 A 
ATOM     65  C   UNL     1      -1.582  -5.548  16.258  1.00  0.00     0.001 A 
ATOM     66  C   UNL     1      -1.252  -3.345  15.322  1.00  0.00     0.001 A 
ATOM     67  C   UNL     1      -0.800  -4.403  16.112  1.00  0.00     0.000 A 
ENDBRANCH  48  62
BRANCH  49  68
ATOM     68  C   UNL     1     -12.302  -4.978  10.590  1.00  0.00    -0.014 A 
ATOM     69  C   UNL     1     -12.791  -6.151   9.991  1.00  0.00     0.009 A 
ATOM     70  C   UNL     1     -13.067  -3.805  10.512  1.00  0.00     0.009 A 
ATOM     71  C   UNL     1     -14.003  -6.141   9.300  1.00  0.00     0.001 A 
ATOM     72  C   UNL     1     -14.294  -3.807   9.845  1.00  0.00     0.001 A 
ATOM     73  C   UNL     1     -14.755  -4.971   9.229  1.00  0.00     0.000 A 
ENDBRANCH  49  68
BRANCH  61  74
ATOM     74  C   UNL     1     -10.071  -4.440  17.184  1.00  0.00    -0.014 A 
ATOM     75  C   UNL     1     -10.062  -3.229  17.895  1.00  0.00     0.009 A 
ATOM     76  C   UNL     1     -10.669  -5.568  17.766  1.00  0.00     0.009 A 
ATOM     77  C   UNL     1     -10.629  -3.151  19.167  1.00  0.00     0.001 A 
ATOM     78  C   UNL     1     -11.257  -5.481  19.029  1.00  0.00     0.001 A 
ATOM     79  C   UNL     1     -11.229  -4.276  19.732  1.00  0.00     0.000 A 
ENDBRANCH  61  74
ENDBRANCH  35  36
ENDBRANCH  27  30
ENDBRANCH  25  26
ENDBRANCH   1  25
TORSDOF 11
