REMARK SMILES Cc1cccc(C(=O)NCCCCNC(=O)c2ccc(-c3c4nc(c(-c5ccccc5)c5ccc([nH]5)c(-c5ccccc5)c5nc(c(-c6ccccc6)c6ccc3[nH]6)C=C5)C=C4)cc2)c1OC[C@@H]1C[C@H]2CC[C@@H]1C2
REMARK SMILES IDX 11 1 10 2 9 3 7 4 8 5 6 7 1 8 2 9 3 10 65 11 4 12 5 13 66 14
REMARK SMILES IDX 67 15 68 16 69 17 73 18 70 19 72 20 74 21 71 22 12 23 13 24
REMARK SMILES IDX 14 25 15 26 16 28 17 29 18 30 64 31 19 32 63 33 20 34 21 35
REMARK SMILES IDX 22 36 57 37 23 38 62 39 56 40 58 41 24 42 61 43 55 44 54 45
REMARK SMILES IDX 25 47 47 48 32 49 46 50 33 51 36 52 45 53 59 54 34 55 35 56
REMARK SMILES IDX 44 58 60 59 37 60 26 61 27 62 31 63 28 64 30 65 29 66 48 67
REMARK SMILES IDX 49 68 53 69 50 70 52 71 51 72 38 73 39 74 43 75 40 76 42 77
REMARK SMILES IDX 41 78
REMARK H PARENT 9 6 14 27 58 46 36 57
REMARK Flexibility Score: inf
ROOT
ATOM      1  C   UNL     1       0.920   4.484  -1.237  1.00  0.00     0.023 C 
ENDROOT
BRANCH   1   2
ATOM      2  C   UNL     1       0.282   4.156   0.122  1.00  0.00     0.116 C 
BRANCH   2   3
ATOM      3  N   UNL     1      -1.046   3.615  -0.032  1.00  0.00    -0.352 N 
ATOM      4  C   UNL     1      -1.562   2.353  -0.094  1.00  0.00     0.255 C 
ATOM      5  O   UNL     1      -2.794   2.328  -0.226  1.00  0.00    -0.269 OA
ATOM      6  H   UNL     1      -1.735   4.314  -0.112  1.00  0.00     0.163 HD
BRANCH   4   7
ATOM      7  C   UNL     1      -0.841   1.033  -0.007  1.00  0.00     0.082 A 
ATOM      8  C   UNL     1       1.919  -1.163  -1.500  1.00  0.00     0.048 C 
ATOM      9  C   UNL     1       0.779  -0.677  -0.645  1.00  0.00    -0.008 A 
ATOM     10  C   UNL     1      -0.109  -1.678  -0.210  1.00  0.00     0.007 A 
ATOM     11  C   UNL     1       0.464   0.688  -0.434  1.00  0.00     0.134 A 
ATOM     12  C   UNL     1      -1.334  -1.349   0.341  1.00  0.00     0.001 A 
ATOM     13  C   UNL     1      -1.705  -0.012   0.406  1.00  0.00     0.018 A 
BRANCH  11  14
ATOM     14  O   UNL     1       1.345   1.667  -0.769  1.00  0.00    -0.492 OA
BRANCH  14  15
ATOM     15  C   UNL     1       2.679   1.700  -0.213  1.00  0.00     0.233 C 
BRANCH  15  16
ATOM     16  C   UNL     1       2.891   1.237   1.246  1.00  0.00     0.030 C 
ATOM     17  C   UNL     1       3.787   2.222   2.057  1.00  0.00     0.011 C 
ATOM     18  C   UNL     1       3.750  -0.057   1.317  1.00  0.00    -0.004 C 
ATOM     19  C   UNL     1       4.976   1.355   2.513  1.00  0.00    -0.010 C 
ATOM     20  C   UNL     1       3.660  -0.641   2.736  1.00  0.00     0.004 C 
ATOM     21  C   UNL     1       5.187   0.470   1.292  1.00  0.00     0.007 C 
ATOM     22  C   UNL     1       4.495   0.343   3.564  1.00  0.00     0.004 C 
ENDBRANCH  15  16
ENDBRANCH  14  15
ENDBRANCH  11  14
ENDBRANCH   4   7
ENDBRANCH   2   3
ENDBRANCH   1   2
BRANCH   1  23
ATOM     23  C   UNL     1       0.315   5.683  -1.970  1.00  0.00     0.023 C 
BRANCH  23  24
ATOM     24  C   UNL     1       0.689   7.015  -1.342  1.00  0.00     0.116 C 
BRANCH  24  25
ATOM     25  N   UNL     1       2.008   7.518  -1.706  1.00  0.00    -0.352 N 
ATOM     26  C   UNL     1       2.753   8.546  -1.146  1.00  0.00     0.251 C 
ATOM     27  H   UNL     1       2.436   7.057  -2.464  1.00  0.00     0.163 HD
ATOM     28  O   UNL     1       3.812   8.876  -1.654  1.00  0.00    -0.269 OA
BRANCH  26  29
ATOM     29  C   UNL     1       2.342   9.133   0.159  1.00  0.00     0.039 A 
ATOM     30  C   UNL     1       3.345   9.340   1.114  1.00  0.00     0.014 A 
ATOM     31  C   UNL     1       1.005   9.219   0.531  1.00  0.00     0.014 A 
ATOM     32  C   UNL     1       3.012   9.318   2.465  1.00  0.00     0.010 A 
ATOM     33  C   UNL     1       0.683   9.067   1.864  1.00  0.00     0.010 A 
ATOM     34  C   UNL     1       1.698   9.031   2.822  1.00  0.00    -0.014 A 
BRANCH  34  35
ATOM     35  C   UNL     1       1.320   8.526   4.136  1.00  0.00     0.031 A 
ATOM     36  C   UNL     1       0.523   9.359   5.055  1.00  0.00     0.074 A 
ATOM     37  C   UNL     1       1.653   7.261   4.479  1.00  0.00     0.049 A 
ATOM     38  N   UNL     1       0.443   9.151   6.326  1.00  0.00    -0.248 NA
ATOM     39  C   UNL     1      -0.179  10.566   4.626  1.00  0.00     0.031 C 
ATOM     40  C   UNL     1       1.133   6.464   5.587  1.00  0.00     0.029 A 
ATOM     41  N   UNL     1       2.720   6.509   3.993  1.00  0.00    -0.354 N 
ATOM     42  C   UNL     1      -0.527   9.988   6.820  1.00  0.00     0.074 A 
ATOM     43  C   UNL     1      -0.785  10.930   5.761  1.00  0.00     0.031 C 
ATOM     44  C   UNL     1       1.993   5.467   5.850  1.00  0.00     0.029 A 
ATOM     45  C   UNL     1       3.174   5.682   5.030  1.00  0.00     0.049 A 
ATOM     46  H   UNL     1       3.090   6.551   3.081  1.00  0.00     0.167 HD
ATOM     47  C   UNL     1      -1.097   9.698   8.021  1.00  0.00     0.031 A 
ATOM     48  C   UNL     1       4.439   5.816   5.527  1.00  0.00     0.031 A 
ATOM     49  C   UNL     1      -0.353   8.656   8.730  1.00  0.00     0.049 A 
ATOM     50  C   UNL     1       4.486   6.245   6.979  1.00  0.00     0.074 A 
ATOM     51  C   UNL     1      -0.583   7.311   8.960  1.00  0.00     0.029 A 
ATOM     52  N   UNL     1       0.972   8.897   9.078  1.00  0.00    -0.354 N 
ATOM     53  N   UNL     1       3.475   6.753   7.628  1.00  0.00    -0.248 NA
ATOM     54  C   UNL     1       5.693   6.173   7.800  1.00  0.00     0.031 C 
ATOM     55  C   UNL     1       0.652   6.722   9.351  1.00  0.00     0.029 A 
ATOM     56  C   UNL     1       1.612   7.718   9.407  1.00  0.00     0.049 A 
ATOM     57  H   UNL     1       1.396   9.786   9.089  1.00  0.00     0.167 HD
ATOM     58  C   UNL     1       3.869   7.105   8.891  1.00  0.00     0.074 A 
ATOM     59  C   UNL     1       5.261   6.699   8.960  1.00  0.00     0.031 C 
ATOM     60  C   UNL     1       3.026   7.728   9.766  1.00  0.00     0.031 A 
BRANCH  47  61
ATOM     61  C   UNL     1      -2.456  10.197   8.464  1.00  0.00    -0.014 A 
ATOM     62  C   UNL     1      -3.023   9.694   9.650  1.00  0.00     0.009 A 
ATOM     63  C   UNL     1      -3.280  11.060   7.717  1.00  0.00     0.009 A 
ATOM     64  C   UNL     1      -4.332  10.014  10.046  1.00  0.00     0.001 A 
ATOM     65  C   UNL     1      -4.579  11.403   8.116  1.00  0.00     0.001 A 
ATOM     66  C   UNL     1      -5.111  10.870   9.278  1.00  0.00     0.000 A 
ENDBRANCH  47  61
BRANCH  48  67
ATOM     67  C   UNL     1       5.446   6.209   4.502  1.00  0.00    -0.014 A 
ATOM     68  C   UNL     1       5.785   5.269   3.510  1.00  0.00     0.009 A 
ATOM     69  C   UNL     1       5.766   7.556   4.284  1.00  0.00     0.009 A 
ATOM     70  C   UNL     1       6.315   5.679   2.283  1.00  0.00     0.001 A 
ATOM     71  C   UNL     1       6.308   7.962   3.056  1.00  0.00     0.001 A 
ATOM     72  C   UNL     1       6.546   7.031   2.045  1.00  0.00     0.000 A 
ENDBRANCH  48  67
BRANCH  60  73
ATOM     73  C   UNL     1       3.433   8.376  11.068  1.00  0.00    -0.014 A 
ATOM     74  C   UNL     1       4.729   8.829  11.353  1.00  0.00     0.009 A 
ATOM     75  C   UNL     1       2.434   8.681  12.019  1.00  0.00     0.009 A 
ATOM     76  C   UNL     1       5.020   9.507  12.546  1.00  0.00     0.001 A 
ATOM     77  C   UNL     1       2.710   9.398  13.186  1.00  0.00     0.001 A 
ATOM     78  C   UNL     1       4.009   9.800  13.457  1.00  0.00     0.000 A 
ENDBRANCH  60  73
ENDBRANCH  34  35
ENDBRANCH  26  29
ENDBRANCH  24  25
ENDBRANCH  23  24
ENDBRANCH   1  23
TORSDOF 14
