REMARK SMILES CC(C)(C[N@H+]1C[C@@H]2C[NH2+]C[C@H]2C1(C)C)C(=O)NCCCCNC(=O)c1ccc(-c2c3nc(c(-c4ccccc4)c4ccc([nH]4)c(-c4ccccc4)c4nc(c(-c5ccccc5)c5ccc2[nH]5)C=C4)C=C3)cc1
REMARK SMILES IDX 19 1 18 2 17 3 15 4 16 5 2 7 1 8 3 9 4 10 5 11 6 12 12 13
REMARK SMILES IDX 7 15 11 16 13 17 14 18 8 19 10 20 9 21 20 24 21 25 22 26
REMARK SMILES IDX 23 27 24 29 25 30 26 31 72 32 27 33 71 34 28 35 29 36 30 37
REMARK SMILES IDX 65 38 31 39 70 40 64 41 66 42 32 43 69 44 63 45 62 46 33 48
REMARK SMILES IDX 55 49 40 50 54 51 41 52 44 53 53 54 67 55 42 56 43 57 52 59
REMARK SMILES IDX 68 60 45 61 34 62 35 63 39 64 36 65 38 66 37 67 56 68 57 69
REMARK SMILES IDX 61 70 58 71 60 72 59 73 46 74 47 75 51 76 48 77 50 78 49 79
REMARK H PARENT 17 6 5 14 9 22 9 23 22 28 66 47 44 58
REMARK Flexibility Score: inf
ROOT
ATOM      1  C   UNL     1      -1.288   3.549  -3.401  1.00  0.00     0.023 C 
ENDROOT
BRANCH   1   2
ATOM      2  C   UNL     1       0.032   2.795  -3.538  1.00  0.00     0.116 C 
BRANCH   2   3
ATOM      3  N   UNL     1       0.920   2.973  -2.404  1.00  0.00    -0.355 N 
ATOM      4  C   UNL     1       1.243   2.191  -1.335  1.00  0.00     0.231 C 
ATOM      5  O   UNL     1       2.098   2.665  -0.578  1.00  0.00    -0.274 OA
ATOM      6  H   UNL     1       1.386   3.840  -2.406  1.00  0.00     0.163 HD
BRANCH   4   7
ATOM      7  C   UNL     1       0.616   0.808  -1.067  1.00  0.00     0.092 C 
ATOM      8  C   UNL     1       1.184   0.228   0.250  1.00  0.00     0.027 C 
ATOM      9  C   UNL     1       1.089  -0.155  -2.182  1.00  0.00     0.027 C 
BRANCH   7  10
ATOM     10  C   UNL     1      -0.942   0.827  -0.976  1.00  0.00     0.279 C 
BRANCH  10  11
ATOM     11  N   UNL     1      -1.602   1.435   0.195  1.00  0.00    -0.329 N 
ATOM     12  C   UNL     1      -1.283   2.857   0.490  1.00  0.00     0.272 C 
ATOM     13  C   UNL     1      -3.105   1.259   0.271  1.00  0.00     0.101 C 
ATOM     14  H   UNL     1      -1.163   0.867   0.919  1.00  0.00     0.348 HD
ATOM     15  C   UNL     1      -2.587   3.557   0.250  1.00  0.00     0.114 C 
ATOM     16  C   UNL     1      -3.562   2.595   0.867  1.00  0.00     0.119 C 
ATOM     17  C   UNL     1      -3.820   0.937  -1.054  1.00  0.00     0.079 C 
ATOM     18  C   UNL     1      -3.391   0.121   1.263  1.00  0.00     0.079 C 
ATOM     19  C   UNL     1      -3.003   4.856   0.875  1.00  0.00     0.270 C 
ATOM     20  C   UNL     1      -4.850   3.335   0.584  1.00  0.00     0.271 C 
ATOM     21  N   UNL     1      -4.488   4.766   0.804  1.00  0.00    -0.345 N 
ATOM     22  H   UNL     1      -4.833   5.334   0.030  1.00  0.00     0.346 HD
ATOM     23  H   UNL     1      -4.906   5.109   1.668  1.00  0.00     0.346 HD
ENDBRANCH  10  11
ENDBRANCH   7  10
ENDBRANCH   4   7
ENDBRANCH   2   3
ENDBRANCH   1   2
BRANCH   1  24
ATOM     24  C   UNL     1      -1.175   5.065  -3.290  1.00  0.00     0.023 C 
BRANCH  24  25
ATOM     25  C   UNL     1      -0.486   5.725  -4.474  1.00  0.00     0.116 C 
BRANCH  25  26
ATOM     26  N   UNL     1      -1.121   5.402  -5.744  1.00  0.00    -0.352 N 
ATOM     27  C   UNL     1      -1.407   6.226  -6.802  1.00  0.00     0.251 C 
ATOM     28  H   UNL     1      -1.383   4.459  -5.859  1.00  0.00     0.163 HD
ATOM     29  O   UNL     1      -2.081   5.818  -7.743  1.00  0.00    -0.269 OA
BRANCH  27  30
ATOM     30  C   UNL     1      -0.916   7.616  -6.787  1.00  0.00     0.039 A 
ATOM     31  C   UNL     1      -1.793   8.646  -7.134  1.00  0.00     0.014 A 
ATOM     32  C   UNL     1       0.398   7.900  -6.406  1.00  0.00     0.014 A 
ATOM     33  C   UNL     1      -1.366   9.970  -7.042  1.00  0.00     0.010 A 
ATOM     34  C   UNL     1       0.793   9.219  -6.232  1.00  0.00     0.010 A 
ATOM     35  C   UNL     1      -0.081  10.267  -6.558  1.00  0.00    -0.014 A 
BRANCH  35  36
ATOM     36  C   UNL     1       0.376  11.667  -6.395  1.00  0.00     0.031 A 
ATOM     37  C   UNL     1       1.538  12.174  -7.203  1.00  0.00     0.074 A 
ATOM     38  C   UNL     1      -0.213  12.458  -5.478  1.00  0.00     0.049 A 
ATOM     39  N   UNL     1       2.123  13.344  -7.161  1.00  0.00    -0.248 NA
ATOM     40  C   UNL     1       2.140  11.235  -8.164  1.00  0.00     0.031 C 
ATOM     41  C   UNL     1      -1.323  12.067  -4.606  1.00  0.00     0.029 A 
ATOM     42  N   UNL     1       0.045  13.758  -5.125  1.00  0.00    -0.354 N 
ATOM     43  C   UNL     1       3.169  13.273  -8.073  1.00  0.00     0.074 A 
ATOM     44  C   UNL     1       3.174  11.931  -8.611  1.00  0.00     0.031 C 
ATOM     45  C   UNL     1      -1.670  13.115  -3.841  1.00  0.00     0.029 A 
ATOM     46  C   UNL     1      -0.782  14.234  -4.136  1.00  0.00     0.049 A 
ATOM     47  H   UNL     1       0.755  14.299  -5.540  1.00  0.00     0.167 HD
ATOM     48  C   UNL     1       4.033  14.245  -8.448  1.00  0.00     0.031 A 
ATOM     49  C   UNL     1      -0.814  15.436  -3.531  1.00  0.00     0.031 A 
ATOM     50  C   UNL     1       4.019  15.582  -7.919  1.00  0.00     0.049 A 
ATOM     51  C   UNL     1       0.170  16.492  -3.951  1.00  0.00     0.074 A 
ATOM     52  C   UNL     1       4.816  16.657  -8.271  1.00  0.00     0.029 A 
ATOM     53  N   UNL     1       3.163  16.025  -6.922  1.00  0.00    -0.354 N 
ATOM     54  N   UNL     1       1.106  16.432  -4.867  1.00  0.00    -0.248 NA
ATOM     55  C   UNL     1       0.084  17.786  -3.261  1.00  0.00     0.031 C 
ATOM     56  C   UNL     1       4.480  17.736  -7.447  1.00  0.00     0.029 A 
ATOM     57  C   UNL     1       3.431  17.351  -6.627  1.00  0.00     0.049 A 
ATOM     58  H   UNL     1       2.469  15.478  -6.488  1.00  0.00     0.167 HD
ATOM     59  C   UNL     1       1.700  17.688  -4.883  1.00  0.00     0.074 A 
ATOM     60  C   UNL     1       1.006  18.492  -3.899  1.00  0.00     0.031 C 
ATOM     61  C   UNL     1       2.728  18.135  -5.645  1.00  0.00     0.031 A 
BRANCH  48  62
ATOM     62  C   UNL     1       5.071  13.891  -9.477  1.00  0.00    -0.014 A 
ATOM     63  C   UNL     1       4.716  13.631 -10.811  1.00  0.00     0.009 A 
ATOM     64  C   UNL     1       6.426  13.846  -9.116  1.00  0.00     0.009 A 
ATOM     65  C   UNL     1       5.692  13.297 -11.751  1.00  0.00     0.001 A 
ATOM     66  C   UNL     1       7.404  13.543 -10.065  1.00  0.00     0.001 A 
ATOM     67  C   UNL     1       7.035  13.258 -11.379  1.00  0.00     0.000 A 
ENDBRANCH  48  62
BRANCH  49  68
ATOM     68  C   UNL     1      -1.821  15.713  -2.472  1.00  0.00    -0.014 A 
ATOM     69  C   UNL     1      -2.866  16.621  -2.704  1.00  0.00     0.009 A 
ATOM     70  C   UNL     1      -1.736  15.084  -1.221  1.00  0.00     0.009 A 
ATOM     71  C   UNL     1      -3.785  16.916  -1.694  1.00  0.00     0.001 A 
ATOM     72  C   UNL     1      -2.675  15.357  -0.224  1.00  0.00     0.001 A 
ATOM     73  C   UNL     1      -3.691  16.281  -0.457  1.00  0.00     0.000 A 
ENDBRANCH  49  68
BRANCH  61  74
ATOM     74  C   UNL     1       3.139  19.571  -5.470  1.00  0.00    -0.014 A 
ATOM     75  C   UNL     1       3.805  20.005  -4.315  1.00  0.00     0.009 A 
ATOM     76  C   UNL     1       2.889  20.492  -6.500  1.00  0.00     0.009 A 
ATOM     77  C   UNL     1       4.183  21.343  -4.180  1.00  0.00     0.001 A 
ATOM     78  C   UNL     1       3.297  21.820  -6.377  1.00  0.00     0.001 A 
ATOM     79  C   UNL     1       3.934  22.247  -5.213  1.00  0.00     0.000 A 
ENDBRANCH  61  74
ENDBRANCH  35  36
ENDBRANCH  27  30
ENDBRANCH  25  26
ENDBRANCH  24  25
ENDBRANCH   1  24
TORSDOF 13
