REMARK SMILES O=C1[NH+]=C(Nc2ccc(C(=O)NCCCCNC(=O)c3ccc(-c4c5nc(c(-c6ccccc6)c6ccc([nH]6)c(-c6ccccc6)c6nc(c(-c7ccccc7)c7ccc4[nH]7)C=C6)C=C5)cc3)c(O)c2)S/C1=C\c1ccncc1
REMARK SMILES IDX 14 1 13 2 12 3 10 4 11 5 9 7 6 8 7 9 70 10 8 11 68 12 5 13
REMARK SMILES IDX 1 14 2 15 3 16 72 17 4 18 71 20 73 21 74 23 75 24 79 25
REMARK SMILES IDX 76 26 78 27 77 28 69 29 15 31 16 32 17 33 18 34 19 36 20 37
REMARK SMILES IDX 21 38 67 39 22 40 66 41 23 42 24 43 25 44 60 45 26 46 65 47
REMARK SMILES IDX 59 48 61 49 27 50 64 51 58 52 57 53 28 55 50 56 35 57 49 58
REMARK SMILES IDX 36 59 39 60 48 61 62 62 37 63 38 64 47 66 63 67 40 68 29 69
REMARK SMILES IDX 30 70 34 71 31 72 33 73 32 74 51 75 52 76 56 77 53 78 55 79
REMARK SMILES IDX 54 80 41 81 42 82 46 83 43 84 45 85 44 86
REMARK H PARENT 12 6 3 19 5 22 69 30 17 35 61 54 39 65
REMARK Flexibility Score: inf
ROOT
ATOM      1  C   UNL     1      -1.255   8.480  -3.632  1.00  0.00     0.023 C 
ENDROOT
BRANCH   1   2
ATOM      2  C   UNL     1      -0.330   8.062  -2.493  1.00  0.00     0.116 C 
BRANCH   2   3
ATOM      3  N   UNL     1      -0.778   8.451  -1.165  1.00  0.00    -0.352 N 
ATOM      4  C   UNL     1      -0.609   7.816   0.045  1.00  0.00     0.255 C 
ATOM      5  O   UNL     1      -1.075   8.334   1.057  1.00  0.00    -0.269 OA
ATOM      6  H   UNL     1      -1.279   9.298  -1.125  1.00  0.00     0.163 HD
BRANCH   4   7
ATOM      7  C   UNL     1       0.066   6.498   0.148  1.00  0.00     0.081 A 
ATOM      8  C   UNL     1       1.038   3.846   0.249  1.00  0.00     0.129 A 
ATOM      9  C   UNL     1      -0.077   4.228   1.002  1.00  0.00     0.053 A 
ATOM     10  C   UNL     1       1.706   4.829  -0.490  1.00  0.00     0.098 A 
ATOM     11  C   UNL     1      -0.558   5.540   0.958  1.00  0.00     0.022 A 
ATOM     12  C   UNL     1       1.250   6.149  -0.504  1.00  0.00     0.132 A 
BRANCH   8  13
ATOM     13  N   UNL     1       1.450   2.513   0.137  1.00  0.00    -0.234 N 
ATOM     14  O   UNL     1      -2.296  -0.271   0.082  1.00  0.00    -0.240 OA
ATOM     15  C   UNL     1      -1.113   0.045   0.104  1.00  0.00     0.346 C 
ATOM     16  N   UNL     1      -0.641   1.334   0.173  1.00  0.00    -0.199 N 
ATOM     17  C   UNL     1      -0.001  -0.947   0.061  1.00  0.00     0.110 C 
ATOM     18  C   UNL     1       0.647   1.412   0.136  1.00  0.00     0.322 C 
ATOM     19  H   UNL     1      -1.228   2.121   0.244  1.00  0.00     0.316 HD
ATOM     20  S   UNL     1       1.501  -0.113   0.024  1.00  0.00     0.006 SA
ATOM     21  C   UNL     1      -0.209  -2.271   0.057  1.00  0.00     0.032 C 
ATOM     22  H   UNL     1       2.418   2.355   0.049  1.00  0.00     0.313 HD
BRANCH  21  23
ATOM     23  C   UNL     1       0.851  -3.283   0.061  1.00  0.00    -0.021 A 
ATOM     24  C   UNL     1       1.744  -3.383   1.129  1.00  0.00     0.028 A 
ATOM     25  C   UNL     1       0.976  -4.166  -1.010  1.00  0.00     0.028 A 
ATOM     26  C   UNL     1       2.745  -4.336   1.064  1.00  0.00     0.111 A 
ATOM     27  C   UNL     1       2.008  -5.090  -0.979  1.00  0.00     0.111 A 
ATOM     28  N   UNL     1       2.898  -5.191   0.032  1.00  0.00    -0.265 NA
ENDBRANCH  21  23
ENDBRANCH   8  13
BRANCH  12  29
ATOM     29  O   UNL     1       2.047   7.039  -1.168  1.00  0.00    -0.507 OA
ATOM     30  H   UNL     1       1.801   7.942  -1.216  1.00  0.00     0.293 HD
ENDBRANCH  12  29
ENDBRANCH   4   7
ENDBRANCH   2   3
ENDBRANCH   1   2
BRANCH   1  31
ATOM     31  C   UNL     1      -1.545   9.973  -3.760  1.00  0.00     0.023 C 
BRANCH  31  32
ATOM     32  C   UNL     1      -0.340  10.903  -3.687  1.00  0.00     0.116 C 
BRANCH  32  33
ATOM     33  N   UNL     1       0.635  10.683  -4.746  1.00  0.00    -0.352 N 
ATOM     34  C   UNL     1       1.059  11.524  -5.750  1.00  0.00     0.251 C 
ATOM     35  H   UNL     1       1.057   9.794  -4.744  1.00  0.00     0.163 HD
ATOM     36  O   UNL     1       1.819  11.111  -6.620  1.00  0.00    -0.269 OA
BRANCH  34  37
ATOM     37  C   UNL     1       0.566  12.918  -5.808  1.00  0.00     0.039 A 
ATOM     38  C   UNL     1       0.107  13.423  -7.028  1.00  0.00     0.014 A 
ATOM     39  C   UNL     1       0.526  13.714  -4.663  1.00  0.00     0.014 A 
ATOM     40  C   UNL     1      -0.482  14.689  -7.075  1.00  0.00     0.010 A 
ATOM     41  C   UNL     1      -0.150  14.930  -4.691  1.00  0.00     0.010 A 
ATOM     42  C   UNL     1      -0.666  15.431  -5.896  1.00  0.00    -0.014 A 
BRANCH  42  43
ATOM     43  C   UNL     1      -1.404  16.721  -5.899  1.00  0.00     0.031 A 
ATOM     44  C   UNL     1      -0.720  17.988  -5.459  1.00  0.00     0.074 A 
ATOM     45  C   UNL     1      -2.711  16.745  -6.228  1.00  0.00     0.049 A 
ATOM     46  N   UNL     1      -1.215  19.194  -5.336  1.00  0.00    -0.248 NA
ATOM     47  C   UNL     1       0.698  17.881  -5.080  1.00  0.00     0.031 C 
ATOM     48  C   UNL     1      -3.508  15.582  -6.628  1.00  0.00     0.029 A 
ATOM     49  N   UNL     1      -3.605  17.787  -6.271  1.00  0.00    -0.354 N 
ATOM     50  C   UNL     1      -0.178  19.979  -4.849  1.00  0.00     0.074 A 
ATOM     51  C   UNL     1       0.955  19.104  -4.644  1.00  0.00     0.031 C 
ATOM     52  C   UNL     1      -4.759  15.980  -6.908  1.00  0.00     0.029 A 
ATOM     53  C   UNL     1      -4.870  17.414  -6.660  1.00  0.00     0.049 A 
ATOM     54  H   UNL     1      -3.363  18.714  -6.045  1.00  0.00     0.167 HD
ATOM     55  C   UNL     1      -0.160  21.313  -4.613  1.00  0.00     0.031 A 
ATOM     56  C   UNL     1      -5.996  18.140  -6.792  1.00  0.00     0.031 A 
ATOM     57  C   UNL     1      -1.285  22.185  -4.821  1.00  0.00     0.049 A 
ATOM     58  C   UNL     1      -5.958  19.615  -6.502  1.00  0.00     0.074 A 
ATOM     59  C   UNL     1      -1.349  23.559  -4.668  1.00  0.00     0.029 A 
ATOM     60  N   UNL     1      -2.546  21.767  -5.218  1.00  0.00    -0.354 N 
ATOM     61  N   UNL     1      -4.947  20.356  -6.118  1.00  0.00    -0.248 NA
ATOM     62  C   UNL     1      -7.215  20.357  -6.676  1.00  0.00     0.031 C 
ATOM     63  C   UNL     1      -2.665  23.964  -4.907  1.00  0.00     0.029 A 
ATOM     64  C   UNL     1      -3.403  22.853  -5.284  1.00  0.00     0.049 A 
ATOM     65  H   UNL     1      -2.794  20.837  -5.424  1.00  0.00     0.167 HD
ATOM     66  C   UNL     1      -5.436  21.653  -6.036  1.00  0.00     0.074 A 
ATOM     67  C   UNL     1      -6.830  21.600  -6.426  1.00  0.00     0.031 C 
ATOM     68  C   UNL     1      -4.789  22.787  -5.672  1.00  0.00     0.031 A 
BRANCH  55  69
ATOM     69  C   UNL     1       1.119  21.907  -4.087  1.00  0.00    -0.014 A 
ATOM     70  C   UNL     1       2.277  21.970  -4.879  1.00  0.00     0.009 A 
ATOM     71  C   UNL     1       1.157  22.442  -2.790  1.00  0.00     0.009 A 
ATOM     72  C   UNL     1       3.457  22.516  -4.368  1.00  0.00     0.001 A 
ATOM     73  C   UNL     1       2.328  23.020  -2.294  1.00  0.00     0.001 A 
ATOM     74  C   UNL     1       3.479  23.045  -3.079  1.00  0.00     0.000 A 
ENDBRANCH  55  69
BRANCH  56  75
ATOM     75  C   UNL     1      -7.259  17.485  -7.230  1.00  0.00    -0.014 A 
ATOM     76  C   UNL     1      -7.815  17.771  -8.487  1.00  0.00     0.009 A 
ATOM     77  C   UNL     1      -7.922  16.578  -6.389  1.00  0.00     0.009 A 
ATOM     78  C   UNL     1      -9.021  17.184  -8.880  1.00  0.00     0.001 A 
ATOM     79  C   UNL     1      -9.110  15.967  -6.797  1.00  0.00     0.001 A 
ATOM     80  C   UNL     1      -9.664  16.279  -8.037  1.00  0.00     0.000 A 
ENDBRANCH  56  75
BRANCH  68  81
ATOM     81  C   UNL     1      -5.566  24.074  -5.721  1.00  0.00    -0.014 A 
ATOM     82  C   UNL     1      -6.591  24.350  -4.802  1.00  0.00     0.009 A 
ATOM     83  C   UNL     1      -5.232  25.047  -6.677  1.00  0.00     0.009 A 
ATOM     84  C   UNL     1      -7.288  25.558  -4.865  1.00  0.00     0.001 A 
ATOM     85  C   UNL     1      -5.907  26.267  -6.715  1.00  0.00     0.001 A 
ATOM     86  C   UNL     1      -6.942  26.518  -5.816  1.00  0.00     0.000 A 
ENDBRANCH  68  81
ENDBRANCH  42  43
ENDBRANCH  34  37
ENDBRANCH  32  33
ENDBRANCH  31  32
ENDBRANCH   1  31
TORSDOF 14
