REMARK SMILES O=C(NCCCCNC(=O)c1ccc(-c2c3nc(c(-c4ccccc4)c4ccc([nH]4)c(-c4ccccc4)c4nc(c(-c5ccccc5)c5ccc2[nH]5)C=C4)C=C3)cc1)C1=Cc2cc(S(F)(F)(F)(F)F)ccc2O[C@@H]1C(F)(F)F
REMARK SMILES IDX 6 1 5 2 4 3 3 4 1 5 2 6 59 8 60 9 74 10 61 11 73 12 62 13
REMARK SMILES IDX 72 14 63 15 71 16 70 17 75 18 76 19 77 20 78 21 64 22 65 23
REMARK SMILES IDX 66 24 67 25 68 26 69 27 7 28 8 29 9 30 10 32 11 33 12 34
REMARK SMILES IDX 58 35 13 36 57 37 14 38 15 39 16 40 51 41 17 42 56 43 50 44
REMARK SMILES IDX 52 45 18 46 55 47 49 48 48 49 19 51 41 52 26 53 40 54 27 55
REMARK SMILES IDX 30 56 39 57 53 58 28 59 29 60 38 62 54 63 31 64 20 65 21 66
REMARK SMILES IDX 25 67 22 68 24 69 23 70 42 71 43 72 47 73 44 74 46 75 45 76
REMARK SMILES IDX 32 77 33 78 37 79 34 80 36 81 35 82
REMARK H PARENT 3 7 8 31 52 50 30 61
REMARK Flexibility Score: inf
ROOT
ATOM      1  C   UNL     1       4.459  -3.491  -1.048  1.00  0.00     0.023 C 
ENDROOT
BRANCH   1   2
ATOM      2  C   UNL     1       4.965  -2.365  -0.162  1.00  0.00     0.023 C 
BRANCH   2   3
ATOM      3  C   UNL     1       4.459  -1.034  -0.695  1.00  0.00     0.116 C 
BRANCH   3   4
ATOM      4  N   UNL     1       2.989  -1.034  -0.695  1.00  0.00    -0.352 N 
ATOM      5  O   UNL     1       0.983  -0.034   0.092  1.00  0.00    -0.270 OA
ATOM      6  C   UNL     1       2.254  -0.034   0.092  1.00  0.00     0.251 C 
ATOM      7  H   UNL     1       2.497  -1.705  -1.222  1.00  0.00     0.163 HD
BRANCH   6   8
ATOM      8  C   UNL     1       3.014   1.001   0.906  1.00  0.00     0.067 C 
ATOM      9  C   UNL     1       4.374   1.001   0.906  1.00  0.00     0.025 C 
ATOM     10  C   UNL     1       2.254   2.035   1.720  1.00  0.00     0.314 C 
ATOM     11  C   UNL     1       5.134  -0.034   0.092  1.00  0.00     0.019 A 
ATOM     12  O   UNL     1       3.693   0.236  -1.778  1.00  0.00    -0.475 OA
ATOM     13  C   UNL     1       6.132  -0.703   0.782  1.00  0.00     0.036 A 
ATOM     14  C   UNL     1       4.824  -0.358  -1.157  1.00  0.00     0.128 A 
ATOM     15  C   UNL     1       6.949  -1.516  -0.039  1.00  0.00     0.107 A 
ATOM     16  C   UNL     1       5.587  -1.262  -1.855  1.00  0.00     0.048 A 
ATOM     17  C   UNL     1       6.626  -1.918  -1.255  1.00  0.00     0.028 A 
BRANCH  10  18
ATOM     18  C   UNL     1       2.621   3.429   1.238  1.00  0.00     0.429 C 
ATOM     19  F   UNL     1       2.300   3.552  -0.047  1.00  0.00    -0.167 F 
ATOM     20  F   UNL     1       1.956   4.335   1.950  1.00  0.00    -0.167 F 
ATOM     21  F   UNL     1       3.929   3.620   1.388  1.00  0.00    -0.167 F 
ENDBRANCH  10  18
BRANCH  15  22
ATOM     22  S   UNL     1       8.550  -2.042   0.624  1.00  0.00     0.310 S 
ATOM     23  F   UNL     1       8.002  -1.989   2.111  1.00  0.00    -0.094 F 
ATOM     24  F   UNL     1       8.958  -0.530   0.793  1.00  0.00    -0.094 F 
ATOM     25  F   UNL     1       9.914  -2.505   1.207  1.00  0.00    -0.094 F 
ATOM     26  F   UNL     1       8.069  -3.546   0.577  1.00  0.00    -0.094 F 
ATOM     27  F   UNL     1       7.117  -1.584   0.136  1.00  0.00    -0.094 F 
ENDBRANCH  15  22
ENDBRANCH   6   8
ENDBRANCH   3   4
ENDBRANCH   2   3
ENDBRANCH   1   2
BRANCH   1  28
ATOM     28  C   UNL     1       4.965  -3.287  -2.466  1.00  0.00     0.116 C 
BRANCH  28  29
ATOM     29  N   UNL     1       6.436  -3.287  -2.466  1.00  0.00    -0.352 N 
ATOM     30  C   UNL     1       7.170  -4.288  -3.253  1.00  0.00     0.251 C 
ATOM     31  H   UNL     1       6.928  -2.617  -1.939  1.00  0.00     0.163 HD
ATOM     32  O   UNL     1       8.441  -4.288  -3.253  1.00  0.00    -0.269 OA
BRANCH  30  33
ATOM     33  C   UNL     1       6.410  -5.322  -4.067  1.00  0.00     0.039 A 
ATOM     34  C   UNL     1       6.676  -6.681  -4.011  1.00  0.00     0.014 A 
ATOM     35  C   UNL     1       5.392  -4.849  -4.775  1.00  0.00     0.014 A 
ATOM     36  C   UNL     1       5.977  -7.442  -4.977  1.00  0.00     0.010 A 
ATOM     37  C   UNL     1       4.665  -5.677  -5.596  1.00  0.00     0.010 A 
ATOM     38  C   UNL     1       4.912  -7.021  -5.635  1.00  0.00    -0.014 A 
BRANCH  38  39
ATOM     39  C   UNL     1       4.010  -7.980  -6.396  1.00  0.00     0.031 A 
ATOM     40  C   UNL     1       3.908  -7.723  -7.764  1.00  0.00     0.074 A 
ATOM     41  C   UNL     1       3.297  -8.966  -5.737  1.00  0.00     0.049 A 
ATOM     42  N   UNL     1       3.163  -8.373  -8.660  1.00  0.00    -0.248 NA
ATOM     43  C   UNL     1       4.639  -6.654  -8.459  1.00  0.00     0.031 C 
ATOM     44  C   UNL     1       3.401  -9.237  -4.359  1.00  0.00     0.029 A 
ATOM     45  N   UNL     1       2.380  -9.845  -6.271  1.00  0.00    -0.354 N 
ATOM     46  C   UNL     1       3.343  -7.851  -9.875  1.00  0.00     0.074 A 
ATOM     47  C   UNL     1       4.290  -6.733  -9.762  1.00  0.00     0.031 C 
ATOM     48  C   UNL     1       2.551 -10.255  -4.063  1.00  0.00     0.029 A 
ATOM     49  C   UNL     1       1.902 -10.640  -5.252  1.00  0.00     0.049 A 
ATOM     50  H   UNL     1       2.112  -9.897  -7.217  1.00  0.00     0.167 HD
ATOM     51  C   UNL     1       2.756  -8.264 -11.072  1.00  0.00     0.031 A 
ATOM     52  C   UNL     1       0.953 -11.646  -5.335  1.00  0.00     0.031 A 
ATOM     53  C   UNL     1       1.839  -9.299 -11.161  1.00  0.00     0.049 A 
ATOM     54  C   UNL     1       0.322 -12.021  -6.523  1.00  0.00     0.074 A 
ATOM     55  C   UNL     1       1.244  -9.733 -12.361  1.00  0.00     0.029 A 
ATOM     56  N   UNL     1       1.343 -10.077 -10.139  1.00  0.00    -0.354 N 
ATOM     57  N   UNL     1       0.531 -11.524  -7.743  1.00  0.00    -0.248 NA
ATOM     58  C   UNL     1      -0.709 -13.063  -6.617  1.00  0.00     0.031 C 
ATOM     59  C   UNL     1       0.393 -10.752 -12.066  1.00  0.00     0.029 A 
ATOM     60  C   UNL     1       0.443 -10.971 -10.676  1.00  0.00     0.049 A 
ATOM     61  H   UNL     1       1.589 -10.006  -9.188  1.00  0.00     0.167 HD
ATOM     62  C   UNL     1      -0.245 -12.148  -8.632  1.00  0.00     0.074 A 
ATOM     63  C   UNL     1      -1.059 -13.142  -7.919  1.00  0.00     0.031 C 
ATOM     64  C   UNL     1      -0.304 -11.930 -10.010  1.00  0.00     0.031 A 
BRANCH  51  65
ATOM     65  C   UNL     1       3.144  -7.537 -12.349  1.00  0.00    -0.014 A 
ATOM     66  C   UNL     1       4.422  -7.615 -12.879  1.00  0.00     0.009 A 
ATOM     67  C   UNL     1       2.160  -6.938 -13.009  1.00  0.00     0.009 A 
ATOM     68  C   UNL     1       4.632  -6.771 -13.995  1.00  0.00     0.001 A 
ATOM     69  C   UNL     1       2.416  -6.244 -14.167  1.00  0.00     0.001 A 
ATOM     70  C   UNL     1       3.668  -6.229 -14.716  1.00  0.00     0.000 A 
ENDBRANCH  51  65
BRANCH  52  71
ATOM     71  C   UNL     1       0.577 -12.383  -4.060  1.00  0.00    -0.014 A 
ATOM     72  C   UNL     1       0.625 -13.767  -4.030  1.00  0.00     0.009 A 
ATOM     73  C   UNL     1       0.065 -11.690  -3.050  1.00  0.00     0.009 A 
ATOM     74  C   UNL     1      -0.162 -14.346  -3.006  1.00  0.00     0.001 A 
ATOM     75  C   UNL     1      -0.572 -12.329  -2.014  1.00  0.00     0.001 A 
ATOM     76  C   UNL     1      -0.614 -13.694  -1.950  1.00  0.00     0.000 A 
ENDBRANCH  52  71
BRANCH  64  77
ATOM     77  C   UNL     1      -1.245 -12.798 -10.830  1.00  0.00    -0.014 A 
ATOM     78  C   UNL     1      -2.618 -12.770 -10.654  1.00  0.00     0.009 A 
ATOM     79  C   UNL     1      -0.688 -13.535 -11.783  1.00  0.00     0.009 A 
ATOM     80  C   UNL     1      -3.307 -13.787 -11.355  1.00  0.00     0.001 A 
ATOM     81  C   UNL     1      -1.445 -14.411 -12.523  1.00  0.00     0.001 A 
ATOM     82  C   UNL     1      -2.801 -14.479 -12.360  1.00  0.00     0.000 A 
ENDBRANCH  64  77
ENDBRANCH  38  39
ENDBRANCH  30  33
ENDBRANCH  28  29
ENDBRANCH   1  28
TORSDOF 13
