REMARK SMILES COc1cc(Cl)c2c(c1)C=C(C(=O)NCCCCNC(=O)c1ccc(-c3c4nc(c(-c5ccccc5)c5ccc([nH]5)c(-c5ccccc5)c5nc(c(-c6ccccc6)c6ccc3[nH]6)C=C5)C=C4)cc1)[C@@H](C(F)(F)F)O2
REMARK SMILES IDX 17 1 16 2 15 3 14 4 12 5 13 6 11 8 3 9 4 10 9 11 5 12 8 13
REMARK SMILES IDX 6 14 7 15 10 16 75 17 70 18 2 19 1 20 71 21 72 22 73 23
REMARK SMILES IDX 74 24 18 25 19 26 20 27 21 29 22 30 23 31 69 32 24 33 68 34
REMARK SMILES IDX 25 35 26 36 27 37 62 38 28 39 67 40 61 41 63 42 29 43 66 44
REMARK SMILES IDX 60 45 59 46 30 48 52 49 37 50 51 51 38 52 41 53 50 54 64 55
REMARK SMILES IDX 39 56 40 57 49 59 65 60 42 61 31 62 32 63 36 64 33 65 35 66
REMARK SMILES IDX 34 67 53 68 54 69 58 70 55 71 57 72 56 73 43 74 44 75 48 76
REMARK SMILES IDX 45 77 47 78 46 79
REMARK H PARENT 14 7 19 28 63 47 41 58
REMARK Flexibility Score: inf
ROOT
ATOM      1  C   UNL     1       0.601   9.023   8.188  1.00  0.00     0.023 C 
ENDROOT
BRANCH   1   2
ATOM      2  C   UNL     1       1.212   7.825   7.457  1.00  0.00     0.023 C 
BRANCH   2   3
ATOM      3  C   UNL     1       0.514   6.499   7.744  1.00  0.00     0.116 C 
BRANCH   3   4
ATOM      4  N   UNL     1      -0.640   6.300   6.887  1.00  0.00    -0.352 N 
ATOM      5  C   UNL     1      -0.927   5.596   5.767  1.00  0.00     0.251 C 
ATOM      6  O   UNL     1      -2.078   5.740   5.341  1.00  0.00    -0.270 OA
ATOM      7  H   UNL     1      -1.420   6.810   7.205  1.00  0.00     0.163 HD
BRANCH   5   8
ATOM      8  C   UNL     1       0.018   4.693   5.047  1.00  0.00     0.067 C 
ATOM      9  C   UNL     1       0.717   1.655   1.342  1.00  0.00     0.121 A 
ATOM     10  C   UNL     1       2.053   1.499   1.708  1.00  0.00     0.070 A 
ATOM     11  C   UNL     1      -0.093   2.553   2.045  1.00  0.00     0.058 A 
ATOM     12  C   UNL     1       2.566   2.222   2.788  1.00  0.00     0.087 A 
ATOM     13  C   UNL     1       0.413   3.266   3.137  1.00  0.00     0.022 A 
ATOM     14  Cl  UNL     1       4.226   2.002   3.212  1.00  0.00    -0.080 Cl
ATOM     15  C   UNL     1       1.745   3.092   3.513  1.00  0.00     0.146 A 
ATOM     16  C   UNL     1      -0.426   4.204   3.874  1.00  0.00     0.025 C 
ATOM     17  O   UNL     1       2.289   3.795   4.553  1.00  0.00    -0.474 OA
ATOM     18  C   UNL     1       1.363   4.271   5.568  1.00  0.00     0.314 C 
BRANCH   9  19
ATOM     19  O   UNL     1       0.097   1.010   0.308  1.00  0.00    -0.497 OA
ATOM     20  C   UNL     1       0.735  -0.166  -0.177  1.00  0.00     0.278 C 
ENDBRANCH   9  19
BRANCH  18  21
ATOM     21  C   UNL     1       1.264   3.231   6.700  1.00  0.00     0.429 C 
ATOM     22  F   UNL     1       2.449   3.119   7.350  1.00  0.00    -0.167 F 
ATOM     23  F   UNL     1       0.346   3.571   7.637  1.00  0.00    -0.167 F 
ATOM     24  F   UNL     1       0.928   2.002   6.249  1.00  0.00    -0.167 F 
ENDBRANCH  18  21
ENDBRANCH   5   8
ENDBRANCH   3   4
ENDBRANCH   2   3
ENDBRANCH   1   2
BRANCH   1  25
ATOM     25  C   UNL     1       0.532   8.895   9.709  1.00  0.00     0.116 C 
BRANCH  25  26
ATOM     26  N   UNL     1       1.806   8.562  10.330  1.00  0.00    -0.352 N 
ATOM     27  C   UNL     1       2.233   8.903  11.591  1.00  0.00     0.251 C 
ATOM     28  H   UNL     1       2.432   8.032   9.785  1.00  0.00     0.163 HD
ATOM     29  O   UNL     1       3.351   8.604  11.993  1.00  0.00    -0.269 OA
BRANCH  27  30
ATOM     30  C   UNL     1       1.318   9.687  12.435  1.00  0.00     0.039 A 
ATOM     31  C   UNL     1       1.666  10.999  12.757  1.00  0.00     0.014 A 
ATOM     32  C   UNL     1       0.074   9.156  12.790  1.00  0.00     0.014 A 
ATOM     33  C   UNL     1       0.726  11.816  13.380  1.00  0.00     0.010 A 
ATOM     34  C   UNL     1      -0.875   9.986  13.378  1.00  0.00     0.010 A 
ATOM     35  C   UNL     1      -0.560  11.324  13.659  1.00  0.00    -0.014 A 
BRANCH  35  36
ATOM     36  C   UNL     1      -1.597  12.213  14.228  1.00  0.00     0.031 A 
ATOM     37  C   UNL     1      -2.028  12.044  15.652  1.00  0.00     0.074 A 
ATOM     38  C   UNL     1      -2.171  13.146  13.445  1.00  0.00     0.049 A 
ATOM     39  N   UNL     1      -2.936  12.709  16.318  1.00  0.00    -0.248 NA
ATOM     40  C   UNL     1      -1.365  10.982  16.426  1.00  0.00     0.031 C 
ATOM     41  C   UNL     1      -1.853  13.384  12.035  1.00  0.00     0.029 A 
ATOM     42  N   UNL     1      -3.144  14.071  13.729  1.00  0.00    -0.354 N 
ATOM     43  C   UNL     1      -2.954  12.148  17.586  1.00  0.00     0.074 A 
ATOM     44  C   UNL     1      -1.995  11.065  17.589  1.00  0.00     0.031 C 
ATOM     45  C   UNL     1      -2.599  14.407  11.585  1.00  0.00     0.029 A 
ATOM     46  C   UNL     1      -3.459  14.881  12.666  1.00  0.00     0.049 A 
ATOM     47  H   UNL     1      -3.575  14.147  14.611  1.00  0.00     0.167 HD
ATOM     48  C   UNL     1      -3.690  12.517  18.658  1.00  0.00     0.031 A 
ATOM     49  C   UNL     1      -4.338  15.896  12.575  1.00  0.00     0.031 A 
ATOM     50  C   UNL     1      -4.633  13.599  18.662  1.00  0.00     0.049 A 
ATOM     51  C   UNL     1      -5.143  16.286  13.780  1.00  0.00     0.074 A 
ATOM     52  C   UNL     1      -5.411  14.058  19.710  1.00  0.00     0.029 A 
ATOM     53  N   UNL     1      -4.920  14.396  17.566  1.00  0.00    -0.354 N 
ATOM     54  N   UNL     1      -5.130  15.761  14.980  1.00  0.00    -0.248 NA
ATOM     55  C   UNL     1      -6.077  17.411  13.623  1.00  0.00     0.031 C 
ATOM     56  C   UNL     1      -6.182  15.126  19.243  1.00  0.00     0.029 A 
ATOM     57  C   UNL     1      -5.863  15.345  17.912  1.00  0.00     0.049 A 
ATOM     58  H   UNL     1      -4.513  14.300  16.674  1.00  0.00     0.167 HD
ATOM     59  C   UNL     1      -6.038  16.500  15.726  1.00  0.00     0.074 A 
ATOM     60  C   UNL     1      -6.582  17.513  14.846  1.00  0.00     0.031 C 
ATOM     61  C   UNL     1      -6.385  16.350  17.025  1.00  0.00     0.031 A 
BRANCH  48  62
ATOM     62  C   UNL     1      -3.488  11.750  19.929  1.00  0.00    -0.014 A 
ATOM     63  C   UNL     1      -2.368  11.996  20.737  1.00  0.00     0.009 A 
ATOM     64  C   UNL     1      -4.448  10.819  20.350  1.00  0.00     0.009 A 
ATOM     65  C   UNL     1      -2.204  11.309  21.940  1.00  0.00     0.001 A 
ATOM     66  C   UNL     1      -4.289  10.145  21.561  1.00  0.00     0.001 A 
ATOM     67  C   UNL     1      -3.166  10.388  22.353  1.00  0.00     0.000 A 
ENDBRANCH  48  62
BRANCH  49  68
ATOM     68  C   UNL     1      -4.471  16.638  11.298  1.00  0.00    -0.014 A 
ATOM     69  C   UNL     1      -3.857  17.890  11.142  1.00  0.00     0.009 A 
ATOM     70  C   UNL     1      -5.186  16.089  10.223  1.00  0.00     0.009 A 
ATOM     71  C   UNL     1      -3.966  18.584   9.935  1.00  0.00     0.001 A 
ATOM     72  C   UNL     1      -5.280  16.779   9.012  1.00  0.00     0.001 A 
ATOM     73  C   UNL     1      -4.673  18.026   8.870  1.00  0.00     0.000 A 
ENDBRANCH  49  68
BRANCH  61  74
ATOM     74  C   UNL     1      -7.384  17.309  17.596  1.00  0.00    -0.014 A 
ATOM     75  C   UNL     1      -8.758  17.109  17.404  1.00  0.00     0.009 A 
ATOM     76  C   UNL     1      -6.949  18.352  18.428  1.00  0.00     0.009 A 
ATOM     77  C   UNL     1      -9.682  17.941  18.039  1.00  0.00     0.001 A 
ATOM     78  C   UNL     1      -7.876  19.173  19.070  1.00  0.00     0.001 A 
ATOM     79  C   UNL     1      -9.241  18.966  18.876  1.00  0.00     0.000 A 
ENDBRANCH  61  74
ENDBRANCH  35  36
ENDBRANCH  27  30
ENDBRANCH  25  26
ENDBRANCH   1  25
TORSDOF 13
