REMARK SMILES CS(=O)(=O)c1ccc(N2N=C(C(=O)NCCCCNC(=O)c3ccc(-c4c5nc(c(-c6ccccc6)c6ccc([nH]6)c(-c6ccccc6)c6nc(c(-c7ccccc7)c7ccc4[nH]7)C=C6)C=C5)cc3)C[C@H]2c2ccco2)cc1
REMARK SMILES IDX 16 1 15 2 14 3 12 4 13 5 11 7 9 8 10 9 71 10 70 11 8 12 5 13
REMARK SMILES IDX 6 14 78 15 7 16 77 17 2 18 1 19 3 20 4 21 72 22 73 23 76 24
REMARK SMILES IDX 74 25 75 26 17 27 18 28 19 29 20 30 21 32 22 33 23 34 69 35
REMARK SMILES IDX 24 36 68 37 25 38 26 39 27 40 62 41 28 42 67 43 61 44 63 45
REMARK SMILES IDX 29 46 66 47 60 48 59 49 30 51 52 52 37 53 51 54 38 55 41 56
REMARK SMILES IDX 50 57 64 58 39 59 40 60 49 62 65 63 42 64 31 65 32 66 36 67
REMARK SMILES IDX 33 68 35 69 34 70 53 71 54 72 58 73 55 74 57 75 56 76 43 77
REMARK SMILES IDX 44 78 48 79 45 80 47 81 46 82
REMARK H PARENT 14 6 19 31 63 50 41 61
REMARK Flexibility Score: inf
ROOT
ATOM      1  C   UNL     1       0.925  -8.706   8.720  1.00  0.00     0.023 C 
ENDROOT
BRANCH   1   2
ATOM      2  C   UNL     1       2.023  -7.648   8.774  1.00  0.00     0.116 C 
BRANCH   2   3
ATOM      3  N   UNL     1       2.817  -7.650   7.561  1.00  0.00    -0.351 N 
ATOM      4  C   UNL     1       2.972  -6.781   6.509  1.00  0.00     0.267 C 
ATOM      5  O   UNL     1       3.679  -7.149   5.573  1.00  0.00    -0.268 OA
ATOM      6  H   UNL     1       3.372  -8.459   7.471  1.00  0.00     0.163 HD
BRANCH   4   7
ATOM      7  C   UNL     1       2.354  -5.391   6.450  1.00  0.00     0.128 C 
ATOM      8  N   UNL     1       2.034  -3.380   5.774  1.00  0.00    -0.254 N 
ATOM      9  N   UNL     1       2.619  -4.578   5.471  1.00  0.00    -0.171 NA
ATOM     10  C   UNL     1       1.133  -3.464   6.935  1.00  0.00     0.180 C 
ATOM     11  C   UNL     1       1.439  -4.856   7.491  1.00  0.00     0.099 C 
BRANCH   8  12
ATOM     12  C   UNL     1       1.709  -2.498   4.738  1.00  0.00     0.060 A 
ATOM     13  C   UNL     1       0.914  -0.682   2.751  1.00  0.00     0.067 A 
ATOM     14  C   UNL     1       0.734  -2.052   2.548  1.00  0.00     0.022 A 
ATOM     15  C   UNL     1       1.512  -0.210   3.919  1.00  0.00     0.022 A 
ATOM     16  C   UNL     1       1.148  -2.953   3.534  1.00  0.00     0.029 A 
ATOM     17  C   UNL     1       1.907  -1.121   4.901  1.00  0.00     0.029 A 
BRANCH  13  18
ATOM     18  S   UNL     1       0.344   0.473   1.529  1.00  0.00     0.175 S 
ATOM     19  C   UNL     1       1.177   0.001   0.039  1.00  0.00     0.163 C 
ATOM     20  O   UNL     1       0.836   1.787   1.903  1.00  0.00    -0.224 OA
ATOM     21  O   UNL     1      -1.076   0.231   1.358  1.00  0.00    -0.224 OA
ENDBRANCH  13  18
ENDBRANCH   8  12
BRANCH  10  22
ATOM     22  C   UNL     1       1.233  -2.393   7.984  1.00  0.00     0.128 A 
ATOM     23  C   UNL     1       0.672  -1.134   8.096  1.00  0.00     0.048 A 
ATOM     24  O   UNL     1       1.979  -2.654   9.101  1.00  0.00    -0.467 OA
ATOM     25  C   UNL     1       1.108  -0.603   9.334  1.00  0.00     0.042 A 
ATOM     26  C   UNL     1       1.890  -1.572   9.912  1.00  0.00     0.195 A 
ENDBRANCH  10  22
ENDBRANCH   4   7
ENDBRANCH   2   3
ENDBRANCH   1   2
BRANCH   1  27
ATOM     27  C   UNL     1       1.420 -10.137   8.936  1.00  0.00     0.023 C 
BRANCH  27  28
ATOM     28  C   UNL     1       2.180 -10.373  10.238  1.00  0.00     0.116 C 
BRANCH  28  29
ATOM     29  N   UNL     1       1.446  -9.956  11.423  1.00  0.00    -0.352 N 
ATOM     30  C   UNL     1       1.369 -10.573  12.649  1.00  0.00     0.251 C 
ATOM     31  H   UNL     1       0.935  -9.118  11.335  1.00  0.00     0.163 HD
ATOM     32  O   UNL     1       0.622 -10.138  13.519  1.00  0.00    -0.269 OA
BRANCH  30  33
ATOM     33  C   UNL     1       2.166 -11.790  12.894  1.00  0.00     0.039 A 
ATOM     34  C   UNL     1       1.527 -12.922  13.404  1.00  0.00     0.014 A 
ATOM     35  C   UNL     1       3.526 -11.825  12.575  1.00  0.00     0.014 A 
ATOM     36  C   UNL     1       2.237 -14.117  13.523  1.00  0.00     0.010 A 
ATOM     37  C   UNL     1       4.213 -13.033  12.628  1.00  0.00     0.010 A 
ATOM     38  C   UNL     1       3.574 -14.191  13.098  1.00  0.00    -0.014 A 
BRANCH  38  39
ATOM     39  C   UNL     1       4.318 -15.473  13.120  1.00  0.00     0.031 A 
ATOM     40  C   UNL     1       5.522 -15.633  14.004  1.00  0.00     0.074 A 
ATOM     41  C   UNL     1       3.960 -16.465  12.281  1.00  0.00     0.049 A 
ATOM     42  N   UNL     1       6.340 -16.649  14.109  1.00  0.00    -0.248 NA
ATOM     43  C   UNL     1       5.869 -14.488  14.861  1.00  0.00     0.031 C 
ATOM     44  C   UNL     1       2.844 -16.415  11.334  1.00  0.00     0.029 A 
ATOM     45  N   UNL     1       4.510 -17.706  12.082  1.00  0.00    -0.354 N 
ATOM     46  C   UNL     1       7.310 -16.257  15.021  1.00  0.00     0.074 A 
ATOM     47  C   UNL     1       7.005 -14.896  15.406  1.00  0.00     0.031 C 
ATOM     48  C   UNL     1       2.778 -17.581  10.671  1.00  0.00     0.029 A 
ATOM     49  C   UNL     1       3.865 -18.445  11.120  1.00  0.00     0.049 A 
ATOM     50  H   UNL     1       5.291 -18.036  12.581  1.00  0.00     0.167 HD
ATOM     51  C   UNL     1       8.353 -16.971  15.509  1.00  0.00     0.031 A 
ATOM     52  C   UNL     1       4.122 -19.679  10.649  1.00  0.00     0.031 A 
ATOM     53  C   UNL     1       8.646 -18.329  15.140  1.00  0.00     0.049 A 
ATOM     54  C   UNL     1       5.275 -20.458  11.215  1.00  0.00     0.074 A 
ATOM     55  C   UNL     1       9.634 -19.163  15.633  1.00  0.00     0.029 A 
ATOM     56  N   UNL     1       7.952 -19.052  14.182  1.00  0.00    -0.354 N 
ATOM     57  N   UNL     1       6.137 -20.103  12.136  1.00  0.00    -0.248 NA
ATOM     58  C   UNL     1       5.482 -21.813  10.684  1.00  0.00     0.031 C 
ATOM     59  C   UNL     1       9.567 -20.377  14.941  1.00  0.00     0.029 A 
ATOM     60  C   UNL     1       8.505 -20.315  14.052  1.00  0.00     0.049 A 
ATOM     61  H   UNL     1       7.181 -18.718  13.669  1.00  0.00     0.167 HD
ATOM     62  C   UNL     1       6.974 -21.197  12.313  1.00  0.00     0.074 A 
ATOM     63  C   UNL     1       6.507 -22.232  11.414  1.00  0.00     0.031 C 
ATOM     64  C   UNL     1       8.032 -21.332  13.149  1.00  0.00     0.031 A 
BRANCH  51  65
ATOM     65  C   UNL     1       9.258 -16.281  16.490  1.00  0.00    -0.014 A 
ATOM     66  C   UNL     1       8.824 -15.973  17.790  1.00  0.00     0.009 A 
ATOM     67  C   UNL     1      10.568 -15.948  16.115  1.00  0.00     0.009 A 
ATOM     68  C   UNL     1       9.669 -15.306  18.678  1.00  0.00     0.001 A 
ATOM     69  C   UNL     1      11.421 -15.307  17.015  1.00  0.00     0.001 A 
ATOM     70  C   UNL     1      10.968 -14.976  18.292  1.00  0.00     0.000 A 
ENDBRANCH  51  65
BRANCH  52  71
ATOM     71  C   UNL     1       3.252 -20.263   9.597  1.00  0.00    -0.014 A 
ATOM     72  C   UNL     1       2.342 -21.283   9.914  1.00  0.00     0.009 A 
ATOM     73  C   UNL     1       3.315 -19.795   8.275  1.00  0.00     0.009 A 
ATOM     74  C   UNL     1       1.527 -21.836   8.924  1.00  0.00     0.001 A 
ATOM     75  C   UNL     1       2.480 -20.333   7.293  1.00  0.00     0.001 A 
ATOM     76  C   UNL     1       1.593 -21.357   7.617  1.00  0.00     0.000 A 
ENDBRANCH  52  71
BRANCH  64  77
ATOM     77  C   UNL     1       8.741 -22.655  13.149  1.00  0.00    -0.014 A 
ATOM     78  C   UNL     1       9.578 -23.032  12.088  1.00  0.00     0.009 A 
ATOM     79  C   UNL     1       8.603 -23.517  14.248  1.00  0.00     0.009 A 
ATOM     80  C   UNL     1      10.241 -24.261  12.115  1.00  0.00     0.001 A 
ATOM     81  C   UNL     1       9.286 -24.733  14.285  1.00  0.00     0.001 A 
ATOM     82  C   UNL     1      10.098 -25.107  13.215  1.00  0.00     0.000 A 
ENDBRANCH  64  77
ENDBRANCH  38  39
ENDBRANCH  30  33
ENDBRANCH  28  29
ENDBRANCH  27  28
ENDBRANCH   1  27
TORSDOF 14
