REMARK SMILES COc1cccc([C@H](CC(=O)NCCCCNC(=O)c2ccc(-c3c4nc(c(-c5ccccc5)c5ccc([nH]5)c(-c5ccccc5)c5nc(c(-c6ccccc6)c6ccc3[nH]6)C=C5)C=C4)cc2)NS(=O)(=O)c2ccc3c(c2)C[C@@H](C)N3C(C)=O)c1
REMARK SMILES IDX 13 1 12 2 10 3 11 4 9 6 8 7 7 8 3 9 4 10 85 11 5 12 6 13
REMARK SMILES IDX 2 14 1 15 68 16 69 18 70 19 71 20 72 21 73 22 77 23 74 24
REMARK SMILES IDX 76 25 75 26 78 27 81 28 79 29 80 30 82 31 83 32 84 33 14 34
REMARK SMILES IDX 15 35 16 36 17 37 18 38 19 40 20 41 21 42 67 43 22 44 66 45
REMARK SMILES IDX 23 46 24 47 25 48 60 49 26 50 65 51 59 52 61 53 27 54 64 55
REMARK SMILES IDX 58 56 57 57 28 59 50 60 35 61 49 62 36 63 39 64 48 65 62 66
REMARK SMILES IDX 37 67 38 68 47 70 63 71 40 72 29 73 30 74 34 75 31 76 33 77
REMARK SMILES IDX 32 78 51 79 52 80 56 81 53 82 55 83 54 84 41 85 42 86 46 87
REMARK SMILES IDX 43 88 45 89 44 90
REMARK H PARENT 12 5 68 17 17 39 61 58 39 69
REMARK Flexibility Score: inf
ROOT
ATOM      1  C   UNL     1       3.447   1.454  -1.953  1.00  0.00     0.116 C 
ENDROOT
BRANCH   1   2
ATOM      2  N   UNL     1       2.716   1.512  -0.701  1.00  0.00    -0.356 N 
ATOM      3  C   UNL     1       2.289   2.608  -0.008  1.00  0.00     0.221 C 
ATOM      4  O   UNL     1       1.746   2.449   1.084  1.00  0.00    -0.275 OA
ATOM      5  H   UNL     1       2.498   0.642  -0.295  1.00  0.00     0.163 HD
BRANCH   3   6
ATOM      6  C   UNL     1       2.484   3.985  -0.596  1.00  0.00     0.124 C 
BRANCH   6   7
ATOM      7  C   UNL     1       3.942   4.451  -0.465  1.00  0.00     0.109 C 
BRANCH   7   8
ATOM      8  C   UNL     1       4.301   5.324  -1.649  1.00  0.00    -0.026 A 
ATOM      9  C   UNL     1       4.141   7.403  -2.880  1.00  0.00     0.119 A 
ATOM     10  C   UNL     1       4.980   6.897  -3.870  1.00  0.00     0.046 A 
ATOM     11  C   UNL     1       3.769   6.612  -1.793  1.00  0.00     0.051 A 
ATOM     12  C   UNL     1       5.512   5.618  -3.741  1.00  0.00     0.004 A 
ATOM     13  C   UNL     1       5.187   4.843  -2.630  1.00  0.00     0.005 A 
BRANCH   9  14
ATOM     14  O   UNL     1       3.684   8.682  -3.047  1.00  0.00    -0.497 OA
ATOM     15  C   UNL     1       3.952   9.492  -1.901  1.00  0.00     0.278 C 
ENDBRANCH   9  14
ENDBRANCH   7   8
BRANCH   7  16
ATOM     16  N   UNL     1       4.143   5.067   0.849  1.00  0.00    -0.203 NA
ATOM     17  H   UNL     1       3.911   4.344   1.530  1.00  0.00     0.142 HD
BRANCH  16  18
ATOM     18  S   UNL     1       5.579   5.725   1.364  1.00  0.00     0.241 S 
ATOM     19  O   UNL     1       6.238   6.401   0.271  1.00  0.00    -0.207 OA
ATOM     20  O   UNL     1       5.245   6.428   2.584  1.00  0.00    -0.207 OA
BRANCH  18  21
ATOM     21  C   UNL     1       6.639   4.389   1.850  1.00  0.00     0.082 A 
ATOM     22  C   UNL     1       6.300   3.029   1.718  1.00  0.00     0.024 A 
ATOM     23  C   UNL     1       7.847   4.781   2.437  1.00  0.00     0.027 A 
ATOM     24  C   UNL     1       7.193   2.033   2.139  1.00  0.00     0.028 A 
ATOM     25  C   UNL     1       8.665   3.794   2.935  1.00  0.00    -0.021 A 
ATOM     26  C   UNL     1       8.348   2.438   2.776  1.00  0.00     0.047 A 
ATOM     27  C   UNL     1       9.973   3.955   3.653  1.00  0.00     0.063 C 
ATOM     28  N   UNL     1       9.380   1.677   3.354  1.00  0.00    -0.309 N 
ATOM     29  C   UNL     1      10.059   2.576   4.324  1.00  0.00     0.092 C 
ATOM     30  C   UNL     1       9.286   2.578   5.663  1.00  0.00     0.032 C 
BRANCH  28  31
ATOM     31  C   UNL     1       9.846   0.506   2.789  1.00  0.00     0.224 C 
ATOM     32  C   UNL     1      11.354   0.381   2.779  1.00  0.00     0.115 C 
ATOM     33  O   UNL     1       9.149  -0.309   2.186  1.00  0.00    -0.275 OA
ENDBRANCH  28  31
ENDBRANCH  18  21
ENDBRANCH  16  18
ENDBRANCH   7  16
ENDBRANCH   6   7
ENDBRANCH   3   6
ENDBRANCH   1   2
BRANCH   1  34
ATOM     34  C   UNL     1       4.917   1.099  -1.723  1.00  0.00     0.023 C 
BRANCH  34  35
ATOM     35  C   UNL     1       5.166  -0.360  -1.350  1.00  0.00     0.023 C 
BRANCH  35  36
ATOM     36  C   UNL     1       4.778  -1.358  -2.430  1.00  0.00     0.116 C 
BRANCH  36  37
ATOM     37  N   UNL     1       5.470  -1.134  -3.690  1.00  0.00    -0.352 N 
ATOM     38  C   UNL     1       5.938  -2.065  -4.584  1.00  0.00     0.251 C 
ATOM     39  H   UNL     1       5.624  -0.192  -3.933  1.00  0.00     0.163 HD
ATOM     40  O   UNL     1       6.607  -1.720  -5.552  1.00  0.00    -0.269 OA
BRANCH  38  41
ATOM     41  C   UNL     1       5.655  -3.493  -4.344  1.00  0.00     0.039 A 
ATOM     42  C   UNL     1       6.711  -4.405  -4.392  1.00  0.00     0.014 A 
ATOM     43  C   UNL     1       4.362  -3.916  -4.026  1.00  0.00     0.014 A 
ATOM     44  C   UNL     1       6.481  -5.739  -4.053  1.00  0.00     0.010 A 
ATOM     45  C   UNL     1       4.149  -5.228  -3.619  1.00  0.00     0.010 A 
ATOM     46  C   UNL     1       5.207  -6.150  -3.630  1.00  0.00    -0.014 A 
BRANCH  46  47
ATOM     47  C   UNL     1       4.956  -7.543  -3.189  1.00  0.00     0.031 A 
ATOM     48  C   UNL     1       4.019  -8.420  -3.971  1.00  0.00     0.074 A 
ATOM     49  C   UNL     1       5.511  -7.990  -2.047  1.00  0.00     0.049 A 
ATOM     50  N   UNL     1       3.616  -9.636  -3.707  1.00  0.00    -0.248 NA
ATOM     51  C   UNL     1       3.439  -7.845  -5.196  1.00  0.00     0.031 C 
ATOM     52  C   UNL     1       6.401  -7.219  -1.175  1.00  0.00     0.029 A 
ATOM     53  N   UNL     1       5.400  -9.204  -1.419  1.00  0.00    -0.354 N 
ATOM     54  C   UNL     1       2.719  -9.961  -4.716  1.00  0.00     0.074 A 
ATOM     55  C   UNL     1       2.604  -8.802  -5.573  1.00  0.00     0.031 C 
ATOM     56  C   UNL     1       6.776  -7.989  -0.140  1.00  0.00     0.029 A 
ATOM     57  C   UNL     1       6.126  -9.290  -0.255  1.00  0.00     0.049 A 
ATOM     58  H   UNL     1       4.853  -9.944  -1.768  1.00  0.00     0.167 HD
ATOM     59  C   UNL     1       2.063 -11.127  -4.921  1.00  0.00     0.031 A 
ATOM     60  C   UNL     1       6.249 -10.303   0.622  1.00  0.00     0.031 A 
ATOM     61  C   UNL     1       2.196 -12.288  -4.083  1.00  0.00     0.049 A 
ATOM     62  C   UNL     1       5.517 -11.590   0.365  1.00  0.00     0.074 A 
ATOM     63  C   UNL     1       1.623 -13.537  -4.245  1.00  0.00     0.029 A 
ATOM     64  N   UNL     1       2.956 -12.341  -2.927  1.00  0.00    -0.354 N 
ATOM     65  N   UNL     1       4.725 -11.904  -0.630  1.00  0.00    -0.248 NA
ATOM     66  C   UNL     1       5.706 -12.664   1.350  1.00  0.00     0.031 C 
ATOM     67  C   UNL     1       2.009 -14.336  -3.164  1.00  0.00     0.029 A 
ATOM     68  C   UNL     1       2.855 -13.597  -2.354  1.00  0.00     0.049 A 
ATOM     69  H   UNL     1       3.490 -11.596  -2.566  1.00  0.00     0.167 HD
ATOM     70  C   UNL     1       4.342 -13.220  -0.407  1.00  0.00     0.074 A 
ATOM     71  C   UNL     1       4.999 -13.648   0.811  1.00  0.00     0.031 C 
ATOM     72  C   UNL     1       3.519 -14.004  -1.144  1.00  0.00     0.031 A 
BRANCH  59  73
ATOM     73  C   UNL     1       1.140 -11.201  -6.104  1.00  0.00    -0.014 A 
ATOM     74  C   UNL     1       1.642 -11.255  -7.414  1.00  0.00     0.009 A 
ATOM     75  C   UNL     1      -0.248 -11.251  -5.904  1.00  0.00     0.009 A 
ATOM     76  C   UNL     1       0.770 -11.323  -8.502  1.00  0.00     0.001 A 
ATOM     77  C   UNL     1      -1.116 -11.345  -6.993  1.00  0.00     0.001 A 
ATOM     78  C   UNL     1      -0.607 -11.373  -8.291  1.00  0.00     0.000 A 
ENDBRANCH  59  73
BRANCH  60  79
ATOM     79  C   UNL     1       7.120 -10.153   1.816  1.00  0.00    -0.014 A 
ATOM     80  C   UNL     1       8.344 -10.834   1.889  1.00  0.00     0.009 A 
ATOM     81  C   UNL     1       6.729  -9.338   2.889  1.00  0.00     0.009 A 
ATOM     82  C   UNL     1       9.148 -10.724   3.025  1.00  0.00     0.001 A 
ATOM     83  C   UNL     1       7.548  -9.210   4.013  1.00  0.00     0.001 A 
ATOM     84  C   UNL     1       8.751  -9.909   4.085  1.00  0.00     0.000 A 
ENDBRANCH  60  79
BRANCH  72  85
ATOM     85  C   UNL     1       3.314 -15.414  -0.672  1.00  0.00    -0.014 A 
ATOM     86  C   UNL     1       2.507 -15.697   0.440  1.00  0.00     0.009 A 
ATOM     87  C   UNL     1       3.905 -16.474  -1.377  1.00  0.00     0.009 A 
ATOM     88  C   UNL     1       2.320 -17.017   0.856  1.00  0.00     0.001 A 
ATOM     89  C   UNL     1       3.696 -17.793  -0.973  1.00  0.00     0.001 A 
ATOM     90  C   UNL     1       2.910 -18.063   0.147  1.00  0.00     0.000 A 
ENDBRANCH  72  85
ENDBRANCH  46  47
ENDBRANCH  38  41
ENDBRANCH  36  37
ENDBRANCH  35  36
ENDBRANCH  34  35
ENDBRANCH   1  34
TORSDOF 18
