REMARK SMILES CCNC(=O)c1ccc(N2C[C@@H](C)[C@H](C(=O)NCCCCNC(=O)c3ccc(-c4c5nc(c(-c6ccccc6)c6ccc([nH]6)c(-c6ccccc6)c6nc(c(-c7ccccc7)c7ccc4[nH]7)C=C6)C=C5)cc3)C2)nn1
REMARK SMILES IDX 19 1 18 2 17 3 15 4 16 5 14 7 10 8 11 9 73 10 12 11 13 12
REMARK SMILES IDX 9 13 6 14 7 15 75 16 8 17 74 18 4 19 3 20 5 22 2 23 1 24
REMARK SMILES IDX 20 25 21 26 22 27 23 28 24 30 25 31 26 32 72 33 27 34 71 35
REMARK SMILES IDX 28 36 29 37 30 38 65 39 31 40 70 41 64 42 66 43 32 44 69 45
REMARK SMILES IDX 63 46 62 47 33 49 55 50 40 51 54 52 41 53 44 54 53 55 67 56
REMARK SMILES IDX 42 57 43 58 52 60 68 61 45 62 34 63 35 64 39 65 36 66 38 67
REMARK SMILES IDX 37 68 56 69 57 70 61 71 58 72 60 73 59 74 46 75 47 76 51 77
REMARK SMILES IDX 48 78 50 79 49 80
REMARK H PARENT 17 6 3 21 22 29 66 48 44 59
REMARK Flexibility Score: inf
ROOT
ATOM      1  C   UNL     1      -4.666  -1.185  -3.333  1.00  0.00     0.023 C 
ENDROOT
BRANCH   1   2
ATOM      2  C   UNL     1      -4.658  -0.817  -1.853  1.00  0.00     0.116 C 
BRANCH   2   3
ATOM      3  N   UNL     1      -5.615   0.208  -1.502  1.00  0.00    -0.356 N 
ATOM      4  C   UNL     1      -6.664   0.176  -0.632  1.00  0.00     0.225 C 
ATOM      5  O   UNL     1      -7.261   1.242  -0.446  1.00  0.00    -0.275 OA
ATOM      6  H   UNL     1      -5.488   1.068  -1.965  1.00  0.00     0.163 HD
BRANCH   4   7
ATOM      7  C   UNL     1      -7.125  -1.085   0.103  1.00  0.00     0.102 C 
ATOM      8  N   UNL     1      -5.594  -2.823   0.554  1.00  0.00    -0.354 N 
ATOM      9  C   UNL     1      -6.572  -3.444  -0.323  1.00  0.00     0.122 C 
ATOM     10  C   UNL     1      -6.106  -1.582   1.127  1.00  0.00     0.132 C 
ATOM     11  C   UNL     1      -7.449  -2.276  -0.816  1.00  0.00     0.019 C 
ATOM     12  C   UNL     1      -8.935  -2.622  -0.806  1.00  0.00     0.010 C 
BRANCH   8  13
ATOM     13  C   UNL     1      -4.276  -3.155   0.746  1.00  0.00     0.151 A 
ATOM     14  C   UNL     1      -1.565  -3.519   1.057  1.00  0.00     0.150 A 
ATOM     15  C   UNL     1      -2.197  -4.169   0.018  1.00  0.00     0.040 A 
ATOM     16  N   UNL     1      -2.227  -2.717   1.908  1.00  0.00    -0.143 NA
ATOM     17  C   UNL     1      -3.576  -3.990  -0.123  1.00  0.00     0.051 A 
ATOM     18  N   UNL     1      -3.586  -2.542   1.738  1.00  0.00    -0.132 NA
BRANCH  14  19
ATOM     19  C   UNL     1      -0.115  -3.677   1.280  1.00  0.00     0.271 C 
ATOM     20  N   UNL     1       0.753  -2.718   0.811  1.00  0.00    -0.351 N 
ATOM     21  H   UNL     1       1.696  -2.829   1.070  1.00  0.00     0.163 HD
ATOM     22  O   UNL     1       0.312  -4.677   1.850  1.00  0.00    -0.267 OA
BRANCH  20  23
ATOM     23  C   UNL     1       0.456  -1.568  -0.015  1.00  0.00     0.113 C 
ATOM     24  C   UNL     1       1.027  -0.293   0.576  1.00  0.00     0.027 C 
ENDBRANCH  20  23
ENDBRANCH  14  19
ENDBRANCH   8  13
ENDBRANCH   4   7
ENDBRANCH   2   3
ENDBRANCH   1   2
BRANCH   1  25
ATOM     25  C   UNL     1      -3.666  -0.419  -4.191  1.00  0.00     0.023 C 
BRANCH  25  26
ATOM     26  C   UNL     1      -2.213  -0.490  -3.732  1.00  0.00     0.116 C 
BRANCH  26  27
ATOM     27  N   UNL     1      -1.684  -1.837  -3.579  1.00  0.00    -0.352 N 
ATOM     28  C   UNL     1      -0.378  -2.263  -3.728  1.00  0.00     0.251 C 
ATOM     29  H   UNL     1      -2.339  -2.532  -3.339  1.00  0.00     0.163 HD
ATOM     30  O   UNL     1      -0.088  -3.438  -3.599  1.00  0.00    -0.269 OA
BRANCH  28  31
ATOM     31  C   UNL     1       0.660  -1.264  -4.077  1.00  0.00     0.039 A 
ATOM     32  C   UNL     1       1.505  -1.509  -5.163  1.00  0.00     0.014 A 
ATOM     33  C   UNL     1       0.746  -0.061  -3.373  1.00  0.00     0.014 A 
ATOM     34  C   UNL     1       2.364  -0.499  -5.608  1.00  0.00     0.010 A 
ATOM     35  C   UNL     1       1.556   0.960  -3.847  1.00  0.00     0.010 A 
ATOM     36  C   UNL     1       2.354   0.756  -4.981  1.00  0.00    -0.014 A 
BRANCH  36  37
ATOM     37  C   UNL     1       3.117   1.911  -5.505  1.00  0.00     0.031 A 
ATOM     38  C   UNL     1       4.234   2.498  -4.695  1.00  0.00     0.074 A 
ATOM     39  C   UNL     1       2.691   2.518  -6.629  1.00  0.00     0.049 A 
ATOM     40  N   UNL     1       4.915   3.595  -4.902  1.00  0.00    -0.248 NA
ATOM     41  C   UNL     1       4.609   1.775  -3.469  1.00  0.00     0.031 C 
ATOM     42  C   UNL     1       1.571   2.073  -7.463  1.00  0.00     0.029 A 
ATOM     43  N   UNL     1       3.130   3.663  -7.244  1.00  0.00    -0.354 N 
ATOM     44  C   UNL     1       5.785   3.704  -3.826  1.00  0.00     0.074 A 
ATOM     45  C   UNL     1       5.516   2.587  -2.946  1.00  0.00     0.031 C 
ATOM     46  C   UNL     1       1.413   2.934  -8.481  1.00  0.00     0.029 A 
ATOM     47  C   UNL     1       2.396   4.005  -8.354  1.00  0.00     0.049 A 
ATOM     48  H   UNL     1       3.897   4.189  -6.921  1.00  0.00     0.167 HD
ATOM     49  C   UNL     1       6.732   4.644  -3.599  1.00  0.00     0.031 A 
ATOM     50  C   UNL     1       2.498   5.070  -9.170  1.00  0.00     0.031 A 
ATOM     51  C   UNL     1       6.994   5.751  -4.479  1.00  0.00     0.049 A 
ATOM     52  C   UNL     1       3.565   6.093  -8.905  1.00  0.00     0.074 A 
ATOM     53  C   UNL     1       7.972   6.724  -4.376  1.00  0.00     0.029 A 
ATOM     54  N   UNL     1       6.268   6.031  -5.627  1.00  0.00    -0.354 N 
ATOM     55  N   UNL     1       4.437   6.139  -7.927  1.00  0.00    -0.248 NA
ATOM     56  C   UNL     1       3.674   7.199  -9.866  1.00  0.00     0.031 C 
ATOM     57  C   UNL     1       7.813   7.616  -5.442  1.00  0.00     0.029 A 
ATOM     58  C   UNL     1       6.767   7.170  -6.234  1.00  0.00     0.049 A 
ATOM     59  H   UNL     1       5.510   5.498  -5.960  1.00  0.00     0.167 HD
ATOM     60  C   UNL     1       5.220   7.259  -8.172  1.00  0.00     0.074 A 
ATOM     61  C   UNL     1       4.723   7.859  -9.394  1.00  0.00     0.031 C 
ATOM     62  C   UNL     1       6.262   7.743  -7.454  1.00  0.00     0.031 A 
BRANCH  49  63
ATOM     63  C   UNL     1       7.550   4.510  -2.346  1.00  0.00    -0.014 A 
ATOM     64  C   UNL     1       8.496   3.481  -2.205  1.00  0.00     0.009 A 
ATOM     65  C   UNL     1       7.393   5.434  -1.303  1.00  0.00     0.009 A 
ATOM     66  C   UNL     1       9.238   3.357  -1.029  1.00  0.00     0.001 A 
ATOM     67  C   UNL     1       8.156   5.325  -0.139  1.00  0.00     0.001 A 
ATOM     68  C   UNL     1       9.070   4.282   0.002  1.00  0.00     0.000 A 
ENDBRANCH  49  63
BRANCH  50  69
ATOM     69  C   UNL     1       1.585   5.203 -10.334  1.00  0.00    -0.014 A 
ATOM     70  C   UNL     1       2.061   4.970 -11.634  1.00  0.00     0.009 A 
ATOM     71  C   UNL     1       0.238   5.551 -10.156  1.00  0.00     0.009 A 
ATOM     72  C   UNL     1       1.211   5.106 -12.734  1.00  0.00     0.001 A 
ATOM     73  C   UNL     1      -0.616   5.662 -11.256  1.00  0.00     0.001 A 
ATOM     74  C   UNL     1      -0.127   5.448 -12.544  1.00  0.00     0.000 A 
ENDBRANCH  50  69
BRANCH  62  75
ATOM     75  C   UNL     1       6.964   8.953  -7.997  1.00  0.00    -0.014 A 
ATOM     76  C   UNL     1       6.390  10.230  -7.912  1.00  0.00     0.009 A 
ATOM     77  C   UNL     1       8.243   8.814  -8.559  1.00  0.00     0.009 A 
ATOM     78  C   UNL     1       7.075  11.343  -8.404  1.00  0.00     0.001 A 
ATOM     79  C   UNL     1       8.935   9.931  -9.027  1.00  0.00     0.001 A 
ATOM     80  C   UNL     1       8.348  11.193  -8.956  1.00  0.00     0.000 A 
ENDBRANCH  62  75
ENDBRANCH  36  37
ENDBRANCH  28  31
ENDBRANCH  26  27
ENDBRANCH  25  26
ENDBRANCH   1  25
TORSDOF 14
