REMARK SMILES Cc1cc2c(c(C)c1Br)C=C(C(=O)NCCCCNC(=O)c1ccc(-c3c4nc(c(-c5ccccc5)c5ccc([nH]5)c(-c5ccccc5)c5nc(c(-c6ccccc6)c6ccc3[nH]6)C=C5)C=C4)cc1)[C@@H](C(F)(F)F)O2
REMARK SMILES IDX 17 1 16 2 15 3 14 4 12 5 13 6 11 8 1 9 2 10 3 11 8 12 4 13
REMARK SMILES IDX 6 14 9 15 5 16 75 17 7 18 10 19 70 20 71 21 72 22 73 23
REMARK SMILES IDX 74 24 18 25 19 26 20 27 21 29 22 30 23 31 69 32 24 33 68 34
REMARK SMILES IDX 25 35 26 36 27 37 62 38 28 39 67 40 61 41 63 42 29 43 66 44
REMARK SMILES IDX 60 45 59 46 30 48 52 49 37 50 51 51 38 52 41 53 50 54 64 55
REMARK SMILES IDX 39 56 40 57 49 59 65 60 42 61 31 62 32 63 36 64 33 65 35 66
REMARK SMILES IDX 34 67 53 68 54 69 58 70 55 71 57 72 56 73 43 74 44 75 48 76
REMARK SMILES IDX 45 77 47 78 46 79
REMARK H PARENT 14 7 19 28 63 47 41 58
REMARK Flexibility Score: inf
ROOT
ATOM      1  C   UNL     1       1.085  -7.391   8.091  1.00  0.00     0.023 C 
ENDROOT
BRANCH   1   2
ATOM      2  C   UNL     1       1.065  -6.662   6.746  1.00  0.00     0.023 C 
BRANCH   2   3
ATOM      3  C   UNL     1      -0.322  -6.201   6.309  1.00  0.00     0.116 C 
BRANCH   3   4
ATOM      4  N   UNL     1      -0.685  -4.932   6.911  1.00  0.00    -0.352 N 
ATOM      5  C   UNL     1      -0.770  -3.640   6.518  1.00  0.00     0.251 C 
ATOM      6  O   UNL     1      -1.128  -2.850   7.397  1.00  0.00    -0.270 OA
ATOM      7  H   UNL     1      -0.937  -5.040   7.857  1.00  0.00     0.163 HD
BRANCH   5   8
ATOM      8  C   UNL     1      -0.471  -3.133   5.145  1.00  0.00     0.067 C 
ATOM      9  C   UNL     1       0.917   0.287  -0.222  1.00  0.00     0.046 C 
ATOM     10  C   UNL     1       0.483  -0.176   1.144  1.00  0.00    -0.033 A 
ATOM     11  C   UNL     1       0.611  -1.538   1.433  1.00  0.00     0.051 A 
ATOM     12  C   UNL     1       0.021   0.692   2.156  1.00  0.00     0.024 A 
ATOM     13  C   UNL     1       0.269  -2.035   2.686  1.00  0.00     0.128 A 
ATOM     14  C   UNL     1      -0.358   0.193   3.431  1.00  0.00    -0.026 A 
ATOM     15  Br  UNL     1      -0.037   2.570   1.790  1.00  0.00    -0.050 Br
ATOM     16  C   UNL     1      -0.203  -1.191   3.694  1.00  0.00     0.021 A 
ATOM     17  O   UNL     1       0.481  -3.372   2.860  1.00  0.00    -0.475 OA
ATOM     18  C   UNL     1      -0.887   1.094   4.524  1.00  0.00     0.046 C 
ATOM     19  C   UNL     1      -0.458  -1.794   5.008  1.00  0.00     0.026 C 
ATOM     20  C   UNL     1      -0.230  -4.008   3.952  1.00  0.00     0.314 C 
BRANCH  20  21
ATOM     21  C   UNL     1      -1.520  -4.654   3.414  1.00  0.00     0.429 C 
ATOM     22  F   UNL     1      -1.222  -5.667   2.562  1.00  0.00    -0.167 F 
ATOM     23  F   UNL     1      -2.277  -5.196   4.398  1.00  0.00    -0.167 F 
ATOM     24  F   UNL     1      -2.305  -3.779   2.748  1.00  0.00    -0.167 F 
ENDBRANCH  20  21
ENDBRANCH   5   8
ENDBRANCH   3   4
ENDBRANCH   2   3
ENDBRANCH   1   2
BRANCH   1  25
ATOM     25  C   UNL     1       0.139  -8.584   8.201  1.00  0.00     0.116 C 
BRANCH  25  26
ATOM     26  N   UNL     1       0.260  -9.537   7.106  1.00  0.00    -0.352 N 
ATOM     27  C   UNL     1       0.101 -10.902   7.152  1.00  0.00     0.251 C 
ATOM     28  H   UNL     1       0.482  -9.158   6.225  1.00  0.00     0.163 HD
ATOM     29  O   UNL     1       0.294 -11.597   6.162  1.00  0.00    -0.269 OA
BRANCH  27  30
ATOM     30  C   UNL     1      -0.260 -11.517   8.441  1.00  0.00     0.039 A 
ATOM     31  C   UNL     1       0.602 -12.465   8.994  1.00  0.00     0.014 A 
ATOM     32  C   UNL     1      -1.386 -11.072   9.138  1.00  0.00     0.014 A 
ATOM     33  C   UNL     1       0.374 -12.915  10.292  1.00  0.00     0.010 A 
ATOM     34  C   UNL     1      -1.575 -11.474  10.455  1.00  0.00     0.010 A 
ATOM     35  C   UNL     1      -0.692 -12.391  11.044  1.00  0.00    -0.014 A 
BRANCH  35  36
ATOM     36  C   UNL     1      -0.886 -12.790  12.457  1.00  0.00     0.031 A 
ATOM     37  C   UNL     1      -2.085 -13.602  12.849  1.00  0.00     0.074 A 
ATOM     38  C   UNL     1      -0.000 -12.389  13.389  1.00  0.00     0.049 A 
ATOM     39  N   UNL     1      -2.423 -14.050  14.030  1.00  0.00    -0.248 NA
ATOM     40  C   UNL     1      -3.039 -13.938  11.779  1.00  0.00     0.031 C 
ATOM     41  C   UNL     1       1.183 -11.562  13.136  1.00  0.00     0.029 A 
ATOM     42  N   UNL     1       0.046 -12.632  14.738  1.00  0.00    -0.354 N 
ATOM     43  C   UNL     1      -3.627 -14.715  13.847  1.00  0.00     0.074 A 
ATOM     44  C   UNL     1      -3.990 -14.566  12.455  1.00  0.00     0.031 C 
ATOM     45  C   UNL     1       1.862 -11.407  14.284  1.00  0.00     0.029 A 
ATOM     46  C   UNL     1       1.150 -12.097  15.355  1.00  0.00     0.049 A 
ATOM     47  H   UNL     1      -0.646 -13.142  15.218  1.00  0.00     0.167 HD
ATOM     48  C   UNL     1      -4.352 -15.413  14.750  1.00  0.00     0.031 A 
ATOM     49  C   UNL     1       1.550 -12.167  16.639  1.00  0.00     0.031 A 
ATOM     50  C   UNL     1      -3.985 -15.576  16.128  1.00  0.00     0.049 A 
ATOM     51  C   UNL     1       0.717 -12.931  17.628  1.00  0.00     0.074 A 
ATOM     52  C   UNL     1      -4.627 -16.310  17.110  1.00  0.00     0.029 A 
ATOM     53  N   UNL     1      -2.874 -14.997  16.719  1.00  0.00    -0.354 N 
ATOM     54  N   UNL     1      -0.389 -13.605  17.425  1.00  0.00    -0.248 NA
ATOM     55  C   UNL     1       1.189 -12.948  19.020  1.00  0.00     0.031 C 
ATOM     56  C   UNL     1      -3.921 -16.147  18.305  1.00  0.00     0.029 A 
ATOM     57  C   UNL     1      -2.821 -15.341  18.058  1.00  0.00     0.049 A 
ATOM     58  H   UNL     1      -2.220 -14.426  16.255  1.00  0.00     0.167 HD
ATOM     59  C   UNL     1      -0.736 -14.140  18.658  1.00  0.00     0.074 A 
ATOM     60  C   UNL     1       0.281 -13.722  19.601  1.00  0.00     0.031 C 
ATOM     61  C   UNL     1      -1.802 -14.911  18.978  1.00  0.00     0.031 A 
BRANCH  48  62
ATOM     62  C   UNL     1      -5.612 -16.063  14.260  1.00  0.00    -0.014 A 
ATOM     63  C   UNL     1      -5.560 -17.203  13.441  1.00  0.00     0.009 A 
ATOM     64  C   UNL     1      -6.862 -15.550  14.637  1.00  0.00     0.009 A 
ATOM     65  C   UNL     1      -6.737 -17.797  12.983  1.00  0.00     0.001 A 
ATOM     66  C   UNL     1      -8.037 -16.160  14.196  1.00  0.00     0.001 A 
ATOM     67  C   UNL     1      -7.973 -17.277  13.363  1.00  0.00     0.000 A 
ENDBRANCH  48  62
BRANCH  49  68
ATOM     68  C   UNL     1       2.826 -11.532  17.051  1.00  0.00    -0.014 A 
ATOM     69  C   UNL     1       3.957 -12.324  17.299  1.00  0.00     0.009 A 
ATOM     70  C   UNL     1       2.928 -10.139  17.184  1.00  0.00     0.009 A 
ATOM     71  C   UNL     1       5.163 -11.735  17.685  1.00  0.00     0.001 A 
ATOM     72  C   UNL     1       4.140  -9.551  17.552  1.00  0.00     0.001 A 
ATOM     73  C   UNL     1       5.255 -10.349  17.807  1.00  0.00     0.000 A 
ENDBRANCH  49  68
BRANCH  61  74
ATOM     74  C   UNL     1      -1.926 -15.363  20.403  1.00  0.00    -0.014 A 
ATOM     75  C   UNL     1      -2.401 -14.491  21.393  1.00  0.00     0.009 A 
ATOM     76  C   UNL     1      -1.646 -16.697  20.738  1.00  0.00     0.009 A 
ATOM     77  C   UNL     1      -2.585 -14.946  22.700  1.00  0.00     0.001 A 
ATOM     78  C   UNL     1      -1.850 -17.153  22.041  1.00  0.00     0.001 A 
ATOM     79  C   UNL     1      -2.317 -16.277  23.020  1.00  0.00     0.000 A 
ENDBRANCH  61  74
ENDBRANCH  35  36
ENDBRANCH  27  30
ENDBRANCH  25  26
ENDBRANCH   1  25
TORSDOF 12
