REMARK SMILES O=C(NCCCCNC(=O)c1cc(Cl)ccc1N1C(=O)CC2(CCCC2)C1=O)c1ccc(-c2c3nc(c(-c4ccccc4)c4ccc([nH]4)c(-c4ccccc4)c4nc(c(-c5ccccc5)c5ccc2[nH]5)C=C4)C=C3)cc1
REMARK SMILES IDX 5 1 4 2 3 3 1 4 2 5 29 7 30 8 76 9 31 10 75 11 32 12 33 13
REMARK SMILES IDX 34 14 69 15 35 16 74 17 68 18 70 19 36 20 73 21 67 22 66 23
REMARK SMILES IDX 37 25 59 26 44 27 58 28 45 29 48 30 57 31 71 32 46 33 47 34
REMARK SMILES IDX 56 36 72 37 49 38 38 39 39 40 43 41 40 42 42 43 41 44 60 45
REMARK SMILES IDX 61 46 65 47 62 48 64 49 63 50 50 51 51 52 55 53 52 54 54 55
REMARK SMILES IDX 53 56 6 57 7 58 8 59 9 60 10 62 11 63 12 64 17 65 13 66
REMARK SMILES IDX 16 67 14 68 15 69 18 70 19 71 27 72 20 73 21 74 22 75 28 76
REMARK SMILES IDX 23 77 26 78 24 79 25 80
REMARK H PARENT 3 6 70 24 48 35 8 61
REMARK Flexibility Score: inf
ROOT
ATOM      1  C   UNL     1       4.994   2.551  -0.644  1.00  0.00     0.023 C 
ENDROOT
BRANCH   1   2
ATOM      2  C   UNL     1       4.622   1.276   0.099  1.00  0.00     0.116 C 
BRANCH   2   3
ATOM      3  N   UNL     1       3.185   1.071   0.202  1.00  0.00    -0.352 N 
ATOM      4  O   UNL     1       1.219   0.004  -0.118  1.00  0.00    -0.269 OA
ATOM      5  C   UNL     1       2.444  -0.030  -0.152  1.00  0.00     0.251 C 
ATOM      6  H   UNL     1       2.674   1.825   0.577  1.00  0.00     0.163 HD
BRANCH   5   7
ATOM      7  C   UNL     1       3.138  -1.256  -0.601  1.00  0.00     0.039 A 
ATOM      8  C   UNL     1       4.231  -1.749   0.114  1.00  0.00     0.014 A 
ATOM      9  C   UNL     1       2.696  -1.908  -1.755  1.00  0.00     0.014 A 
ATOM     10  C   UNL     1       4.968  -2.807  -0.400  1.00  0.00     0.010 A 
ATOM     11  C   UNL     1       3.385  -3.032  -2.221  1.00  0.00     0.010 A 
ATOM     12  C   UNL     1       4.539  -3.476  -1.558  1.00  0.00    -0.014 A 
BRANCH  12  13
ATOM     13  C   UNL     1       5.256  -4.702  -1.985  1.00  0.00     0.031 A 
ATOM     14  C   UNL     1       6.001  -4.768  -3.288  1.00  0.00     0.074 A 
ATOM     15  C   UNL     1       5.241  -5.764  -1.155  1.00  0.00     0.049 A 
ATOM     16  N   UNL     1       6.690  -5.764  -3.786  1.00  0.00    -0.248 NA
ATOM     17  C   UNL     1       5.968  -3.574  -4.146  1.00  0.00     0.031 C 
ATOM     18  C   UNL     1       4.540  -5.817   0.133  1.00  0.00     0.029 A 
ATOM     19  N   UNL     1       5.842  -6.991  -1.255  1.00  0.00    -0.354 N 
ATOM     20  C   UNL     1       7.155  -5.328  -5.020  1.00  0.00     0.074 A 
ATOM     21  C   UNL     1       6.658  -3.981  -5.205  1.00  0.00     0.031 C 
ATOM     22  C   UNL     1       4.790  -6.995   0.722  1.00  0.00     0.029 A 
ATOM     23  C   UNL     1       5.605  -7.805  -0.173  1.00  0.00     0.049 A 
ATOM     24  H   UNL     1       6.390  -7.264  -2.026  1.00  0.00     0.167 HD
ATOM     25  C   UNL     1       7.926  -5.994  -5.913  1.00  0.00     0.031 A 
ATOM     26  C   UNL     1       5.980  -9.074   0.066  1.00  0.00     0.031 A 
ATOM     27  C   UNL     1       8.422  -7.333  -5.720  1.00  0.00     0.049 A 
ATOM     28  C   UNL     1       6.804  -9.791  -0.961  1.00  0.00     0.074 A 
ATOM     29  C   UNL     1       9.251  -8.071  -6.548  1.00  0.00     0.029 A 
ATOM     30  N   UNL     1       8.130  -8.136  -4.629  1.00  0.00    -0.354 N 
ATOM     31  N   UNL     1       7.278  -9.343  -2.097  1.00  0.00    -0.248 NA
ATOM     32  C   UNL     1       7.142 -11.191  -0.672  1.00  0.00     0.031 C 
ATOM     33  C   UNL     1       9.412  -9.341  -5.987  1.00  0.00     0.029 A 
ATOM     34  C   UNL     1       8.732  -9.375  -4.781  1.00  0.00     0.049 A 
ATOM     35  H   UNL     1       7.577  -7.866  -3.860  1.00  0.00     0.167 HD
ATOM     36  C   UNL     1       7.980 -10.402  -2.655  1.00  0.00     0.074 A 
ATOM     37  C   UNL     1       7.895 -11.502  -1.717  1.00  0.00     0.031 C 
ATOM     38  C   UNL     1       8.630 -10.460  -3.841  1.00  0.00     0.031 A 
BRANCH  25  39
ATOM     39  C   UNL     1       8.271  -5.304  -7.204  1.00  0.00    -0.014 A 
ATOM     40  C   UNL     1       9.223  -4.275  -7.251  1.00  0.00     0.009 A 
ATOM     41  C   UNL     1       7.702  -5.758  -8.405  1.00  0.00     0.009 A 
ATOM     42  C   UNL     1       9.587  -3.705  -8.474  1.00  0.00     0.001 A 
ATOM     43  C   UNL     1       8.084  -5.203  -9.628  1.00  0.00     0.001 A 
ATOM     44  C   UNL     1       9.024  -4.174  -9.661  1.00  0.00     0.000 A 
ENDBRANCH  25  39
BRANCH  26  45
ATOM     45  C   UNL     1       5.542  -9.757   1.310  1.00  0.00    -0.014 A 
ATOM     46  C   UNL     1       6.470 -10.114   2.299  1.00  0.00     0.009 A 
ATOM     47  C   UNL     1       4.186 -10.064   1.508  1.00  0.00     0.009 A 
ATOM     48  C   UNL     1       6.052 -10.791   3.447  1.00  0.00     0.001 A 
ATOM     49  C   UNL     1       3.767 -10.710   2.671  1.00  0.00     0.001 A 
ATOM     50  C   UNL     1       4.702 -11.085   3.634  1.00  0.00     0.000 A 
ENDBRANCH  26  45
BRANCH  38  51
ATOM     51  C   UNL     1       9.314 -11.754  -4.175  1.00  0.00    -0.014 A 
ATOM     52  C   UNL     1       8.576 -12.895  -4.527  1.00  0.00     0.009 A 
ATOM     53  C   UNL     1      10.715 -11.828  -4.153  1.00  0.00     0.009 A 
ATOM     54  C   UNL     1       9.228 -14.095  -4.813  1.00  0.00     0.001 A 
ATOM     55  C   UNL     1      11.365 -13.021  -4.469  1.00  0.00     0.001 A 
ATOM     56  C   UNL     1      10.621 -14.156  -4.788  1.00  0.00     0.000 A 
ENDBRANCH  38  51
ENDBRANCH  12  13
ENDBRANCH   5   7
ENDBRANCH   2   3
ENDBRANCH   1   2
BRANCH   1  57
ATOM     57  C   UNL     1       4.497   3.842  -0.001  1.00  0.00     0.023 C 
BRANCH  57  58
ATOM     58  C   UNL     1       4.834   4.000   1.477  1.00  0.00     0.116 C 
BRANCH  58  59
ATOM     59  N   UNL     1       6.265   4.006   1.740  1.00  0.00    -0.352 N 
ATOM     60  C   UNL     1       7.039   5.018   2.252  1.00  0.00     0.253 C 
ATOM     61  H   UNL     1       6.742   3.173   1.521  1.00  0.00     0.163 HD
ATOM     62  O   UNL     1       8.263   4.920   2.285  1.00  0.00    -0.269 OA
BRANCH  60  63
ATOM     63  C   UNL     1       6.387   6.235   2.784  1.00  0.00     0.065 A 
ATOM     64  C   UNL     1       5.422   6.057   3.791  1.00  0.00     0.036 A 
ATOM     65  C   UNL     1       6.808   7.528   2.417  1.00  0.00     0.065 A 
ATOM     66  C   UNL     1       4.789   7.159   4.350  1.00  0.00     0.041 A 
ATOM     67  C   UNL     1       6.181   8.626   3.032  1.00  0.00     0.029 A 
ATOM     68  Cl  UNL     1       3.544   6.928   5.512  1.00  0.00    -0.084 Cl
ATOM     69  C   UNL     1       5.157   8.444   3.968  1.00  0.00     0.023 A 
BRANCH  65  70
ATOM     70  N   UNL     1       7.837   7.763   1.469  1.00  0.00    -0.249 N 
ATOM     71  C   UNL     1       8.851   8.670   1.664  1.00  0.00     0.234 C 
ATOM     72  C   UNL     1       7.904   7.156   0.236  1.00  0.00     0.240 C 
ATOM     73  O   UNL     1       8.998   9.454   2.589  1.00  0.00    -0.274 OA
ATOM     74  C   UNL     1       9.855   8.514   0.558  1.00  0.00     0.118 C 
ATOM     75  C   UNL     1       9.124   7.680  -0.490  1.00  0.00     0.059 C 
ATOM     76  O   UNL     1       7.061   6.432  -0.281  1.00  0.00    -0.273 OA
ATOM     77  C   UNL     1       8.735   8.505  -1.721  1.00  0.00     0.017 C 
ATOM     78  C   UNL     1       9.977   6.570  -1.100  1.00  0.00     0.017 C 
ATOM     79  C   UNL     1       9.977   8.489  -2.609  1.00  0.00     0.001 C 
ATOM     80  C   UNL     1      10.788   7.265  -2.189  1.00  0.00     0.001 C 
ENDBRANCH  65  70
ENDBRANCH  60  63
ENDBRANCH  58  59
ENDBRANCH  57  58
ENDBRANCH   1  57
TORSDOF 12
