REMARK SMILES O=C(NCCCCNC(=O)[C@H]1CCCCN1c1cc(-c2ccccc2)nc(-c2cccc(Cl)c2)n1)c1ccc(-c2c3nc(c(-c4ccccc4)c4ccc([nH]4)c(-c4ccccc4)c4nc(c(-c5ccccc5)c5ccc2[nH]5)C=C4)C=C3)cc1
REMARK SMILES IDX 5 1 4 2 3 3 1 4 2 5 36 7 37 8 83 9 38 10 82 11 39 12 40 13
REMARK SMILES IDX 41 14 76 15 42 16 81 17 75 18 77 19 43 20 80 21 74 22 73 23
REMARK SMILES IDX 44 25 66 26 51 27 65 28 52 29 55 30 64 31 78 32 53 33 54 34
REMARK SMILES IDX 63 36 79 37 56 38 45 39 46 40 50 41 47 42 49 43 48 44 67 45
REMARK SMILES IDX 68 46 72 47 69 48 71 49 70 50 57 51 58 52 62 53 59 54 61 55
REMARK SMILES IDX 60 56 6 57 7 58 8 59 9 60 10 62 11 63 12 64 16 65 13 66
REMARK SMILES IDX 15 67 14 68 17 69 18 70 35 71 19 72 27 73 26 74 20 75 21 76
REMARK SMILES IDX 25 77 22 78 24 79 23 80 28 81 29 82 34 83 30 84 32 85 31 86
REMARK SMILES IDX 33 87
REMARK H PARENT 3 6 77 24 55 35 8 61
REMARK Flexibility Score: inf
ROOT
ATOM      1  C   UNL     1       3.079 -10.444   0.029  1.00  0.00     0.023 C 
ENDROOT
BRANCH   1   2
ATOM      2  C   UNL     1       3.198 -11.360  -1.180  1.00  0.00     0.116 C 
BRANCH   2   3
ATOM      3  N   UNL     1       4.119 -12.475  -1.001  1.00  0.00    -0.352 N 
ATOM      4  O   UNL     1       4.893 -14.575  -1.374  1.00  0.00    -0.269 OA
ATOM      5  C   UNL     1       4.103 -13.685  -1.656  1.00  0.00     0.251 C 
ATOM      6  H   UNL     1       4.834 -12.348  -0.336  1.00  0.00     0.163 HD
BRANCH   5   7
ATOM      7  C   UNL     1       3.060 -13.898  -2.676  1.00  0.00     0.039 A 
ATOM      8  C   UNL     1       2.894 -12.966  -3.702  1.00  0.00     0.014 A 
ATOM      9  C   UNL     1       2.179 -14.971  -2.530  1.00  0.00     0.014 A 
ATOM     10  C   UNL     1       1.751 -13.015  -4.485  1.00  0.00     0.010 A 
ATOM     11  C   UNL     1       1.075 -15.067  -3.376  1.00  0.00     0.010 A 
ATOM     12  C   UNL     1       0.833 -14.067  -4.332  1.00  0.00    -0.014 A 
BRANCH  12  13
ATOM     13  C   UNL     1      -0.353 -14.121  -5.215  1.00  0.00     0.031 A 
ATOM     14  C   UNL     1      -1.741 -13.955  -4.665  1.00  0.00     0.074 A 
ATOM     15  C   UNL     1      -0.157 -14.285  -6.536  1.00  0.00     0.049 A 
ATOM     16  N   UNL     1      -2.884 -13.979  -5.304  1.00  0.00    -0.248 NA
ATOM     17  C   UNL     1      -1.868 -13.738  -3.216  1.00  0.00     0.031 C 
ATOM     18  C   UNL     1       1.150 -14.445  -7.180  1.00  0.00     0.029 A 
ATOM     19  N   UNL     1      -1.048 -14.317  -7.575  1.00  0.00    -0.354 N 
ATOM     20  C   UNL     1      -3.865 -13.814  -4.335  1.00  0.00     0.074 A 
ATOM     21  C   UNL     1      -3.185 -13.697  -3.062  1.00  0.00     0.031 C 
ATOM     22  C   UNL     1       0.979 -14.504  -8.508  1.00  0.00     0.029 A 
ATOM     23  C   UNL     1      -0.447 -14.455  -8.802  1.00  0.00     0.049 A 
ATOM     24  H   UNL     1      -2.022 -14.249  -7.455  1.00  0.00     0.167 HD
ATOM     25  C   UNL     1      -5.209 -13.768  -4.495  1.00  0.00     0.031 A 
ATOM     26  C   UNL     1      -0.985 -14.550 -10.030  1.00  0.00     0.031 A 
ATOM     27  C   UNL     1      -5.878 -13.874  -5.766  1.00  0.00     0.049 A 
ATOM     28  C   UNL     1      -2.474 -14.513 -10.175  1.00  0.00     0.074 A 
ATOM     29  C   UNL     1      -7.235 -13.819  -6.034  1.00  0.00     0.029 A 
ATOM     30  N   UNL     1      -5.237 -14.055  -6.981  1.00  0.00    -0.354 N 
ATOM     31  N   UNL     1      -3.387 -14.359  -9.247  1.00  0.00    -0.248 NA
ATOM     32  C   UNL     1      -3.007 -14.672 -11.533  1.00  0.00     0.031 C 
ATOM     33  C   UNL     1      -7.416 -14.004  -7.410  1.00  0.00     0.029 A 
ATOM     34  C   UNL     1      -6.170 -14.132  -8.001  1.00  0.00     0.049 A 
ATOM     35  H   UNL     1      -4.262 -14.118  -7.102  1.00  0.00     0.167 HD
ATOM     36  C   UNL     1      -4.605 -14.401  -9.908  1.00  0.00     0.074 A 
ATOM     37  C   UNL     1      -4.312 -14.570 -11.318  1.00  0.00     0.031 C 
ATOM     38  C   UNL     1      -5.855 -14.315  -9.394  1.00  0.00     0.031 A 
BRANCH  25  39
ATOM     39  C   UNL     1      -6.052 -13.630  -3.259  1.00  0.00    -0.014 A 
ATOM     40  C   UNL     1      -6.164 -12.406  -2.583  1.00  0.00     0.009 A 
ATOM     41  C   UNL     1      -6.782 -14.735  -2.791  1.00  0.00     0.009 A 
ATOM     42  C   UNL     1      -6.972 -12.297  -1.448  1.00  0.00     0.001 A 
ATOM     43  C   UNL     1      -7.604 -14.617  -1.669  1.00  0.00     0.001 A 
ATOM     44  C   UNL     1      -7.694 -13.401  -0.995  1.00  0.00     0.000 A 
ENDBRANCH  25  39
BRANCH  26  45
ATOM     45  C   UNL     1      -0.094 -14.710 -11.205  1.00  0.00    -0.014 A 
ATOM     46  C   UNL     1       0.102 -13.649 -12.099  1.00  0.00     0.009 A 
ATOM     47  C   UNL     1       0.602 -15.912 -11.408  1.00  0.00     0.009 A 
ATOM     48  C   UNL     1       0.973 -13.792 -13.181  1.00  0.00     0.001 A 
ATOM     49  C   UNL     1       1.492 -16.043 -12.474  1.00  0.00     0.001 A 
ATOM     50  C   UNL     1       1.673 -14.985 -13.363  1.00  0.00     0.000 A 
ENDBRANCH  26  45
BRANCH  38  51
ATOM     51  C   UNL     1      -6.990 -14.392 -10.370  1.00  0.00    -0.014 A 
ATOM     52  C   UNL     1      -7.374 -15.619 -10.932  1.00  0.00     0.009 A 
ATOM     53  C   UNL     1      -7.690 -13.228 -10.720  1.00  0.00     0.009 A 
ATOM     54  C   UNL     1      -8.421 -15.673 -11.853  1.00  0.00     0.001 A 
ATOM     55  C   UNL     1      -8.750 -13.289 -11.625  1.00  0.00     0.001 A 
ATOM     56  C   UNL     1      -9.109 -14.510 -12.197  1.00  0.00     0.000 A 
ENDBRANCH  38  51
ENDBRANCH  12  13
ENDBRANCH   5   7
ENDBRANCH   2   3
ENDBRANCH   1   2
BRANCH   1  57
ATOM     57  C   UNL     1       4.406  -9.879   0.518  1.00  0.00     0.023 C 
BRANCH  57  58
ATOM     58  C   UNL     1       5.134  -8.988  -0.483  1.00  0.00     0.116 C 
BRANCH  58  59
ATOM     59  N   UNL     1       4.777  -7.597  -0.338  1.00  0.00    -0.354 N 
ATOM     60  C   UNL     1       5.306  -6.590   0.403  1.00  0.00     0.242 C 
ATOM     61  H   UNL     1       4.001  -7.328  -0.880  1.00  0.00     0.163 HD
ATOM     62  O   UNL     1       4.733  -5.497   0.264  1.00  0.00    -0.273 OA
BRANCH  60  63
ATOM     63  C   UNL     1       6.505  -6.694   1.384  1.00  0.00     0.173 C 
ATOM     64  C   UNL     1       6.047  -6.317   2.798  1.00  0.00     0.035 C 
ATOM     65  N   UNL     1       7.296  -7.939   1.356  1.00  0.00    -0.344 N 
ATOM     66  C   UNL     1       5.474  -7.508   3.543  1.00  0.00     0.004 C 
ATOM     67  C   UNL     1       7.173  -8.990   2.368  1.00  0.00     0.119 C 
ATOM     68  C   UNL     1       6.556  -8.561   3.691  1.00  0.00     0.022 C 
BRANCH  65  69
ATOM     69  C   UNL     1       8.599  -7.782   0.879  1.00  0.00     0.133 A 
ATOM     70  C   UNL     1       8.946  -8.306  -0.349  1.00  0.00     0.076 A 
ATOM     71  N   UNL     1       9.494  -7.163   1.657  1.00  0.00    -0.211 NA
ATOM     72  C   UNL     1      10.260  -8.173  -0.750  1.00  0.00     0.076 A 
ATOM     73  C   UNL     1      10.746  -7.053   1.178  1.00  0.00     0.162 A 
ATOM     74  N   UNL     1      11.178  -7.538   0.001  1.00  0.00    -0.228 NA
BRANCH  72  75
ATOM     75  C   UNL     1      10.736  -8.778  -1.999  1.00  0.00     0.000 A 
ATOM     76  C   UNL     1      11.706  -9.794  -1.972  1.00  0.00     0.010 A 
ATOM     77  C   UNL     1      10.205  -8.401  -3.244  1.00  0.00     0.010 A 
ATOM     78  C   UNL     1      12.117 -10.428  -3.148  1.00  0.00     0.001 A 
ATOM     79  C   UNL     1      10.623  -9.027  -4.422  1.00  0.00     0.001 A 
ATOM     80  C   UNL     1      11.574 -10.044  -4.372  1.00  0.00     0.000 A 
ENDBRANCH  72  75
BRANCH  73  81
ATOM     81  C   UNL     1      11.715  -6.347   2.019  1.00  0.00     0.021 A 
ATOM     82  C   UNL     1      11.797  -6.606   3.400  1.00  0.00     0.012 A 
ATOM     83  C   UNL     1      12.574  -5.378   1.473  1.00  0.00     0.032 A 
ATOM     84  C   UNL     1      12.707  -5.924   4.210  1.00  0.00     0.002 A 
ATOM     85  C   UNL     1      13.468  -4.685   2.289  1.00  0.00     0.041 A 
ATOM     86  C   UNL     1      13.541  -4.957   3.653  1.00  0.00     0.020 A 
ATOM     87  Cl  UNL     1      14.481  -3.473   1.607  1.00  0.00    -0.084 Cl
ENDBRANCH  73  81
ENDBRANCH  65  69
ENDBRANCH  60  63
ENDBRANCH  58  59
ENDBRANCH  57  58
ENDBRANCH   1  57
TORSDOF 14
