REMARK SMILES C=CC[N@H+](CC(=O)NCCCCNC(=O)c1ccc(-c2c3nc(c(-c4ccccc4)c4ccc([nH]4)c(-c4ccccc4)c4nc(c(-c5ccccc5)c5ccc2[nH]5)C=C4)C=C3)cc1)[C@H](C)c1ccc(F)cc1O
REMARK SMILES IDX 9 1 8 2 6 3 7 4 5 6 4 7 3 9 2 10 1 11 64 12 65 13 66 14
REMARK SMILES IDX 67 15 72 16 68 17 71 18 69 19 70 20 73 21 10 23 11 24 12 25
REMARK SMILES IDX 13 26 14 27 15 29 16 30 17 31 63 32 18 33 62 34 19 35 20 36
REMARK SMILES IDX 21 37 56 38 22 39 61 40 55 41 57 42 23 43 60 44 54 45 53 46
REMARK SMILES IDX 24 48 46 49 31 50 45 51 32 52 35 53 44 54 58 55 33 56 34 57
REMARK SMILES IDX 43 59 59 60 36 61 25 62 26 63 30 64 27 65 29 66 28 67 47 68
REMARK SMILES IDX 48 69 52 70 49 71 51 72 50 73 37 74 38 75 42 76 39 77 41 78
REMARK SMILES IDX 40 79
REMARK H PARENT 8 5 4 8 73 22 13 28 57 47 35 58
REMARK Flexibility Score: inf
ROOT
ATOM      1  C   UNL     1      -3.204   1.596   1.983  1.00  0.00     0.116 C 
ENDROOT
BRANCH   1   2
ATOM      2  N   UNL     1      -3.575   2.811   1.271  1.00  0.00    -0.351 N 
ATOM      3  C   UNL     1      -3.418   3.180  -0.043  1.00  0.00     0.275 C 
ATOM      4  O   UNL     1      -3.703   4.343  -0.339  1.00  0.00    -0.269 OA
ATOM      5  H   UNL     1      -4.019   3.489   1.831  1.00  0.00     0.163 HD
BRANCH   3   6
ATOM      6  C   UNL     1      -2.939   2.178  -1.120  1.00  0.00     0.364 C 
BRANCH   6   7
ATOM      7  N   UNL     1      -1.453   2.202  -1.372  1.00  0.00    -0.318 N 
ATOM      8  H   UNL     1      -1.120   3.140  -1.598  1.00  0.00     0.349 HD
BRANCH   7   9
ATOM      9  C   UNL     1      -0.788   1.802  -0.132  1.00  0.00     0.291 C 
BRANCH   9  10
ATOM     10  C   UNL     1       0.689   1.676   0.079  1.00  0.00     0.025 C 
ATOM     11  C   UNL     1       1.429   2.514   0.820  1.00  0.00     0.010 C 
ENDBRANCH   9  10
ENDBRANCH   7   9
BRANCH   7  12
ATOM     12  C   UNL     1      -1.088   1.430  -2.595  1.00  0.00     0.216 C 
ATOM     13  C   UNL     1      -1.688   0.013  -2.650  1.00  0.00     0.081 C 
BRANCH  12  14
ATOM     14  C   UNL     1       0.422   1.502  -2.859  1.00  0.00     0.051 A 
ATOM     15  C   UNL     1       1.222   0.345  -2.943  1.00  0.00     0.017 A 
ATOM     16  C   UNL     1       1.081   2.752  -2.869  1.00  0.00     0.127 A 
ATOM     17  C   UNL     1       2.617   0.439  -2.934  1.00  0.00     0.040 A 
ATOM     18  C   UNL     1       2.469   2.849  -2.882  1.00  0.00     0.085 A 
ATOM     19  C   UNL     1       3.224   1.687  -2.883  1.00  0.00     0.126 A 
ATOM     20  F   UNL     1       4.558   1.763  -2.792  1.00  0.00    -0.207 F 
BRANCH  16  21
ATOM     21  O   UNL     1       0.388   3.926  -2.734  1.00  0.00    -0.507 OA
ATOM     22  H   UNL     1      -0.548   3.918  -2.719  1.00  0.00     0.293 HD
ENDBRANCH  16  21
ENDBRANCH  12  14
ENDBRANCH   7  12
ENDBRANCH   6   7
ENDBRANCH   3   6
ENDBRANCH   1   2
BRANCH   1  23
ATOM     23  C   UNL     1      -1.882   1.772   2.747  1.00  0.00     0.023 C 
BRANCH  23  24
ATOM     24  C   UNL     1      -1.985   2.216   4.189  1.00  0.00     0.023 C 
BRANCH  24  25
ATOM     25  C   UNL     1      -2.545   1.166   5.115  1.00  0.00     0.116 C 
BRANCH  25  26
ATOM     26  N   UNL     1      -1.762  -0.062   5.159  1.00  0.00    -0.352 N 
ATOM     27  C   UNL     1      -1.412  -0.819   6.256  1.00  0.00     0.251 C 
ATOM     28  H   UNL     1      -1.440  -0.395   4.290  1.00  0.00     0.163 HD
ATOM     29  O   UNL     1      -0.679  -1.785   6.142  1.00  0.00    -0.269 OA
BRANCH  27  30
ATOM     30  C   UNL     1      -1.908  -0.401   7.585  1.00  0.00     0.039 A 
ATOM     31  C   UNL     1      -1.014  -0.350   8.655  1.00  0.00     0.014 A 
ATOM     32  C   UNL     1      -3.226   0.031   7.741  1.00  0.00     0.014 A 
ATOM     33  C   UNL     1      -1.431   0.207   9.864  1.00  0.00     0.010 A 
ATOM     34  C   UNL     1      -3.591   0.712   8.890  1.00  0.00     0.010 A 
ATOM     35  C   UNL     1      -2.709   0.781   9.976  1.00  0.00    -0.014 A 
BRANCH  35  36
ATOM     36  C   UNL     1      -3.159   1.417  11.235  1.00  0.00     0.031 A 
ATOM     37  C   UNL     1      -4.360   0.870  11.960  1.00  0.00     0.074 A 
ATOM     38  C   UNL     1      -2.519   2.508  11.700  1.00  0.00     0.049 A 
ATOM     39  N   UNL     1      -4.906   1.278  13.076  1.00  0.00    -0.248 NA
ATOM     40  C   UNL     1      -5.064  -0.261  11.330  1.00  0.00     0.031 C 
ATOM     41  C   UNL     1      -1.390   3.177  11.048  1.00  0.00     0.029 A 
ATOM     42  N   UNL     1      -2.723   3.240  12.841  1.00  0.00    -0.354 N 
ATOM     43  C   UNL     1      -6.020   0.469  13.265  1.00  0.00     0.074 A 
ATOM     44  C   UNL     1      -6.120  -0.398  12.115  1.00  0.00     0.031 C 
ATOM     45  C   UNL     1      -0.966   4.184  11.829  1.00  0.00     0.029 A 
ATOM     46  C   UNL     1      -1.811   4.252  13.016  1.00  0.00     0.049 A 
ATOM     47  H   UNL     1      -3.454   3.057  13.476  1.00  0.00     0.167 HD
ATOM     48  C   UNL     1      -6.866   0.422  14.320  1.00  0.00     0.031 A 
ATOM     49  C   UNL     1      -1.663   5.123  14.031  1.00  0.00     0.031 A 
ATOM     50  C   UNL     1      -6.747   1.266  15.476  1.00  0.00     0.049 A 
ATOM     51  C   UNL     1      -2.594   5.031  15.207  1.00  0.00     0.074 A 
ATOM     52  C   UNL     1      -7.509   1.261  16.630  1.00  0.00     0.029 A 
ATOM     53  N   UNL     1      -5.796   2.264  15.624  1.00  0.00    -0.354 N 
ATOM     54  N   UNL     1      -3.592   4.205  15.410  1.00  0.00    -0.248 NA
ATOM     55  C   UNL     1      -2.363   5.981  16.303  1.00  0.00     0.031 C 
ATOM     56  C   UNL     1      -7.046   2.288  17.459  1.00  0.00     0.029 A 
ATOM     57  C   UNL     1      -5.961   2.894  16.844  1.00  0.00     0.049 A 
ATOM     58  H   UNL     1      -5.106   2.490  14.959  1.00  0.00     0.167 HD
ATOM     59  C   UNL     1      -4.091   4.516  16.668  1.00  0.00     0.074 A 
ATOM     60  C   UNL     1      -3.270   5.592  17.188  1.00  0.00     0.031 C 
ATOM     61  C   UNL     1      -5.134   3.965  17.335  1.00  0.00     0.031 A 
BRANCH  48  62
ATOM     62  C   UNL     1      -7.982  -0.583  14.263  1.00  0.00    -0.014 A 
ATOM     63  C   UNL     1      -7.723  -1.963  14.335  1.00  0.00     0.009 A 
ATOM     64  C   UNL     1      -9.310  -0.148  14.144  1.00  0.00     0.009 A 
ATOM     65  C   UNL     1      -8.767  -2.885  14.245  1.00  0.00     0.001 A 
ATOM     66  C   UNL     1     -10.355  -1.073  14.087  1.00  0.00     0.001 A 
ATOM     67  C   UNL     1     -10.082  -2.440  14.126  1.00  0.00     0.000 A 
ENDBRANCH  48  62
BRANCH  49  68
ATOM     68  C   UNL     1      -0.562   6.121  14.005  1.00  0.00    -0.014 A 
ATOM     69  C   UNL     1       0.532   5.995  14.876  1.00  0.00     0.009 A 
ATOM     70  C   UNL     1      -0.598   7.206  13.116  1.00  0.00     0.009 A 
ATOM     71  C   UNL     1       1.550   6.951  14.879  1.00  0.00     0.001 A 
ATOM     72  C   UNL     1       0.436   8.145  13.101  1.00  0.00     0.001 A 
ATOM     73  C   UNL     1       1.503   8.023  13.989  1.00  0.00     0.000 A 
ENDBRANCH  49  68
BRANCH  61  74
ATOM     74  C   UNL     1      -5.420   4.498  18.710  1.00  0.00    -0.014 A 
ATOM     75  C   UNL     1      -5.965   5.778  18.897  1.00  0.00     0.009 A 
ATOM     76  C   UNL     1      -5.161   3.696  19.832  1.00  0.00     0.009 A 
ATOM     77  C   UNL     1      -6.202   6.261  20.185  1.00  0.00     0.001 A 
ATOM     78  C   UNL     1      -5.429   4.169  21.116  1.00  0.00     0.001 A 
ATOM     79  C   UNL     1      -5.937   5.455  21.292  1.00  0.00     0.000 A 
ENDBRANCH  61  74
ENDBRANCH  35  36
ENDBRANCH  27  30
ENDBRANCH  25  26
ENDBRANCH  24  25
ENDBRANCH  23  24
ENDBRANCH   1  23
TORSDOF 17
