REMARK SMILES CC1(C)CC[C@@]2(C(=O)NCCCCNC(=O)c3ccc(-c4c5nc(c(-c6ccccc6)c6ccc([nH]6)c(-c6ccccc6)c6nc(c(-c7ccccc7)c7ccc4[nH]7)C=C6)C=C5)cc3)CC[C@@]3(C)C(=CC[C@H]4[C@@]5(C)CC[C@H](O)C(C)(C)[C@@H]5CC[C@]43C)[C@@H]2C1
REMARK SMILES IDX 12 1 11 2 10 3 9 4 7 5 8 6 6 8 1 9 2 10 3 11 4 12 88 13 5 14
REMARK SMILES IDX 87 15 69 16 65 17 67 18 70 19 66 20 68 21 85 22 71 23 72 24
REMARK SMILES IDX 84 25 86 26 73 27 83 28 74 29 75 30 82 31 76 32 79 33 77 34
REMARK SMILES IDX 80 35 81 36 78 37 13 39 14 40 15 41 16 43 17 44 18 45 64 46
REMARK SMILES IDX 19 47 63 48 20 49 21 50 22 51 57 52 23 53 62 54 56 55 58 56
REMARK SMILES IDX 24 57 61 58 55 59 54 60 25 62 47 63 32 64 46 65 33 66 36 67
REMARK SMILES IDX 45 68 59 69 34 70 35 71 44 73 60 74 37 75 26 76 27 77 31 78
REMARK SMILES IDX 28 79 30 80 29 81 48 82 49 83 53 84 50 85 52 86 51 87 38 88
REMARK SMILES IDX 39 89 43 90 40 91 42 92 41 93
REMARK H PARENT 9 7 78 38 14 42 58 61 36 72
REMARK Flexibility Score: inf
ROOT
ATOM      1  C   UNL     1      -2.307  -2.078   3.751  1.00  0.00     0.023 C 
ENDROOT
BRANCH   1   2
ATOM      2  C   UNL     1      -2.654  -2.491   2.306  1.00  0.00     0.023 C 
BRANCH   2   3
ATOM      3  C   UNL     1      -1.589  -2.487   1.194  1.00  0.00     0.116 C 
BRANCH   3   4
ATOM      4  N   UNL     1      -0.476  -3.421   1.205  1.00  0.00    -0.356 N 
ATOM      5  C   UNL     1       0.136  -3.886   0.085  1.00  0.00     0.226 C 
ATOM      6  O   UNL     1      -0.512  -4.470  -0.784  1.00  0.00    -0.274 OA
ATOM      7  H   UNL     1      -0.145  -3.735   2.077  1.00  0.00     0.163 HD
BRANCH   5   8
ATOM      8  C   UNL     1       1.670  -3.557  -0.079  1.00  0.00     0.056 C 
ATOM      9  C   UNL     1       2.362   0.336  -1.228  1.00  0.00     0.011 C 
ATOM     10  C   UNL     1       1.288  -0.512  -0.531  1.00  0.00    -0.035 C 
ATOM     11  C   UNL     1       0.148   0.493  -0.178  1.00  0.00     0.011 C 
ATOM     12  C   UNL     1       0.779  -1.590  -1.502  1.00  0.00     0.007 C 
ATOM     13  C   UNL     1       1.840  -1.119   0.784  1.00  0.00     0.015 C 
ATOM     14  C   UNL     1       1.642  -2.877  -1.501  1.00  0.00     0.018 C 
ATOM     15  C   UNL     1       2.470  -2.570   0.829  1.00  0.00     0.031 C 
ATOM     16  C   UNL     1       2.671  -3.129   2.278  1.00  0.00    -0.064 C 
ATOM     17  C   UNL     1       2.456  -4.889  -0.064  1.00  0.00     0.018 C 
ATOM     18  C   UNL     1       3.224  -4.568   2.659  1.00  0.00    -0.006 C 
ATOM     19  C   UNL     1       1.956  -2.464   3.197  1.00  0.00    -0.027 C 
ATOM     20  C   UNL     1       3.152  -5.390   1.267  1.00  0.00     0.013 C 
ATOM     21  C   UNL     1       4.780  -4.609   2.901  1.00  0.00     0.017 C 
ATOM     22  C   UNL     1       2.566  -4.899   4.311  1.00  0.00    -0.020 C 
ATOM     23  C   UNL     1       0.901  -3.166   3.981  1.00  0.00     0.032 C 
ATOM     24  C   UNL     1       1.052  -4.670   4.181  1.00  0.00     0.006 C 
ATOM     25  C   UNL     1       2.604  -6.098   5.385  1.00  0.00     0.008 C 
ATOM     26  C   UNL     1       3.294  -3.788   5.253  1.00  0.00     0.012 C 
ATOM     27  C   UNL     1       0.241  -6.019   3.599  1.00  0.00    -0.025 C 
ATOM     28  C   UNL     1       1.191  -6.685   5.886  1.00  0.00     0.005 C 
ATOM     29  C   UNL     1      -1.238  -5.695   3.415  1.00  0.00     0.012 C 
ATOM     30  C   UNL     1       0.744  -6.739   2.317  1.00  0.00     0.010 C 
ATOM     31  C   UNL     1       0.518  -7.187   4.628  1.00  0.00     0.003 C 
ATOM     32  C   UNL     1       0.282  -8.205   2.026  1.00  0.00     0.033 C 
ATOM     33  C   UNL     1      -0.295  -8.526   4.517  1.00  0.00    -0.006 C 
ATOM     34  C   UNL     1       0.322  -9.182   3.235  1.00  0.00     0.120 C 
ATOM     35  C   UNL     1      -1.828  -8.468   4.351  1.00  0.00     0.014 C 
ATOM     36  C   UNL     1      -0.057  -9.404   5.761  1.00  0.00     0.014 C 
BRANCH  34  37
ATOM     37  O   UNL     1      -0.277 -10.432   2.919  1.00  0.00    -0.393 OA
ATOM     38  H   UNL     1      -1.214 -10.298   2.708  1.00  0.00     0.210 HD
ENDBRANCH  34  37
ENDBRANCH   5   8
ENDBRANCH   3   4
ENDBRANCH   2   3
ENDBRANCH   1   2
BRANCH   1  39
ATOM     39  C   UNL     1      -1.356  -0.896   3.977  1.00  0.00     0.116 C 
BRANCH  39  40
ATOM     40  N   UNL     1      -1.930   0.414   3.813  1.00  0.00    -0.352 N 
ATOM     41  C   UNL     1      -1.980   1.478   4.699  1.00  0.00     0.251 C 
ATOM     42  H   UNL     1      -2.350   0.580   2.938  1.00  0.00     0.163 HD
ATOM     43  O   UNL     1      -2.403   2.545   4.338  1.00  0.00    -0.269 OA
BRANCH  41  44
ATOM     44  C   UNL     1      -1.596   1.284   6.126  1.00  0.00     0.039 A 
ATOM     45  C   UNL     1      -2.557   1.623   7.082  1.00  0.00     0.014 A 
ATOM     46  C   UNL     1      -0.344   0.817   6.536  1.00  0.00     0.014 A 
ATOM     47  C   UNL     1      -2.293   1.429   8.440  1.00  0.00     0.010 A 
ATOM     48  C   UNL     1      -0.104   0.565   7.895  1.00  0.00     0.010 A 
ATOM     49  C   UNL     1      -1.080   0.860   8.861  1.00  0.00    -0.014 A 
BRANCH  49  50
ATOM     50  C   UNL     1      -0.872   0.557  10.305  1.00  0.00     0.031 A 
ATOM     51  C   UNL     1       0.155   1.298  11.116  1.00  0.00     0.074 A 
ATOM     52  C   UNL     1      -1.631  -0.387  10.899  1.00  0.00     0.049 A 
ATOM     53  N   UNL     1       0.408   1.216  12.400  1.00  0.00    -0.248 NA
ATOM     54  C   UNL     1       1.019   2.244  10.394  1.00  0.00     0.031 C 
ATOM     55  C   UNL     1      -2.643  -1.204  10.226  1.00  0.00     0.029 A 
ATOM     56  N   UNL     1      -1.685  -0.806  12.206  1.00  0.00    -0.354 N 
ATOM     57  C   UNL     1       1.456   2.097  12.638  1.00  0.00     0.074 A 
ATOM     58  C   UNL     1       1.827   2.662  11.358  1.00  0.00     0.031 C 
ATOM     59  C   UNL     1      -3.246  -1.992  11.130  1.00  0.00     0.029 A 
ATOM     60  C   UNL     1      -2.643  -1.764  12.440  1.00  0.00     0.049 A 
ATOM     61  H   UNL     1      -1.093  -0.454  12.910  1.00  0.00     0.167 HD
ATOM     62  C   UNL     1       2.045   2.422  13.815  1.00  0.00     0.031 A 
ATOM     63  C   UNL     1      -3.005  -2.386  13.578  1.00  0.00     0.031 A 
ATOM     64  C   UNL     1       1.685   1.858  15.091  1.00  0.00     0.049 A 
ATOM     65  C   UNL     1      -2.320  -2.025  14.867  1.00  0.00     0.074 A 
ATOM     66  C   UNL     1       2.198   2.157  16.342  1.00  0.00     0.029 A 
ATOM     67  N   UNL     1       0.727   0.874  15.278  1.00  0.00    -0.354 N 
ATOM     68  N   UNL     1      -1.382  -1.136  15.083  1.00  0.00    -0.248 NA
ATOM     69  C   UNL     1      -2.758  -2.744  16.072  1.00  0.00     0.031 C 
ATOM     70  C   UNL     1       1.590   1.314  17.278  1.00  0.00     0.029 A 
ATOM     71  C   UNL     1       0.652   0.535  16.620  1.00  0.00     0.049 A 
ATOM     72  H   UNL     1       0.179   0.475  14.563  1.00  0.00     0.167 HD
ATOM     73  C   UNL     1      -1.137  -1.168  16.450  1.00  0.00     0.074 A 
ATOM     74  C   UNL     1      -2.039  -2.150  17.015  1.00  0.00     0.031 C 
ATOM     75  C   UNL     1      -0.245  -0.447  17.172  1.00  0.00     0.031 A 
BRANCH  62  76
ATOM     76  C   UNL     1       3.159   3.434  13.775  1.00  0.00    -0.014 A 
ATOM     77  C   UNL     1       2.905   4.785  13.492  1.00  0.00     0.009 A 
ATOM     78  C   UNL     1       4.475   3.039  14.062  1.00  0.00     0.009 A 
ATOM     79  C   UNL     1       3.950   5.711  13.456  1.00  0.00     0.001 A 
ATOM     80  C   UNL     1       5.514   3.972  14.055  1.00  0.00     0.001 A 
ATOM     81  C   UNL     1       5.252   5.305  13.742  1.00  0.00     0.000 A 
ENDBRANCH  62  76
BRANCH  63  82
ATOM     82  C   UNL     1      -4.087  -3.409  13.560  1.00  0.00    -0.014 A 
ATOM     83  C   UNL     1      -5.322  -3.156  14.175  1.00  0.00     0.009 A 
ATOM     84  C   UNL     1      -3.882  -4.651  12.938  1.00  0.00     0.009 A 
ATOM     85  C   UNL     1      -6.318  -4.135  14.195  1.00  0.00     0.001 A 
ATOM     86  C   UNL     1      -4.891  -5.616  12.932  1.00  0.00     0.001 A 
ATOM     87  C   UNL     1      -6.104  -5.362  13.569  1.00  0.00     0.000 A 
ENDBRANCH  63  82
BRANCH  75  88
ATOM     88  C   UNL     1      -0.225  -0.668  18.660  1.00  0.00    -0.014 A 
ATOM     89  C   UNL     1       0.269  -1.859  19.217  1.00  0.00     0.009 A 
ATOM     90  C   UNL     1      -0.682   0.344  19.518  1.00  0.00     0.009 A 
ATOM     91  C   UNL     1       0.267  -2.045  20.601  1.00  0.00     0.001 A 
ATOM     92  C   UNL     1      -0.653   0.168  20.902  1.00  0.00     0.001 A 
ATOM     93  C   UNL     1      -0.189  -1.030  21.442  1.00  0.00     0.000 A 
ENDBRANCH  75  88
ENDBRANCH  49  50
ENDBRANCH  41  44
ENDBRANCH  39  40
ENDBRANCH   1  39
TORSDOF 12
