REMARK SMILES COc1cc2c(CC(=O)NCCCCNC(=O)c3ccc(-c4c5nc(c(-c6ccccc6)c6ccc([nH]6)c(-c6ccccc6)c6nc(c(-c7ccccc7)c7ccc4[nH]7)C=C6)C=C5)cc3)c(C)n(C(=O)c3ccc(Cl)cc3)c2cc1Cl
REMARK SMILES IDX 12 1 11 2 10 3 8 4 9 5 7 7 6 8 3 9 4 10 80 11 5 12 79 13
REMARK SMILES IDX 81 14 78 15 66 16 68 17 67 18 2 19 1 20 69 21 70 22 71 23
REMARK SMILES IDX 72 24 77 25 73 26 76 27 74 28 75 29 13 30 14 31 15 32 16 33
REMARK SMILES IDX 17 35 18 36 19 37 65 38 20 39 64 40 21 41 22 42 23 43 58 44
REMARK SMILES IDX 24 45 63 46 57 47 59 48 25 49 62 50 56 51 55 52 26 54 48 55
REMARK SMILES IDX 33 56 47 57 34 58 37 59 46 60 60 61 35 62 36 63 45 65 61 66
REMARK SMILES IDX 38 67 27 68 28 69 32 70 29 71 31 72 30 73 49 74 50 75 54 76
REMARK SMILES IDX 51 77 53 78 52 79 39 80 40 81 44 82 41 83 43 84 42 85
REMARK H PARENT 10 6 15 34 59 53 37 64
REMARK Flexibility Score: inf
ROOT
ATOM      1  C   UNL     1       0.614   3.708  -6.978  1.00  0.00     0.023 C 
ENDROOT
BRANCH   1   2
ATOM      2  C   UNL     1      -0.724   4.367  -6.654  1.00  0.00     0.116 C 
BRANCH   2   3
ATOM      3  N   UNL     1      -1.643   3.442  -6.025  1.00  0.00    -0.356 N 
ATOM      4  C   UNL     1      -2.119   3.456  -4.744  1.00  0.00     0.224 C 
ATOM      5  O   UNL     1      -2.899   2.565  -4.401  1.00  0.00    -0.275 OA
ATOM      6  H   UNL     1      -1.968   2.707  -6.594  1.00  0.00     0.163 HD
BRANCH   4   7
ATOM      7  C   UNL     1      -1.732   4.582  -3.796  1.00  0.00     0.138 C 
BRANCH   7   8
ATOM      8  C   UNL     1      -0.280   4.565  -3.405  1.00  0.00    -0.009 A 
ATOM      9  C   UNL     1       0.928   1.344  -1.719  1.00  0.00     0.138 A 
ATOM     10  C   UNL     1       0.013   2.199  -2.347  1.00  0.00     0.058 A 
ATOM     11  C   UNL     1       2.239   1.761  -1.524  1.00  0.00     0.085 A 
ATOM     12  C   UNL     1       0.411   3.487  -2.780  1.00  0.00     0.008 A 
ATOM     13  C   UNL     1       2.632   3.050  -1.896  1.00  0.00     0.051 A 
ATOM     14  Cl  UNL     1       3.477   0.725  -0.908  1.00  0.00    -0.080 Cl
ATOM     15  C   UNL     1       1.733   3.895  -2.579  1.00  0.00     0.058 A 
ATOM     16  C   UNL     1       0.625   5.614  -3.530  1.00  0.00     0.028 A 
ATOM     17  N   UNL     1       1.902   5.141  -3.206  1.00  0.00    -0.280 N 
ATOM     18  C   UNL     1       0.345   7.015  -3.984  1.00  0.00     0.065 C 
BRANCH   9  19
ATOM     19  O   UNL     1       0.463   0.095  -1.396  1.00  0.00    -0.495 OA
ATOM     20  C   UNL     1       0.471  -0.141   0.012  1.00  0.00     0.278 C 
ENDBRANCH   9  19
BRANCH  17  21
ATOM     21  C   UNL     1       3.138   5.798  -3.491  1.00  0.00     0.262 C 
ATOM     22  O   UNL     1       3.127   6.852  -4.112  1.00  0.00    -0.268 OA
BRANCH  21  23
ATOM     23  C   UNL     1       4.466   5.292  -3.096  1.00  0.00     0.040 A 
ATOM     24  C   UNL     1       5.017   4.167  -3.720  1.00  0.00     0.015 A 
ATOM     25  C   UNL     1       5.123   5.920  -2.033  1.00  0.00     0.015 A 
ATOM     26  C   UNL     1       6.195   3.614  -3.210  1.00  0.00     0.021 A 
ATOM     27  C   UNL     1       6.306   5.370  -1.538  1.00  0.00     0.021 A 
ATOM     28  C   UNL     1       6.825   4.209  -2.114  1.00  0.00     0.041 A 
ATOM     29  Cl  UNL     1       8.237   3.488  -1.447  1.00  0.00    -0.084 Cl
ENDBRANCH  21  23
ENDBRANCH  17  21
ENDBRANCH   7   8
ENDBRANCH   4   7
ENDBRANCH   2   3
ENDBRANCH   1   2
BRANCH   1  30
ATOM     30  C   UNL     1       0.551   2.688  -8.120  1.00  0.00     0.023 C 
BRANCH  30  31
ATOM     31  C   UNL     1      -0.059   3.218  -9.423  1.00  0.00     0.116 C 
BRANCH  31  32
ATOM     32  N   UNL     1       0.614   4.387  -9.955  1.00  0.00    -0.352 N 
ATOM     33  C   UNL     1       1.657   4.577 -10.821  1.00  0.00     0.251 C 
ATOM     34  H   UNL     1       0.238   5.232  -9.617  1.00  0.00     0.163 HD
ATOM     35  O   UNL     1       1.854   5.736 -11.195  1.00  0.00    -0.269 OA
BRANCH  33  36
ATOM     36  C   UNL     1       2.590   3.512 -11.280  1.00  0.00     0.039 A 
ATOM     37  C   UNL     1       2.513   2.171 -10.915  1.00  0.00     0.014 A 
ATOM     38  C   UNL     1       3.680   3.926 -12.072  1.00  0.00     0.014 A 
ATOM     39  C   UNL     1       3.543   1.295 -11.223  1.00  0.00     0.010 A 
ATOM     40  C   UNL     1       4.706   3.045 -12.409  1.00  0.00     0.010 A 
ATOM     41  C   UNL     1       4.658   1.739 -11.937  1.00  0.00    -0.014 A 
BRANCH  41  42
ATOM     42  C   UNL     1       5.708   0.753 -12.166  1.00  0.00     0.031 A 
ATOM     43  C   UNL     1       5.292  -0.485 -12.883  1.00  0.00     0.074 A 
ATOM     44  C   UNL     1       6.984   0.901 -11.769  1.00  0.00     0.049 A 
ATOM     45  N   UNL     1       5.300  -1.701 -12.441  1.00  0.00    -0.248 NA
ATOM     46  C   UNL     1       4.724  -0.335 -14.229  1.00  0.00     0.031 C 
ATOM     47  C   UNL     1       7.667   2.104 -11.294  1.00  0.00     0.029 A 
ATOM     48  N   UNL     1       7.977  -0.032 -11.798  1.00  0.00    -0.354 N 
ATOM     49  C   UNL     1       4.846  -2.499 -13.487  1.00  0.00     0.074 A 
ATOM     50  C   UNL     1       4.431  -1.599 -14.536  1.00  0.00     0.031 C 
ATOM     51  C   UNL     1       9.002   1.887 -11.307  1.00  0.00     0.029 A 
ATOM     52  C   UNL     1       9.247   0.492 -11.636  1.00  0.00     0.049 A 
ATOM     53  H   UNL     1       7.806  -0.994 -11.923  1.00  0.00     0.167 HD
ATOM     54  C   UNL     1       4.951  -3.857 -13.479  1.00  0.00     0.031 A 
ATOM     55  C   UNL     1      10.412  -0.166 -11.835  1.00  0.00     0.031 A 
ATOM     56  C   UNL     1       5.196  -4.381 -12.166  1.00  0.00     0.049 A 
ATOM     57  C   UNL     1      10.146  -1.618 -11.729  1.00  0.00     0.074 A 
ATOM     58  C   UNL     1       4.480  -4.412 -10.986  1.00  0.00     0.029 A 
ATOM     59  N   UNL     1       6.484  -4.718 -11.833  1.00  0.00    -0.354 N 
ATOM     60  N   UNL     1       9.831  -2.218 -10.618  1.00  0.00    -0.248 NA
ATOM     61  C   UNL     1       9.863  -2.366 -12.943  1.00  0.00     0.031 C 
ATOM     62  C   UNL     1       5.458  -4.291  -9.958  1.00  0.00     0.029 A 
ATOM     63  C   UNL     1       6.711  -4.230 -10.572  1.00  0.00     0.049 A 
ATOM     64  H   UNL     1       7.123  -5.215 -12.393  1.00  0.00     0.167 HD
ATOM     65  C   UNL     1       8.936  -3.209 -10.991  1.00  0.00     0.074 A 
ATOM     66  C   UNL     1       9.091  -3.331 -12.437  1.00  0.00     0.031 C 
ATOM     67  C   UNL     1       7.961  -3.642 -10.137  1.00  0.00     0.031 A 
BRANCH  54  68
ATOM     68  C   UNL     1       5.092  -4.699 -14.717  1.00  0.00    -0.014 A 
ATOM     69  C   UNL     1       5.513  -4.170 -15.952  1.00  0.00     0.009 A 
ATOM     70  C   UNL     1       5.048  -6.101 -14.610  1.00  0.00     0.009 A 
ATOM     71  C   UNL     1       5.865  -4.991 -17.027  1.00  0.00     0.001 A 
ATOM     72  C   UNL     1       5.440  -6.926 -15.672  1.00  0.00     0.001 A 
ATOM     73  C   UNL     1       5.849  -6.370 -16.880  1.00  0.00     0.000 A 
ENDBRANCH  54  68
BRANCH  55  74
ATOM     74  C   UNL     1      11.638   0.362 -12.468  1.00  0.00    -0.014 A 
ATOM     75  C   UNL     1      11.553   1.407 -13.407  1.00  0.00     0.009 A 
ATOM     76  C   UNL     1      12.846  -0.346 -12.381  1.00  0.00     0.009 A 
ATOM     77  C   UNL     1      12.619   1.703 -14.261  1.00  0.00     0.001 A 
ATOM     78  C   UNL     1      13.912  -0.053 -13.241  1.00  0.00     0.001 A 
ATOM     79  C   UNL     1      13.791   0.960 -14.190  1.00  0.00     0.000 A 
ENDBRANCH  55  74
BRANCH  67  80
ATOM     80  C   UNL     1       8.025  -3.205  -8.690  1.00  0.00    -0.014 A 
ATOM     81  C   UNL     1       7.887  -4.178  -7.688  1.00  0.00     0.009 A 
ATOM     82  C   UNL     1       8.035  -1.853  -8.303  1.00  0.00     0.009 A 
ATOM     83  C   UNL     1       7.755  -3.815  -6.345  1.00  0.00     0.001 A 
ATOM     84  C   UNL     1       7.932  -1.490  -6.956  1.00  0.00     0.001 A 
ATOM     85  C   UNL     1       7.781  -2.471  -5.979  1.00  0.00     0.000 A 
ENDBRANCH  67  80
ENDBRANCH  41  42
ENDBRANCH  33  36
ENDBRANCH  31  32
ENDBRANCH  30  31
ENDBRANCH   1  30
TORSDOF 15
