REMARK SMILES O=C(NCCCCNC(=O)[C@@H]1Sc2c(sc(=O)n2Cc2ccccc2)[C@H]2c3ccccc3OC(=O)[C@@H]21)c1ccc(-c2c3nc(c(-c4ccccc4)c4ccc([nH]4)c(-c4ccccc4)c4nc(c(-c5ccccc5)c5ccc2[nH]5)C=C4)C=C3)cc1
REMARK SMILES IDX 5 1 4 2 3 3 1 4 2 5 37 7 38 8 84 9 39 10 83 11 40 12 41 13
REMARK SMILES IDX 42 14 77 15 43 16 82 17 76 18 78 19 44 20 81 21 75 22 74 23
REMARK SMILES IDX 45 25 67 26 52 27 66 28 53 29 56 30 65 31 79 32 54 33 55 34
REMARK SMILES IDX 64 36 80 37 57 38 46 39 47 40 51 41 48 42 50 43 49 44 68 45
REMARK SMILES IDX 69 46 73 47 70 48 72 49 71 50 58 51 59 52 63 53 60 54 62 55
REMARK SMILES IDX 61 56 6 57 7 58 8 59 9 60 10 62 11 63 12 64 36 65 13 66
REMARK SMILES IDX 26 67 34 68 14 69 18 70 27 71 33 72 35 73 15 74 16 75 28 76
REMARK SMILES IDX 32 77 17 78 29 79 31 80 30 81 19 82 20 83 21 84 25 85 22 86
REMARK SMILES IDX 24 87 23 88
REMARK H PARENT 3 6 78 24 56 35 8 61
REMARK Flexibility Score: inf
ROOT
ATOM      1  C   UNL     1       4.482   9.131   6.677  1.00  0.00     0.023 C 
ENDROOT
BRANCH   1   2
ATOM      2  C   UNL     1       4.999  10.351   7.408  1.00  0.00     0.116 C 
BRANCH   2   3
ATOM      3  N   UNL     1       4.804  11.629   6.705  1.00  0.00    -0.352 N 
ATOM      4  O   UNL     1       5.026  13.913   6.625  1.00  0.00    -0.269 OA
ATOM      5  C   UNL     1       5.478  12.824   6.946  1.00  0.00     0.251 C 
ATOM      6  H   UNL     1       4.126  11.640   5.991  1.00  0.00     0.163 HD
BRANCH   5   7
ATOM      7  C   UNL     1       6.813  12.708   7.552  1.00  0.00     0.039 A 
ATOM      8  C   UNL     1       7.227  13.396   8.694  1.00  0.00     0.014 A 
ATOM      9  C   UNL     1       7.565  11.677   7.016  1.00  0.00     0.014 A 
ATOM     10  C   UNL     1       8.384  12.953   9.338  1.00  0.00     0.010 A 
ATOM     11  C   UNL     1       8.451  11.058   7.838  1.00  0.00     0.010 A 
ATOM     12  C   UNL     1       8.978  11.754   8.907  1.00  0.00    -0.014 A 
BRANCH  12  13
ATOM     13  C   UNL     1      10.113  11.117   9.556  1.00  0.00     0.031 A 
ATOM     14  C   UNL     1       9.985  10.980  11.021  1.00  0.00     0.074 A 
ATOM     15  C   UNL     1      11.111  10.525   8.858  1.00  0.00     0.049 A 
ATOM     16  N   UNL     1      10.564  11.715  11.906  1.00  0.00    -0.248 NA
ATOM     17  C   UNL     1       8.984  10.054  11.570  1.00  0.00     0.031 C 
ATOM     18  C   UNL     1      11.233  10.316   7.402  1.00  0.00     0.029 A 
ATOM     19  N   UNL     1      12.211   9.885   9.327  1.00  0.00    -0.354 N 
ATOM     20  C   UNL     1      10.187  11.198  13.136  1.00  0.00     0.074 A 
ATOM     21  C   UNL     1       9.064  10.333  12.875  1.00  0.00     0.031 C 
ATOM     22  C   UNL     1      12.203   9.413   7.140  1.00  0.00     0.029 A 
ATOM     23  C   UNL     1      12.914   9.156   8.374  1.00  0.00     0.049 A 
ATOM     24  H   UNL     1      12.490   9.932  10.270  1.00  0.00     0.167 HD
ATOM     25  C   UNL     1      11.005  11.322  14.217  1.00  0.00     0.031 A 
ATOM     26  C   UNL     1      14.037   8.430   8.576  1.00  0.00     0.031 A 
ATOM     27  C   UNL     1      12.078  12.252  13.946  1.00  0.00     0.049 A 
ATOM     28  C   UNL     1      14.665   8.963   9.803  1.00  0.00     0.074 A 
ATOM     29  C   UNL     1      12.143  13.598  13.650  1.00  0.00     0.029 A 
ATOM     30  N   UNL     1      13.262  11.700  13.511  1.00  0.00    -0.354 N 
ATOM     31  N   UNL     1      15.161  10.164   9.887  1.00  0.00    -0.248 NA
ATOM     32  C   UNL     1      14.345   8.327  11.068  1.00  0.00     0.031 C 
ATOM     33  C   UNL     1      13.169  13.712  12.667  1.00  0.00     0.029 A 
ATOM     34  C   UNL     1      13.750  12.455  12.475  1.00  0.00     0.049 A 
ATOM     35  H   UNL     1      13.689  10.895  13.883  1.00  0.00     0.167 HD
ATOM     36  C   UNL     1      14.791  10.606  11.148  1.00  0.00     0.074 A 
ATOM     37  C   UNL     1      14.410   9.393  11.871  1.00  0.00     0.031 C 
ATOM     38  C   UNL     1      14.557  11.930  11.387  1.00  0.00     0.031 A 
BRANCH  25  39
ATOM     39  C   UNL     1      11.088  10.317  15.338  1.00  0.00    -0.014 A 
ATOM     40  C   UNL     1      10.517   9.032  15.284  1.00  0.00     0.009 A 
ATOM     41  C   UNL     1      11.980  10.563  16.397  1.00  0.00     0.009 A 
ATOM     42  C   UNL     1      10.826   8.040  16.220  1.00  0.00     0.001 A 
ATOM     43  C   UNL     1      12.323   9.562  17.314  1.00  0.00     0.001 A 
ATOM     44  C   UNL     1      11.748   8.299  17.222  1.00  0.00     0.000 A 
ENDBRANCH  25  39
BRANCH  26  45
ATOM     45  C   UNL     1      14.422   7.123   8.005  1.00  0.00    -0.014 A 
ATOM     46  C   UNL     1      13.429   6.187   7.663  1.00  0.00     0.009 A 
ATOM     47  C   UNL     1      15.745   6.667   8.119  1.00  0.00     0.009 A 
ATOM     48  C   UNL     1      13.737   4.830   7.518  1.00  0.00     0.001 A 
ATOM     49  C   UNL     1      16.052   5.308   7.974  1.00  0.00     0.001 A 
ATOM     50  C   UNL     1      15.044   4.387   7.697  1.00  0.00     0.000 A 
ENDBRANCH  26  45
BRANCH  38  51
ATOM     51  C   UNL     1      14.978  12.930  10.326  1.00  0.00    -0.014 A 
ATOM     52  C   UNL     1      15.800  13.997  10.721  1.00  0.00     0.009 A 
ATOM     53  C   UNL     1      14.463  12.944   9.016  1.00  0.00     0.009 A 
ATOM     54  C   UNL     1      16.081  15.054   9.852  1.00  0.00     0.001 A 
ATOM     55  C   UNL     1      14.768  13.990   8.135  1.00  0.00     0.001 A 
ATOM     56  C   UNL     1      15.566  15.050   8.558  1.00  0.00     0.000 A 
ENDBRANCH  38  51
ENDBRANCH  12  13
ENDBRANCH   5   7
ENDBRANCH   2   3
ENDBRANCH   1   2
BRANCH   1  57
ATOM     57  C   UNL     1       5.030   8.886   5.277  1.00  0.00     0.023 C 
BRANCH  57  58
ATOM     58  C   UNL     1       6.489   8.551   4.987  1.00  0.00     0.116 C 
BRANCH  58  59
ATOM     59  N   UNL     1       6.796   7.127   4.986  1.00  0.00    -0.355 N 
ATOM     60  C   UNL     1       6.856   6.186   3.998  1.00  0.00     0.234 C 
ATOM     61  H   UNL     1       7.003   6.770   5.880  1.00  0.00     0.163 HD
ATOM     62  O   UNL     1       7.598   5.223   4.235  1.00  0.00    -0.274 OA
BRANCH  60  63
ATOM     63  C   UNL     1       6.049   6.208   2.676  1.00  0.00     0.157 C 
ATOM     64  S   UNL     1       6.812   7.421   1.439  1.00  0.00    -0.093 SA
ATOM     65  C   UNL     1       4.499   6.221   2.785  1.00  0.00     0.135 C 
ATOM     66  C   UNL     1       5.423   7.880   0.502  1.00  0.00     0.094 A 
ATOM     67  C   UNL     1       3.992   7.624   2.492  1.00  0.00     0.082 C 
ATOM     68  C   UNL     1       3.961   5.578   4.042  1.00  0.00     0.317 C 
ATOM     69  C   UNL     1       4.193   7.877   1.041  1.00  0.00     0.049 A 
ATOM     70  N   UNL     1       5.433   8.272  -0.823  1.00  0.00    -0.289 N 
ATOM     71  C   UNL     1       2.711   8.031   3.147  1.00  0.00     0.004 A 
ATOM     72  O   UNL     1       2.684   5.960   4.432  1.00  0.00    -0.426 OA
ATOM     73  O   UNL     1       4.530   4.654   4.612  1.00  0.00    -0.251 OA
ATOM     74  S   UNL     1       2.957   8.194  -0.118  1.00  0.00    -0.077 S 
ATOM     75  C   UNL     1       4.161   8.428  -1.390  1.00  0.00     0.308 A 
ATOM     76  C   UNL     1       2.250   9.356   3.049  1.00  0.00     0.008 A 
ATOM     77  C   UNL     1       2.119   7.199   4.086  1.00  0.00     0.134 A 
ATOM     78  O   UNL     1       3.852   8.664  -2.534  1.00  0.00    -0.257 OA
ATOM     79  C   UNL     1       1.200   9.809   3.846  1.00  0.00     0.001 A 
ATOM     80  C   UNL     1       1.047   7.629   4.869  1.00  0.00     0.047 A 
ATOM     81  C   UNL     1       0.590   8.941   4.747  1.00  0.00     0.004 A 
BRANCH  70  82
ATOM     82  C   UNL     1       6.605   8.550  -1.637  1.00  0.00     0.163 C 
BRANCH  82  83
ATOM     83  C   UNL     1       6.641   9.994  -2.112  1.00  0.00    -0.028 A 
ATOM     84  C   UNL     1       7.072  11.029  -1.271  1.00  0.00     0.005 A 
ATOM     85  C   UNL     1       6.152  10.327  -3.388  1.00  0.00     0.005 A 
ATOM     86  C   UNL     1       6.993  12.361  -1.692  1.00  0.00     0.000 A 
ATOM     87  C   UNL     1       6.058  11.657  -3.799  1.00  0.00     0.000 A 
ATOM     88  C   UNL     1       6.476  12.675  -2.949  1.00  0.00     0.000 A 
ENDBRANCH  82  83
ENDBRANCH  70  82
ENDBRANCH  60  63
ENDBRANCH  58  59
ENDBRANCH  57  58
ENDBRANCH   1  57
TORSDOF 13
