REMARK SMILES CC(C)(C)c1cc2c(cc1Cl)C=C(C(=O)NCCCCNC(=O)c1ccc(-c3c4nc(c(-c5ccccc5)c5ccc([nH]5)c(-c5ccccc5)c5nc(c(-c6ccccc6)c6ccc3[nH]6)C=C5)C=C4)cc1)[C@@H](C(F)(F)F)O2
REMARK SMILES IDX 19 1 18 2 17 3 16 4 14 5 15 6 13 8 5 9 6 10 10 11 7 12 9 13
REMARK SMILES IDX 11 14 8 15 77 16 12 17 72 18 2 19 1 20 3 21 4 22 73 23 74 24
REMARK SMILES IDX 75 25 76 26 20 27 21 28 22 29 23 31 24 32 25 33 71 34 26 35
REMARK SMILES IDX 70 36 27 37 28 38 29 39 64 40 30 41 69 42 63 43 65 44 31 45
REMARK SMILES IDX 68 46 62 47 61 48 32 50 54 51 39 52 53 53 40 54 43 55 52 56
REMARK SMILES IDX 66 57 41 58 42 59 51 61 67 62 44 63 33 64 34 65 38 66 35 67
REMARK SMILES IDX 37 68 36 69 55 70 56 71 60 72 57 73 59 74 58 75 45 76 46 77
REMARK SMILES IDX 50 78 47 79 49 80 48 81
REMARK H PARENT 16 7 21 30 65 49 43 60
REMARK Flexibility Score: inf
ROOT
ATOM      1  C   UNL     1       1.715   6.729  10.068  1.00  0.00     0.023 C 
ENDROOT
BRANCH   1   2
ATOM      2  C   UNL     1       1.709   6.289   8.602  1.00  0.00     0.023 C 
BRANCH   2   3
ATOM      3  C   UNL     1       3.028   5.690   8.120  1.00  0.00     0.116 C 
BRANCH   3   4
ATOM      4  N   UNL     1       3.134   4.276   8.432  1.00  0.00    -0.352 N 
ATOM      5  C   UNL     1       2.947   3.105   7.777  1.00  0.00     0.251 C 
ATOM      6  O   UNL     1       3.150   2.090   8.450  1.00  0.00    -0.270 OA
ATOM      7  H   UNL     1       3.416   4.129   9.364  1.00  0.00     0.163 HD
BRANCH   5   8
ATOM      8  C   UNL     1       2.523   2.973   6.351  1.00  0.00     0.067 C 
ATOM      9  C   UNL     1       0.976   1.181   1.837  1.00  0.00    -0.020 A 
ATOM     10  C   UNL     1       1.094   2.451   2.449  1.00  0.00     0.053 A 
ATOM     11  C   UNL     1       1.262   0.074   2.669  1.00  0.00     0.045 A 
ATOM     12  C   UNL     1       1.530   2.614   3.765  1.00  0.00     0.128 A 
ATOM     13  C   UNL     1       1.701   0.247   3.998  1.00  0.00     0.032 A 
ATOM     14  Cl  UNL     1       1.043  -1.579   2.213  1.00  0.00    -0.084 Cl
ATOM     15  C   UNL     1       1.843   1.517   4.550  1.00  0.00     0.019 A 
ATOM     16  O   UNL     1       1.573   3.894   4.236  1.00  0.00    -0.475 OA
ATOM     17  C   UNL     1       2.244   1.722   5.936  1.00  0.00     0.025 C 
ATOM     18  C   UNL     1       2.438   4.120   5.383  1.00  0.00     0.314 C 
BRANCH   9  19
ATOM     19  C   UNL     1       0.479   1.129   0.368  1.00  0.00    -0.012 C 
ATOM     20  C   UNL     1       0.974  -0.074  -0.465  1.00  0.00     0.016 C 
ATOM     21  C   UNL     1       0.932   2.378  -0.444  1.00  0.00     0.016 C 
ATOM     22  C   UNL     1      -1.063   1.113   0.394  1.00  0.00     0.016 C 
ENDBRANCH   9  19
BRANCH  18  23
ATOM     23  C   UNL     1       3.821   4.582   4.887  1.00  0.00     0.429 C 
ATOM     24  F   UNL     1       3.725   5.794   4.285  1.00  0.00    -0.167 F 
ATOM     25  F   UNL     1       4.712   4.727   5.897  1.00  0.00    -0.167 F 
ATOM     26  F   UNL     1       4.371   3.728   3.996  1.00  0.00    -0.167 F 
ENDBRANCH  18  23
ENDBRANCH   5   8
ENDBRANCH   3   4
ENDBRANCH   2   3
ENDBRANCH   1   2
BRANCH   1  27
ATOM     27  C   UNL     1       2.822   7.709  10.454  1.00  0.00     0.116 C 
BRANCH  27  28
ATOM     28  N   UNL     1       2.901   8.893   9.611  1.00  0.00    -0.352 N 
ATOM     29  C   UNL     1       3.439  10.120   9.937  1.00  0.00     0.251 C 
ATOM     30  H   UNL     1       2.529   8.808   8.703  1.00  0.00     0.163 HD
ATOM     31  O   UNL     1       3.390  11.063   9.155  1.00  0.00    -0.269 OA
BRANCH  29  32
ATOM     32  C   UNL     1       4.020  10.289  11.282  1.00  0.00     0.039 A 
ATOM     33  C   UNL     1       4.994   9.399  11.735  1.00  0.00     0.014 A 
ATOM     34  C   UNL     1       3.489  11.263  12.130  1.00  0.00     0.014 A 
ATOM     35  C   UNL     1       5.304   9.365  13.088  1.00  0.00     0.010 A 
ATOM     36  C   UNL     1       3.860  11.275  13.476  1.00  0.00     0.010 A 
ATOM     37  C   UNL     1       4.721  10.286  13.976  1.00  0.00    -0.014 A 
BRANCH  37  38
ATOM     38  C   UNL     1       5.002  10.165  15.428  1.00  0.00     0.031 A 
ATOM     39  C   UNL     1       3.917   9.759  16.389  1.00  0.00     0.074 A 
ATOM     40  C   UNL     1       6.262  10.340  15.868  1.00  0.00     0.049 A 
ATOM     41  N   UNL     1       3.999   9.550  17.679  1.00  0.00    -0.248 NA
ATOM     42  C   UNL     1       2.567   9.558  15.836  1.00  0.00     0.031 C 
ATOM     43  C   UNL     1       7.403  10.705  15.027  1.00  0.00     0.029 A 
ATOM     44  N   UNL     1       6.801  10.192  17.120  1.00  0.00    -0.354 N 
ATOM     45  C   UNL     1       2.715   9.217  18.094  1.00  0.00     0.074 A 
ATOM     46  C   UNL     1       1.866   9.268  16.924  1.00  0.00     0.031 C 
ATOM     47  C   UNL     1       8.518  10.686  15.772  1.00  0.00     0.029 A 
ATOM     48  C   UNL     1       8.162  10.367  17.151  1.00  0.00     0.049 A 
ATOM     49  H   UNL     1       6.264   9.982  17.918  1.00  0.00     0.167 HD
ATOM     50  C   UNL     1       2.285   8.892  19.336  1.00  0.00     0.031 A 
ATOM     51  C   UNL     1       9.032  10.281  18.174  1.00  0.00     0.031 A 
ATOM     52  C   UNL     1       3.131   8.825  20.497  1.00  0.00     0.049 A 
ATOM     53  C   UNL     1       8.525   9.950  19.545  1.00  0.00     0.074 A 
ATOM     54  C   UNL     1       2.783   8.497  21.796  1.00  0.00     0.029 A 
ATOM     55  N   UNL     1       4.492   9.083  20.498  1.00  0.00    -0.354 N 
ATOM     56  N   UNL     1       7.304   9.657  19.921  1.00  0.00    -0.248 NA
ATOM     57  C   UNL     1       9.511   9.949  20.634  1.00  0.00     0.031 C 
ATOM     58  C   UNL     1       3.927   8.596  22.593  1.00  0.00     0.029 A 
ATOM     59  C   UNL     1       4.996   8.939  21.780  1.00  0.00     0.049 A 
ATOM     60  H   UNL     1       5.022   9.331  19.707  1.00  0.00     0.167 HD
ATOM     61  C   UNL     1       7.374   9.435  21.289  1.00  0.00     0.074 A 
ATOM     62  C   UNL     1       8.761   9.605  21.673  1.00  0.00     0.031 C 
ATOM     63  C   UNL     1       6.374   9.125  22.149  1.00  0.00     0.031 A 
BRANCH  50  64
ATOM     64  C   UNL     1       0.823   8.599  19.518  1.00  0.00    -0.014 A 
ATOM     65  C   UNL     1       0.007   9.522  20.192  1.00  0.00     0.009 A 
ATOM     66  C   UNL     1       0.269   7.379  19.101  1.00  0.00     0.009 A 
ATOM     67  C   UNL     1      -1.333   9.228  20.450  1.00  0.00     0.001 A 
ATOM     68  C   UNL     1      -1.078   7.097  19.341  1.00  0.00     0.001 A 
ATOM     69  C   UNL     1      -1.875   8.018  20.021  1.00  0.00     0.000 A 
ENDBRANCH  50  64
BRANCH  51  70
ATOM     70  C   UNL     1      10.476  10.512  17.918  1.00  0.00    -0.014 A 
ATOM     71  C   UNL     1      10.948  11.798  17.611  1.00  0.00     0.009 A 
ATOM     72  C   UNL     1      11.377   9.437  17.920  1.00  0.00     0.009 A 
ATOM     73  C   UNL     1      12.290  12.000  17.285  1.00  0.00     0.001 A 
ATOM     74  C   UNL     1      12.724   9.647  17.617  1.00  0.00     0.001 A 
ATOM     75  C   UNL     1      13.177  10.925  17.291  1.00  0.00     0.000 A 
ENDBRANCH  51  70
BRANCH  63  76
ATOM     76  C   UNL     1       6.735   8.952  23.595  1.00  0.00    -0.014 A 
ATOM     77  C   UNL     1       6.747   7.669  24.163  1.00  0.00     0.009 A 
ATOM     78  C   UNL     1       6.985  10.065  24.411  1.00  0.00     0.009 A 
ATOM     79  C   UNL     1       6.998   7.504  25.526  1.00  0.00     0.001 A 
ATOM     80  C   UNL     1       7.257   9.895  25.769  1.00  0.00     0.001 A 
ATOM     81  C   UNL     1       7.256   8.616  26.327  1.00  0.00     0.000 A 
ENDBRANCH  63  76
ENDBRANCH  37  38
ENDBRANCH  29  32
ENDBRANCH  27  28
ENDBRANCH   1  27
TORSDOF 13
