REMARK SMILES Cc1ccccc1O[C@H](C)C(=O)Oc1cccc(C(=O)NCCCCNC(=O)c2ccc(-c3c4nc(c(-c5ccccc5)c5ccc([nH]5)c(-c5ccccc5)c5nc(c(-c6ccccc6)c6ccc3[nH]6)C=C5)C=C4)cc2)c1
REMARK SMILES IDX 22 1 21 2 19 3 20 4 18 6 14 7 15 8 77 9 16 10 17 11 13 12
REMARK SMILES IDX 11 13 12 14 9 15 10 16 8 17 7 18 1 19 2 20 3 21 4 22 6 23
REMARK SMILES IDX 5 24 23 25 24 26 25 27 26 28 27 29 28 31 29 32 30 33 76 34
REMARK SMILES IDX 31 35 75 36 32 37 33 38 34 39 69 40 35 41 74 42 68 43 70 44
REMARK SMILES IDX 36 45 73 46 67 47 66 48 37 50 59 51 44 52 58 53 45 54 48 55
REMARK SMILES IDX 57 56 71 57 46 58 47 59 56 61 72 62 49 63 38 64 39 65 43 66
REMARK SMILES IDX 40 67 42 68 41 69 60 70 61 71 65 72 62 73 64 74 63 75 50 76
REMARK SMILES IDX 51 77 55 78 52 79 54 80 53 81
REMARK H PARENT 21 5 26 30 70 49 48 60
REMARK Flexibility Score: inf
ROOT
ATOM      1  C   UNL     1       3.352  -2.826  -7.476  1.00  0.00     0.116 C 
ENDROOT
BRANCH   1   2
ATOM      2  N   UNL     1       2.180  -2.791  -6.620  1.00  0.00    -0.352 N 
ATOM      3  C   UNL     1       1.892  -2.180  -5.426  1.00  0.00     0.251 C 
ATOM      4  O   UNL     1       0.738  -2.307  -5.009  1.00  0.00    -0.269 OA
ATOM      5  H   UNL     1       1.429  -3.321  -6.973  1.00  0.00     0.163 HD
BRANCH   3   6
ATOM      6  C   UNL     1       2.857  -1.375  -4.620  1.00  0.00     0.043 A 
ATOM      7  C   UNL     1       3.135   0.228  -2.802  1.00  0.00     0.131 A 
ATOM      8  C   UNL     1       4.517   0.138  -2.909  1.00  0.00     0.047 A 
ATOM      9  C   UNL     1       2.308  -0.519  -3.647  1.00  0.00     0.061 A 
ATOM     10  C   UNL     1       5.071  -0.706  -3.869  1.00  0.00     0.005 A 
ATOM     11  C   UNL     1       4.248  -1.472  -4.703  1.00  0.00     0.014 A 
BRANCH   7  12
ATOM     12  O   UNL     1       2.472   0.951  -1.782  1.00  0.00    -0.424 OA
BRANCH  12  13
ATOM     13  C   UNL     1       3.054   1.984  -1.047  1.00  0.00     0.352 C 
ATOM     14  O   UNL     1       4.100   2.558  -1.332  1.00  0.00    -0.247 OA
BRANCH  13  15
ATOM     15  C   UNL     1       2.195   2.337   0.184  1.00  0.00     0.280 C 
ATOM     16  C   UNL     1       0.735   2.639  -0.142  1.00  0.00     0.066 C 
BRANCH  15  17
ATOM     17  O   UNL     1       2.334   1.605   1.396  1.00  0.00    -0.479 OA
BRANCH  17  18
ATOM     18  C   UNL     1       2.291   0.243   1.450  1.00  0.00     0.123 A 
ATOM     19  C   UNL     1       3.702   0.458   3.566  1.00  0.00     0.048 C 
ATOM     20  C   UNL     1       2.978  -0.353   2.525  1.00  0.00    -0.009 A 
ATOM     21  C   UNL     1       2.947  -1.751   2.681  1.00  0.00     0.007 A 
ATOM     22  C   UNL     1       2.249  -2.551   1.782  1.00  0.00     0.001 A 
ATOM     23  C   UNL     1       1.565  -0.570   0.580  1.00  0.00     0.047 A 
ATOM     24  C   UNL     1       1.556  -1.959   0.733  1.00  0.00     0.004 A 
ENDBRANCH  17  18
ENDBRANCH  15  17
ENDBRANCH  13  15
ENDBRANCH  12  13
ENDBRANCH   7  12
ENDBRANCH   3   6
ENDBRANCH   1   2
BRANCH   1  25
ATOM     25  C   UNL     1       4.185  -4.102  -7.267  1.00  0.00     0.023 C 
BRANCH  25  26
ATOM     26  C   UNL     1       3.492  -5.402  -7.699  1.00  0.00     0.023 C 
BRANCH  26  27
ATOM     27  C   UNL     1       3.330  -5.549  -9.207  1.00  0.00     0.116 C 
BRANCH  27  28
ATOM     28  N   UNL     1       4.495  -6.090  -9.901  1.00  0.00    -0.352 N 
ATOM     29  C   UNL     1       4.790  -6.055 -11.256  1.00  0.00     0.251 C 
ATOM     30  H   UNL     1       5.159  -6.540  -9.331  1.00  0.00     0.163 HD
ATOM     31  O   UNL     1       5.795  -6.596 -11.692  1.00  0.00    -0.269 OA
BRANCH  29  32
ATOM     32  C   UNL     1       3.937  -5.235 -12.149  1.00  0.00     0.039 A 
ATOM     33  C   UNL     1       4.566  -4.250 -12.916  1.00  0.00     0.014 A 
ATOM     34  C   UNL     1       2.549  -5.258 -12.022  1.00  0.00     0.014 A 
ATOM     35  C   UNL     1       3.833  -3.139 -13.319  1.00  0.00     0.010 A 
ATOM     36  C   UNL     1       1.839  -4.115 -12.343  1.00  0.00     0.010 A 
ATOM     37  C   UNL     1       2.504  -3.023 -12.912  1.00  0.00    -0.014 A 
BRANCH  37  38
ATOM     38  C   UNL     1       1.814  -1.737 -12.872  1.00  0.00     0.031 A 
ATOM     39  C   UNL     1       0.758  -1.406 -13.844  1.00  0.00     0.074 A 
ATOM     40  C   UNL     1       2.154  -0.824 -11.935  1.00  0.00     0.049 A 
ATOM     41  N   UNL     1       0.460  -0.202 -14.205  1.00  0.00    -0.248 NA
ATOM     42  C   UNL     1       0.009  -2.428 -14.564  1.00  0.00     0.031 C 
ATOM     43  C   UNL     1       1.445   0.401 -11.578  1.00  0.00     0.029 A 
ATOM     44  N   UNL     1       3.374  -0.721 -11.273  1.00  0.00    -0.354 N 
ATOM     45  C   UNL     1      -0.704  -0.272 -14.932  1.00  0.00     0.074 A 
ATOM     46  C   UNL     1      -0.851  -1.672 -15.253  1.00  0.00     0.031 C 
ATOM     47  C   UNL     1       2.303   1.238 -10.972  1.00  0.00     0.029 A 
ATOM     48  C   UNL     1       3.626   0.640 -11.053  1.00  0.00     0.049 A 
ATOM     49  H   UNL     1       3.956  -1.469 -11.007  1.00  0.00     0.167 HD
ATOM     50  C   UNL     1      -1.496   0.833 -15.031  1.00  0.00     0.031 A 
ATOM     51  C   UNL     1       4.724   1.251 -11.585  1.00  0.00     0.031 A 
ATOM     52  C   UNL     1      -0.837   2.033 -14.505  1.00  0.00     0.049 A 
ATOM     53  C   UNL     1       4.402   2.393 -12.523  1.00  0.00     0.074 A 
ATOM     54  C   UNL     1      -1.015   2.787 -13.357  1.00  0.00     0.029 A 
ATOM     55  N   UNL     1       0.350   2.474 -15.082  1.00  0.00    -0.354 N 
ATOM     56  N   UNL     1       3.232   2.589 -13.064  1.00  0.00    -0.248 NA
ATOM     57  C   UNL     1       5.394   3.366 -12.973  1.00  0.00     0.031 C 
ATOM     58  C   UNL     1       0.107   3.646 -13.214  1.00  0.00     0.029 A 
ATOM     59  C   UNL     1       0.951   3.433 -14.290  1.00  0.00     0.049 A 
ATOM     60  H   UNL     1       0.713   2.147 -15.938  1.00  0.00     0.167 HD
ATOM     61  C   UNL     1       3.300   3.649 -13.931  1.00  0.00     0.074 A 
ATOM     62  C   UNL     1       4.669   4.118 -13.820  1.00  0.00     0.031 C 
ATOM     63  C   UNL     1       2.224   4.029 -14.682  1.00  0.00     0.031 A 
BRANCH  50  64
ATOM     64  C   UNL     1      -2.985   0.777 -15.333  1.00  0.00    -0.014 A 
ATOM     65  C   UNL     1      -3.794   1.893 -15.043  1.00  0.00     0.009 A 
ATOM     66  C   UNL     1      -3.675  -0.357 -15.796  1.00  0.00     0.009 A 
ATOM     67  C   UNL     1      -5.194   1.849 -15.131  1.00  0.00     0.001 A 
ATOM     68  C   UNL     1      -5.074  -0.414 -15.883  1.00  0.00     0.001 A 
ATOM     69  C   UNL     1      -5.837   0.687 -15.535  1.00  0.00     0.000 A 
ENDBRANCH  50  64
BRANCH  51  70
ATOM     70  C   UNL     1       5.900   0.351 -11.752  1.00  0.00    -0.014 A 
ATOM     71  C   UNL     1       6.503  -0.195 -10.601  1.00  0.00     0.009 A 
ATOM     72  C   UNL     1       6.207  -0.210 -12.999  1.00  0.00     0.009 A 
ATOM     73  C   UNL     1       7.304  -1.337 -10.685  1.00  0.00     0.001 A 
ATOM     74  C   UNL     1       7.022  -1.346 -13.080  1.00  0.00     0.001 A 
ATOM     75  C   UNL     1       7.542  -1.926 -11.923  1.00  0.00     0.000 A 
ENDBRANCH  51  70
BRANCH  63  76
ATOM     76  C   UNL     1       2.229   5.033 -15.814  1.00  0.00    -0.014 A 
ATOM     77  C   UNL     1       3.372   5.451 -16.508  1.00  0.00     0.009 A 
ATOM     78  C   UNL     1       0.991   5.513 -16.301  1.00  0.00     0.009 A 
ATOM     79  C   UNL     1       3.289   6.337 -17.593  1.00  0.00     0.001 A 
ATOM     80  C   UNL     1       0.899   6.359 -17.410  1.00  0.00     0.001 A 
ATOM     81  C   UNL     1       2.054   6.783 -18.050  1.00  0.00     0.000 A 
ENDBRANCH  63  76
ENDBRANCH  37  38
ENDBRANCH  29  32
ENDBRANCH  27  28
ENDBRANCH  26  27
ENDBRANCH  25  26
ENDBRANCH   1  25
TORSDOF 16
