REMARK SMILES C[C@H](C[N@@H+](C)[C@@H](C)[C@@H](C)O)C(=O)NCCCCNC(=O)c1ccc(-c2c3nc(c(-c4ccccc4)c4ccc([nH]4)c(-c4ccccc4)c4nc(c(-c5ccccc5)c5ccc2[nH]5)C=C4)C=C3)cc1
REMARK SMILES IDX 14 1 13 2 11 3 12 4 2 6 1 7 3 8 4 9 5 10 6 12 7 13 8 14 9 15
REMARK SMILES IDX 10 16 15 18 16 19 17 20 18 21 19 22 20 24 21 25 22 26 68 27
REMARK SMILES IDX 23 28 67 29 24 30 25 31 26 32 61 33 27 34 66 35 60 36 62 37
REMARK SMILES IDX 28 38 65 39 59 40 58 41 29 43 51 44 36 45 50 46 37 47 40 48
REMARK SMILES IDX 49 49 63 50 38 51 39 52 48 54 64 55 41 56 30 57 31 58 35 59
REMARK SMILES IDX 32 60 34 61 33 62 52 63 53 64 57 65 54 66 56 67 55 68 42 69
REMARK SMILES IDX 43 70 47 71 44 72 46 73 45 74
REMARK H PARENT 13 5 4 11 10 17 18 23 62 42 40 53
REMARK Flexibility Score: inf
ROOT
ATOM      1  C   UNL     1      -3.117  -1.039  -0.319  1.00  0.00     0.116 C 
ENDROOT
BRANCH   1   2
ATOM      2  N   UNL     1      -2.477   0.308  -0.473  1.00  0.00    -0.356 N 
ATOM      3  C   UNL     1      -1.430   1.107  -0.745  1.00  0.00     0.228 C 
ATOM      4  O   UNL     1      -1.878   2.274  -0.872  1.00  0.00    -0.275 OA
ATOM      5  H   UNL     1      -3.204   0.938  -0.265  1.00  0.00     0.163 HD
BRANCH   3   6
ATOM      6  C   UNL     1       0.125   1.003  -1.032  1.00  0.00     0.130 C 
ATOM      7  C   UNL     1       0.471   1.034  -2.532  1.00  0.00     0.024 C 
BRANCH   6   8
ATOM      8  C   UNL     1       1.320   0.554  -0.105  1.00  0.00     0.275 C 
BRANCH   8   9
ATOM      9  N   UNL     1       1.940  -0.800  -0.105  1.00  0.00    -0.332 N 
ATOM     10  C   UNL     1       2.976  -0.922   0.938  1.00  0.00     0.333 C 
ATOM     11  H   UNL     1       2.362  -0.895  -1.029  1.00  0.00     0.348 HD
BRANCH   9  12
ATOM     12  C   UNL     1       0.969  -1.891   0.060  1.00  0.00     0.209 C 
ATOM     13  C   UNL     1       0.036  -1.524   1.208  1.00  0.00     0.078 C 
BRANCH  12  14
ATOM     14  C   UNL     1       0.479  -2.236  -1.377  1.00  0.00     0.169 C 
ATOM     15  C   UNL     1       1.119  -3.494  -1.944  1.00  0.00     0.045 C 
BRANCH  14  16
ATOM     16  O   UNL     1      -0.913  -2.350  -1.529  1.00  0.00    -0.387 OA
ATOM     17  H   UNL     1      -1.230  -3.122  -1.035  1.00  0.00     0.211 HD
ENDBRANCH  14  16
ENDBRANCH  12  14
ENDBRANCH   9  12
ENDBRANCH   8   9
ENDBRANCH   6   8
ENDBRANCH   3   6
ENDBRANCH   1   2
BRANCH   1  18
ATOM     18  C   UNL     1      -3.030  -1.727   1.052  1.00  0.00     0.023 C 
BRANCH  18  19
ATOM     19  C   UNL     1      -4.126  -2.731   1.407  1.00  0.00     0.023 C 
BRANCH  19  20
ATOM     20  C   UNL     1      -4.241  -3.917   0.459  1.00  0.00     0.116 C 
BRANCH  20  21
ATOM     21  N   UNL     1      -3.219  -4.954   0.597  1.00  0.00    -0.352 N 
ATOM     22  C   UNL     1      -3.407  -6.327   0.486  1.00  0.00     0.251 C 
ATOM     23  H   UNL     1      -2.303  -4.648   0.789  1.00  0.00     0.163 HD
ATOM     24  O   UNL     1      -2.502  -7.127   0.608  1.00  0.00    -0.269 OA
BRANCH  22  25
ATOM     25  C   UNL     1      -4.798  -6.788   0.263  1.00  0.00     0.039 A 
ATOM     26  C   UNL     1      -5.452  -7.472   1.290  1.00  0.00     0.014 A 
ATOM     27  C   UNL     1      -5.502  -6.288  -0.833  1.00  0.00     0.014 A 
ATOM     28  C   UNL     1      -6.847  -7.534   1.282  1.00  0.00     0.010 A 
ATOM     29  C   UNL     1      -6.889  -6.258  -0.779  1.00  0.00     0.010 A 
ATOM     30  C   UNL     1      -7.578  -6.860   0.288  1.00  0.00    -0.014 A 
BRANCH  30  31
ATOM     31  C   UNL     1      -9.060  -6.755   0.351  1.00  0.00     0.031 A 
ATOM     32  C   UNL     1      -9.892  -7.304  -0.775  1.00  0.00     0.074 A 
ATOM     33  C   UNL     1      -9.657  -6.093   1.365  1.00  0.00     0.049 A 
ATOM     34  N   UNL     1     -11.187  -7.247  -0.951  1.00  0.00    -0.248 NA
ATOM     35  C   UNL     1      -9.166  -7.969  -1.871  1.00  0.00     0.031 C 
ATOM     36  C   UNL     1      -8.971  -5.449   2.489  1.00  0.00     0.029 A 
ATOM     37  N   UNL     1     -10.987  -5.851   1.613  1.00  0.00    -0.354 N 
ATOM     38  C   UNL     1     -11.422  -7.835  -2.187  1.00  0.00     0.074 A 
ATOM     39  C   UNL     1     -10.136  -8.183  -2.745  1.00  0.00     0.031 C 
ATOM     40  C   UNL     1      -9.885  -4.928   3.325  1.00  0.00     0.029 A 
ATOM     41  C   UNL     1     -11.218  -5.167   2.783  1.00  0.00     0.049 A 
ATOM     42  H   UNL     1     -11.707  -6.141   1.008  1.00  0.00     0.167 HD
ATOM     43  C   UNL     1     -12.604  -8.094  -2.794  1.00  0.00     0.031 A 
ATOM     44  C   UNL     1     -12.375  -4.785   3.359  1.00  0.00     0.031 A 
ATOM     45  C   UNL     1     -13.886  -7.794  -2.224  1.00  0.00     0.049 A 
ATOM     46  C   UNL     1     -13.678  -5.117   2.683  1.00  0.00     0.074 A 
ATOM     47  C   UNL     1     -15.142  -8.092  -2.723  1.00  0.00     0.029 A 
ATOM     48  N   UNL     1     -14.075  -7.135  -1.020  1.00  0.00    -0.354 N 
ATOM     49  N   UNL     1     -13.885  -5.748   1.553  1.00  0.00    -0.248 NA
ATOM     50  C   UNL     1     -14.907  -4.693   3.370  1.00  0.00     0.031 C 
ATOM     51  C   UNL     1     -16.094  -7.580  -1.835  1.00  0.00     0.029 A 
ATOM     52  C   UNL     1     -15.429  -7.003  -0.765  1.00  0.00     0.049 A 
ATOM     53  H   UNL     1     -13.355  -6.808  -0.435  1.00  0.00     0.167 HD
ATOM     54  C   UNL     1     -15.264  -5.825   1.409  1.00  0.00     0.074 A 
ATOM     55  C   UNL     1     -15.845  -5.187   2.573  1.00  0.00     0.031 C 
ATOM     56  C   UNL     1     -15.986  -6.375   0.404  1.00  0.00     0.031 A 
BRANCH  43  57
ATOM     57  C   UNL     1     -12.548  -8.748  -4.145  1.00  0.00    -0.014 A 
ATOM     58  C   UNL     1     -12.135 -10.083  -4.289  1.00  0.00     0.009 A 
ATOM     59  C   UNL     1     -12.914  -8.023  -5.288  1.00  0.00     0.009 A 
ATOM     60  C   UNL     1     -12.044 -10.663  -5.555  1.00  0.00     0.001 A 
ATOM     61  C   UNL     1     -12.852  -8.615  -6.551  1.00  0.00     0.001 A 
ATOM     62  C   UNL     1     -12.406  -9.930  -6.684  1.00  0.00     0.000 A 
ENDBRANCH  43  57
BRANCH  44  63
ATOM     63  C   UNL     1     -12.370  -4.082   4.670  1.00  0.00    -0.014 A 
ATOM     64  C   UNL     1     -12.806  -4.745   5.829  1.00  0.00     0.009 A 
ATOM     65  C   UNL     1     -11.960  -2.744   4.769  1.00  0.00     0.009 A 
ATOM     66  C   UNL     1     -12.860  -4.074   7.053  1.00  0.00     0.001 A 
ATOM     67  C   UNL     1     -11.991  -2.083   6.001  1.00  0.00     0.001 A 
ATOM     68  C   UNL     1     -12.450  -2.745   7.139  1.00  0.00     0.000 A 
ENDBRANCH  44  63
BRANCH  56  69
ATOM     69  C   UNL     1     -17.482  -6.349   0.534  1.00  0.00    -0.014 A 
ATOM     70  C   UNL     1     -18.207  -5.164   0.340  1.00  0.00     0.009 A 
ATOM     71  C   UNL     1     -18.175  -7.540   0.799  1.00  0.00     0.009 A 
ATOM     72  C   UNL     1     -19.600  -5.169   0.436  1.00  0.00     0.001 A 
ATOM     73  C   UNL     1     -19.568  -7.546   0.869  1.00  0.00     0.001 A 
ATOM     74  C   UNL     1     -20.279  -6.360   0.694  1.00  0.00     0.000 A 
ENDBRANCH  56  69
ENDBRANCH  30  31
ENDBRANCH  22  25
ENDBRANCH  20  21
ENDBRANCH  19  20
ENDBRANCH  18  19
ENDBRANCH   1  18
TORSDOF 16
