REMARK SMILES C#CCNC(=O)[C@H](C)S(=O)(=O)c1ccc(C(=O)NCCCCNC(=O)c2ccc(-c3c4nc(c(-c5ccccc5)c5ccc([nH]5)c(-c5ccccc5)c5nc(c(-c6ccccc6)c6ccc3[nH]6)C=C5)C=C4)cc2)cc1F
REMARK SMILES IDX 19 1 18 2 16 3 17 4 15 6 12 7 13 8 75 9 14 10 74 11 76 12
REMARK SMILES IDX 9 13 10 14 11 15 7 16 8 17 5 18 4 19 6 21 3 22 2 23 1 24
REMARK SMILES IDX 20 25 21 26 22 27 23 28 24 29 25 31 26 32 27 33 73 34 28 35
REMARK SMILES IDX 72 36 29 37 30 38 31 39 66 40 32 41 71 42 65 43 67 44 33 45
REMARK SMILES IDX 70 46 64 47 63 48 34 50 56 51 41 52 55 53 42 54 45 55 54 56
REMARK SMILES IDX 68 57 43 58 44 59 53 61 69 62 46 63 35 64 36 65 40 66 37 67
REMARK SMILES IDX 39 68 38 69 57 70 58 71 62 72 59 73 61 74 60 75 47 76 48 77
REMARK SMILES IDX 52 78 49 79 51 80 50 81
REMARK H PARENT 18 5 4 20 23 30 67 49 45 60
REMARK Flexibility Score: inf
ROOT
ATOM      1  C   UNL     1      -0.820  -2.904   4.373  1.00  0.00     0.116 C 
ENDROOT
BRANCH   1   2
ATOM      2  N   UNL     1      -0.688  -1.551   4.893  1.00  0.00    -0.352 N 
ATOM      3  C   UNL     1      -1.246  -0.365   4.488  1.00  0.00     0.251 C 
ATOM      4  O   UNL     1      -0.876   0.685   5.006  1.00  0.00    -0.269 OA
ATOM      5  H   UNL     1      -0.094  -1.474   5.674  1.00  0.00     0.163 HD
BRANCH   3   6
ATOM      6  C   UNL     1      -2.257  -0.308   3.411  1.00  0.00     0.042 A 
ATOM      7  C   UNL     1      -4.045  -0.204   1.259  1.00  0.00     0.103 A 
ATOM      8  C   UNL     1      -3.019   0.737   1.352  1.00  0.00     0.024 A 
ATOM      9  C   UNL     1      -4.265  -1.076   2.329  1.00  0.00     0.142 A 
ATOM     10  C   UNL     1      -2.121   0.676   2.423  1.00  0.00     0.015 A 
ATOM     11  C   UNL     1      -3.371  -1.144   3.397  1.00  0.00     0.054 A 
ATOM     12  F   UNL     1      -5.283  -1.944   2.329  1.00  0.00    -0.206 F 
BRANCH   7  13
ATOM     13  S   UNL     1      -5.033  -0.333  -0.217  1.00  0.00     0.192 S 
ATOM     14  O   UNL     1      -5.790   0.900  -0.253  1.00  0.00    -0.223 OA
ATOM     15  O   UNL     1      -5.744  -1.604  -0.180  1.00  0.00    -0.223 OA
BRANCH  13  16
ATOM     16  C   UNL     1      -4.026  -0.379  -1.657  1.00  0.00     0.199 C 
ATOM     17  C   UNL     1      -3.170   0.863  -1.891  1.00  0.00     0.036 C 
BRANCH  16  18
ATOM     18  C   UNL     1      -3.252  -1.610  -2.079  1.00  0.00     0.239 C 
ATOM     19  N   UNL     1      -2.705  -2.597  -1.348  1.00  0.00    -0.344 N 
ATOM     20  H   UNL     1      -2.083  -3.152  -1.871  1.00  0.00     0.164 HD
ATOM     21  O   UNL     1      -2.947  -1.689  -3.284  1.00  0.00    -0.274 OA
BRANCH  19  22
ATOM     22  C   UNL     1      -2.813  -3.033   0.015  1.00  0.00     0.206 C 
BRANCH  22  23
ATOM     23  C   UNL     1      -3.312  -4.467   0.083  1.00  0.00    -0.085 C 
ATOM     24  C   UNL     1      -3.740  -5.697   0.141  1.00  0.00     0.006 C 
ENDBRANCH  22  23
ENDBRANCH  19  22
ENDBRANCH  16  18
ENDBRANCH  13  16
ENDBRANCH   7  13
ENDBRANCH   3   6
ENDBRANCH   1   2
BRANCH   1  25
ATOM     25  C   UNL     1       0.527  -3.531   4.003  1.00  0.00     0.023 C 
BRANCH  25  26
ATOM     26  C   UNL     1       1.553  -3.658   5.135  1.00  0.00     0.023 C 
BRANCH  26  27
ATOM     27  C   UNL     1       1.114  -4.452   6.363  1.00  0.00     0.116 C 
BRANCH  27  28
ATOM     28  N   UNL     1       0.817  -5.846   6.075  1.00  0.00    -0.352 N 
ATOM     29  C   UNL     1       1.161  -6.983   6.768  1.00  0.00     0.251 C 
ATOM     30  H   UNL     1       0.288  -5.999   5.259  1.00  0.00     0.163 HD
ATOM     31  O   UNL     1       0.886  -8.083   6.296  1.00  0.00    -0.269 OA
BRANCH  29  32
ATOM     32  C   UNL     1       1.892  -6.905   8.057  1.00  0.00     0.039 A 
ATOM     33  C   UNL     1       2.940  -7.804   8.285  1.00  0.00     0.014 A 
ATOM     34  C   UNL     1       1.546  -5.982   9.047  1.00  0.00     0.014 A 
ATOM     35  C   UNL     1       3.687  -7.728   9.464  1.00  0.00     0.010 A 
ATOM     36  C   UNL     1       2.327  -5.868  10.198  1.00  0.00     0.010 A 
ATOM     37  C   UNL     1       3.411  -6.734  10.415  1.00  0.00    -0.014 A 
BRANCH  37  38
ATOM     38  C   UNL     1       4.258  -6.567  11.625  1.00  0.00     0.031 A 
ATOM     39  C   UNL     1       3.693  -6.813  12.996  1.00  0.00     0.074 A 
ATOM     40  C   UNL     1       5.522  -6.118  11.495  1.00  0.00     0.049 A 
ATOM     41  N   UNL     1       4.261  -6.645  14.165  1.00  0.00    -0.248 NA
ATOM     42  C   UNL     1       2.303  -7.286  13.065  1.00  0.00     0.031 C 
ATOM     43  C   UNL     1       6.184  -5.800  10.229  1.00  0.00     0.029 A 
ATOM     44  N   UNL     1       6.473  -5.840  12.446  1.00  0.00    -0.354 N 
ATOM     45  C   UNL     1       3.292  -6.968  15.106  1.00  0.00     0.074 A 
ATOM     46  C   UNL     1       2.091  -7.311  14.373  1.00  0.00     0.031 C 
ATOM     47  C   UNL     1       7.438  -5.388  10.480  1.00  0.00     0.029 A 
ATOM     48  C   UNL     1       7.657  -5.382  11.923  1.00  0.00     0.049 A 
ATOM     49  H   UNL     1       6.320  -5.959  13.412  1.00  0.00     0.167 HD
ATOM     50  C   UNL     1       3.393  -6.991  16.457  1.00  0.00     0.031 A 
ATOM     51  C   UNL     1       8.792  -4.993  12.533  1.00  0.00     0.031 A 
ATOM     52  C   UNL     1       4.587  -6.671  17.192  1.00  0.00     0.049 A 
ATOM     53  C   UNL     1       8.884  -5.038  14.031  1.00  0.00     0.074 A 
ATOM     54  C   UNL     1       4.800  -6.729  18.559  1.00  0.00     0.029 A 
ATOM     55  N   UNL     1       5.772  -6.235  16.622  1.00  0.00    -0.354 N 
ATOM     56  N   UNL     1       7.976  -5.405  14.902  1.00  0.00    -0.248 NA
ATOM     57  C   UNL     1      10.162  -4.625  14.628  1.00  0.00     0.031 C 
ATOM     58  C   UNL     1       6.104  -6.293  18.819  1.00  0.00     0.029 A 
ATOM     59  C   UNL     1       6.714  -6.003  17.610  1.00  0.00     0.049 A 
ATOM     60  H   UNL     1       5.921  -6.109  15.657  1.00  0.00     0.167 HD
ATOM     61  C   UNL     1       8.580  -5.289  16.147  1.00  0.00     0.074 A 
ATOM     62  C   UNL     1       9.934  -4.829  15.918  1.00  0.00     0.031 C 
ATOM     63  C   UNL     1       8.057  -5.543  17.370  1.00  0.00     0.031 A 
BRANCH  50  64
ATOM     64  C   UNL     1       2.162  -7.369  17.231  1.00  0.00    -0.014 A 
ATOM     65  C   UNL     1       1.703  -8.695  17.262  1.00  0.00     0.009 A 
ATOM     66  C   UNL     1       1.470  -6.392  17.962  1.00  0.00     0.009 A 
ATOM     67  C   UNL     1       0.552  -9.028  17.979  1.00  0.00     0.001 A 
ATOM     68  C   UNL     1       0.333  -6.732  18.698  1.00  0.00     0.001 A 
ATOM     69  C   UNL     1      -0.130  -8.047  18.698  1.00  0.00     0.000 A 
ENDBRANCH  50  64
BRANCH  51  70
ATOM     70  C   UNL     1       9.951  -4.543  11.720  1.00  0.00    -0.014 A 
ATOM     71  C   UNL     1      11.069  -5.376  11.561  1.00  0.00     0.009 A 
ATOM     72  C   UNL     1       9.944  -3.284  11.101  1.00  0.00     0.009 A 
ATOM     73  C   UNL     1      12.167  -4.948  10.812  1.00  0.00     0.001 A 
ATOM     74  C   UNL     1      11.034  -2.869  10.334  1.00  0.00     0.001 A 
ATOM     75  C   UNL     1      12.147  -3.697  10.197  1.00  0.00     0.000 A 
ENDBRANCH  51  70
BRANCH  63  76
ATOM     76  C   UNL     1       8.961  -5.357  18.553  1.00  0.00    -0.014 A 
ATOM     77  C   UNL     1       9.281  -4.076  19.028  1.00  0.00     0.009 A 
ATOM     78  C   UNL     1       9.472  -6.480  19.222  1.00  0.00     0.009 A 
ATOM     79  C   UNL     1      10.118  -3.924  20.135  1.00  0.00     0.001 A 
ATOM     80  C   UNL     1      10.292  -6.325  20.341  1.00  0.00     0.001 A 
ATOM     81  C   UNL     1      10.620  -5.047  20.792  1.00  0.00     0.000 A 
ENDBRANCH  63  76
ENDBRANCH  37  38
ENDBRANCH  29  32
ENDBRANCH  27  28
ENDBRANCH  26  27
ENDBRANCH  25  26
ENDBRANCH   1  25
TORSDOF 16
