REMARK SMILES Cc1ccc([C@H](C)NC(=O)N[C@](C)(C(=O)NCCCCNC(=O)c2ccc(-c3c4nc(c(-c5ccccc5)c5ccc([nH]5)c(-c5ccccc5)c5nc(c(-c6ccccc6)c6ccc3[nH]6)C=C5)C=C4)cc2)C(F)(F)F)s1
REMARK SMILES IDX 18 1 17 2 16 3 14 4 15 5 12 7 13 8 11 9 8 10 9 11 10 13 6 15
REMARK SMILES IDX 7 16 5 17 1 18 2 19 3 20 76 21 4 22 72 23 73 24 74 25 75 26
REMARK SMILES IDX 19 27 20 28 21 29 22 30 23 32 24 33 25 34 71 35 26 36 70 37
REMARK SMILES IDX 27 38 28 39 29 40 64 41 30 42 69 43 63 44 65 45 31 46 68 47
REMARK SMILES IDX 62 48 61 49 32 51 54 52 39 53 53 54 40 55 43 56 52 57 66 58
REMARK SMILES IDX 41 59 42 60 51 62 67 63 44 64 33 65 34 66 38 67 35 68 37 69
REMARK SMILES IDX 36 70 55 71 56 72 60 73 57 74 59 75 58 76 45 77 46 78 50 79
REMARK SMILES IDX 47 80 49 81 48 82
REMARK H PARENT 16 6 8 12 11 14 21 31 65 50 43 61
REMARK Flexibility Score: inf
ROOT
ATOM      1  C   UNL     1      -7.132  -2.068  -3.753  1.00  0.00     0.023 C 
ENDROOT
BRANCH   1   2
ATOM      2  C   UNL     1      -7.189  -2.108  -2.222  1.00  0.00     0.116 C 
BRANCH   2   3
ATOM      3  N   UNL     1      -6.088  -2.876  -1.670  1.00  0.00    -0.354 N 
ATOM      4  C   UNL     1      -4.871  -2.487  -1.194  1.00  0.00     0.255 C 
ATOM      5  O   UNL     1      -3.968  -3.309  -1.373  1.00  0.00    -0.272 OA
ATOM      6  H   UNL     1      -6.247  -3.847  -1.633  1.00  0.00     0.163 HD
BRANCH   4   7
ATOM      7  C   UNL     1      -4.604  -1.056  -0.672  1.00  0.00     0.213 C 
ATOM      8  C   UNL     1      -4.404  -0.185  -1.929  1.00  0.00     0.056 C 
BRANCH   7   9
ATOM      9  N   UNL     1      -5.779  -0.576   0.123  1.00  0.00    -0.316 N 
ATOM     10  N   UNL     1      -5.395   1.640   0.920  1.00  0.00    -0.331 N 
ATOM     11  C   UNL     1      -6.094   0.508   0.836  1.00  0.00     0.316 C 
ATOM     12  H   UNL     1      -5.802   2.264   1.564  1.00  0.00     0.166 HD
ATOM     13  O   UNL     1      -7.151   0.454   1.471  1.00  0.00    -0.249 OA
ATOM     14  H   UNL     1      -6.512  -1.233   0.120  1.00  0.00     0.166 HD
BRANCH  10  15
ATOM     15  C   UNL     1      -4.193   2.205   0.320  1.00  0.00     0.121 C 
ATOM     16  C   UNL     1      -4.519   3.498  -0.418  1.00  0.00     0.037 C 
BRANCH  15  17
ATOM     17  C   UNL     1      -3.095   2.376   1.341  1.00  0.00     0.027 A 
ATOM     18  C   UNL     1       0.618   1.991   2.562  1.00  0.00     0.056 C 
ATOM     19  C   UNL     1      -0.839   2.231   2.363  1.00  0.00     0.002 A 
ATOM     20  C   UNL     1      -1.836   2.350   3.308  1.00  0.00     0.015 A 
ATOM     21  S   UNL     1      -1.462   2.355   0.780  1.00  0.00    -0.144 S 
ATOM     22  C   UNL     1      -3.135   2.449   2.721  1.00  0.00     0.018 A 
ENDBRANCH  15  17
ENDBRANCH  10  15
ENDBRANCH   7   9
BRANCH   7  23
ATOM     23  C   UNL     1      -3.339  -1.243   0.208  1.00  0.00     0.420 C 
ATOM     24  F   UNL     1      -2.200  -1.237  -0.519  1.00  0.00    -0.168 F 
ATOM     25  F   UNL     1      -3.219  -0.261   1.124  1.00  0.00    -0.168 F 
ATOM     26  F   UNL     1      -3.373  -2.383   0.941  1.00  0.00    -0.168 F 
ENDBRANCH   7  23
ENDBRANCH   4   7
ENDBRANCH   2   3
ENDBRANCH   1   2
BRANCH   1  27
ATOM     27  C   UNL     1      -7.020  -3.430  -4.447  1.00  0.00     0.023 C 
BRANCH  27  28
ATOM     28  C   UNL     1      -8.054  -4.470  -4.029  1.00  0.00     0.116 C 
BRANCH  28  29
ATOM     29  N   UNL     1      -9.419  -4.029  -4.261  1.00  0.00    -0.352 N 
ATOM     30  C   UNL     1     -10.449  -4.680  -4.895  1.00  0.00     0.251 C 
ATOM     31  H   UNL     1      -9.638  -3.134  -3.914  1.00  0.00     0.163 HD
ATOM     32  O   UNL     1     -11.501  -4.089  -5.124  1.00  0.00    -0.269 OA
BRANCH  30  33
ATOM     33  C   UNL     1     -10.278  -6.079  -5.339  1.00  0.00     0.039 A 
ATOM     34  C   UNL     1     -10.668  -6.423  -6.636  1.00  0.00     0.014 A 
ATOM     35  C   UNL     1      -9.718  -7.041  -4.494  1.00  0.00     0.014 A 
ATOM     36  C   UNL     1     -10.419  -7.710  -7.114  1.00  0.00     0.010 A 
ATOM     37  C   UNL     1      -9.406  -8.303  -4.995  1.00  0.00     0.010 A 
ATOM     38  C   UNL     1      -9.742  -8.645  -6.315  1.00  0.00    -0.014 A 
BRANCH  38  39
ATOM     39  C   UNL     1      -9.326  -9.961  -6.860  1.00  0.00     0.031 A 
ATOM     40  C   UNL     1      -9.874 -11.237  -6.288  1.00  0.00     0.074 A 
ATOM     41  C   UNL     1      -8.384 -10.006  -7.823  1.00  0.00     0.049 A 
ATOM     42  N   UNL     1      -9.575 -12.474  -6.594  1.00  0.00    -0.248 NA
ATOM     43  C   UNL     1     -10.873 -11.106  -5.215  1.00  0.00     0.031 C 
ATOM     44  C   UNL     1      -7.739  -8.840  -8.431  1.00  0.00     0.029 A 
ATOM     45  N   UNL     1      -7.794 -11.076  -8.449  1.00  0.00    -0.354 N 
ATOM     46  C   UNL     1     -10.333 -13.268  -5.743  1.00  0.00     0.074 A 
ATOM     47  C   UNL     1     -11.072 -12.372  -4.879  1.00  0.00     0.031 C 
ATOM     48  C   UNL     1      -6.860  -9.257  -9.355  1.00  0.00     0.029 A 
ATOM     49  C   UNL     1      -6.842 -10.716  -9.371  1.00  0.00     0.049 A 
ATOM     50  H   UNL     1      -8.031 -12.012  -8.255  1.00  0.00     0.167 HD
ATOM     51  C   UNL     1     -10.414 -14.619  -5.694  1.00  0.00     0.031 A 
ATOM     52  C   UNL     1      -6.029 -11.471 -10.133  1.00  0.00     0.031 A 
ATOM     53  C   UNL     1      -9.672 -15.507  -6.550  1.00  0.00     0.049 A 
ATOM     54  C   UNL     1      -6.115 -12.968 -10.039  1.00  0.00     0.074 A 
ATOM     55  C   UNL     1      -9.739 -16.887  -6.625  1.00  0.00     0.029 A 
ATOM     56  N   UNL     1      -8.714 -15.104  -7.468  1.00  0.00    -0.354 N 
ATOM     57  N   UNL     1      -6.902 -13.703  -9.291  1.00  0.00    -0.248 NA
ATOM     58  C   UNL     1      -5.204 -13.738 -10.897  1.00  0.00     0.031 C 
ATOM     59  C   UNL     1      -8.771 -17.323  -7.536  1.00  0.00     0.029 A 
ATOM     60  C   UNL     1      -8.149 -16.211  -8.080  1.00  0.00     0.049 A 
ATOM     61  H   UNL     1      -8.471 -14.168  -7.657  1.00  0.00     0.167 HD
ATOM     62  C   UNL     1      -6.591 -15.021  -9.597  1.00  0.00     0.074 A 
ATOM     63  C   UNL     1      -5.563 -14.983 -10.617  1.00  0.00     0.031 C 
ATOM     64  C   UNL     1      -7.109 -16.161  -9.077  1.00  0.00     0.031 A 
BRANCH  51  65
ATOM     65  C   UNL     1     -11.321 -15.220  -4.654  1.00  0.00    -0.014 A 
ATOM     66  C   UNL     1     -12.717 -15.087  -4.732  1.00  0.00     0.009 A 
ATOM     67  C   UNL     1     -10.770 -15.953  -3.591  1.00  0.00     0.009 A 
ATOM     68  C   UNL     1     -13.538 -15.637  -3.744  1.00  0.00     0.001 A 
ATOM     69  C   UNL     1     -11.595 -16.530  -2.623  1.00  0.00     0.001 A 
ATOM     70  C   UNL     1     -12.976 -16.361  -2.694  1.00  0.00     0.000 A 
ENDBRANCH  51  65
BRANCH  52  71
ATOM     71  C   UNL     1      -5.057 -10.816 -11.047  1.00  0.00    -0.014 A 
ATOM     72  C   UNL     1      -5.237 -10.867 -12.437  1.00  0.00     0.009 A 
ATOM     73  C   UNL     1      -3.953 -10.118 -10.530  1.00  0.00     0.009 A 
ATOM     74  C   UNL     1      -4.322 -10.246 -13.292  1.00  0.00     0.001 A 
ATOM     75  C   UNL     1      -3.058  -9.473 -11.385  1.00  0.00     0.001 A 
ATOM     76  C   UNL     1      -3.238  -9.544 -12.765  1.00  0.00     0.000 A 
ENDBRANCH  52  71
BRANCH  64  77
ATOM     77  C   UNL     1      -6.575 -17.463  -9.608  1.00  0.00    -0.014 A 
ATOM     78  C   UNL     1      -5.277 -17.897  -9.296  1.00  0.00     0.009 A 
ATOM     79  C   UNL     1      -7.394 -18.285 -10.398  1.00  0.00     0.009 A 
ATOM     80  C   UNL     1      -4.799 -19.111  -9.792  1.00  0.00     0.001 A 
ATOM     81  C   UNL     1      -6.925 -19.513 -10.866  1.00  0.00     0.001 A 
ATOM     82  C   UNL     1      -5.625 -19.921 -10.570  1.00  0.00     0.000 A 
ENDBRANCH  64  77
ENDBRANCH  38  39
ENDBRANCH  30  33
ENDBRANCH  28  29
ENDBRANCH  27  28
ENDBRANCH   1  27
TORSDOF 15
