REMARK SMILES C[C@H]([C@@H](C)O)[N@H+]1CC[C@@](C)(C(=O)NCCCCNC(=O)c2ccc(-c3c4nc(c(-c5ccccc5)c5ccc([nH]5)c(-c5ccccc5)c5nc(c(-c6ccccc6)c6ccc3[nH]6)C=C5)C=C4)cc2)C1
REMARK SMILES IDX 15 1 14 2 13 3 11 4 12 5 9 7 6 8 7 9 69 10 8 12 10 13 2 14
REMARK SMILES IDX 1 15 3 16 4 17 5 18 16 20 17 21 18 22 19 23 20 25 21 26
REMARK SMILES IDX 22 27 68 28 23 29 67 30 24 31 25 32 26 33 61 34 27 35 66 36
REMARK SMILES IDX 60 37 62 38 28 39 65 40 59 41 58 42 29 44 51 45 36 46 50 47
REMARK SMILES IDX 37 48 40 49 49 50 63 51 38 52 39 53 48 55 64 56 41 57 30 58
REMARK SMILES IDX 31 59 35 60 32 61 34 62 33 63 52 64 53 65 57 66 54 67 56 68
REMARK SMILES IDX 55 69 42 70 43 71 47 72 44 73 46 74 45 75
REMARK H PARENT 13 6 6 11 5 19 18 24 62 43 40 54
REMARK Flexibility Score: inf
ROOT
ATOM      1  C   UNL     1      -4.433  -3.187   4.488  1.00  0.00     0.023 C 
ENDROOT
BRANCH   1   2
ATOM      2  C   UNL     1      -4.740  -1.759   4.035  1.00  0.00     0.116 C 
BRANCH   2   3
ATOM      3  N   UNL     1      -3.591  -0.902   4.245  1.00  0.00    -0.355 N 
ATOM      4  C   UNL     1      -2.659  -0.418   3.379  1.00  0.00     0.231 C 
ATOM      5  O   UNL     1      -1.738   0.219   3.896  1.00  0.00    -0.274 OA
ATOM      6  H   UNL     1      -3.461  -0.621   5.180  1.00  0.00     0.163 HD
BRANCH   4   7
ATOM      7  C   UNL     1      -2.799  -0.578   1.847  1.00  0.00     0.100 C 
ATOM      8  N   UNL     1      -0.775  -1.301   0.695  1.00  0.00    -0.330 N 
ATOM      9  C   UNL     1      -1.414  -2.460   1.308  1.00  0.00     0.263 C 
ATOM     10  C   UNL     1      -1.493  -0.096   1.158  1.00  0.00     0.279 C 
ATOM     11  H   UNL     1      -0.864  -1.350  -0.320  1.00  0.00     0.348 HD
ATOM     12  C   UNL     1      -2.868  -2.035   1.370  1.00  0.00     0.084 C 
ATOM     13  C   UNL     1      -4.010   0.254   1.382  1.00  0.00     0.028 C 
BRANCH   8  14
ATOM     14  C   UNL     1       0.705  -1.273   0.825  1.00  0.00     0.209 C 
ATOM     15  C   UNL     1       1.230  -1.274   2.268  1.00  0.00     0.078 C 
BRANCH  14  16
ATOM     16  C   UNL     1       1.282  -0.098  -0.021  1.00  0.00     0.169 C 
ATOM     17  C   UNL     1       2.803  -0.062  -0.085  1.00  0.00     0.045 C 
BRANCH  16  18
ATOM     18  O   UNL     1       0.797  -0.224  -1.366  1.00  0.00    -0.387 OA
ATOM     19  H   UNL     1       1.118  -1.056  -1.749  1.00  0.00     0.211 HD
ENDBRANCH  16  18
ENDBRANCH  14  16
ENDBRANCH   8  14
ENDBRANCH   4   7
ENDBRANCH   2   3
ENDBRANCH   1   2
BRANCH   1  20
ATOM     20  C   UNL     1      -4.356  -3.368   6.006  1.00  0.00     0.023 C 
BRANCH  20  21
ATOM     21  C   UNL     1      -5.629  -3.014   6.765  1.00  0.00     0.116 C 
BRANCH  21  22
ATOM     22  N   UNL     1      -6.795  -3.750   6.301  1.00  0.00    -0.352 N 
ATOM     23  C   UNL     1      -7.830  -4.272   7.035  1.00  0.00     0.251 C 
ATOM     24  H   UNL     1      -6.848  -3.893   5.328  1.00  0.00     0.163 HD
ATOM     25  O   UNL     1      -8.685  -4.969   6.497  1.00  0.00    -0.269 OA
BRANCH  23  26
ATOM     26  C   UNL     1      -7.885  -4.021   8.489  1.00  0.00     0.039 A 
ATOM     27  C   UNL     1      -8.072  -5.104   9.351  1.00  0.00     0.014 A 
ATOM     28  C   UNL     1      -7.717  -2.730   8.996  1.00  0.00     0.014 A 
ATOM     29  C   UNL     1      -8.015  -4.902  10.730  1.00  0.00     0.010 A 
ATOM     30  C   UNL     1      -7.596  -2.542  10.369  1.00  0.00     0.010 A 
ATOM     31  C   UNL     1      -7.737  -3.626  11.247  1.00  0.00    -0.014 A 
BRANCH  31  32
ATOM     32  C   UNL     1      -7.570  -3.409  12.704  1.00  0.00     0.031 A 
ATOM     33  C   UNL     1      -8.539  -2.544  13.458  1.00  0.00     0.074 A 
ATOM     34  C   UNL     1      -6.500  -3.933  13.333  1.00  0.00     0.049 A 
ATOM     35  N   UNL     1      -8.520  -2.190  14.717  1.00  0.00    -0.248 NA
ATOM     36  C   UNL     1      -9.662  -1.983  12.690  1.00  0.00     0.031 C 
ATOM     37  C   UNL     1      -5.463  -4.754  12.704  1.00  0.00     0.029 A 
ATOM     38  N   UNL     1      -6.103  -3.844  14.643  1.00  0.00    -0.354 N 
ATOM     39  C   UNL     1      -9.615  -1.352  14.888  1.00  0.00     0.074 A 
ATOM     40  C   UNL     1     -10.249  -1.215  13.595  1.00  0.00     0.031 C 
ATOM     41  C   UNL     1      -4.564  -5.115  13.634  1.00  0.00     0.029 A 
ATOM     42  C   UNL     1      -4.939  -4.521  14.912  1.00  0.00     0.049 A 
ATOM     43  H   UNL     1      -6.606  -3.344  15.326  1.00  0.00     0.167 HD
ATOM     44  C   UNL     1     -10.063  -0.765  16.023  1.00  0.00     0.031 A 
ATOM     45  C   UNL     1      -4.247  -4.645  16.060  1.00  0.00     0.031 A 
ATOM     46  C   UNL     1      -9.439  -0.910  17.310  1.00  0.00     0.049 A 
ATOM     47  C   UNL     1      -4.758  -3.975  17.303  1.00  0.00     0.074 A 
ATOM     48  C   UNL     1      -9.854  -0.407  18.531  1.00  0.00     0.029 A 
ATOM     49  N   UNL     1      -8.264  -1.608  17.542  1.00  0.00    -0.354 N 
ATOM     50  N   UNL     1      -5.835  -3.245  17.463  1.00  0.00    -0.248 NA
ATOM     51  C   UNL     1      -3.962  -4.153  18.525  1.00  0.00     0.031 C 
ATOM     52  C   UNL     1      -8.903  -0.762  19.495  1.00  0.00     0.029 A 
ATOM     53  C   UNL     1      -7.924  -1.527  18.882  1.00  0.00     0.049 A 
ATOM     54  H   UNL     1      -7.748  -2.090  16.856  1.00  0.00     0.167 HD
ATOM     55  C   UNL     1      -5.858  -2.895  18.807  1.00  0.00     0.074 A 
ATOM     56  C   UNL     1      -4.696  -3.506  19.420  1.00  0.00     0.031 C 
ATOM     57  C   UNL     1      -6.761  -2.136  19.473  1.00  0.00     0.031 A 
BRANCH  44  58
ATOM     58  C   UNL     1     -11.289   0.098  15.914  1.00  0.00    -0.014 A 
ATOM     59  C   UNL     1     -12.555  -0.464  15.682  1.00  0.00     0.009 A 
ATOM     60  C   UNL     1     -11.181   1.488  16.068  1.00  0.00     0.009 A 
ATOM     61  C   UNL     1     -13.681   0.353  15.569  1.00  0.00     0.001 A 
ATOM     62  C   UNL     1     -12.313   2.300  15.982  1.00  0.00     0.001 A 
ATOM     63  C   UNL     1     -13.560   1.733  15.722  1.00  0.00     0.000 A 
ENDBRANCH  44  58
BRANCH  45  64
ATOM     64  C   UNL     1      -3.001  -5.453  16.092  1.00  0.00    -0.014 A 
ATOM     65  C   UNL     1      -2.981  -6.700  16.735  1.00  0.00     0.009 A 
ATOM     66  C   UNL     1      -1.828  -4.985  15.479  1.00  0.00     0.009 A 
ATOM     67  C   UNL     1      -1.805  -7.452  16.782  1.00  0.00     0.001 A 
ATOM     68  C   UNL     1      -0.661  -5.751  15.506  1.00  0.00     0.001 A 
ATOM     69  C   UNL     1      -0.648  -6.979  16.165  1.00  0.00     0.000 A 
ENDBRANCH  45  64
BRANCH  57  70
ATOM     70  C   UNL     1      -6.539  -1.944  20.946  1.00  0.00    -0.014 A 
ATOM     71  C   UNL     1      -5.526  -1.098  21.423  1.00  0.00     0.009 A 
ATOM     72  C   UNL     1      -7.380  -2.588  21.866  1.00  0.00     0.009 A 
ATOM     73  C   UNL     1      -5.342  -0.924  22.796  1.00  0.00     0.001 A 
ATOM     74  C   UNL     1      -7.210  -2.392  23.237  1.00  0.00     0.001 A 
ATOM     75  C   UNL     1      -6.186  -1.567  23.701  1.00  0.00     0.000 A 
ENDBRANCH  57  70
ENDBRANCH  31  32
ENDBRANCH  23  26
ENDBRANCH  21  22
ENDBRANCH  20  21
ENDBRANCH   1  20
TORSDOF 14
