REMARK SMILES C[C@@]1(CN2C(=O)c3ccc(C(=O)NCCCCNC(=O)c4ccc(-c5c6nc(c(-c7ccccc7)c7ccc([nH]7)c(-c7ccccc7)c7nc(c(-c8ccccc8)c8ccc5[nH]8)C=C7)C=C6)cc4)cc3C2=O)CCCO1
REMARK SMILES IDX 15 1 14 2 13 3 11 4 12 5 10 7 4 8 5 9 71 10 6 11 7 12 70 13
REMARK SMILES IDX 72 14 8 15 69 16 9 17 3 18 2 19 1 20 73 21 76 22 74 23 75 24
REMARK SMILES IDX 16 25 17 26 18 27 19 28 20 30 21 31 22 32 68 33 23 34 67 35
REMARK SMILES IDX 24 36 25 37 26 38 61 39 27 40 66 41 60 42 62 43 28 44 65 45
REMARK SMILES IDX 59 46 58 47 29 49 51 50 36 51 50 52 37 53 40 54 49 55 63 56
REMARK SMILES IDX 38 57 39 58 48 60 64 61 41 62 30 63 31 64 35 65 32 66 34 67
REMARK SMILES IDX 33 68 52 69 53 70 57 71 54 72 56 73 55 74 42 75 43 76 47 77
REMARK SMILES IDX 44 78 46 79 45 80
REMARK H PARENT 13 6 18 29 62 48 40 59
REMARK Flexibility Score: inf
ROOT
ATOM      1  C   UNL     1      -3.268   8.547  -0.709  1.00  0.00     0.023 C 
ENDROOT
BRANCH   1   2
ATOM      2  C   UNL     1      -2.240   8.412   0.418  1.00  0.00     0.116 C 
BRANCH   2   3
ATOM      3  N   UNL     1      -2.863   7.904   1.623  1.00  0.00    -0.352 N 
ATOM      4  C   UNL     1      -2.985   6.642   2.143  1.00  0.00     0.251 C 
ATOM      5  O   UNL     1      -3.553   6.537   3.230  1.00  0.00    -0.269 OA
ATOM      6  H   UNL     1      -3.281   8.603   2.176  1.00  0.00     0.163 HD
BRANCH   4   7
ATOM      7  C   UNL     1      -2.458   5.406   1.488  1.00  0.00     0.040 A 
ATOM      8  N   UNL     1      -1.152   0.988   1.274  1.00  0.00    -0.271 N 
ATOM      9  C   UNL     1      -1.175   1.657   0.086  1.00  0.00     0.261 C 
ATOM     10  C   UNL     1      -1.574   1.781   2.312  1.00  0.00     0.261 C 
ATOM     11  O   UNL     1      -0.967   1.248  -1.042  1.00  0.00    -0.269 OA
ATOM     12  C   UNL     1      -1.563   3.025   0.388  1.00  0.00     0.053 A 
ATOM     13  C   UNL     1      -1.819   3.109   1.741  1.00  0.00     0.054 A 
ATOM     14  O   UNL     1      -1.786   1.492   3.471  1.00  0.00    -0.269 OA
ATOM     15  C   UNL     1      -1.736   4.093  -0.461  1.00  0.00     0.015 A 
ATOM     16  C   UNL     1      -2.267   4.282   2.320  1.00  0.00     0.028 A 
ATOM     17  C   UNL     1      -2.210   5.282   0.101  1.00  0.00     0.015 A 
BRANCH   8  18
ATOM     18  C   UNL     1      -0.813  -0.419   1.397  1.00  0.00     0.164 C 
BRANCH  18  19
ATOM     19  C   UNL     1       0.715  -0.706   1.424  1.00  0.00     0.084 C 
ATOM     20  C   UNL     1       1.444  -0.207   0.176  1.00  0.00     0.044 C 
ATOM     21  C   UNL     1       0.972  -2.203   1.630  1.00  0.00     0.039 C 
ATOM     22  O   UNL     1       1.296  -0.050   2.572  1.00  0.00    -0.373 OA
ATOM     23  C   UNL     1       0.988  -2.336   3.132  1.00  0.00     0.031 C 
ATOM     24  C   UNL     1       1.626  -1.034   3.562  1.00  0.00     0.161 C 
ENDBRANCH  18  19
ENDBRANCH   8  18
ENDBRANCH   4   7
ENDBRANCH   2   3
ENDBRANCH   1   2
BRANCH   1  25
ATOM     25  C   UNL     1      -4.102   9.829  -0.651  1.00  0.00     0.023 C 
BRANCH  25  26
ATOM     26  C   UNL     1      -3.300  11.122  -0.755  1.00  0.00     0.116 C 
BRANCH  26  27
ATOM     27  N   UNL     1      -2.457  11.183  -1.939  1.00  0.00    -0.352 N 
ATOM     28  C   UNL     1      -2.087  12.281  -2.675  1.00  0.00     0.251 C 
ATOM     29  H   UNL     1      -2.103  10.320  -2.255  1.00  0.00     0.163 HD
ATOM     30  O   UNL     1      -1.458  12.143  -3.719  1.00  0.00    -0.269 OA
BRANCH  28  31
ATOM     31  C   UNL     1      -2.493  13.627  -2.224  1.00  0.00     0.039 A 
ATOM     32  C   UNL     1      -3.066  14.496  -3.154  1.00  0.00     0.014 A 
ATOM     33  C   UNL     1      -2.340  14.017  -0.891  1.00  0.00     0.014 A 
ATOM     34  C   UNL     1      -3.547  15.735  -2.730  1.00  0.00     0.010 A 
ATOM     35  C   UNL     1      -2.891  15.218  -0.455  1.00  0.00     0.010 A 
ATOM     36  C   UNL     1      -3.500  16.088  -1.370  1.00  0.00    -0.014 A 
BRANCH  36  37
ATOM     37  C   UNL     1      -4.117  17.353  -0.901  1.00  0.00     0.031 A 
ATOM     38  C   UNL     1      -3.274  18.442  -0.300  1.00  0.00     0.074 A 
ATOM     39  C   UNL     1      -5.453  17.503  -0.990  1.00  0.00     0.049 A 
ATOM     40  N   UNL     1      -3.640  19.626   0.124  1.00  0.00    -0.248 NA
ATOM     41  C   UNL     1      -1.840  18.161  -0.130  1.00  0.00     0.031 C 
ATOM     42  C   UNL     1      -6.386  16.495  -1.499  1.00  0.00     0.029 A 
ATOM     43  N   UNL     1      -6.258  18.565  -0.664  1.00  0.00    -0.354 N 
ATOM     44  C   UNL     1      -2.487  20.226   0.613  1.00  0.00     0.074 A 
ATOM     45  C   UNL     1      -1.421  19.256   0.488  1.00  0.00     0.031 C 
ATOM     46  C   UNL     1      -7.628  17.004  -1.496  1.00  0.00     0.029 A 
ATOM     47  C   UNL     1      -7.586  18.356  -0.949  1.00  0.00     0.049 A 
ATOM     48  H   UNL     1      -5.917  19.397  -0.264  1.00  0.00     0.167 HD
ATOM     49  C   UNL     1      -2.324  21.479   1.100  1.00  0.00     0.031 A 
ATOM     50  C   UNL     1      -8.651  19.164  -0.794  1.00  0.00     0.031 A 
ATOM     51  C   UNL     1      -3.387  22.441   1.226  1.00  0.00     0.049 A 
ATOM     52  C   UNL     1      -8.444  20.547  -0.243  1.00  0.00     0.074 A 
ATOM     53  C   UNL     1      -3.314  23.756   1.651  1.00  0.00     0.029 A 
ATOM     54  N   UNL     1      -4.719  22.189   0.935  1.00  0.00    -0.354 N 
ATOM     55  N   UNL     1      -7.331  21.131   0.128  1.00  0.00    -0.248 NA
ATOM     56  C   UNL     1      -9.642  21.386  -0.104  1.00  0.00     0.031 C 
ATOM     57  C   UNL     1      -4.610  24.279   1.677  1.00  0.00     0.029 A 
ATOM     58  C   UNL     1      -5.483  23.313   1.204  1.00  0.00     0.049 A 
ATOM     59  H   UNL     1      -5.070  21.336   0.589  1.00  0.00     0.167 HD
ATOM     60  C   UNL     1      -7.690  22.413   0.523  1.00  0.00     0.074 A 
ATOM     61  C   UNL     1      -9.120  22.527   0.321  1.00  0.00     0.031 C 
ATOM     62  C   UNL     1      -6.907  23.406   1.012  1.00  0.00     0.031 A 
BRANCH  49  63
ATOM     63  C   UNL     1      -0.943  21.875   1.544  1.00  0.00    -0.014 A 
ATOM     64  C   UNL     1       0.099  22.049   0.618  1.00  0.00     0.009 A 
ATOM     65  C   UNL     1      -0.686  22.115   2.903  1.00  0.00     0.009 A 
ATOM     66  C   UNL     1       1.377  22.416   1.048  1.00  0.00     0.001 A 
ATOM     67  C   UNL     1       0.583  22.513   3.327  1.00  0.00     0.001 A 
ATOM     68  C   UNL     1       1.616  22.653   2.401  1.00  0.00     0.000 A 
ENDBRANCH  49  63
BRANCH  50  69
ATOM     69  C   UNL     1     -10.005  18.694  -1.186  1.00  0.00    -0.014 A 
ATOM     70  C   UNL     1     -10.664  19.252  -2.293  1.00  0.00     0.009 A 
ATOM     71  C   UNL     1     -10.650  17.685  -0.453  1.00  0.00     0.009 A 
ATOM     72  C   UNL     1     -11.950  18.831  -2.639  1.00  0.00     0.001 A 
ATOM     73  C   UNL     1     -11.922  17.243  -0.821  1.00  0.00     0.001 A 
ATOM     74  C   UNL     1     -12.575  17.823  -1.907  1.00  0.00     0.000 A 
ENDBRANCH  50  69
BRANCH  62  75
ATOM     75  C   UNL     1      -7.582  24.709   1.340  1.00  0.00    -0.014 A 
ATOM     76  C   UNL     1      -8.458  24.823   2.431  1.00  0.00     0.009 A 
ATOM     77  C   UNL     1      -7.320  25.845   0.558  1.00  0.00     0.009 A 
ATOM     78  C   UNL     1      -9.091  26.038   2.705  1.00  0.00     0.001 A 
ATOM     79  C   UNL     1      -7.927  27.066   0.855  1.00  0.00     0.001 A 
ATOM     80  C   UNL     1      -8.821  27.158   1.920  1.00  0.00     0.000 A 
ENDBRANCH  62  75
ENDBRANCH  36  37
ENDBRANCH  28  31
ENDBRANCH  26  27
ENDBRANCH  25  26
ENDBRANCH   1  25
TORSDOF 13
