REMARK SMILES CC1=C(CC(=O)NCCCCNC(=O)c2ccc(-c3c4nc(c(-c5ccccc5)c5ccc([nH]5)c(-c5ccccc5)c5nc(c(-c6ccccc6)c6ccc3[nH]6)C=C5)C=C4)cc2)c2cc(F)ccc2/C1=C\c1cccc(OCc2ccccc2)c1
REMARK SMILES IDX 8 1 7 2 5 3 6 4 4 6 3 7 1 8 2 9 70 10 63 11 69 12 71 13
REMARK SMILES IDX 64 14 68 15 65 16 67 17 66 18 72 19 73 20 85 21 74 22 76 23
REMARK SMILES IDX 75 24 77 25 78 26 79 27 80 28 84 29 81 30 83 31 82 32 9 33
REMARK SMILES IDX 10 34 11 35 12 36 13 37 14 39 15 40 16 41 62 42 17 43 61 44
REMARK SMILES IDX 18 45 19 46 20 47 55 48 21 49 60 50 54 51 56 52 22 53 59 54
REMARK SMILES IDX 53 55 52 56 23 58 45 59 30 60 44 61 31 62 34 63 43 64 57 65
REMARK SMILES IDX 32 66 33 67 42 69 58 70 35 71 24 72 25 73 29 74 26 75 28 76
REMARK SMILES IDX 27 77 46 78 47 79 51 80 48 81 50 82 49 83 36 84 37 85 41 86
REMARK SMILES IDX 38 87 40 88 39 89
REMARK H PARENT 7 5 12 38 56 57 34 68
REMARK Flexibility Score: inf
ROOT
ATOM      1  C   UNL     1      -2.358  -0.757  -0.488  1.00  0.00     0.116 C 
ENDROOT
BRANCH   1   2
ATOM      2  N   UNL     1      -2.568  -1.407  -1.765  1.00  0.00    -0.356 N 
ATOM      3  C   UNL     1      -1.652  -1.733  -2.724  1.00  0.00     0.224 C 
ATOM      4  O   UNL     1      -2.058  -2.267  -3.758  1.00  0.00    -0.275 OA
ATOM      5  H   UNL     1      -3.500  -1.648  -1.970  1.00  0.00     0.163 HD
BRANCH   3   6
ATOM      6  C   UNL     1      -0.163  -1.476  -2.498  1.00  0.00     0.136 C 
BRANCH   6   7
ATOM      7  C   UNL     1       0.183  -0.023  -2.475  1.00  0.00    -0.027 C 
ATOM      8  C   UNL     1       1.206   0.247  -0.140  1.00  0.00     0.045 C 
ATOM      9  C   UNL     1       0.730   0.712  -1.478  1.00  0.00    -0.039 C 
ATOM     10  C   UNL     1       0.790   2.123  -1.887  1.00  0.00    -0.014 C 
ATOM     11  C   UNL     1      -0.048   0.876  -3.622  1.00  0.00    -0.011 A 
ATOM     12  C   UNL     1       0.342   2.187  -3.288  1.00  0.00    -0.010 A 
ATOM     13  C   UNL     1       1.141   3.129  -1.068  1.00  0.00     0.017 C 
ATOM     14  C   UNL     1      -0.552   0.589  -4.883  1.00  0.00     0.048 A 
ATOM     15  C   UNL     1       0.254   3.214  -4.219  1.00  0.00     0.012 A 
ATOM     16  C   UNL     1      -0.659   1.630  -5.802  1.00  0.00     0.123 A 
ATOM     17  C   UNL     1      -0.260   2.929  -5.485  1.00  0.00     0.040 A 
ATOM     18  F   UNL     1      -1.152   1.381  -7.022  1.00  0.00    -0.207 F 
BRANCH  13  19
ATOM     19  C   UNL     1       1.234   4.540  -1.431  1.00  0.00    -0.021 A 
ATOM     20  C   UNL     1       0.105   5.361  -1.509  1.00  0.00     0.008 A 
ATOM     21  C   UNL     1       2.498   5.058  -1.728  1.00  0.00     0.054 A 
ATOM     22  C   UNL     1       0.243   6.687  -1.917  1.00  0.00     0.004 A 
ATOM     23  C   UNL     1       2.646   6.395  -2.087  1.00  0.00     0.120 A 
ATOM     24  C   UNL     1       1.510   7.199  -2.209  1.00  0.00     0.046 A 
BRANCH  23  25
ATOM     25  O   UNL     1       3.840   7.024  -2.321  1.00  0.00    -0.489 OA
BRANCH  25  26
ATOM     26  C   UNL     1       5.033   6.389  -1.833  1.00  0.00     0.265 C 
BRANCH  26  27
ATOM     27  C   UNL     1       5.081   6.242  -0.325  1.00  0.00    -0.011 A 
ATOM     28  C   UNL     1       5.581   5.068   0.259  1.00  0.00     0.007 A 
ATOM     29  C   UNL     1       4.613   7.267   0.511  1.00  0.00     0.007 A 
ATOM     30  C   UNL     1       5.572   4.908   1.646  1.00  0.00     0.000 A 
ATOM     31  C   UNL     1       4.603   7.104   1.896  1.00  0.00     0.000 A 
ATOM     32  C   UNL     1       5.077   5.923   2.463  1.00  0.00     0.000 A 
ENDBRANCH  26  27
ENDBRANCH  25  26
ENDBRANCH  23  25
ENDBRANCH  13  19
ENDBRANCH   6   7
ENDBRANCH   3   6
ENDBRANCH   1   2
BRANCH   1  33
ATOM     33  C   UNL     1      -2.657   0.743  -0.541  1.00  0.00     0.023 C 
BRANCH  33  34
ATOM     34  C   UNL     1      -4.125   1.103  -0.762  1.00  0.00     0.023 C 
BRANCH  34  35
ATOM     35  C   UNL     1      -5.092   0.546   0.271  1.00  0.00     0.116 C 
BRANCH  35  36
ATOM     36  N   UNL     1      -4.817   0.987   1.631  1.00  0.00    -0.352 N 
ATOM     37  C   UNL     1      -5.720   1.240   2.640  1.00  0.00     0.251 C 
ATOM     38  H   UNL     1      -3.869   1.121   1.858  1.00  0.00     0.163 HD
ATOM     39  O   UNL     1      -5.346   1.690   3.719  1.00  0.00    -0.269 OA
BRANCH  37  40
ATOM     40  C   UNL     1      -7.158   1.016   2.383  1.00  0.00     0.039 A 
ATOM     41  C   UNL     1      -7.594  -0.178   1.806  1.00  0.00     0.014 A 
ATOM     42  C   UNL     1      -8.063   2.048   2.645  1.00  0.00     0.014 A 
ATOM     43  C   UNL     1      -8.895  -0.272   1.329  1.00  0.00     0.010 A 
ATOM     44  C   UNL     1      -9.393   1.919   2.235  1.00  0.00     0.010 A 
ATOM     45  C   UNL     1      -9.805   0.782   1.524  1.00  0.00    -0.014 A 
BRANCH  45  46
ATOM     46  C   UNL     1     -11.171   0.676   0.953  1.00  0.00     0.031 A 
ATOM     47  C   UNL     1     -11.617   1.594  -0.154  1.00  0.00     0.074 A 
ATOM     48  C   UNL     1     -11.992  -0.299   1.389  1.00  0.00     0.049 A 
ATOM     49  N   UNL     1     -12.766   1.623  -0.783  1.00  0.00    -0.248 NA
ATOM     50  C   UNL     1     -10.656   2.607  -0.619  1.00  0.00     0.031 C 
ATOM     51  C   UNL     1     -11.667  -1.264   2.442  1.00  0.00     0.029 A 
ATOM     52  N   UNL     1     -13.252  -0.659   0.983  1.00  0.00    -0.354 N 
ATOM     53  C   UNL     1     -12.671   2.661  -1.702  1.00  0.00     0.074 A 
ATOM     54  C   UNL     1     -11.363   3.255  -1.536  1.00  0.00     0.031 C 
ATOM     55  C   UNL     1     -12.679  -2.135   2.564  1.00  0.00     0.029 A 
ATOM     56  C   UNL     1     -13.747  -1.756   1.644  1.00  0.00     0.049 A 
ATOM     57  H   UNL     1     -13.752  -0.177   0.286  1.00  0.00     0.167 HD
ATOM     58  C   UNL     1     -13.587   3.073  -2.608  1.00  0.00     0.031 A 
ATOM     59  C   UNL     1     -14.933  -2.385   1.536  1.00  0.00     0.031 A 
ATOM     60  C   UNL     1     -14.883   2.474  -2.785  1.00  0.00     0.049 A 
ATOM     61  C   UNL     1     -15.942  -1.889   0.542  1.00  0.00     0.074 A 
ATOM     62  C   UNL     1     -15.877   2.830  -3.681  1.00  0.00     0.029 A 
ATOM     63  N   UNL     1     -15.361   1.392  -2.064  1.00  0.00    -0.354 N 
ATOM     64  N   UNL     1     -15.837  -0.898  -0.309  1.00  0.00    -0.248 NA
ATOM     65  C   UNL     1     -17.231  -2.593   0.494  1.00  0.00     0.031 C 
ATOM     66  C   UNL     1     -16.973   1.990  -3.473  1.00  0.00     0.029 A 
ATOM     67  C   UNL     1     -16.641   1.077  -2.485  1.00  0.00     0.049 A 
ATOM     68  H   UNL     1     -14.864   0.919  -1.358  1.00  0.00     0.167 HD
ATOM     69  C   UNL     1     -17.042  -0.862  -0.997  1.00  0.00     0.074 A 
ATOM     70  C   UNL     1     -17.853  -1.946  -0.483  1.00  0.00     0.031 C 
ATOM     71  C   UNL     1     -17.439  -0.001  -1.964  1.00  0.00     0.031 A 
BRANCH  58  72
ATOM     72  C   UNL     1     -13.238   4.237  -3.492  1.00  0.00    -0.014 A 
ATOM     73  C   UNL     1     -13.876   5.473  -3.302  1.00  0.00     0.009 A 
ATOM     74  C   UNL     1     -12.366   4.080  -4.580  1.00  0.00     0.009 A 
ATOM     75  C   UNL     1     -13.662   6.525  -4.194  1.00  0.00     0.001 A 
ATOM     76  C   UNL     1     -12.137   5.142  -5.458  1.00  0.00     0.001 A 
ATOM     77  C   UNL     1     -12.793   6.359  -5.271  1.00  0.00     0.000 A 
ENDBRANCH  58  72
BRANCH  59  78
ATOM     78  C   UNL     1     -15.219  -3.550   2.412  1.00  0.00    -0.014 A 
ATOM     79  C   UNL     1     -15.397  -3.369   3.794  1.00  0.00     0.009 A 
ATOM     80  C   UNL     1     -15.266  -4.848   1.885  1.00  0.00     0.009 A 
ATOM     81  C   UNL     1     -15.591  -4.466   4.633  1.00  0.00     0.001 A 
ATOM     82  C   UNL     1     -15.490  -5.942   2.725  1.00  0.00     0.001 A 
ATOM     83  C   UNL     1     -15.643  -5.751   4.098  1.00  0.00     0.000 A 
ENDBRANCH  59  78
BRANCH  71  84
ATOM     84  C   UNL     1     -18.812  -0.184  -2.542  1.00  0.00    -0.014 A 
ATOM     85  C   UNL     1     -18.958  -0.656  -3.857  1.00  0.00     0.009 A 
ATOM     86  C   UNL     1     -19.953   0.206  -1.826  1.00  0.00     0.009 A 
ATOM     87  C   UNL     1     -20.220  -0.723  -4.447  1.00  0.00     0.001 A 
ATOM     88  C   UNL     1     -21.217   0.115  -2.411  1.00  0.00     0.001 A 
ATOM     89  C   UNL     1     -21.349  -0.340  -3.723  1.00  0.00     0.000 A 
ENDBRANCH  71  84
ENDBRANCH  45  46
ENDBRANCH  37  40
ENDBRANCH  35  36
ENDBRANCH  34  35
ENDBRANCH  33  34
ENDBRANCH   1  33
TORSDOF 16
