REMARK SMILES C[C@H](C(=O)NCCCCNC(=O)c1ccc(-c2c3nc(c(-c4ccccc4)c4ccc([nH]4)c(-c4ccccc4)c4nc(c(-c5ccccc5)c5ccc2[nH]5)C=C4)C=C3)cc1)[C@@H](C(=O)c1ccccc1)c1ccc(F)cc1
REMARK SMILES IDX 7 1 6 2 5 3 3 4 4 5 2 7 1 8 61 9 62 10 63 11 64 12 65 13
REMARK SMILES IDX 69 14 66 15 68 16 67 17 70 18 71 19 76 20 72 21 75 22 73 23
REMARK SMILES IDX 74 24 8 25 9 26 10 27 11 28 12 30 13 31 14 32 60 33 15 34
REMARK SMILES IDX 59 35 16 36 17 37 18 38 53 39 19 40 58 41 52 42 54 43 20 44
REMARK SMILES IDX 57 45 51 46 50 47 21 49 43 50 28 51 42 52 29 53 32 54 41 55
REMARK SMILES IDX 55 56 30 57 31 58 40 60 56 61 33 62 22 63 23 64 27 65 24 66
REMARK SMILES IDX 26 67 25 68 44 69 45 70 49 71 46 72 48 73 47 74 34 75 35 76
REMARK SMILES IDX 39 77 36 78 38 79 37 80
REMARK H PARENT 5 6 10 29 54 48 32 59
REMARK Flexibility Score: inf
ROOT
ATOM      1  C   UNL     1      -2.811  -0.891   0.296  1.00  0.00     0.023 C 
ENDROOT
BRANCH   1   2
ATOM      2  C   UNL     1      -2.305  -0.534   1.953  1.00  0.00     0.116 C 
BRANCH   2   3
ATOM      3  N   UNL     1      -0.778  -0.757   2.558  1.00  0.00    -0.356 N 
ATOM      4  C   UNL     1       0.540  -0.242   2.443  1.00  0.00     0.223 C 
ATOM      5  O   UNL     1       1.482  -0.917   2.859  1.00  0.00    -0.275 OA
ATOM      6  H   UNL     1      -0.788  -1.490   3.215  1.00  0.00     0.163 HD
BRANCH   4   7
ATOM      7  C   UNL     1       0.790   1.134   1.842  1.00  0.00     0.090 C 
ATOM      8  C   UNL     1       2.025   1.567   1.042  1.00  0.00     0.019 C 
BRANCH   7   9
ATOM      9  C   UNL     1      -0.392   1.311   0.956  1.00  0.00     0.103 C 
BRANCH   9  10
ATOM     10  C   UNL     1      -0.471  -0.010   0.009  1.00  0.00     0.171 C 
ATOM     11  O   UNL     1      -0.406   0.277  -1.205  1.00  0.00    -0.293 OA
BRANCH  10  12
ATOM     12  C   UNL     1      -0.440  -1.777   0.327  1.00  0.00     0.018 A 
ATOM     13  C   UNL     1      -1.895  -2.735   1.036  1.00  0.00     0.012 A 
ATOM     14  C   UNL     1       0.104  -2.282  -1.295  1.00  0.00     0.012 A 
ATOM     15  C   UNL     1      -2.885  -3.868  -0.033  1.00  0.00     0.001 A 
ATOM     16  C   UNL     1      -0.824  -3.401  -2.280  1.00  0.00     0.001 A 
ATOM     17  C   UNL     1      -2.289  -4.191  -1.691  1.00  0.00     0.000 A 
ENDBRANCH  10  12
ENDBRANCH   9  10
BRANCH   9  18
ATOM     18  C   UNL     1      -1.361   2.240   1.810  1.00  0.00    -0.036 A 
ATOM     19  C   UNL     1      -1.682   3.524   1.334  1.00  0.00     0.007 A 
ATOM     20  C   UNL     1      -1.538   2.063   3.228  1.00  0.00     0.007 A 
ATOM     21  C   UNL     1      -2.073   4.552   2.220  1.00  0.00     0.039 A 
ATOM     22  C   UNL     1      -1.975   3.062   4.096  1.00  0.00     0.039 A 
ATOM     23  C   UNL     1      -2.205   4.316   3.585  1.00  0.00     0.123 A 
ATOM     24  F   UNL     1      -2.499   5.319   4.421  1.00  0.00    -0.207 F 
ENDBRANCH   9  18
ENDBRANCH   7   9
ENDBRANCH   4   7
ENDBRANCH   2   3
ENDBRANCH   1   2
BRANCH   1  25
ATOM     25  C   UNL     1      -2.047  -2.196  -0.854  1.00  0.00     0.023 C 
BRANCH  25  26
ATOM     26  C   UNL     1      -0.798  -3.892  -0.149  1.00  0.00     0.116 C 
BRANCH  26  27
ATOM     27  N   UNL     1      -1.097  -4.894   1.220  1.00  0.00    -0.352 N 
ATOM     28  C   UNL     1      -1.985  -5.943   1.410  1.00  0.00     0.251 C 
ATOM     29  H   UNL     1      -0.539  -4.686   2.005  1.00  0.00     0.163 HD
ATOM     30  O   UNL     1      -2.644  -6.057   2.438  1.00  0.00    -0.269 OA
BRANCH  28  31
ATOM     31  C   UNL     1      -2.087  -6.944   0.344  1.00  0.00     0.039 A 
ATOM     32  C   UNL     1      -3.299  -7.524  -0.063  1.00  0.00     0.014 A 
ATOM     33  C   UNL     1      -0.875  -7.342  -0.204  1.00  0.00     0.014 A 
ATOM     34  C   UNL     1      -3.281  -8.506  -1.059  1.00  0.00     0.010 A 
ATOM     35  C   UNL     1      -0.863  -8.270  -1.218  1.00  0.00     0.010 A 
ATOM     36  C   UNL     1      -2.057  -8.882  -1.630  1.00  0.00    -0.014 A 
BRANCH  36  37
ATOM     37  C   UNL     1      -1.892  -9.983  -2.598  1.00  0.00     0.031 A 
ATOM     38  C   UNL     1      -1.076 -11.171  -2.172  1.00  0.00     0.074 A 
ATOM     39  C   UNL     1      -2.256  -9.808  -3.878  1.00  0.00     0.049 A 
ATOM     40  N   UNL     1      -0.499 -12.086  -2.904  1.00  0.00    -0.248 NA
ATOM     41  C   UNL     1      -0.817 -11.296  -0.726  1.00  0.00     0.031 C 
ATOM     42  C   UNL     1      -3.018  -8.675  -4.401  1.00  0.00     0.029 A 
ATOM     43  N   UNL     1      -1.976 -10.569  -4.982  1.00  0.00    -0.354 N 
ATOM     44  C   UNL     1       0.229 -12.864  -2.013  1.00  0.00     0.074 A 
ATOM     45  C   UNL     1       0.063 -12.284  -0.699  1.00  0.00     0.031 C 
ATOM     46  C   UNL     1      -3.142  -8.813  -5.731  1.00  0.00     0.029 A 
ATOM     47  C   UNL     1      -2.422 -10.011  -6.154  1.00  0.00     0.049 A 
ATOM     48  H   UNL     1      -1.501 -11.430  -4.939  1.00  0.00     0.167 HD
ATOM     49  C   UNL     1       0.963 -13.972  -2.269  1.00  0.00     0.031 A 
ATOM     50  C   UNL     1      -2.241 -10.413  -7.425  1.00  0.00     0.031 A 
ATOM     51  C   UNL     1       1.107 -14.540  -3.582  1.00  0.00     0.049 A 
ATOM     52  C   UNL     1      -1.427 -11.651  -7.689  1.00  0.00     0.074 A 
ATOM     53  C   UNL     1       1.762 -15.699  -3.954  1.00  0.00     0.029 A 
ATOM     54  N   UNL     1       0.580 -13.984  -4.738  1.00  0.00    -0.354 N 
ATOM     55  N   UNL     1      -0.792 -12.422  -6.838  1.00  0.00    -0.248 NA
ATOM     56  C   UNL     1      -1.315 -12.079  -9.089  1.00  0.00     0.031 C 
ATOM     57  C   UNL     1       1.676 -15.816  -5.345  1.00  0.00     0.029 A 
ATOM     58  C   UNL     1       0.910 -14.767  -5.830  1.00  0.00     0.049 A 
ATOM     59  H   UNL     1       0.050 -13.155  -4.777  1.00  0.00     0.167 HD
ATOM     60  C   UNL     1      -0.239 -13.448  -7.594  1.00  0.00     0.074 A 
ATOM     61  C   UNL     1      -0.621 -13.203  -8.970  1.00  0.00     0.031 C 
ATOM     62  C   UNL     1       0.510 -14.503  -7.189  1.00  0.00     0.031 A 
BRANCH  49  63
ATOM     63  C   UNL     1       1.665 -14.622  -1.109  1.00  0.00    -0.014 A 
ATOM     64  C   UNL     1       0.946 -15.226  -0.064  1.00  0.00     0.009 A 
ATOM     65  C   UNL     1       3.068 -14.639  -1.061  1.00  0.00     0.009 A 
ATOM     66  C   UNL     1       1.614 -15.786   1.027  1.00  0.00     0.001 A 
ATOM     67  C   UNL     1       3.734 -15.233   0.012  1.00  0.00     0.001 A 
ATOM     68  C   UNL     1       3.007 -15.793   1.062  1.00  0.00     0.000 A 
ENDBRANCH  49  63
BRANCH  50  69
ATOM     69  C   UNL     1      -2.867  -9.655  -8.537  1.00  0.00    -0.014 A 
ATOM     70  C   UNL     1      -3.953 -10.204  -9.236  1.00  0.00     0.009 A 
ATOM     71  C   UNL     1      -2.401  -8.382  -8.900  1.00  0.00     0.009 A 
ATOM     72  C   UNL     1      -4.542  -9.507 -10.293  1.00  0.00     0.001 A 
ATOM     73  C   UNL     1      -3.012  -7.673  -9.937  1.00  0.00     0.001 A 
ATOM     74  C   UNL     1      -4.075  -8.240 -10.639  1.00  0.00     0.000 A 
ENDBRANCH  50  69
BRANCH  62  75
ATOM     75  C   UNL     1       0.919 -15.503  -8.235  1.00  0.00    -0.014 A 
ATOM     76  C   UNL     1       1.890 -15.201  -9.201  1.00  0.00     0.009 A 
ATOM     77  C   UNL     1       0.359 -16.791  -8.210  1.00  0.00     0.009 A 
ATOM     78  C   UNL     1       2.268 -16.162 -10.142  1.00  0.00     0.001 A 
ATOM     79  C   UNL     1       0.764 -17.758  -9.129  1.00  0.00     0.001 A 
ATOM     80  C   UNL     1       1.711 -17.440 -10.100  1.00  0.00     0.000 A 
ENDBRANCH  62  75
ENDBRANCH  36  37
ENDBRANCH  28  31
ENDBRANCH  26  27
ENDBRANCH  25  26
ENDBRANCH   1  25
TORSDOF 15
