REMARK SMILES O=C(NCCCCNC(=O)c1ccc(-c2c3nc(c(-c4ccccc4)c4ccc([nH]4)c(-c4ccccc4)c4nc(c(-c5ccccc5)c5ccc2[nH]5)C=C4)C=C3)cc1)C1=C(C(=O)NCCC2=CCCCC2)CCCC1
REMARK SMILES IDX 4 1 3 2 1 3 2 4 59 6 60 7 75 8 72 9 74 10 73 11 61 12 62 13
REMARK SMILES IDX 63 14 64 16 65 17 66 18 67 19 71 20 68 21 70 22 69 23 5 24
REMARK SMILES IDX 6 25 7 26 8 27 9 28 10 30 11 31 12 32 58 33 13 34 57 35
REMARK SMILES IDX 14 36 15 37 16 38 51 39 17 40 56 41 50 42 52 43 18 44 55 45
REMARK SMILES IDX 49 46 48 47 19 49 41 50 26 51 40 52 27 53 30 54 39 55 53 56
REMARK SMILES IDX 28 57 29 58 38 60 54 61 31 62 20 63 21 64 25 65 22 66 24 67
REMARK SMILES IDX 23 68 42 69 43 70 47 71 44 72 46 73 45 74 32 75 33 76 37 77
REMARK SMILES IDX 34 78 36 79 35 80
REMARK H PARENT 3 5 63 15 8 29 52 48 30 59
REMARK Flexibility Score: inf
ROOT
ATOM      1  C   UNL     1       4.979   1.463  -0.768  1.00  0.00     0.116 C 
ENDROOT
BRANCH   1   2
ATOM      2  N   UNL     1       3.579   1.412  -1.147  1.00  0.00    -0.352 N 
ATOM      3  O   UNL     1       1.610   0.512  -1.707  1.00  0.00    -0.270 OA
ATOM      4  C   UNL     1       2.761   0.340  -1.307  1.00  0.00     0.247 C 
ATOM      5  H   UNL     1       3.159   2.287  -1.314  1.00  0.00     0.163 HD
BRANCH   4   6
ATOM      6  C   UNL     1       3.268  -1.035  -1.072  1.00  0.00     0.026 C 
ATOM      7  C   UNL     1       3.789  -1.490   0.088  1.00  0.00     0.026 C 
ATOM      8  C   UNL     1       3.084  -1.917  -2.290  1.00  0.00     0.042 C 
ATOM      9  C   UNL     1       4.462  -2.852   0.152  1.00  0.00     0.042 C 
ATOM     10  C   UNL     1       3.453  -3.383  -2.069  1.00  0.00     0.005 C 
ATOM     11  C   UNL     1       4.706  -3.486  -1.219  1.00  0.00     0.005 C 
BRANCH   7  12
ATOM     12  C   UNL     1       3.899  -0.743   1.381  1.00  0.00     0.247 C 
ATOM     13  O   UNL     1       4.966  -0.764   1.998  1.00  0.00    -0.270 OA
ATOM     14  N   UNL     1       2.847  -0.099   1.947  1.00  0.00    -0.352 N 
ATOM     15  H   UNL     1       3.018   0.234   2.858  1.00  0.00     0.163 HD
BRANCH  14  16
ATOM     16  C   UNL     1       1.514   0.186   1.447  1.00  0.00     0.120 C 
BRANCH  16  17
ATOM     17  C   UNL     1       0.491   0.505   2.542  1.00  0.00     0.052 C 
BRANCH  17  18
ATOM     18  C   UNL     1       0.850   1.632   3.498  1.00  0.00    -0.072 C 
ATOM     19  C   UNL     1       0.739   1.458   4.829  1.00  0.00    -0.028 C 
ATOM     20  C   UNL     1       1.253   2.969   2.911  1.00  0.00     0.031 C 
ATOM     21  C   UNL     1       0.940   2.548   5.841  1.00  0.00     0.027 C 
ATOM     22  C   UNL     1       1.790   3.962   3.949  1.00  0.00     0.005 C 
ATOM     23  C   UNL     1       0.951   3.944   5.220  1.00  0.00     0.004 C 
ENDBRANCH  17  18
ENDBRANCH  16  17
ENDBRANCH  14  16
ENDBRANCH   7  12
ENDBRANCH   4   6
ENDBRANCH   1   2
BRANCH   1  24
ATOM     24  C   UNL     1       5.604   2.829  -1.048  1.00  0.00     0.023 C 
BRANCH  24  25
ATOM     25  C   UNL     1       4.991   3.995  -0.259  1.00  0.00     0.023 C 
BRANCH  25  26
ATOM     26  C   UNL     1       5.098   3.888   1.263  1.00  0.00     0.116 C 
BRANCH  26  27
ATOM     27  N   UNL     1       6.478   3.921   1.722  1.00  0.00    -0.352 N 
ATOM     28  C   UNL     1       7.202   4.925   2.307  1.00  0.00     0.251 C 
ATOM     29  H   UNL     1       6.974   3.080   1.590  1.00  0.00     0.163 HD
ATOM     30  O   UNL     1       8.430   4.810   2.399  1.00  0.00    -0.269 OA
BRANCH  28  31
ATOM     31  C   UNL     1       6.558   6.153   2.822  1.00  0.00     0.039 A 
ATOM     32  C   UNL     1       7.197   7.381   2.621  1.00  0.00     0.014 A 
ATOM     33  C   UNL     1       5.375   6.106   3.565  1.00  0.00     0.014 A 
ATOM     34  C   UNL     1       6.622   8.560   3.105  1.00  0.00     0.010 A 
ATOM     35  C   UNL     1       4.766   7.289   3.993  1.00  0.00     0.010 A 
ATOM     36  C   UNL     1       5.384   8.529   3.767  1.00  0.00    -0.014 A 
BRANCH  36  37
ATOM     37  C   UNL     1       4.723   9.789   4.195  1.00  0.00     0.031 A 
ATOM     38  C   UNL     1       4.526  10.109   5.652  1.00  0.00     0.074 A 
ATOM     39  C   UNL     1       4.260  10.641   3.260  1.00  0.00     0.049 A 
ATOM     40  N   UNL     1       3.982  11.170   6.197  1.00  0.00    -0.248 NA
ATOM     41  C   UNL     1       4.979   9.101   6.622  1.00  0.00     0.031 C 
ATOM     42  C   UNL     1       4.345  10.436   1.812  1.00  0.00     0.029 A 
ATOM     43  N   UNL     1       3.629  11.854   3.388  1.00  0.00    -0.354 N 
ATOM     44  C   UNL     1       4.016  10.952   7.568  1.00  0.00     0.074 A 
ATOM     45  C   UNL     1       4.595   9.640   7.770  1.00  0.00     0.031 C 
ATOM     46  C   UNL     1       3.821  11.502   1.187  1.00  0.00     0.029 A 
ATOM     47  C   UNL     1       3.336  12.449   2.185  1.00  0.00     0.049 A 
ATOM     48  H   UNL     1       3.407  12.257   4.258  1.00  0.00     0.167 HD
ATOM     49  C   UNL     1       3.617  11.773   8.570  1.00  0.00     0.031 A 
ATOM     50  C   UNL     1       2.748  13.629   1.912  1.00  0.00     0.031 A 
ATOM     51  C   UNL     1       3.048  13.081   8.378  1.00  0.00     0.049 A 
ATOM     52  C   UNL     1       2.313  14.519   3.039  1.00  0.00     0.074 A 
ATOM     53  C   UNL     1       2.679  14.011   9.335  1.00  0.00     0.029 A 
ATOM     54  N   UNL     1       2.758  13.642   7.144  1.00  0.00    -0.354 N 
ATOM     55  N   UNL     1       2.423  14.330   4.331  1.00  0.00    -0.248 NA
ATOM     56  C   UNL     1       1.680  15.793   2.666  1.00  0.00     0.031 C 
ATOM     57  C   UNL     1       2.121  15.116   8.681  1.00  0.00     0.029 A 
ATOM     58  C   UNL     1       2.188  14.893   7.316  1.00  0.00     0.049 A 
ATOM     59  H   UNL     1       2.932  13.215   6.274  1.00  0.00     0.167 HD
ATOM     60  C   UNL     1       1.891  15.466   4.925  1.00  0.00     0.074 A 
ATOM     61  C   UNL     1       1.476  16.347   3.853  1.00  0.00     0.031 C 
ATOM     62  C   UNL     1       1.761  15.754   6.243  1.00  0.00     0.031 A 
BRANCH  49  63
ATOM     63  C   UNL     1       3.775  11.267   9.978  1.00  0.00    -0.014 A 
ATOM     64  C   UNL     1       5.042  11.150  10.571  1.00  0.00     0.009 A 
ATOM     65  C   UNL     1       2.639  10.930  10.730  1.00  0.00     0.009 A 
ATOM     66  C   UNL     1       5.171  10.667  11.875  1.00  0.00     0.001 A 
ATOM     67  C   UNL     1       2.769  10.473  12.043  1.00  0.00     0.001 A 
ATOM     68  C   UNL     1       4.035  10.332  12.611  1.00  0.00     0.000 A 
ENDBRANCH  49  63
BRANCH  50  69
ATOM     69  C   UNL     1       2.569  14.052   0.500  1.00  0.00    -0.014 A 
ATOM     70  C   UNL     1       3.378  15.061  -0.044  1.00  0.00     0.009 A 
ATOM     71  C   UNL     1       1.599  13.444  -0.311  1.00  0.00     0.009 A 
ATOM     72  C   UNL     1       3.208  15.464  -1.369  1.00  0.00     0.001 A 
ATOM     73  C   UNL     1       1.448  13.833  -1.643  1.00  0.00     0.001 A 
ATOM     74  C   UNL     1       2.248  14.846  -2.169  1.00  0.00     0.000 A 
ENDBRANCH  50  69
BRANCH  62  75
ATOM     75  C   UNL     1       1.155  17.083   6.593  1.00  0.00    -0.014 A 
ATOM     76  C   UNL     1      -0.219  17.320   6.429  1.00  0.00     0.009 A 
ATOM     77  C   UNL     1       1.966  18.106   7.109  1.00  0.00     0.009 A 
ATOM     78  C   UNL     1      -0.762  18.567   6.741  1.00  0.00     0.001 A 
ATOM     79  C   UNL     1       1.415  19.344   7.445  1.00  0.00     0.001 A 
ATOM     80  C   UNL     1       0.054  19.577   7.251  1.00  0.00     0.000 A 
ENDBRANCH  62  75
ENDBRANCH  36  37
ENDBRANCH  28  31
ENDBRANCH  26  27
ENDBRANCH  25  26
ENDBRANCH  24  25
ENDBRANCH   1  24
TORSDOF 15
