REMARK SMILES Cc1cc(C(=O)NCCCCNC(=O)c2ccc(-c3c4nc(c(-c5ccccc5)c5ccc([nH]5)c(-c5ccccc5)c5nc(c(-c6ccccc6)c6ccc3[nH]6)C=C5)C=C4)cc2)cc(S(=O)(=O)NNC(=O)c2c[nH]c3ccccc23)c1C
REMARK SMILES IDX 8 1 7 2 5 3 6 4 4 6 1 7 2 8 3 9 81 10 64 11 82 12 63 13
REMARK SMILES IDX 65 14 66 15 67 16 68 17 69 19 70 20 71 22 72 23 73 24 80 25
REMARK SMILES IDX 74 26 75 27 79 28 76 30 78 31 77 32 9 33 10 34 11 35 12 36
REMARK SMILES IDX 13 37 14 39 15 40 16 41 62 42 17 43 61 44 18 45 19 46 20 47
REMARK SMILES IDX 55 48 21 49 60 50 54 51 56 52 22 53 59 54 53 55 52 56 23 58
REMARK SMILES IDX 45 59 30 60 44 61 31 62 34 63 43 64 57 65 32 66 33 67 42 69
REMARK SMILES IDX 58 70 35 71 24 72 25 73 29 74 26 75 28 76 27 77 46 78 47 79
REMARK SMILES IDX 51 80 48 81 50 82 49 83 36 84 37 85 41 86 38 87 40 88 39 89
REMARK H PARENT 7 5 68 18 69 21 74 29 12 38 56 57 34 68
REMARK Flexibility Score: inf
ROOT
ATOM      1  C   UNL     1      -2.310   3.489   0.491  1.00  0.00     0.116 C 
ENDROOT
BRANCH   1   2
ATOM      2  N   UNL     1      -3.271   2.462   0.128  1.00  0.00    -0.352 N 
ATOM      3  C   UNL     1      -3.165   1.129  -0.182  1.00  0.00     0.251 C 
ATOM      4  O   UNL     1      -4.213   0.530  -0.433  1.00  0.00    -0.269 OA
ATOM      5  H   UNL     1      -4.198   2.794   0.097  1.00  0.00     0.163 HD
BRANCH   3   6
ATOM      6  C   UNL     1      -1.886   0.355  -0.211  1.00  0.00     0.041 A 
ATOM      7  C   UNL     1       1.881   0.869  -0.242  1.00  0.00     0.044 C 
ATOM      8  C   UNL     1       0.556   0.150  -0.253  1.00  0.00    -0.046 A 
ATOM      9  C   UNL     1      -0.617   0.926  -0.295  1.00  0.00     0.017 A 
ATOM     10  C   UNL     1       0.458  -1.254  -0.232  1.00  0.00    -0.028 A 
ATOM     11  C   UNL     1      -0.832  -1.842  -0.277  1.00  0.00     0.088 A 
ATOM     12  C   UNL     1       1.700  -2.114  -0.178  1.00  0.00     0.046 C 
ATOM     13  C   UNL     1      -1.984  -1.047  -0.218  1.00  0.00     0.036 A 
BRANCH  11  14
ATOM     14  S   UNL     1      -0.960  -3.593  -0.600  1.00  0.00     0.257 S 
ATOM     15  O   UNL     1      -0.442  -3.789  -1.940  1.00  0.00    -0.205 OA
ATOM     16  O   UNL     1      -0.400  -4.283   0.533  1.00  0.00    -0.205 OA
BRANCH  14  17
ATOM     17  N   UNL     1      -2.607  -4.031  -0.605  1.00  0.00    -0.123 NA
ATOM     18  H   UNL     1      -3.043  -3.544   0.178  1.00  0.00     0.167 HD
BRANCH  17  19
ATOM     19  N   UNL     1      -3.443  -3.766  -1.785  1.00  0.00    -0.273 N 
ATOM     20  C   UNL     1      -4.385  -4.700  -2.199  1.00  0.00     0.268 C 
ATOM     21  H   UNL     1      -3.335  -2.924  -2.284  1.00  0.00     0.186 HD
ATOM     22  O   UNL     1      -5.588  -4.502  -2.057  1.00  0.00    -0.268 OA
BRANCH  20  23
ATOM     23  C   UNL     1      -3.844  -5.723  -3.095  1.00  0.00     0.066 A 
ATOM     24  C   UNL     1      -2.509  -5.897  -3.418  1.00  0.00     0.097 A 
ATOM     25  C   UNL     1      -4.559  -6.601  -3.976  1.00  0.00     0.012 A 
ATOM     26  N   UNL     1      -2.473  -6.353  -4.707  1.00  0.00    -0.360 N 
ATOM     27  C   UNL     1      -3.719  -6.788  -5.077  1.00  0.00     0.046 A 
ATOM     28  C   UNL     1      -5.861  -7.137  -4.037  1.00  0.00     0.011 A 
ATOM     29  H   UNL     1      -1.673  -6.367  -5.281  1.00  0.00     0.166 HD
ATOM     30  C   UNL     1      -4.166  -7.303  -6.296  1.00  0.00     0.027 A 
ATOM     31  C   UNL     1      -6.280  -7.786  -5.207  1.00  0.00     0.001 A 
ATOM     32  C   UNL     1      -5.465  -7.812  -6.337  1.00  0.00     0.002 A 
ENDBRANCH  20  23
ENDBRANCH  17  19
ENDBRANCH  14  17
ENDBRANCH  11  14
ENDBRANCH   3   6
ENDBRANCH   1   2
BRANCH   1  33
ATOM     33  C   UNL     1      -1.858   4.285  -0.738  1.00  0.00     0.023 C 
BRANCH  33  34
ATOM     34  C   UNL     1      -2.854   5.359  -1.194  1.00  0.00     0.023 C 
BRANCH  34  35
ATOM     35  C   UNL     1      -3.055   6.511  -0.212  1.00  0.00     0.116 C 
BRANCH  35  36
ATOM     36  N   UNL     1      -1.841   7.267   0.052  1.00  0.00    -0.352 N 
ATOM     37  C   UNL     1      -1.713   8.599   0.369  1.00  0.00     0.251 C 
ATOM     38  H   UNL     1      -1.000   6.758  -0.002  1.00  0.00     0.163 HD
ATOM     39  O   UNL     1      -0.602   9.108   0.470  1.00  0.00    -0.269 OA
BRANCH  37  40
ATOM     40  C   UNL     1      -2.926   9.427   0.540  1.00  0.00     0.039 A 
ATOM     41  C   UNL     1      -3.005  10.650  -0.131  1.00  0.00     0.014 A 
ATOM     42  C   UNL     1      -3.989   8.989   1.334  1.00  0.00     0.014 A 
ATOM     43  C   UNL     1      -4.181  11.399  -0.066  1.00  0.00     0.010 A 
ATOM     44  C   UNL     1      -5.183   9.704   1.345  1.00  0.00     0.010 A 
ATOM     45  C   UNL     1      -5.293  10.913   0.640  1.00  0.00    -0.014 A 
BRANCH  45  46
ATOM     46  C   UNL     1      -6.584  11.643   0.642  1.00  0.00     0.031 A 
ATOM     47  C   UNL     1      -7.131  12.216   1.918  1.00  0.00     0.074 A 
ATOM     48  C   UNL     1      -7.303  11.725  -0.495  1.00  0.00     0.049 A 
ATOM     49  N   UNL     1      -8.268  12.830   2.127  1.00  0.00    -0.248 NA
ATOM     50  C   UNL     1      -6.304  12.053   3.124  1.00  0.00     0.031 C 
ATOM     51  C   UNL     1      -6.906  11.171  -1.791  1.00  0.00     0.029 A 
ATOM     52  N   UNL     1      -8.525  12.300  -0.739  1.00  0.00    -0.354 N 
ATOM     53  C   UNL     1      -8.301  13.109   3.487  1.00  0.00     0.074 A 
ATOM     54  C   UNL     1      -7.094  12.556   4.061  1.00  0.00     0.031 C 
ATOM     55  C   UNL     1      -7.856  11.454  -2.698  1.00  0.00     0.029 A 
ATOM     56  C   UNL     1      -8.941  12.175  -2.042  1.00  0.00     0.049 A 
ATOM     57  H   UNL     1      -9.053  12.758  -0.046  1.00  0.00     0.167 HD
ATOM     58  C   UNL     1      -9.242  13.780   4.193  1.00  0.00     0.031 A 
ATOM     59  C   UNL     1     -10.072  12.591  -2.642  1.00  0.00     0.031 A 
ATOM     60  C   UNL     1     -10.439  14.339   3.623  1.00  0.00     0.049 A 
ATOM     61  C   UNL     1     -11.103  13.332  -1.838  1.00  0.00     0.074 A 
ATOM     62  C   UNL     1     -11.422  15.089   4.244  1.00  0.00     0.029 A 
ATOM     63  N   UNL     1     -10.816  14.204   2.296  1.00  0.00    -0.354 N 
ATOM     64  N   UNL     1     -11.085  13.651  -0.567  1.00  0.00    -0.248 NA
ATOM     65  C   UNL     1     -12.304  13.780  -2.557  1.00  0.00     0.031 C 
ATOM     66  C   UNL     1     -12.418  15.369   3.302  1.00  0.00     0.029 A 
ATOM     67  C   UNL     1     -12.029  14.837   2.083  1.00  0.00     0.049 A 
ATOM     68  H   UNL     1     -10.299  13.728   1.606  1.00  0.00     0.167 HD
ATOM     69  C   UNL     1     -12.258  14.358  -0.338  1.00  0.00     0.074 A 
ATOM     70  C   UNL     1     -12.957  14.433  -1.605  1.00  0.00     0.031 C 
ATOM     71  C   UNL     1     -12.714  14.899   0.818  1.00  0.00     0.031 A 
BRANCH  58  72
ATOM     72  C   UNL     1      -9.011  13.936   5.671  1.00  0.00    -0.014 A 
ATOM     73  C   UNL     1      -7.996  14.772   6.164  1.00  0.00     0.009 A 
ATOM     74  C   UNL     1      -9.828  13.249   6.582  1.00  0.00     0.009 A 
ATOM     75  C   UNL     1      -7.776  14.883   7.538  1.00  0.00     0.001 A 
ATOM     76  C   UNL     1      -9.624  13.385   7.957  1.00  0.00     0.001 A 
ATOM     77  C   UNL     1      -8.592  14.192   8.433  1.00  0.00     0.000 A 
ENDBRANCH  58  72
BRANCH  59  78
ATOM     78  C   UNL     1     -10.278  12.335  -4.090  1.00  0.00    -0.014 A 
ATOM     79  C   UNL     1     -10.189  13.386  -5.015  1.00  0.00     0.009 A 
ATOM     80  C   UNL     1     -10.553  11.040  -4.556  1.00  0.00     0.009 A 
ATOM     81  C   UNL     1     -10.393  13.149  -6.377  1.00  0.00     0.001 A 
ATOM     82  C   UNL     1     -10.730  10.802  -5.921  1.00  0.00     0.001 A 
ATOM     83  C   UNL     1     -10.658  11.858  -6.829  1.00  0.00     0.000 A 
ENDBRANCH  59  78
BRANCH  71  84
ATOM     84  C   UNL     1     -14.017  15.645   0.759  1.00  0.00    -0.014 A 
ATOM     85  C   UNL     1     -15.239  14.968   0.630  1.00  0.00     0.009 A 
ATOM     86  C   UNL     1     -14.021  17.044   0.876  1.00  0.00     0.009 A 
ATOM     87  C   UNL     1     -16.439  15.681   0.589  1.00  0.00     0.001 A 
ATOM     88  C   UNL     1     -15.224  17.752   0.861  1.00  0.00     0.001 A 
ATOM     89  C   UNL     1     -16.431  17.071   0.709  1.00  0.00     0.000 A 
ENDBRANCH  71  84
ENDBRANCH  45  46
ENDBRANCH  37  40
ENDBRANCH  35  36
ENDBRANCH  34  35
ENDBRANCH  33  34
ENDBRANCH   1  33
TORSDOF 15
