REMARK SMILES Cc1cc(C)n(C)c(=O)c1C(=O)N1CCC2(CC1)C[NH2+][C@@H](C(=O)NCCCCNC(=O)c1ccc(-c3c4nc(c(-c5ccccc5)c5ccc([nH]5)c(-c5ccccc5)c5nc(c(-c6ccccc6)c6ccc3[nH]6)C=C5)C=C4)cc1)C2
REMARK SMILES IDX 27 1 26 2 25 3 24 4 22 5 23 6 21 8 11 9 12 10 13 11 14 12
REMARK SMILES IDX 18 13 15 14 17 15 16 16 19 17 80 18 20 19 10 22 1 23 2 24
REMARK SMILES IDX 3 25 4 26 8 27 5 28 6 29 9 30 7 31 28 32 29 33 30 34 31 36
REMARK SMILES IDX 32 37 33 38 79 39 34 40 78 41 35 42 36 43 37 44 72 45 38 46
REMARK SMILES IDX 77 47 71 48 73 49 39 50 76 51 70 52 69 53 40 55 62 56 47 57
REMARK SMILES IDX 61 58 48 59 51 60 60 61 74 62 49 63 50 64 59 66 75 67 52 68
REMARK SMILES IDX 41 69 42 70 46 71 43 72 45 73 44 74 63 75 64 76 68 77 65 78
REMARK SMILES IDX 67 79 66 80 53 81 54 82 58 83 55 84 57 85 56 86
REMARK H PARENT 24 7 20 20 20 21 29 35 73 54 51 65
REMARK Flexibility Score: inf
ROOT
ATOM      1  C   UNL     1       2.762  -4.667  -6.001  1.00  0.00     0.023 C 
ENDROOT
BRANCH   1   2
ATOM      2  C   UNL     1       2.663  -3.960  -4.652  1.00  0.00     0.023 C 
BRANCH   2   3
ATOM      3  C   UNL     1       3.102  -4.811  -3.464  1.00  0.00     0.116 C 
BRANCH   3   4
ATOM      4  N   UNL     1       4.521  -5.110  -3.504  1.00  0.00    -0.351 N 
ATOM      5  C   UNL     1       5.519  -4.716  -2.659  1.00  0.00     0.278 C 
ATOM      6  O   UNL     1       6.661  -5.122  -2.889  1.00  0.00    -0.268 OA
ATOM      7  H   UNL     1       4.807  -5.682  -4.252  1.00  0.00     0.163 HD
BRANCH   5   8
ATOM      8  C   UNL     1       5.247  -3.778  -1.476  1.00  0.00     0.273 C 
ATOM      9  C   UNL     1       2.535   2.138  -0.488  1.00  0.00     0.259 C 
ATOM     10  O   UNL     1       3.354   3.053  -0.347  1.00  0.00    -0.269 OA
ATOM     11  N   UNL     1       2.985   0.895  -0.913  1.00  0.00    -0.338 N 
ATOM     12  C   UNL     1       4.383   0.583  -0.665  1.00  0.00     0.120 C 
ATOM     13  C   UNL     1       2.325  -0.013  -1.842  1.00  0.00     0.120 C 
ATOM     14  C   UNL     1       4.454  -0.758   0.042  1.00  0.00     0.034 C 
ATOM     15  C   UNL     1       2.481  -1.494  -1.441  1.00  0.00     0.034 C 
ATOM     16  C   UNL     1       3.844  -1.897  -0.797  1.00  0.00     0.029 C 
ATOM     17  C   UNL     1       3.687  -3.131   0.128  1.00  0.00     0.268 C 
ATOM     18  C   UNL     1       4.843  -2.365  -1.881  1.00  0.00     0.088 C 
ATOM     19  N   UNL     1       4.139  -4.276  -0.643  1.00  0.00    -0.336 N 
ATOM     20  H   UNL     1       3.384  -4.631  -1.230  1.00  0.00     0.346 HD
ATOM     21  H   UNL     1       4.434  -5.045  -0.041  1.00  0.00     0.346 HD
BRANCH   9  22
ATOM     22  C   UNL     1       1.115   2.364  -0.018  1.00  0.00     0.108 A 
ATOM     23  C   UNL     1       0.625   0.003   0.866  1.00  0.00     0.045 C 
ATOM     24  C   UNL     1       0.329   1.445   0.593  1.00  0.00    -0.031 A 
ATOM     25  C   UNL     1      -0.929   1.831   1.203  1.00  0.00     0.026 A 
ATOM     26  C   UNL     1      -1.249   3.112   1.420  1.00  0.00     0.018 A 
ATOM     27  C   UNL     1       0.638   3.809   0.034  1.00  0.00     0.263 A 
ATOM     28  C   UNL     1      -2.490   3.423   2.211  1.00  0.00     0.064 C 
ATOM     29  N   UNL     1      -0.438   4.106   0.892  1.00  0.00    -0.315 N 
ATOM     30  O   UNL     1       1.181   4.680  -0.646  1.00  0.00    -0.268 OA
ATOM     31  C   UNL     1      -0.718   5.511   1.162  1.00  0.00     0.153 C 
ENDBRANCH   9  22
ENDBRANCH   5   8
ENDBRANCH   3   4
ENDBRANCH   2   3
ENDBRANCH   1   2
BRANCH   1  32
ATOM     32  C   UNL     1       2.001  -5.983  -6.084  1.00  0.00     0.116 C 
BRANCH  32  33
ATOM     33  N   UNL     1       0.575  -5.829  -5.835  1.00  0.00    -0.352 N 
ATOM     34  C   UNL     1      -0.476  -6.395  -6.513  1.00  0.00     0.251 C 
ATOM     35  H   UNL     1       0.333  -5.243  -5.082  1.00  0.00     0.163 HD
ATOM     36  O   UNL     1      -1.630  -6.057  -6.272  1.00  0.00    -0.269 OA
BRANCH  34  37
ATOM     37  C   UNL     1      -0.198  -7.397  -7.562  1.00  0.00     0.039 A 
ATOM     38  C   UNL     1      -0.808  -7.259  -8.810  1.00  0.00     0.014 A 
ATOM     39  C   UNL     1       0.690  -8.448  -7.318  1.00  0.00     0.014 A 
ATOM     40  C   UNL     1      -0.475  -8.141  -9.840  1.00  0.00     0.010 A 
ATOM     41  C   UNL     1       1.072  -9.282  -8.362  1.00  0.00     0.010 A 
ATOM     42  C   UNL     1       0.493  -9.136  -9.632  1.00  0.00    -0.014 A 
BRANCH  42  43
ATOM     43  C   UNL     1       0.913 -10.054 -10.718  1.00  0.00     0.031 A 
ATOM     44  C   UNL     1       0.623 -11.524 -10.601  1.00  0.00     0.074 A 
ATOM     45  C   UNL     1       1.603  -9.578 -11.773  1.00  0.00     0.049 A 
ATOM     46  N   UNL     1       1.012 -12.506 -11.373  1.00  0.00    -0.248 NA
ATOM     47  C   UNL     1      -0.203 -11.948  -9.457  1.00  0.00     0.031 C 
ATOM     48  C   UNL     1       1.938  -8.172 -12.007  1.00  0.00     0.029 A 
ATOM     49  N   UNL     1       2.150 -10.233 -12.848  1.00  0.00    -0.354 N 
ATOM     50  C   UNL     1       0.480 -13.659 -10.810  1.00  0.00     0.074 A 
ATOM     51  C   UNL     1      -0.213 -13.265  -9.604  1.00  0.00     0.031 C 
ATOM     52  C   UNL     1       2.607  -8.068 -13.168  1.00  0.00     0.029 A 
ATOM     53  C   UNL     1       2.794  -9.401 -13.731  1.00  0.00     0.049 A 
ATOM     54  H   UNL     1       2.087 -11.208 -12.974  1.00  0.00     0.167 HD
ATOM     55  C   UNL     1       0.543 -14.930 -11.271  1.00  0.00     0.031 A 
ATOM     56  C   UNL     1       3.468  -9.684 -14.862  1.00  0.00     0.031 A 
ATOM     57  C   UNL     1       1.234 -15.324 -12.469  1.00  0.00     0.049 A 
ATOM     58  C   UNL     1       3.590 -11.117 -15.303  1.00  0.00     0.074 A 
ATOM     59  C   UNL     1       1.366 -16.591 -13.010  1.00  0.00     0.029 A 
ATOM     60  N   UNL     1       1.900 -14.454 -13.317  1.00  0.00    -0.354 N 
ATOM     61  N   UNL     1       3.087 -12.198 -14.757  1.00  0.00    -0.248 NA
ATOM     62  C   UNL     1       4.368 -11.367 -16.525  1.00  0.00     0.031 C 
ATOM     63  C   UNL     1       2.143 -16.493 -14.167  1.00  0.00     0.029 A 
ATOM     64  C   UNL     1       2.444 -15.157 -14.378  1.00  0.00     0.049 A 
ATOM     65  H   UNL     1       1.974 -13.481 -13.186  1.00  0.00     0.167 HD
ATOM     66  C   UNL     1       3.448 -13.247 -15.593  1.00  0.00     0.074 A 
ATOM     67  C   UNL     1       4.203 -12.671 -16.686  1.00  0.00     0.031 C 
ATOM     68  C   UNL     1       3.176 -14.568 -15.468  1.00  0.00     0.031 A 
BRANCH  55  69
ATOM     69  C   UNL     1      -0.173 -15.993 -10.488  1.00  0.00    -0.014 A 
ATOM     70  C   UNL     1      -1.575 -16.066 -10.495  1.00  0.00     0.009 A 
ATOM     71  C   UNL     1       0.555 -16.980  -9.805  1.00  0.00     0.009 A 
ATOM     72  C   UNL     1      -2.234 -17.099  -9.825  1.00  0.00     0.001 A 
ATOM     73  C   UNL     1      -0.105 -18.027  -9.160  1.00  0.00     0.001 A 
ATOM     74  C   UNL     1      -1.498 -18.084  -9.168  1.00  0.00     0.000 A 
ENDBRANCH  55  69
BRANCH  56  75
ATOM     75  C   UNL     1       4.065  -8.594 -15.679  1.00  0.00    -0.014 A 
ATOM     76  C   UNL     1       3.552  -8.306 -16.954  1.00  0.00     0.009 A 
ATOM     77  C   UNL     1       5.165  -7.859 -15.211  1.00  0.00     0.009 A 
ATOM     78  C   UNL     1       4.149  -7.331 -17.756  1.00  0.00     0.001 A 
ATOM     79  C   UNL     1       5.739  -6.860 -16.002  1.00  0.00     0.001 A 
ATOM     80  C   UNL     1       5.238  -6.606 -17.278  1.00  0.00     0.000 A 
ENDBRANCH  56  75
BRANCH  68  81
ATOM     81  C   UNL     1       3.636 -15.476 -16.574  1.00  0.00    -0.014 A 
ATOM     82  C   UNL     1       4.994 -15.774 -16.765  1.00  0.00     0.009 A 
ATOM     83  C   UNL     1       2.683 -16.077 -17.413  1.00  0.00     0.009 A 
ATOM     84  C   UNL     1       5.390 -16.624 -17.800  1.00  0.00     0.001 A 
ATOM     85  C   UNL     1       3.080 -16.953 -18.424  1.00  0.00     0.001 A 
ATOM     86  C   UNL     1       4.433 -17.216 -18.624  1.00  0.00     0.000 A 
ENDBRANCH  68  81
ENDBRANCH  42  43
ENDBRANCH  34  37
ENDBRANCH  32  33
ENDBRANCH   1  32
TORSDOF 12
