REMARK SMILES COc1ccc([C@H]2C[NH2+]C[C@@H]2C(=O)NCCCCNC(=O)c2ccc(-c3c4nc(c(-c5ccccc5)c5ccc([nH]5)c(-c5ccccc5)c5nc(c(-c6ccccc6)c6ccc3[nH]6)C=C5)C=C4)cc2)cc1OC
REMARK SMILES IDX 16 1 15 2 14 3 12 4 13 5 11 7 7 8 8 9 9 10 10 11 6 14 3 15
REMARK SMILES IDX 4 16 71 17 5 18 70 19 2 20 1 21 72 22 73 23 17 24 18 25
REMARK SMILES IDX 19 26 20 27 21 29 22 30 23 31 69 32 24 33 68 34 25 35 26 36
REMARK SMILES IDX 27 37 62 38 28 39 67 40 61 41 63 42 29 43 66 44 60 45 59 46
REMARK SMILES IDX 30 48 52 49 37 50 51 51 38 52 41 53 50 54 64 55 39 56 40 57
REMARK SMILES IDX 49 59 65 60 42 61 31 62 32 63 36 64 33 65 35 66 34 67 53 68
REMARK SMILES IDX 54 69 58 70 55 71 57 72 56 73 43 74 44 75 48 76 45 77 47 78
REMARK SMILES IDX 46 79
REMARK H PARENT 14 6 9 12 9 13 19 28 63 47 41 58
REMARK Flexibility Score: inf
ROOT
ATOM      1  C   UNL     1       7.025   3.969  -3.648  1.00  0.00     0.023 C 
ENDROOT
BRANCH   1   2
ATOM      2  C   UNL     1       5.515   3.826  -3.755  1.00  0.00     0.116 C 
BRANCH   2   3
ATOM      3  N   UNL     1       4.801   4.085  -2.526  1.00  0.00    -0.356 N 
ATOM      4  C   UNL     1       3.677   4.806  -2.282  1.00  0.00     0.229 C 
ATOM      5  O   UNL     1       3.224   4.723  -1.133  1.00  0.00    -0.275 OA
ATOM      6  H   UNL     1       5.199   3.667  -1.728  1.00  0.00     0.163 HD
BRANCH   4   7
ATOM      7  C   UNL     1       2.951   5.682  -3.307  1.00  0.00     0.146 C 
ATOM      8  C   UNL     1       2.082   4.942  -4.337  1.00  0.00     0.092 C 
ATOM      9  C   UNL     1       2.971   4.956  -5.590  1.00  0.00     0.269 C 
ATOM     10  N   UNL     1       3.764   6.197  -5.535  1.00  0.00    -0.345 N 
ATOM     11  C   UNL     1       3.851   6.603  -4.118  1.00  0.00     0.274 C 
ATOM     12  H   UNL     1       3.307   6.927  -6.080  1.00  0.00     0.346 HD
ATOM     13  H   UNL     1       4.695   6.046  -5.923  1.00  0.00     0.346 HD
BRANCH   8  14
ATOM     14  C   UNL     1       0.749   5.587  -4.736  1.00  0.00    -0.034 A 
ATOM     15  C   UNL     1      -1.471   6.898  -5.882  1.00  0.00     0.160 A 
ATOM     16  C   UNL     1      -1.137   5.596  -6.274  1.00  0.00     0.051 A 
ATOM     17  C   UNL     1      -0.781   7.508  -4.834  1.00  0.00     0.161 A 
ATOM     18  C   UNL     1      -0.046   4.944  -5.699  1.00  0.00     0.008 A 
ATOM     19  C   UNL     1       0.326   6.844  -4.282  1.00  0.00     0.054 A 
BRANCH  15  20
ATOM     20  O   UNL     1      -2.507   7.504  -6.538  1.00  0.00    -0.493 OA
ATOM     21  C   UNL     1      -2.088   8.001  -7.814  1.00  0.00     0.278 C 
ENDBRANCH  15  20
BRANCH  17  22
ATOM     22  O   UNL     1      -0.999   8.718  -4.238  1.00  0.00    -0.493 OA
ATOM     23  C   UNL     1      -2.002   9.573  -4.757  1.00  0.00     0.278 C 
ENDBRANCH  17  22
ENDBRANCH   8  14
ENDBRANCH   4   7
ENDBRANCH   2   3
ENDBRANCH   1   2
BRANCH   1  24
ATOM     24  C   UNL     1       7.732   2.900  -2.829  1.00  0.00     0.023 C 
BRANCH  24  25
ATOM     25  C   UNL     1       7.338   1.464  -3.146  1.00  0.00     0.116 C 
BRANCH  25  26
ATOM     26  N   UNL     1       7.472   1.113  -4.554  1.00  0.00    -0.352 N 
ATOM     27  C   UNL     1       8.122   0.049  -5.135  1.00  0.00     0.251 C 
ATOM     28  H   UNL     1       7.032   1.729  -5.183  1.00  0.00     0.163 HD
ATOM     29  O   UNL     1       8.197  -0.043  -6.353  1.00  0.00    -0.269 OA
BRANCH  27  30
ATOM     30  C   UNL     1       8.775  -0.960  -4.275  1.00  0.00     0.039 A 
ATOM     31  C   UNL     1      10.094  -1.323  -4.551  1.00  0.00     0.014 A 
ATOM     32  C   UNL     1       8.111  -1.495  -3.169  1.00  0.00     0.014 A 
ATOM     33  C   UNL     1      10.779  -2.151  -3.661  1.00  0.00     0.010 A 
ATOM     34  C   UNL     1       8.823  -2.240  -2.235  1.00  0.00     0.010 A 
ATOM     35  C   UNL     1      10.166  -2.571  -2.469  1.00  0.00    -0.014 A 
BRANCH  35  36
ATOM     36  C   UNL     1      10.925  -3.337  -1.449  1.00  0.00     0.031 A 
ATOM     37  C   UNL     1      10.505  -4.731  -1.075  1.00  0.00     0.074 A 
ATOM     38  C   UNL     1      11.964  -2.753  -0.819  1.00  0.00     0.049 A 
ATOM     39  N   UNL     1      11.041  -5.546  -0.202  1.00  0.00    -0.248 NA
ATOM     40  C   UNL     1       9.312  -5.271  -1.746  1.00  0.00     0.031 C 
ATOM     41  C   UNL     1      12.437  -1.385  -1.046  1.00  0.00     0.029 A 
ATOM     42  N   UNL     1      12.814  -3.241   0.142  1.00  0.00    -0.354 N 
ATOM     43  C   UNL     1      10.246  -6.685  -0.212  1.00  0.00     0.074 A 
ATOM     44  C   UNL     1       9.158  -6.433  -1.131  1.00  0.00     0.031 C 
ATOM     45  C   UNL     1      13.516  -1.159  -0.280  1.00  0.00     0.029 A 
ATOM     46  C   UNL     1      13.789  -2.349   0.519  1.00  0.00     0.049 A 
ATOM     47  H   UNL     1      12.733  -4.144   0.526  1.00  0.00     0.167 HD
ATOM     48  C   UNL     1      10.418  -7.846   0.462  1.00  0.00     0.031 A 
ATOM     49  C   UNL     1      14.794  -2.475   1.405  1.00  0.00     0.031 A 
ATOM     50  C   UNL     1      11.504  -8.102   1.369  1.00  0.00     0.049 A 
ATOM     51  C   UNL     1      14.962  -3.774   2.143  1.00  0.00     0.074 A 
ATOM     52  C   UNL     1      11.800  -9.268   2.053  1.00  0.00     0.029 A 
ATOM     53  N   UNL     1      12.471  -7.174   1.721  1.00  0.00    -0.354 N 
ATOM     54  N   UNL     1      14.249  -4.870   2.058  1.00  0.00    -0.248 NA
ATOM     55  C   UNL     1      16.083  -3.854   3.090  1.00  0.00     0.031 C 
ATOM     56  C   UNL     1      12.917  -9.028   2.860  1.00  0.00     0.029 A 
ATOM     57  C   UNL     1      13.350  -7.732   2.634  1.00  0.00     0.049 A 
ATOM     58  H   UNL     1      12.525  -6.254   1.374  1.00  0.00     0.167 HD
ATOM     59  C   UNL     1      14.848  -5.778   2.922  1.00  0.00     0.074 A 
ATOM     60  C   UNL     1      15.995  -5.111   3.502  1.00  0.00     0.031 C 
ATOM     61  C   UNL     1      14.481  -7.051   3.210  1.00  0.00     0.031 A 
BRANCH  48  62
ATOM     62  C   UNL     1       9.399  -8.930   0.239  1.00  0.00    -0.014 A 
ATOM     63  C   UNL     1       9.316  -9.608  -0.989  1.00  0.00     0.009 A 
ATOM     64  C   UNL     1       8.531  -9.299   1.277  1.00  0.00     0.009 A 
ATOM     65  C   UNL     1       8.359 -10.606  -1.184  1.00  0.00     0.001 A 
ATOM     66  C   UNL     1       7.595 -10.318   1.089  1.00  0.00     0.001 A 
ATOM     67  C   UNL     1       7.503 -10.963  -0.143  1.00  0.00     0.000 A 
ENDBRANCH  48  62
BRANCH  49  68
ATOM     68  C   UNL     1      15.741  -1.350   1.627  1.00  0.00    -0.014 A 
ATOM     69  C   UNL     1      17.069  -1.440   1.182  1.00  0.00     0.009 A 
ATOM     70  C   UNL     1      15.325  -0.185   2.291  1.00  0.00     0.009 A 
ATOM     71  C   UNL     1      17.968  -0.399   1.423  1.00  0.00     0.001 A 
ATOM     72  C   UNL     1      16.219   0.867   2.503  1.00  0.00     0.001 A 
ATOM     73  C   UNL     1      17.542   0.755   2.078  1.00  0.00     0.000 A 
ENDBRANCH  49  68
BRANCH  61  74
ATOM     74  C   UNL     1      15.344  -7.808   4.178  1.00  0.00    -0.014 A 
ATOM     75  C   UNL     1      15.353  -7.495   5.546  1.00  0.00     0.009 A 
ATOM     76  C   UNL     1      16.141  -8.868   3.718  1.00  0.00     0.009 A 
ATOM     77  C   UNL     1      16.173  -8.202   6.427  1.00  0.00     0.001 A 
ATOM     78  C   UNL     1      16.936  -9.594   4.606  1.00  0.00     0.001 A 
ATOM     79  C   UNL     1      16.960  -9.254   5.957  1.00  0.00     0.000 A 
ENDBRANCH  61  74
ENDBRANCH  35  36
ENDBRANCH  27  30
ENDBRANCH  25  26
ENDBRANCH  24  25
ENDBRANCH   1  24
TORSDOF 14
