REMARK SMILES O=C(NCCCCNC(=O)c1cccc(Nc2ccnc3ccc(Cl)cc23)c1)c1ccc(-c2c3nc(c(-c4ccccc4)c4ccc([nH]4)c(-c4ccccc4)c4nc(c(-c5ccccc5)c5ccc2[nH]5)C=C4)C=C3)cc1
REMARK SMILES IDX 5 1 4 2 3 3 1 4 2 5 29 7 30 8 76 9 31 10 75 11 32 12 33 13
REMARK SMILES IDX 34 14 69 15 35 16 74 17 68 18 70 19 36 20 73 21 67 22 66 23
REMARK SMILES IDX 37 25 59 26 44 27 58 28 45 29 48 30 57 31 71 32 46 33 47 34
REMARK SMILES IDX 56 36 72 37 49 38 38 39 39 40 43 41 40 42 42 43 41 44 60 45
REMARK SMILES IDX 61 46 65 47 62 48 64 49 63 50 50 51 51 52 55 53 52 54 54 55
REMARK SMILES IDX 53 56 6 57 7 58 8 59 9 60 10 62 11 63 12 64 28 65 13 66
REMARK SMILES IDX 15 67 14 68 16 69 17 71 18 72 27 73 19 74 21 75 26 76 20 77
REMARK SMILES IDX 22 78 24 79 23 80 25 81
REMARK H PARENT 3 6 70 24 48 35 8 61 16 70
REMARK Flexibility Score: inf
ROOT
ATOM      1  C   UNL     1       4.931  -1.199  -2.402  1.00  0.00     0.023 C 
ENDROOT
BRANCH   1   2
ATOM      2  C   UNL     1       4.512  -0.126  -1.404  1.00  0.00     0.116 C 
BRANCH   2   3
ATOM      3  N   UNL     1       3.074  -0.033  -1.206  1.00  0.00    -0.352 N 
ATOM      4  O   UNL     1       1.115  -0.049  -0.088  1.00  0.00    -0.269 OA
ATOM      5  C   UNL     1       2.344  -0.049  -0.039  1.00  0.00     0.251 C 
ATOM      6  H   UNL     1       2.543   0.053  -2.031  1.00  0.00     0.163 HD
BRANCH   5   7
ATOM      7  C   UNL     1       3.021  -0.103   1.278  1.00  0.00     0.039 A 
ATOM      8  C   UNL     1       4.140   0.686   1.550  1.00  0.00     0.014 A 
ATOM      9  C   UNL     1       2.516  -0.951   2.271  1.00  0.00     0.014 A 
ATOM     10  C   UNL     1       4.842   0.511   2.740  1.00  0.00     0.010 A 
ATOM     11  C   UNL     1       3.171  -1.060   3.503  1.00  0.00     0.010 A 
ATOM     12  C   UNL     1       4.361  -0.355   3.736  1.00  0.00    -0.014 A 
BRANCH  12  13
ATOM     13  C   UNL     1       5.088  -0.455   5.029  1.00  0.00     0.031 A 
ATOM     14  C   UNL     1       5.738  -1.740   5.468  1.00  0.00     0.074 A 
ATOM     15  C   UNL     1       5.190   0.644   5.803  1.00  0.00     0.049 A 
ATOM     16  N   UNL     1       6.438  -1.980   6.550  1.00  0.00    -0.248 NA
ATOM     17  C   UNL     1       5.580  -2.906   4.586  1.00  0.00     0.031 C 
ATOM     18  C   UNL     1       4.603   1.950   5.492  1.00  0.00     0.029 A 
ATOM     19  N   UNL     1       5.838   0.848   6.994  1.00  0.00    -0.354 N 
ATOM     20  C   UNL     1       6.793  -3.323   6.486  1.00  0.00     0.074 A 
ATOM     21  C   UNL     1       6.206  -3.853   5.273  1.00  0.00     0.031 C 
ATOM     22  C   UNL     1       4.959   2.829   6.439  1.00  0.00     0.029 A 
ATOM     23  C   UNL     1       5.740   2.137   7.457  1.00  0.00     0.049 A 
ATOM     24  H   UNL     1       6.325   0.138   7.472  1.00  0.00     0.167 HD
ATOM     25  C   UNL     1       7.544  -4.045   7.353  1.00  0.00     0.031 A 
ATOM     26  C   UNL     1       6.210   2.703   8.584  1.00  0.00     0.031 A 
ATOM     27  C   UNL     1       8.120  -3.519   8.565  1.00  0.00     0.049 A 
ATOM     28  C   UNL     1       6.994   1.866   9.551  1.00  0.00     0.074 A 
ATOM     29  C   UNL     1       8.916  -4.169   9.494  1.00  0.00     0.029 A 
ATOM     30  N   UNL     1       7.957  -2.220   9.021  1.00  0.00    -0.354 N 
ATOM     31  N   UNL     1       7.350   0.608   9.454  1.00  0.00    -0.248 NA
ATOM     32  C   UNL     1       7.442   2.528  10.784  1.00  0.00     0.031 C 
ATOM     33  C   UNL     1       9.186  -3.280  10.540  1.00  0.00     0.029 A 
ATOM     34  C   UNL     1       8.612  -2.057  10.231  1.00  0.00     0.049 A 
ATOM     35  H   UNL     1       7.450  -1.517   8.553  1.00  0.00     0.167 HD
ATOM     36  C   UNL     1       8.082   0.334  10.602  1.00  0.00     0.074 A 
ATOM     37  C   UNL     1       8.137   1.563  11.368  1.00  0.00     0.031 C 
ATOM     38  C   UNL     1       8.655  -0.832  10.987  1.00  0.00     0.031 A 
BRANCH  25  39
ATOM     39  C   UNL     1       7.767  -5.500   7.038  1.00  0.00    -0.014 A 
ATOM     40  C   UNL     1       8.603  -5.900   5.983  1.00  0.00     0.009 A 
ATOM     41  C   UNL     1       7.176  -6.487   7.843  1.00  0.00     0.009 A 
ATOM     42  C   UNL     1       8.815  -7.257   5.722  1.00  0.00     0.001 A 
ATOM     43  C   UNL     1       7.411  -7.842   7.597  1.00  0.00     0.001 A 
ATOM     44  C   UNL     1       8.223  -8.225   6.531  1.00  0.00     0.000 A 
ENDBRANCH  25  39
BRANCH  26  45
ATOM     45  C   UNL     1       5.931   4.136   8.865  1.00  0.00    -0.014 A 
ATOM     46  C   UNL     1       6.966   5.082   8.856  1.00  0.00     0.009 A 
ATOM     47  C   UNL     1       4.623   4.562   9.144  1.00  0.00     0.009 A 
ATOM     48  C   UNL     1       6.699   6.423   9.144  1.00  0.00     0.001 A 
ATOM     49  C   UNL     1       4.354   5.908   9.397  1.00  0.00     0.001 A 
ATOM     50  C   UNL     1       5.394   6.835   9.408  1.00  0.00     0.000 A 
ENDBRANCH  26  45
BRANCH  38  51
ATOM     51  C   UNL     1       9.420  -0.822  12.280  1.00  0.00    -0.014 A 
ATOM     52  C   UNL     1       8.762  -0.732  13.517  1.00  0.00     0.009 A 
ATOM     53  C   UNL     1      10.819  -0.925  12.260  1.00  0.00     0.009 A 
ATOM     54  C   UNL     1       9.495  -0.707  14.706  1.00  0.00     0.001 A 
ATOM     55  C   UNL     1      11.547  -0.932  13.450  1.00  0.00     0.001 A 
ATOM     56  C   UNL     1      10.885  -0.812  14.671  1.00  0.00     0.000 A 
ENDBRANCH  38  51
ENDBRANCH  12  13
ENDBRANCH   5   7
ENDBRANCH   2   3
ENDBRANCH   1   2
BRANCH   1  57
ATOM     57  C   UNL     1       4.508  -0.984  -3.856  1.00  0.00     0.023 C 
BRANCH  57  58
ATOM     58  C   UNL     1       4.837   0.374  -4.475  1.00  0.00     0.116 C 
BRANCH  58  59
ATOM     59  N   UNL     1       6.242   0.741  -4.430  1.00  0.00    -0.352 N 
ATOM     60  C   UNL     1       7.064   1.064  -5.487  1.00  0.00     0.251 C 
ATOM     61  H   UNL     1       6.657   0.760  -3.537  1.00  0.00     0.163 HD
ATOM     62  O   UNL     1       8.134   1.634  -5.306  1.00  0.00    -0.269 OA
BRANCH  60  63
ATOM     63  C   UNL     1       6.690   0.620  -6.842  1.00  0.00     0.041 A 
ATOM     64  C   UNL     1       6.918  -0.728  -7.136  1.00  0.00     0.014 A 
ATOM     65  C   UNL     1       6.119   1.493  -7.787  1.00  0.00     0.039 A 
ATOM     66  C   UNL     1       6.530  -1.233  -8.366  1.00  0.00     0.003 A 
ATOM     67  C   UNL     1       5.718   0.983  -9.030  1.00  0.00     0.039 A 
ATOM     68  C   UNL     1       5.923  -0.387  -9.290  1.00  0.00     0.026 A 
BRANCH  67  69
ATOM     69  N   UNL     1       4.958   1.737  -9.955  1.00  0.00    -0.355 N 
ATOM     70  H   UNL     1       5.268   2.643 -10.181  1.00  0.00     0.167 HD
BRANCH  69  71
ATOM     71  C   UNL     1       3.772   1.260 -10.576  1.00  0.00     0.050 A 
ATOM     72  C   UNL     1       2.885   0.523  -9.779  1.00  0.00     0.047 A 
ATOM     73  C   UNL     1       3.486   1.402 -11.962  1.00  0.00     0.025 A 
ATOM     74  C   UNL     1       1.804  -0.091 -10.362  1.00  0.00     0.114 A 
ATOM     75  C   UNL     1       2.284   0.804 -12.424  1.00  0.00     0.072 A 
ATOM     76  C   UNL     1       4.319   2.039 -12.919  1.00  0.00     0.033 A 
ATOM     77  N   UNL     1       1.481   0.059 -11.655  1.00  0.00    -0.256 NA
ATOM     78  C   UNL     1       1.900   0.956 -13.745  1.00  0.00     0.030 A 
ATOM     79  C   UNL     1       3.926   2.128 -14.259  1.00  0.00     0.041 A 
ATOM     80  C   UNL     1       2.700   1.623 -14.669  1.00  0.00     0.023 A 
ATOM     81  Cl  UNL     1       4.968   2.845 -15.426  1.00  0.00    -0.084 Cl
ENDBRANCH  69  71
ENDBRANCH  67  69
ENDBRANCH  60  63
ENDBRANCH  58  59
ENDBRANCH  57  58
ENDBRANCH   1  57
TORSDOF 13
