REMARK SMILES O=C(CC[C@@H]1CCCC[NH2+]1)N[C@@H]1CCCCC[C@@H]1C(=O)NCCCCNC(=O)c1ccc(-c2c3nc(c(-c4ccccc4)c4ccc([nH]4)c(-c4ccccc4)c4nc(c(-c5ccccc5)c5ccc2[nH]5)C=C4)C=C3)cc1
REMARK SMILES IDX 22 1 21 2 19 3 20 4 18 6 12 7 11 8 1 9 2 10 3 12 4 13 5 14
REMARK SMILES IDX 6 15 10 16 7 17 9 18 8 21 13 22 14 23 17 25 16 26 15 27
REMARK SMILES IDX 23 29 24 30 25 31 26 32 27 33 28 35 29 36 30 37 76 38 31 39
REMARK SMILES IDX 75 40 32 41 33 42 34 43 69 44 35 45 74 46 68 47 70 48 36 49
REMARK SMILES IDX 73 50 67 51 66 52 37 54 59 55 44 56 58 57 45 58 48 59 57 60
REMARK SMILES IDX 71 61 46 62 47 63 56 65 72 66 49 67 38 68 39 69 43 70 40 71
REMARK SMILES IDX 42 72 41 73 60 74 61 75 65 76 62 77 64 78 63 79 50 80 51 81
REMARK SMILES IDX 55 82 52 83 54 84 53 85
REMARK H PARENT 21 5 11 11 10 19 10 20 26 34 70 53 48 64
REMARK Flexibility Score: 100.00
ROOT
ATOM      1  C   UNL     1       5.232  -4.540   0.215  1.00  0.00     0.116 C 
ENDROOT
BRANCH   1   2
ATOM      2  N   UNL     1       5.267  -3.740  -1.000  1.00  0.00    -0.356 N 
ATOM      3  C   UNL     1       4.290  -3.086  -1.687  1.00  0.00     0.225 C 
ATOM      4  O   UNL     1       4.673  -2.137  -2.385  1.00  0.00    -0.275 OA
ATOM      5  H   UNL     1       6.163  -3.656  -1.399  1.00  0.00     0.163 HD
BRANCH   3   6
ATOM      6  C   UNL     1       2.789  -3.441  -1.670  1.00  0.00     0.101 C 
BRANCH   6   7
ATOM      7  C   UNL     1       1.845  -2.225  -1.304  1.00  0.00     0.094 C 
BRANCH   7   8
ATOM      8  N   UNL     1       2.544  -1.058  -0.707  1.00  0.00    -0.353 N 
ATOM      9  O   UNL     1       0.712   0.317  -0.392  1.00  0.00    -0.275 OA
ATOM     10  C   UNL     1       1.925   0.131  -0.354  1.00  0.00     0.220 C 
ATOM     11  H   UNL     1       3.514  -1.134  -0.552  1.00  0.00     0.163 HD
BRANCH  10  12
ATOM     12  C   UNL     1       2.849   1.269   0.064  1.00  0.00     0.106 C 
BRANCH  12  13
ATOM     13  C   UNL     1       3.544   1.022   1.403  1.00  0.00     0.075 C 
BRANCH  13  14
ATOM     14  C   UNL     1       4.891   0.312   1.209  1.00  0.00     0.182 C 
ATOM     15  C   UNL     1       5.074  -0.834   2.204  1.00  0.00     0.065 C 
ATOM     16  N   UNL     1       6.017   1.250   1.330  1.00  0.00    -0.344 N 
ATOM     17  C   UNL     1       6.365  -1.566   1.872  1.00  0.00     0.012 C 
ATOM     18  C   UNL     1       7.279   0.602   0.968  1.00  0.00     0.260 C 
ATOM     19  H   UNL     1       6.075   1.580   2.294  1.00  0.00     0.346 HD
ATOM     20  H   UNL     1       5.859   2.033   0.695  1.00  0.00     0.346 HD
ATOM     21  C   UNL     1       7.557  -0.621   1.839  1.00  0.00     0.062 C 
ENDBRANCH  13  14
ENDBRANCH  12  13
ENDBRANCH  10  12
ENDBRANCH   7   8
BRANCH   7  22
ATOM     22  C   UNL     1       0.592  -2.635  -0.496  1.00  0.00     0.026 C 
BRANCH  22  23
ATOM     23  C   UNL     1      -0.357  -3.575  -1.243  1.00  0.00     0.002 CG0
ATOM     24  G   UNL     1      -0.071  -5.045  -0.995  1.00  0.00     0.000 G0
ENDBRANCH  22  23
ENDBRANCH   7  22
ENDBRANCH   6   7
BRANCH   6  25
ATOM     25  C   UNL     1       2.456  -4.817  -1.069  1.00  0.00     0.015 C 
BRANCH  25  26
ATOM     26  C   UNL     1       1.223  -5.514  -1.634  1.00  0.00     0.001 C 
BRANCH  26  27
ATOM     27  C   UNL     1      -0.071  -5.045  -0.995  1.00  0.00     0.000 CG0
ATOM     28  G   UNL     1      -0.357  -3.575  -1.243  1.00  0.00     0.000 G0
ENDBRANCH  26  27
ENDBRANCH  25  26
ENDBRANCH   6  25
ENDBRANCH   3   6
ENDBRANCH   1   2
BRANCH   1  29
ATOM     29  C   UNL     1       5.921  -5.895   0.090  1.00  0.00     0.023 C 
BRANCH  29  30
ATOM     30  C   UNL     1       7.455  -5.873   0.170  1.00  0.00     0.023 C 
BRANCH  30  31
ATOM     31  C   UNL     1       8.084  -5.077   1.315  1.00  0.00     0.116 C 
BRANCH  31  32
ATOM     32  N   UNL     1       7.561  -5.392   2.637  1.00  0.00    -0.352 N 
ATOM     33  C   UNL     1       8.176  -5.190   3.854  1.00  0.00     0.251 C 
ATOM     34  H   UNL     1       6.665  -5.797   2.665  1.00  0.00     0.163 HD
ATOM     35  O   UNL     1       7.633  -5.525   4.901  1.00  0.00    -0.269 OA
BRANCH  33  36
ATOM     36  C   UNL     1       9.530  -4.602   3.874  1.00  0.00     0.039 A 
ATOM     37  C   UNL     1      10.596  -5.359   4.362  1.00  0.00     0.014 A 
ATOM     38  C   UNL     1       9.752  -3.337   3.330  1.00  0.00     0.014 A 
ATOM     39  C   UNL     1      11.901  -4.883   4.210  1.00  0.00     0.010 A 
ATOM     40  C   UNL     1      11.054  -2.884   3.134  1.00  0.00     0.010 A 
ATOM     41  C   UNL     1      12.142  -3.667   3.546  1.00  0.00    -0.014 A 
BRANCH  41  42
ATOM     42  C   UNL     1      13.522  -3.245   3.195  1.00  0.00     0.031 A 
ATOM     43  C   UNL     1      14.133  -2.015   3.801  1.00  0.00     0.074 A 
ATOM     44  C   UNL     1      14.198  -3.931   2.251  1.00  0.00     0.049 A 
ATOM     45  N   UNL     1      15.304  -1.478   3.569  1.00  0.00    -0.248 NA
ATOM     46  C   UNL     1      13.317  -1.282   4.781  1.00  0.00     0.031 C 
ATOM     47  C   UNL     1      13.705  -5.119   1.550  1.00  0.00     0.029 A 
ATOM     48  N   UNL     1      15.444  -3.723   1.713  1.00  0.00    -0.354 N 
ATOM     49  C   UNL     1      15.362  -0.339   4.360  1.00  0.00     0.074 A 
ATOM     50  C   UNL     1      14.093  -0.241   5.051  1.00  0.00     0.031 C 
ATOM     51  C   UNL     1      14.649  -5.550   0.698  1.00  0.00     0.029 A 
ATOM     52  C   UNL     1      15.795  -4.649   0.761  1.00  0.00     0.049 A 
ATOM     53  H   UNL     1      16.031  -2.980   1.984  1.00  0.00     0.167 HD
ATOM     54  C   UNL     1      16.382   0.540   4.508  1.00  0.00     0.031 A 
ATOM     55  C   UNL     1      16.912  -4.762   0.017  1.00  0.00     0.031 A 
ATOM     56  C   UNL     1      17.647   0.444   3.830  1.00  0.00     0.049 A 
ATOM     57  C   UNL     1      18.017  -3.758   0.181  1.00  0.00     0.074 A 
ATOM     58  C   UNL     1      18.766   1.247   3.977  1.00  0.00     0.029 A 
ATOM     59  N   UNL     1      17.959  -0.505   2.869  1.00  0.00    -0.354 N 
ATOM     60  N   UNL     1      18.087  -2.736   0.997  1.00  0.00    -0.248 NA
ATOM     61  C   UNL     1      19.198  -3.927  -0.678  1.00  0.00     0.031 C 
ATOM     62  C   UNL     1      19.737   0.815   3.067  1.00  0.00     0.029 A 
ATOM     63  C   UNL     1      19.241  -0.288   2.391  1.00  0.00     0.049 A 
ATOM     64  H   UNL     1      17.359  -1.226   2.571  1.00  0.00     0.167 HD
ATOM     65  C   UNL     1      19.332  -2.161   0.776  1.00  0.00     0.074 A 
ATOM     66  C   UNL     1      19.984  -2.948  -0.249  1.00  0.00     0.031 C 
ATOM     67  C   UNL     1      19.884  -1.080   1.376  1.00  0.00     0.031 A 
BRANCH  54  68
ATOM     68  C   UNL     1      16.166   1.700   5.439  1.00  0.00    -0.014 A 
ATOM     69  C   UNL     1      16.125   1.519   6.830  1.00  0.00     0.009 A 
ATOM     70  C   UNL     1      16.047   2.998   4.918  1.00  0.00     0.009 A 
ATOM     71  C   UNL     1      15.933   2.610   7.679  1.00  0.00     0.001 A 
ATOM     72  C   UNL     1      15.882   4.091   5.771  1.00  0.00     0.001 A 
ATOM     73  C   UNL     1      15.815   3.895   7.150  1.00  0.00     0.000 A 
ENDBRANCH  54  68
BRANCH  55  74
ATOM     74  C   UNL     1      17.054  -5.888  -0.942  1.00  0.00    -0.014 A 
ATOM     75  C   UNL     1      17.942  -6.940  -0.668  1.00  0.00     0.009 A 
ATOM     76  C   UNL     1      16.311  -5.917  -2.132  1.00  0.00     0.009 A 
ATOM     77  C   UNL     1      18.099  -7.987  -1.578  1.00  0.00     0.001 A 
ATOM     78  C   UNL     1      16.452  -6.978  -3.028  1.00  0.00     0.001 A 
ATOM     79  C   UNL     1      17.352  -8.008  -2.754  1.00  0.00     0.000 A 
ENDBRANCH  55  74
BRANCH  67  80
ATOM     80  C   UNL     1      21.281  -0.703   0.974  1.00  0.00    -0.014 A 
ATOM     81  C   UNL     1      21.542  -0.071  -0.251  1.00  0.00     0.009 A 
ATOM     82  C   UNL     1      22.343  -0.929   1.865  1.00  0.00     0.009 A 
ATOM     83  C   UNL     1      22.844   0.309  -0.585  1.00  0.00     0.001 A 
ATOM     84  C   UNL     1      23.639  -0.526   1.539  1.00  0.00     0.001 A 
ATOM     85  C   UNL     1      23.889   0.087   0.312  1.00  0.00     0.000 A 
ENDBRANCH  67  80
ENDBRANCH  41  42
ENDBRANCH  33  36
ENDBRANCH  31  32
ENDBRANCH  30  31
ENDBRANCH  29  30
ENDBRANCH   1  29
TORSDOF 15
