REMARK SMILES N#C/C(=C\c1ccc(-c2cc(C(=O)NCCCCNC(=O)c3ccc(-c4c5nc(c(-c6ccccc6)c6ccc([nH]6)c(-c6ccccc6)c6nc(c(-c7ccccc7)c7ccc4[nH]7)C=C6)C=C5)cc3)ccc2Cl)o1)C(=O)N1CCOCC1
REMARK SMILES IDX 16 1 15 2 14 3 12 4 13 5 11 7 9 8 10 9 72 10 71 11 73 12
REMARK SMILES IDX 70 13 8 14 5 15 6 16 74 17 7 18 4 19 3 20 2 21 1 22 75 23
REMARK SMILES IDX 76 24 77 25 78 26 82 27 79 28 81 29 80 30 17 31 18 32 19 33
REMARK SMILES IDX 20 34 21 36 22 37 23 38 69 39 24 40 68 41 25 42 26 43 27 44
REMARK SMILES IDX 62 45 28 46 67 47 61 48 63 49 29 50 66 51 60 52 59 53 30 55
REMARK SMILES IDX 52 56 37 57 51 58 38 59 41 60 50 61 64 62 39 63 40 64 49 66
REMARK SMILES IDX 65 67 42 68 31 69 32 70 36 71 33 72 35 73 34 74 53 75 54 76
REMARK SMILES IDX 58 77 55 78 57 79 56 80 43 81 44 82 48 83 45 84 47 85 46 86
REMARK H PARENT 14 6 19 35 63 54 41 65
REMARK Flexibility Score: inf
ROOT
ATOM      1  C   UNL     1       3.503 -10.369  -5.314  1.00  0.00     0.023 C 
ENDROOT
BRANCH   1   2
ATOM      2  C   UNL     1       2.233  -9.729  -4.745  1.00  0.00     0.116 C 
BRANCH   2   3
ATOM      3  N   UNL     1       2.470  -9.184  -3.423  1.00  0.00    -0.352 N 
ATOM      4  C   UNL     1       2.808  -7.931  -2.975  1.00  0.00     0.251 C 
ATOM      5  O   UNL     1       2.889  -7.778  -1.756  1.00  0.00    -0.269 OA
ATOM      6  H   UNL     1       2.368  -9.846  -2.701  1.00  0.00     0.163 HD
BRANCH   4   7
ATOM      7  C   UNL     1       3.052  -6.753  -3.864  1.00  0.00     0.040 A 
ATOM      8  C   UNL     1       3.158  -4.301  -4.033  1.00  0.00     0.037 A 
ATOM      9  C   UNL     1       2.949  -5.473  -3.282  1.00  0.00     0.027 A 
ATOM     10  C   UNL     1       3.465  -4.421  -5.397  1.00  0.00     0.052 A 
ATOM     11  C   UNL     1       3.602  -5.682  -5.976  1.00  0.00     0.022 A 
ATOM     12  Cl  UNL     1       3.732  -3.055  -6.425  1.00  0.00    -0.084 Cl
ATOM     13  C   UNL     1       3.419  -6.835  -5.209  1.00  0.00     0.015 A 
BRANCH   8  14
ATOM     14  C   UNL     1       3.031  -3.001  -3.393  1.00  0.00     0.136 A 
ATOM     15  C   UNL     1       3.658  -1.448  -1.921  1.00  0.00     0.129 A 
ATOM     16  C   UNL     1       2.670  -0.906  -2.741  1.00  0.00     0.051 A 
ATOM     17  O   UNL     1       3.884  -2.739  -2.362  1.00  0.00    -0.457 OA
ATOM     18  C   UNL     1       2.241  -1.905  -3.640  1.00  0.00     0.051 A 
BRANCH  15  19
ATOM     19  C   UNL     1       4.378  -0.871  -0.823  1.00  0.00     0.072 C 
ATOM     20  C   UNL     1       3.823  -0.031   0.085  1.00  0.00     0.121 C 
BRANCH  20  21
ATOM     21  C   UNL     1       2.303  -0.031   0.085  1.00  0.00     0.105 C 
ATOM     22  N   UNL     1       1.042  -0.031   0.085  1.00  0.00    -0.192 NA
ENDBRANCH  20  21
BRANCH  20  23
ATOM     23  C   UNL     1       4.572   0.409   1.292  1.00  0.00     0.264 C 
ATOM     24  O   UNL     1       3.972   0.461   2.365  1.00  0.00    -0.268 OA
ATOM     25  N   UNL     1       5.927   0.687   1.201  1.00  0.00    -0.333 N 
ATOM     26  C   UNL     1       6.736   0.968   0.003  1.00  0.00     0.148 C 
ATOM     27  C   UNL     1       6.729   0.703   2.429  1.00  0.00     0.148 C 
ATOM     28  C   UNL     1       7.923  -0.006  -0.072  1.00  0.00     0.181 C 
ATOM     29  C   UNL     1       7.896  -0.284   2.285  1.00  0.00     0.181 C 
ATOM     30  O   UNL     1       8.700   0.036   1.135  1.00  0.00    -0.378 OA
ENDBRANCH  20  23
ENDBRANCH  15  19
ENDBRANCH   8  14
ENDBRANCH   4   7
ENDBRANCH   2   3
ENDBRANCH   1   2
BRANCH   1  31
ATOM     31  C   UNL     1       3.791 -11.781  -4.797  1.00  0.00     0.023 C 
BRANCH  31  32
ATOM     32  C   UNL     1       2.756 -12.832  -5.180  1.00  0.00     0.116 C 
BRANCH  32  33
ATOM     33  N   UNL     1       2.567 -12.969  -6.617  1.00  0.00    -0.352 N 
ATOM     34  C   UNL     1       2.158 -14.083  -7.317  1.00  0.00     0.251 C 
ATOM     35  H   UNL     1       2.754 -12.166  -7.155  1.00  0.00     0.163 HD
ATOM     36  O   UNL     1       2.121 -14.079  -8.537  1.00  0.00    -0.269 OA
BRANCH  34  37
ATOM     37  C   UNL     1       1.813 -15.304  -6.561  1.00  0.00     0.039 A 
ATOM     38  C   UNL     1       2.464 -16.498  -6.880  1.00  0.00     0.014 A 
ATOM     39  C   UNL     1       0.906 -15.247  -5.501  1.00  0.00     0.014 A 
ATOM     40  C   UNL     1       2.265 -17.623  -6.078  1.00  0.00     0.010 A 
ATOM     41  C   UNL     1       0.758 -16.350  -4.667  1.00  0.00     0.010 A 
ATOM     42  C   UNL     1       1.445 -17.543  -4.941  1.00  0.00    -0.014 A 
BRANCH  42  43
ATOM     43  C   UNL     1       1.302 -18.685  -4.006  1.00  0.00     0.031 A 
ATOM     44  C   UNL     1      -0.033 -19.348  -3.828  1.00  0.00     0.074 A 
ATOM     45  C   UNL     1       2.349 -19.056  -3.244  1.00  0.00     0.049 A 
ATOM     46  N   UNL     1      -0.386 -20.277  -2.977  1.00  0.00    -0.248 NA
ATOM     47  C   UNL     1      -1.123 -18.882  -4.700  1.00  0.00     0.031 C 
ATOM     48  C   UNL     1       3.687 -18.460  -3.289  1.00  0.00     0.029 A 
ATOM     49  N   UNL     1       2.445 -20.014  -2.267  1.00  0.00    -0.354 N 
ATOM     50  C   UNL     1      -1.742 -20.484  -3.190  1.00  0.00     0.074 A 
ATOM     51  C   UNL     1      -2.156 -19.560  -4.223  1.00  0.00     0.031 C 
ATOM     52  C   UNL     1       4.472 -19.077  -2.391  1.00  0.00     0.029 A 
ATOM     53  C   UNL     1       3.686 -20.082  -1.683  1.00  0.00     0.049 A 
ATOM     54  H   UNL     1       1.694 -20.598  -2.009  1.00  0.00     0.167 HD
ATOM     55  C   UNL     1      -2.567 -21.373  -2.588  1.00  0.00     0.031 A 
ATOM     56  C   UNL     1       4.138 -20.860  -0.682  1.00  0.00     0.031 A 
ATOM     57  C   UNL     1      -2.152 -22.306  -1.576  1.00  0.00     0.049 A 
ATOM     58  C   UNL     1       3.208 -21.850  -0.041  1.00  0.00     0.074 A 
ATOM     59  C   UNL     1      -2.898 -23.293  -0.955  1.00  0.00     0.029 A 
ATOM     60  N   UNL     1      -0.877 -22.368  -1.038  1.00  0.00    -0.354 N 
ATOM     61  N   UNL     1       1.943 -22.079  -0.298  1.00  0.00    -0.248 NA
ATOM     62  C   UNL     1       3.772 -22.695   1.021  1.00  0.00     0.031 C 
ATOM     63  C   UNL     1      -2.082 -23.927  -0.011  1.00  0.00     0.029 A 
ATOM     64  C   UNL     1      -0.818 -23.365  -0.079  1.00  0.00     0.049 A 
ATOM     65  H   UNL     1      -0.124 -21.789  -1.299  1.00  0.00     0.167 HD
ATOM     66  C   UNL     1       1.567 -23.112   0.551  1.00  0.00     0.074 A 
ATOM     67  C   UNL     1       2.739 -23.471   1.323  1.00  0.00     0.031 C 
ATOM     68  C   UNL     1       0.357 -23.710   0.677  1.00  0.00     0.031 A 
BRANCH  55  69
ATOM     69  C   UNL     1      -4.009 -21.366  -3.010  1.00  0.00    -0.014 A 
ATOM     70  C   UNL     1      -4.401 -21.835  -4.274  1.00  0.00     0.009 A 
ATOM     71  C   UNL     1      -4.992 -20.896  -2.125  1.00  0.00     0.009 A 
ATOM     72  C   UNL     1      -5.743 -21.795  -4.658  1.00  0.00     0.001 A 
ATOM     73  C   UNL     1      -6.336 -20.884  -2.501  1.00  0.00     0.001 A 
ATOM     74  C   UNL     1      -6.709 -21.323  -3.771  1.00  0.00     0.000 A 
ENDBRANCH  55  69
BRANCH  56  75
ATOM     75  C   UNL     1       5.550 -20.746  -0.236  1.00  0.00    -0.014 A 
ATOM     76  C   UNL     1       6.478 -21.746  -0.564  1.00  0.00     0.009 A 
ATOM     77  C   UNL     1       5.979 -19.637   0.509  1.00  0.00     0.009 A 
ATOM     78  C   UNL     1       7.804 -21.648  -0.136  1.00  0.00     0.001 A 
ATOM     79  C   UNL     1       7.311 -19.531   0.915  1.00  0.00     0.001 A 
ATOM     80  C   UNL     1       8.220 -20.539   0.599  1.00  0.00     0.000 A 
ENDBRANCH  56  75
BRANCH  68  81
ATOM     81  C   UNL     1       0.251 -24.840   1.660  1.00  0.00    -0.014 A 
ATOM     82  C   UNL     1       0.214 -24.602   3.042  1.00  0.00     0.009 A 
ATOM     83  C   UNL     1       0.139 -26.158   1.190  1.00  0.00     0.009 A 
ATOM     84  C   UNL     1       0.093 -25.667   3.937  1.00  0.00     0.001 A 
ATOM     85  C   UNL     1      -0.006 -27.218   2.086  1.00  0.00     0.001 A 
ATOM     86  C   UNL     1      -0.022 -26.972   3.458  1.00  0.00     0.000 A 
ENDBRANCH  68  81
ENDBRANCH  42  43
ENDBRANCH  34  37
ENDBRANCH  32  33
ENDBRANCH  31  32
ENDBRANCH   1  31
TORSDOF 15
