REMARK SMILES Cc1nn([C@H]2CCS(=O)(=O)C2)c(C)c1[C@@H]([NH3+])C(=O)NCCCCNC(=O)c1ccc(-c2c3nc(c(-c4ccccc4)c4ccc([nH]4)c(-c4ccccc4)c4nc(c(-c5ccccc5)c5ccc2[nH]5)C=C4)C=C3)cc1
REMARK SMILES IDX 21 1 20 2 19 3 17 4 18 5 15 7 14 8 1 9 2 10 3 11 4 12 12 13
REMARK SMILES IDX 13 14 5 15 6 16 11 17 7 18 8 19 9 20 10 21 16 22 22 26 23 27
REMARK SMILES IDX 24 28 25 29 26 31 27 32 28 33 74 34 29 35 73 36 30 37 31 38
REMARK SMILES IDX 32 39 67 40 33 41 72 42 66 43 68 44 34 45 71 46 65 47 64 48
REMARK SMILES IDX 35 50 57 51 42 52 56 53 43 54 46 55 55 56 69 57 44 58 45 59
REMARK SMILES IDX 54 61 70 62 47 63 36 64 37 65 41 66 38 67 40 68 39 69 58 70
REMARK SMILES IDX 59 71 63 72 60 73 62 74 61 75 48 76 49 77 53 78 50 79 52 80
REMARK SMILES IDX 51 81
REMARK H PARENT 19 6 16 23 16 24 16 25 24 30 68 49 46 60
REMARK Flexibility Score: inf
ROOT
ATOM      1  C   UNL     1       1.652  -3.900   7.580  1.00  0.00     0.023 C 
ENDROOT
BRANCH   1   2
ATOM      2  C   UNL     1       3.051  -4.394   7.195  1.00  0.00     0.116 C 
BRANCH   2   3
ATOM      3  N   UNL     1       3.066  -5.785   6.792  1.00  0.00    -0.351 N 
ATOM      4  C   UNL     1       3.050  -6.341   5.541  1.00  0.00     0.283 C 
ATOM      5  O   UNL     1       3.177  -7.573   5.489  1.00  0.00    -0.268 OA
ATOM      6  H   UNL     1       3.092  -6.431   7.533  1.00  0.00     0.163 HD
BRANCH   4   7
ATOM      7  C   UNL     1       2.957  -5.521   4.218  1.00  0.00     0.306 C 
BRANCH   7   8
ATOM      8  C   UNL     1       1.712  -4.683   4.096  1.00  0.00     0.063 A 
ATOM      9  C   UNL     1       0.131  -6.431   2.927  1.00  0.00     0.069 C 
ATOM     10  C   UNL     1       0.447  -5.150   3.620  1.00  0.00     0.069 A 
ATOM     11  N   UNL     1      -0.520  -4.243   3.798  1.00  0.00    -0.177 NA
ATOM     12  N   UNL     1       0.118  -3.166   4.283  1.00  0.00    -0.265 N 
ATOM     13  C   UNL     1       1.489  -3.313   4.240  1.00  0.00     0.046 A 
ATOM     14  C   UNL     1       2.430  -2.163   4.340  1.00  0.00     0.067 C 
BRANCH  12  15
ATOM     15  C   UNL     1      -0.646  -1.984   4.656  1.00  0.00     0.123 C 
ATOM     16  C   UNL     1      -2.162  -2.204   4.876  1.00  0.00     0.044 C 
ATOM     17  C   UNL     1      -0.203  -1.383   5.985  1.00  0.00     0.164 C 
ATOM     18  C   UNL     1      -2.726  -0.890   5.424  1.00  0.00     0.139 C 
ATOM     19  S   UNL     1      -1.383  -0.115   6.303  1.00  0.00     0.152 S 
ATOM     20  O   UNL     1      -0.965   1.063   5.576  1.00  0.00    -0.229 OA
ATOM     21  O   UNL     1      -1.661  -0.110   7.725  1.00  0.00    -0.229 OA
ENDBRANCH  12  15
ENDBRANCH   7   8
BRANCH   7  22
ATOM     22  N   UNL     1       4.186  -4.740   4.000  1.00  0.00    -0.343 N 
ATOM     23  H   UNL     1       4.287  -4.050   4.745  1.00  0.00     0.345 HD
ATOM     24  H   UNL     1       4.131  -4.263   3.100  1.00  0.00     0.345 HD
ATOM     25  H   UNL     1       4.992  -5.365   4.005  1.00  0.00     0.345 HD
ENDBRANCH   7  22
ENDBRANCH   4   7
ENDBRANCH   2   3
ENDBRANCH   1   2
BRANCH   1  26
ATOM     26  C   UNL     1       1.272  -3.943   9.066  1.00  0.00     0.023 C 
BRANCH  26  27
ATOM     27  C   UNL     1       1.960  -2.888   9.932  1.00  0.00     0.116 C 
BRANCH  27  28
ATOM     28  N   UNL     1       1.534  -1.507   9.665  1.00  0.00    -0.352 N 
ATOM     29  C   UNL     1       2.182  -0.347  10.069  1.00  0.00     0.251 C 
ATOM     30  H   UNL     1       0.704  -1.393   9.148  1.00  0.00     0.163 HD
ATOM     31  O   UNL     1       1.601   0.724  10.177  1.00  0.00    -0.269 OA
BRANCH  29  32
ATOM     32  C   UNL     1       3.619  -0.441  10.361  1.00  0.00     0.039 A 
ATOM     33  C   UNL     1       4.159   0.017  11.566  1.00  0.00     0.014 A 
ATOM     34  C   UNL     1       4.385  -1.151   9.444  1.00  0.00     0.014 A 
ATOM     35  C   UNL     1       5.459  -0.360  11.899  1.00  0.00     0.010 A 
ATOM     36  C   UNL     1       5.593  -1.655   9.850  1.00  0.00     0.010 A 
ATOM     37  C   UNL     1       6.159  -1.236  11.053  1.00  0.00    -0.014 A 
BRANCH  37  38
ATOM     38  C   UNL     1       7.430  -1.829  11.465  1.00  0.00     0.031 A 
ATOM     39  C   UNL     1       7.449  -2.464  12.814  1.00  0.00     0.074 A 
ATOM     40  C   UNL     1       8.463  -2.008  10.612  1.00  0.00     0.049 A 
ATOM     41  N   UNL     1       8.137  -2.093  13.842  1.00  0.00    -0.248 NA
ATOM     42  C   UNL     1       6.534  -3.585  13.089  1.00  0.00     0.031 C 
ATOM     43  C   UNL     1       8.522  -1.722   9.172  1.00  0.00     0.029 A 
ATOM     44  N   UNL     1       9.655  -2.623  10.838  1.00  0.00    -0.354 N 
ATOM     45  C   UNL     1       7.891  -3.028  14.844  1.00  0.00     0.074 A 
ATOM     46  C   UNL     1       6.789  -3.833  14.377  1.00  0.00     0.031 C 
ATOM     47  C   UNL     1       9.554  -2.393   8.618  1.00  0.00     0.029 A 
ATOM     48  C   UNL     1      10.336  -2.988   9.684  1.00  0.00     0.049 A 
ATOM     49  H   UNL     1      10.004  -2.795  11.742  1.00  0.00     0.167 HD
ATOM     50  C   UNL     1       8.760  -3.205  15.880  1.00  0.00     0.031 A 
ATOM     51  C   UNL     1      11.461  -3.738   9.603  1.00  0.00     0.031 A 
ATOM     52  C   UNL     1       9.721  -2.134  15.954  1.00  0.00     0.049 A 
ATOM     53  C   UNL     1      12.118  -3.685  10.928  1.00  0.00     0.074 A 
ATOM     54  C   UNL     1       9.643  -0.764  16.109  1.00  0.00     0.029 A 
ATOM     55  N   UNL     1      10.977  -2.384  15.452  1.00  0.00    -0.354 N 
ATOM     56  N   UNL     1      12.647  -2.599  11.415  1.00  0.00    -0.248 NA
ATOM     57  C   UNL     1      11.784  -4.709  11.905  1.00  0.00     0.031 C 
ATOM     58  C   UNL     1      10.632  -0.245  15.222  1.00  0.00     0.029 A 
ATOM     59  C   UNL     1      11.309  -1.324  14.649  1.00  0.00     0.049 A 
ATOM     60  H   UNL     1      11.533  -3.175  15.634  1.00  0.00     0.167 HD
ATOM     61  C   UNL     1      12.288  -2.607  12.754  1.00  0.00     0.074 A 
ATOM     62  C   UNL     1      11.861  -3.980  13.023  1.00  0.00     0.031 C 
ATOM     63  C   UNL     1      12.093  -1.440  13.440  1.00  0.00     0.031 A 
BRANCH  50  64
ATOM     64  C   UNL     1       9.007  -4.524  16.573  1.00  0.00    -0.014 A 
ATOM     65  C   UNL     1       9.917  -4.560  17.648  1.00  0.00     0.009 A 
ATOM     66  C   UNL     1       8.618  -5.763  16.034  1.00  0.00     0.009 A 
ATOM     67  C   UNL     1      10.476  -5.765  18.092  1.00  0.00     0.001 A 
ATOM     68  C   UNL     1       9.143  -6.971  16.503  1.00  0.00     0.001 A 
ATOM     69  C   UNL     1      10.097  -6.969  17.511  1.00  0.00     0.000 A 
ENDBRANCH  50  64
BRANCH  51  70
ATOM     70  C   UNL     1      11.888  -4.658   8.530  1.00  0.00    -0.014 A 
ATOM     71  C   UNL     1      13.220  -5.090   8.440  1.00  0.00     0.009 A 
ATOM     72  C   UNL     1      10.928  -5.325   7.746  1.00  0.00     0.009 A 
ATOM     73  C   UNL     1      13.569  -6.179   7.630  1.00  0.00     0.001 A 
ATOM     74  C   UNL     1      11.277  -6.410   6.934  1.00  0.00     0.001 A 
ATOM     75  C   UNL     1      12.596  -6.848   6.890  1.00  0.00     0.000 A 
ENDBRANCH  51  70
BRANCH  63  76
ATOM     76  C   UNL     1      12.482  -0.144  12.768  1.00  0.00    -0.014 A 
ATOM     77  C   UNL     1      11.921   0.292  11.554  1.00  0.00     0.009 A 
ATOM     78  C   UNL     1      13.315   0.742  13.467  1.00  0.00     0.009 A 
ATOM     79  C   UNL     1      12.211   1.562  11.043  1.00  0.00     0.001 A 
ATOM     80  C   UNL     1      13.586   2.018  12.969  1.00  0.00     0.001 A 
ATOM     81  C   UNL     1      13.039   2.426  11.754  1.00  0.00     0.000 A 
ENDBRANCH  63  76
ENDBRANCH  37  38
ENDBRANCH  29  32
ENDBRANCH  27  28
ENDBRANCH  26  27
ENDBRANCH   1  26
TORSDOF 14
