REMARK SMILES CC1(C)CCCC[C@@]1(CC(=O)NCCCCNC(=O)c1ccc(-c2c3nc(c(-c4ccccc4)c4ccc([nH]4)c(-c4ccccc4)c4nc(c(-c5ccccc5)c5ccc2[nH]5)C=C4)C=C3)cc1)[NH+]1CCCCCC1
REMARK SMILES IDX 13 1 12 2 10 3 11 4 9 6 8 7 1 8 2 9 3 10 4 11 5 12 7 13 6 14
REMARK SMILES IDX 68 15 69 17 70 18 71 19 74 21 73 22 72 23 14 25 15 26 16 27
REMARK SMILES IDX 17 28 18 29 19 31 20 32 21 33 67 34 22 35 66 36 23 37 24 38
REMARK SMILES IDX 25 39 60 40 26 41 65 42 59 43 61 44 27 45 64 46 58 47 57 48
REMARK SMILES IDX 28 50 50 51 35 52 49 53 36 54 39 55 48 56 62 57 37 58 38 59
REMARK SMILES IDX 47 61 63 62 40 63 29 64 30 65 34 66 31 67 33 68 32 69 51 70
REMARK SMILES IDX 52 71 56 72 53 73 55 74 54 75 41 76 42 77 46 78 43 79 45 80
REMARK SMILES IDX 44 81
REMARK H PARENT 12 5 68 16 17 30 61 49 39 60
REMARK Flexibility Score: 90.00
ROOT
ATOM      1  C   UNL     1      -1.767   1.053  -3.504  1.00  0.00     0.116 C 
ENDROOT
BRANCH   1   2
ATOM      2  N   UNL     1      -0.509   0.907  -4.213  1.00  0.00    -0.356 N 
ATOM      3  C   UNL     1       0.447  -0.066  -4.208  1.00  0.00     0.226 C 
ATOM      4  O   UNL     1       1.250  -0.031  -5.147  1.00  0.00    -0.275 OA
ATOM      5  H   UNL     1      -0.306   1.658  -4.817  1.00  0.00     0.163 HD
BRANCH   3   6
ATOM      6  C   UNL     1       0.516  -1.198  -3.175  1.00  0.00     0.169 C 
BRANCH   6   7
ATOM      7  C   UNL     1       1.618  -1.209  -1.966  1.00  0.00     0.112 C 
ATOM      8  C   UNL     1       1.967   0.061   0.502  1.00  0.00     0.018 C 
ATOM      9  C   UNL     1       1.222  -0.074  -0.862  1.00  0.00     0.020 C 
ATOM     10  C   UNL     1      -0.242  -0.321  -0.384  1.00  0.00     0.018 C 
ATOM     11  C   UNL     1       1.518   1.331  -1.493  1.00  0.00     0.013 C 
ATOM     12  C   UNL     1       2.978   1.526  -1.910  1.00  0.00     0.001 C 
ATOM     13  C   UNL     1       3.038  -0.923  -2.564  1.00  0.00     0.070 C 
ATOM     14  C   UNL     1       3.395   0.508  -2.949  1.00  0.00     0.006 C 
BRANCH   7  15
ATOM     15  N   UNL     1       1.604  -2.636  -1.434  1.00  0.00    -0.329 N 
ATOM     16  H   UNL     1       0.590  -2.554  -1.362  1.00  0.00     0.348 HD
BRANCH  15  17
ATOM     17  C   UNL     1       1.934  -2.970  -0.054  1.00  0.00     0.262 C 
BRANCH  17  18
ATOM     18  C   UNL     1       3.374  -2.710   0.391  1.00  0.00     0.061 C 
BRANCH  18  19
ATOM     19  C   UNL     1       4.446  -3.655  -0.126  1.00  0.00     0.006 CG0
ATOM     20  G   UNL     1       4.364  -4.065  -1.593  1.00  0.00     0.000 G0
ENDBRANCH  18  19
ENDBRANCH  17  18
ENDBRANCH  15  17
BRANCH  15  21
ATOM     21  C   UNL     1       1.926  -3.733  -2.362  1.00  0.00     0.262 C 
BRANCH  21  22
ATOM     22  C   UNL     1       3.042  -4.722  -1.973  1.00  0.00     0.061 C 
BRANCH  22  23
ATOM     23  C   UNL     1       4.364  -4.065  -1.593  1.00  0.00     0.006 CG0
ATOM     24  G   UNL     1       4.446  -3.655  -0.126  1.00  0.00     0.000 G0
ENDBRANCH  22  23
ENDBRANCH  21  22
ENDBRANCH  15  21
ENDBRANCH   7  15
ENDBRANCH   6   7
ENDBRANCH   3   6
ENDBRANCH   1   2
BRANCH   1  25
ATOM     25  C   UNL     1      -1.698   1.868  -2.219  1.00  0.00     0.023 C 
BRANCH  25  26
ATOM     26  C   UNL     1      -1.246   3.318  -2.298  1.00  0.00     0.023 C 
BRANCH  26  27
ATOM     27  C   UNL     1      -2.410   4.269  -2.192  1.00  0.00     0.116 C 
BRANCH  27  28
ATOM     28  N   UNL     1      -3.167   4.130  -0.947  1.00  0.00    -0.352 N 
ATOM     29  C   UNL     1      -3.924   5.079  -0.303  1.00  0.00     0.251 C 
ATOM     30  H   UNL     1      -3.128   3.245  -0.516  1.00  0.00     0.163 HD
ATOM     31  O   UNL     1      -4.476   4.838   0.764  1.00  0.00    -0.269 OA
BRANCH  29  32
ATOM     32  C   UNL     1      -3.987   6.423  -0.899  1.00  0.00     0.039 A 
ATOM     33  C   UNL     1      -3.693   7.530  -0.103  1.00  0.00     0.014 A 
ATOM     34  C   UNL     1      -4.180   6.556  -2.274  1.00  0.00     0.014 A 
ATOM     35  C   UNL     1      -3.519   8.770  -0.711  1.00  0.00     0.010 A 
ATOM     36  C   UNL     1      -3.850   7.747  -2.888  1.00  0.00     0.010 A 
ATOM     37  C   UNL     1      -3.554   8.874  -2.111  1.00  0.00    -0.014 A 
BRANCH  37  38
ATOM     38  C   UNL     1      -3.362  10.166  -2.801  1.00  0.00     0.031 A 
ATOM     39  C   UNL     1      -4.474  10.697  -3.662  1.00  0.00     0.074 A 
ATOM     40  C   UNL     1      -2.180  10.804  -2.716  1.00  0.00     0.049 A 
ATOM     41  N   UNL     1      -4.492  11.754  -4.430  1.00  0.00    -0.248 NA
ATOM     42  C   UNL     1      -5.716   9.902  -3.711  1.00  0.00     0.031 C 
ATOM     43  C   UNL     1      -1.012  10.343  -1.961  1.00  0.00     0.029 A 
ATOM     44  N   UNL     1      -1.770  11.986  -3.272  1.00  0.00    -0.354 N 
ATOM     45  C   UNL     1      -5.720  11.719  -5.080  1.00  0.00     0.074 A 
ATOM     46  C   UNL     1      -6.386  10.503  -4.680  1.00  0.00     0.031 C 
ATOM     47  C   UNL     1      -0.036  11.261  -2.059  1.00  0.00     0.029 A 
ATOM     48  C   UNL     1      -0.495  12.350  -2.913  1.00  0.00     0.049 A 
ATOM     49  H   UNL     1      -2.335  12.524  -3.873  1.00  0.00     0.167 HD
ATOM     50  C   UNL     1      -6.263  12.639  -5.908  1.00  0.00     0.031 A 
ATOM     51  C   UNL     1       0.211  13.449  -3.233  1.00  0.00     0.031 A 
ATOM     52  C   UNL     1      -5.614  13.872  -6.249  1.00  0.00     0.049 A 
ATOM     53  C   UNL     1      -0.430  14.482  -4.116  1.00  0.00     0.074 A 
ATOM     54  C   UNL     1      -6.097  14.923  -7.005  1.00  0.00     0.029 A 
ATOM     55  N   UNL     1      -4.337  14.221  -5.835  1.00  0.00    -0.354 N 
ATOM     56  N   UNL     1      -1.622  14.475  -4.665  1.00  0.00    -0.248 NA
ATOM     57  C   UNL     1       0.366  15.680  -4.413  1.00  0.00     0.031 C 
ATOM     58  C   UNL     1      -5.093  15.894  -7.082  1.00  0.00     0.029 A 
ATOM     59  C   UNL     1      -4.006  15.467  -6.333  1.00  0.00     0.049 A 
ATOM     60  H   UNL     1      -3.753  13.664  -5.271  1.00  0.00     0.167 HD
ATOM     61  C   UNL     1      -1.730  15.677  -5.350  1.00  0.00     0.074 A 
ATOM     62  C   UNL     1      -0.489  16.394  -5.133  1.00  0.00     0.031 C 
ATOM     63  C   UNL     1      -2.761  16.149  -6.093  1.00  0.00     0.031 A 
BRANCH  50  64
ATOM     64  C   UNL     1      -7.619  12.335  -6.481  1.00  0.00    -0.014 A 
ATOM     65  C   UNL     1      -8.764  12.286  -5.667  1.00  0.00     0.009 A 
ATOM     66  C   UNL     1      -7.753  12.079  -7.853  1.00  0.00     0.009 A 
ATOM     67  C   UNL     1     -10.003  11.937  -6.206  1.00  0.00     0.001 A 
ATOM     68  C   UNL     1      -9.001  11.764  -8.396  1.00  0.00     0.001 A 
ATOM     69  C   UNL     1     -10.121  11.680  -7.571  1.00  0.00     0.000 A 
ENDBRANCH  50  64
BRANCH  51  70
ATOM     70  C   UNL     1       1.573  13.650  -2.674  1.00  0.00    -0.014 A 
ATOM     71  C   UNL     1       1.795  14.619  -1.683  1.00  0.00     0.009 A 
ATOM     72  C   UNL     1       2.655  12.871  -3.113  1.00  0.00     0.009 A 
ATOM     73  C   UNL     1       3.075  14.820  -1.160  1.00  0.00     0.001 A 
ATOM     74  C   UNL     1       3.929  13.057  -2.570  1.00  0.00     0.001 A 
ATOM     75  C   UNL     1       4.140  14.036  -1.601  1.00  0.00     0.000 A 
ENDBRANCH  51  70
BRANCH  63  76
ATOM     76  C   UNL     1      -2.596  17.513  -6.696  1.00  0.00    -0.014 A 
ATOM     77  C   UNL     1      -1.749  17.724  -7.794  1.00  0.00     0.009 A 
ATOM     78  C   UNL     1      -3.342  18.588  -6.188  1.00  0.00     0.009 A 
ATOM     79  C   UNL     1      -1.629  18.996  -8.353  1.00  0.00     0.001 A 
ATOM     80  C   UNL     1      -3.242  19.852  -6.768  1.00  0.00     0.001 A 
ATOM     81  C   UNL     1      -2.379  20.057  -7.844  1.00  0.00     0.000 A 
ENDBRANCH  63  76
ENDBRANCH  37  38
ENDBRANCH  29  32
ENDBRANCH  27  28
ENDBRANCH  26  27
ENDBRANCH  25  26
ENDBRANCH   1  25
TORSDOF 13
