REMARK SMILES CCc1ccc2[nH]c(C(=O)c3cc(C)ccn3)c(CC(=O)NCCCCNC(=O)c3ccc(-c4c5nc(c(-c6ccccc6)c6ccc([nH]6)c(-c6ccccc6)c6nc(c(-c7ccccc7)c7ccc4[nH]7)C=C6)C=C5)cc3)c2c1
REMARK SMILES IDX 24 1 23 2 22 3 20 4 21 5 19 7 18 8 3 9 4 10 79 11 5 12 78 13
REMARK SMILES IDX 6 14 7 15 8 16 2 18 1 19 9 20 10 21 11 22 12 23 17 24 13 25
REMARK SMILES IDX 16 26 14 27 15 28 25 29 26 30 27 31 28 32 29 34 30 35 31 36
REMARK SMILES IDX 77 37 32 38 76 39 33 40 34 41 35 42 70 43 36 44 75 45 69 46
REMARK SMILES IDX 71 47 37 48 74 49 68 50 67 51 38 53 60 54 45 55 59 56 46 57
REMARK SMILES IDX 49 58 58 59 72 60 47 61 48 62 57 64 73 65 50 66 39 67 40 68
REMARK SMILES IDX 44 69 41 70 43 71 42 72 61 73 62 74 66 75 63 76 65 77 64 78
REMARK SMILES IDX 51 79 52 80 56 81 53 82 55 83 54 84
REMARK H PARENT 22 6 7 17 27 33 71 52 49 63
REMARK Flexibility Score: inf
ROOT
ATOM      1  C   UNL     1       0.848  -3.710   3.903  1.00  0.00     0.023 C 
ENDROOT
BRANCH   1   2
ATOM      2  C   UNL     1       1.912  -2.616   3.975  1.00  0.00     0.116 C 
BRANCH   2   3
ATOM      3  N   UNL     1       3.153  -3.081   4.553  1.00  0.00    -0.356 N 
ATOM      4  C   UNL     1       4.337  -3.390   3.946  1.00  0.00     0.224 C 
ATOM      5  O   UNL     1       5.308  -3.563   4.689  1.00  0.00    -0.275 OA
ATOM      6  H   UNL     1       3.143  -3.191   5.532  1.00  0.00     0.163 HD
BRANCH   4   7
ATOM      7  C   UNL     1       4.489  -3.379   2.427  1.00  0.00     0.138 C 
BRANCH   7   8
ATOM      8  C   UNL     1       3.535  -4.272   1.675  1.00  0.00    -0.002 A 
ATOM      9  C   UNL     1       0.973  -2.415  -0.513  1.00  0.00    -0.048 A 
ATOM     10  C   UNL     1       0.276  -3.570  -0.890  1.00  0.00     0.006 A 
ATOM     11  C   UNL     1       2.118  -2.550   0.289  1.00  0.00     0.014 A 
ATOM     12  C   UNL     1       0.666  -4.844  -0.461  1.00  0.00     0.027 A 
ATOM     13  C   UNL     1       2.515  -3.820   0.769  1.00  0.00     0.004 A 
ATOM     14  C   UNL     1       1.784  -4.932   0.374  1.00  0.00     0.046 A 
ATOM     15  N   UNL     1       2.367  -6.026   0.963  1.00  0.00    -0.352 N 
ATOM     16  C   UNL     1       3.474  -5.667   1.706  1.00  0.00     0.093 A 
ATOM     17  H   UNL     1       2.039  -6.949   0.868  1.00  0.00     0.167 HD
BRANCH   9  18
ATOM     18  C   UNL     1       0.493  -1.071  -1.016  1.00  0.00     0.032 C 
ATOM     19  C   UNL     1       0.825   0.126  -0.130  1.00  0.00     0.009 C 
ENDBRANCH   9  18
BRANCH  16  20
ATOM     20  C   UNL     1       4.356  -6.597   2.405  1.00  0.00     0.227 C 
ATOM     21  O   UNL     1       5.344  -6.238   3.043  1.00  0.00    -0.285 OA
BRANCH  20  22
ATOM     22  C   UNL     1       4.095  -8.058   2.307  1.00  0.00     0.113 A 
ATOM     23  C   UNL     1       4.206  -8.700   1.077  1.00  0.00     0.036 A 
ATOM     24  N   UNL     1       3.771  -8.689   3.464  1.00  0.00    -0.253 NA
ATOM     25  C   UNL     1       3.969 -10.075   1.024  1.00  0.00    -0.047 A 
ATOM     26  C   UNL     1       3.584 -10.021   3.391  1.00  0.00     0.112 A 
ATOM     27  C   UNL     1       4.066 -10.832  -0.266  1.00  0.00     0.044 C 
ATOM     28  C   UNL     1       3.664 -10.746   2.211  1.00  0.00     0.023 A 
ENDBRANCH  20  22
ENDBRANCH  16  20
ENDBRANCH   7   8
ENDBRANCH   4   7
ENDBRANCH   2   3
ENDBRANCH   1   2
BRANCH   1  29
ATOM     29  C   UNL     1       0.304  -4.176   5.255  1.00  0.00     0.023 C 
BRANCH  29  30
ATOM     30  C   UNL     1      -0.281  -3.082   6.141  1.00  0.00     0.116 C 
BRANCH  30  31
ATOM     31  N   UNL     1      -1.359  -2.340   5.508  1.00  0.00    -0.352 N 
ATOM     32  C   UNL     1      -2.494  -1.813   6.074  1.00  0.00     0.251 C 
ATOM     33  H   UNL     1      -1.262  -2.195   4.540  1.00  0.00     0.163 HD
ATOM     34  O   UNL     1      -3.352  -1.294   5.364  1.00  0.00    -0.269 OA
BRANCH  32  35
ATOM     35  C   UNL     1      -2.709  -1.906   7.535  1.00  0.00     0.039 A 
ATOM     36  C   UNL     1      -3.965  -2.306   8.001  1.00  0.00     0.014 A 
ATOM     37  C   UNL     1      -1.689  -1.603   8.441  1.00  0.00     0.014 A 
ATOM     38  C   UNL     1      -4.178  -2.464   9.372  1.00  0.00     0.010 A 
ATOM     39  C   UNL     1      -1.884  -1.821   9.803  1.00  0.00     0.010 A 
ATOM     40  C   UNL     1      -3.130  -2.254  10.282  1.00  0.00    -0.014 A 
BRANCH  40  41
ATOM     41  C   UNL     1      -3.320  -2.487  11.735  1.00  0.00     0.031 A 
ATOM     42  C   UNL     1      -3.253  -1.340  12.704  1.00  0.00     0.074 A 
ATOM     43  C   UNL     1      -3.492  -3.742  12.190  1.00  0.00     0.049 A 
ATOM     44  N   UNL     1      -3.356  -1.356  14.009  1.00  0.00    -0.248 NA
ATOM     45  C   UNL     1      -3.017  -0.004  12.135  1.00  0.00     0.031 C 
ATOM     46  C   UNL     1      -3.526  -4.949  11.361  1.00  0.00     0.029 A 
ATOM     47  N   UNL     1      -3.663  -4.212  13.468  1.00  0.00    -0.354 N 
ATOM     48  C   UNL     1      -3.178  -0.041  14.417  1.00  0.00     0.074 A 
ATOM     49  C   UNL     1      -2.921   0.741  13.227  1.00  0.00     0.031 C 
ATOM     50  C   UNL     1      -3.728  -6.017  12.149  1.00  0.00     0.029 A 
ATOM     51  C   UNL     1      -3.808  -5.576  13.538  1.00  0.00     0.049 A 
ATOM     52  H   UNL     1      -3.679  -3.627  14.260  1.00  0.00     0.167 HD
ATOM     53  C   UNL     1      -3.241   0.476  15.668  1.00  0.00     0.031 A 
ATOM     54  C   UNL     1      -3.985  -6.382  14.601  1.00  0.00     0.031 A 
ATOM     55  C   UNL     1      -3.510  -0.293  16.853  1.00  0.00     0.049 A 
ATOM     56  C   UNL     1      -4.065  -5.784  15.977  1.00  0.00     0.074 A 
ATOM     57  C   UNL     1      -3.652   0.151  18.156  1.00  0.00     0.029 A 
ATOM     58  N   UNL     1      -3.676  -1.669  16.877  1.00  0.00    -0.354 N 
ATOM     59  N   UNL     1      -3.967  -4.528  16.338  1.00  0.00    -0.248 NA
ATOM     60  C   UNL     1      -4.294  -6.716  17.090  1.00  0.00     0.031 C 
ATOM     61  C   UNL     1      -3.868  -0.963  18.976  1.00  0.00     0.029 A 
ATOM     62  C   UNL     1      -3.903  -2.093  18.176  1.00  0.00     0.049 A 
ATOM     63  H   UNL     1      -3.638  -2.257  16.089  1.00  0.00     0.167 HD
ATOM     64  C   UNL     1      -4.146  -4.515  17.714  1.00  0.00     0.074 A 
ATOM     65  C   UNL     1      -4.374  -5.887  18.121  1.00  0.00     0.031 C 
ATOM     66  C   UNL     1      -4.125  -3.461  18.565  1.00  0.00     0.031 A 
BRANCH  53  67
ATOM     67  C   UNL     1      -3.008   1.954  15.812  1.00  0.00    -0.014 A 
ATOM     68  C   UNL     1      -3.964   2.884  15.374  1.00  0.00     0.009 A 
ATOM     69  C   UNL     1      -1.829   2.421  16.413  1.00  0.00     0.009 A 
ATOM     70  C   UNL     1      -3.726   4.254  15.500  1.00  0.00     0.001 A 
ATOM     71  C   UNL     1      -1.606   3.791  16.561  1.00  0.00     0.001 A 
ATOM     72  C   UNL     1      -2.549   4.706  16.096  1.00  0.00     0.000 A 
ENDBRANCH  53  67
BRANCH  54  73
ATOM     73  C   UNL     1      -4.124  -7.847  14.404  1.00  0.00    -0.014 A 
ATOM     74  C   UNL     1      -5.374  -8.467  14.550  1.00  0.00     0.009 A 
ATOM     75  C   UNL     1      -3.009  -8.631  14.070  1.00  0.00     0.009 A 
ATOM     76  C   UNL     1      -5.501  -9.848  14.387  1.00  0.00     0.001 A 
ATOM     77  C   UNL     1      -3.144 -10.008  13.884  1.00  0.00     0.001 A 
ATOM     78  C   UNL     1      -4.388 -10.617  14.050  1.00  0.00     0.000 A 
ENDBRANCH  54  73
BRANCH  66  79
ATOM     79  C   UNL     1      -4.383  -3.748  20.016  1.00  0.00    -0.014 A 
ATOM     80  C   UNL     1      -3.410  -4.362  20.820  1.00  0.00     0.009 A 
ATOM     81  C   UNL     1      -5.606  -3.371  20.592  1.00  0.00     0.009 A 
ATOM     82  C   UNL     1      -3.671  -4.620  22.167  1.00  0.00     0.001 A 
ATOM     83  C   UNL     1      -5.854  -3.608  21.945  1.00  0.00     0.001 A 
ATOM     84  C   UNL     1      -4.889  -4.240  22.729  1.00  0.00     0.000 A 
ENDBRANCH  66  79
ENDBRANCH  40  41
ENDBRANCH  32  35
ENDBRANCH  30  31
ENDBRANCH  29  30
ENDBRANCH   1  29
TORSDOF 15
