REMARK SMILES Cc1ccc2[nH]cc([C@@H](C(=O)NCCCCNC(=O)c3ccc(-c4c5nc(c(-c6ccccc6)c6ccc([nH]6)c(-c6ccccc6)c6nc(c(-c7ccccc7)c7ccc4[nH]7)C=C6)C=C5)cc3)[NH+]3CCN(c4ccc(F)cc4)CC3)c2c1
REMARK SMILES IDX 14 1 13 2 12 3 10 4 11 5 9 7 8 8 1 9 2 10 3 11 82 12 4 13
REMARK SMILES IDX 81 14 5 15 6 16 7 17 68 19 69 20 80 21 70 23 79 24 71 25
REMARK SMILES IDX 72 26 73 27 78 28 74 29 77 30 75 31 76 32 15 33 16 34 17 35
REMARK SMILES IDX 18 36 19 38 20 39 21 40 67 41 22 42 66 43 23 44 24 45 25 46
REMARK SMILES IDX 60 47 26 48 65 49 59 50 61 51 27 52 64 53 58 54 57 55 28 57
REMARK SMILES IDX 50 58 35 59 49 60 36 61 39 62 48 63 62 64 37 65 38 66 47 68
REMARK SMILES IDX 63 69 40 70 29 71 30 72 34 73 31 74 33 75 32 76 51 77 52 78
REMARK SMILES IDX 56 79 53 80 55 81 54 82 41 83 42 84 46 85 43 86 45 87 44 88
REMARK H PARENT 12 6 6 18 68 22 17 37 61 56 39 67
REMARK Flexibility Score: inf
ROOT
ATOM      1  C   UNL     1      -0.840  -1.177   3.463  1.00  0.00     0.023 C 
ENDROOT
BRANCH   1   2
ATOM      2  C   UNL     1      -0.697  -2.586   2.889  1.00  0.00     0.116 C 
BRANCH   2   3
ATOM      3  N   UNL     1      -1.982  -3.175   2.578  1.00  0.00    -0.351 N 
ATOM      4  C   UNL     1      -2.664  -3.188   1.384  1.00  0.00     0.283 C 
ATOM      5  O   UNL     1      -3.777  -3.720   1.416  1.00  0.00    -0.268 OA
ATOM      6  H   UNL     1      -2.432  -3.630   3.326  1.00  0.00     0.163 HD
BRANCH   4   7
ATOM      7  C   UNL     1      -1.987  -2.613   0.092  1.00  0.00     0.307 C 
BRANCH   7   8
ATOM      8  C   UNL     1      -1.712  -1.131   0.180  1.00  0.00     0.044 A 
ATOM      9  C   UNL     1       3.382  -0.635  -0.235  1.00  0.00     0.044 C 
ATOM     10  C   UNL     1       1.983  -0.096  -0.145  1.00  0.00    -0.050 A 
ATOM     11  C   UNL     1       1.754   1.275  -0.005  1.00  0.00     0.005 A 
ATOM     12  C   UNL     1       0.895  -0.985  -0.152  1.00  0.00     0.014 A 
ATOM     13  C   UNL     1       0.462   1.783   0.164  1.00  0.00     0.027 A 
ATOM     14  C   UNL     1      -0.418  -0.503   0.050  1.00  0.00     0.009 A 
ATOM     15  C   UNL     1      -0.595   0.870   0.216  1.00  0.00     0.046 A 
ATOM     16  N   UNL     1      -1.933   1.081   0.448  1.00  0.00    -0.361 N 
ATOM     17  C   UNL     1      -2.595  -0.115   0.507  1.00  0.00     0.094 A 
ATOM     18  H   UNL     1      -2.354   1.964   0.555  1.00  0.00     0.166 HD
ENDBRANCH   7   8
BRANCH   7  19
ATOM     19  N   UNL     1      -2.682  -3.018  -1.153  1.00  0.00    -0.318 N 
ATOM     20  C   UNL     1      -4.082  -2.608  -1.347  1.00  0.00     0.284 C 
ATOM     21  C   UNL     1      -1.914  -2.805  -2.392  1.00  0.00     0.284 C 
ATOM     22  H   UNL     1      -2.738  -4.019  -0.962  1.00  0.00     0.349 HD
ATOM     23  C   UNL     1      -4.349  -1.264  -2.056  1.00  0.00     0.178 C 
ATOM     24  C   UNL     1      -2.066  -1.424  -3.072  1.00  0.00     0.178 C 
ATOM     25  N   UNL     1      -3.479  -1.046  -3.217  1.00  0.00    -0.360 N 
BRANCH  25  26
ATOM     26  C   UNL     1      -3.704   0.115  -3.956  1.00  0.00     0.037 A 
ATOM     27  C   UNL     1      -3.851   1.378  -3.360  1.00  0.00     0.029 A 
ATOM     28  C   UNL     1      -3.792   0.024  -5.351  1.00  0.00     0.029 A 
ATOM     29  C   UNL     1      -4.120   2.510  -4.132  1.00  0.00     0.041 A 
ATOM     30  C   UNL     1      -4.066   1.151  -6.128  1.00  0.00     0.041 A 
ATOM     31  C   UNL     1      -4.234   2.383  -5.509  1.00  0.00     0.123 A 
ATOM     32  F   UNL     1      -4.511   3.464  -6.250  1.00  0.00    -0.207 F 
ENDBRANCH  25  26
ENDBRANCH   7  19
ENDBRANCH   4   7
ENDBRANCH   2   3
ENDBRANCH   1   2
BRANCH   1  33
ATOM     33  C   UNL     1      -1.466  -1.110   4.852  1.00  0.00     0.023 C 
BRANCH  33  34
ATOM     34  C   UNL     1      -0.719  -1.896   5.913  1.00  0.00     0.116 C 
BRANCH  34  35
ATOM     35  N   UNL     1       0.678  -1.506   6.031  1.00  0.00    -0.352 N 
ATOM     36  C   UNL     1       1.444  -1.412   7.167  1.00  0.00     0.251 C 
ATOM     37  H   UNL     1       1.132  -1.280   5.187  1.00  0.00     0.163 HD
ATOM     38  O   UNL     1       2.575  -0.953   7.124  1.00  0.00    -0.269 OA
BRANCH  36  39
ATOM     39  C   UNL     1       0.858  -1.841   8.453  1.00  0.00     0.039 A 
ATOM     40  C   UNL     1       0.959  -0.989   9.554  1.00  0.00     0.014 A 
ATOM     41  C   UNL     1       0.173  -3.054   8.551  1.00  0.00     0.014 A 
ATOM     42  C   UNL     1       0.321  -1.333  10.745  1.00  0.00     0.010 A 
ATOM     43  C   UNL     1      -0.533  -3.353   9.708  1.00  0.00     0.010 A 
ATOM     44  C   UNL     1      -0.454  -2.502  10.821  1.00  0.00    -0.014 A 
BRANCH  44  45
ATOM     45  C   UNL     1      -1.167  -2.867  12.067  1.00  0.00     0.031 A 
ATOM     46  C   UNL     1      -0.787  -4.119  12.807  1.00  0.00     0.074 A 
ATOM     47  C   UNL     1      -2.187  -2.103  12.501  1.00  0.00     0.049 A 
ATOM     48  N   UNL     1      -1.309  -4.624  13.896  1.00  0.00    -0.248 NA
ATOM     49  C   UNL     1       0.302  -4.927  12.233  1.00  0.00     0.031 C 
ATOM     50  C   UNL     1      -2.683  -0.892  11.842  1.00  0.00     0.029 A 
ATOM     51  N   UNL     1      -2.991  -2.234  13.605  1.00  0.00    -0.354 N 
ATOM     52  C   UNL     1      -0.626  -5.812  14.123  1.00  0.00     0.074 A 
ATOM     53  C   UNL     1       0.305  -5.983  13.031  1.00  0.00     0.031 C 
ATOM     54  C   UNL     1      -3.683  -0.373  12.574  1.00  0.00     0.029 A 
ATOM     55  C   UNL     1      -3.920  -1.231  13.731  1.00  0.00     0.049 A 
ATOM     56  H   UNL     1      -2.909  -2.977  14.246  1.00  0.00     0.167 HD
ATOM     57  C   UNL     1      -0.744  -6.672  15.162  1.00  0.00     0.031 A 
ATOM     58  C   UNL     1      -4.855  -1.024  14.676  1.00  0.00     0.031 A 
ATOM     59  C   UNL     1      -1.657  -6.492  16.257  1.00  0.00     0.049 A 
ATOM     60  C   UNL     1      -4.960  -1.988  15.825  1.00  0.00     0.074 A 
ATOM     61  C   UNL     1      -1.814  -7.274  17.387  1.00  0.00     0.029 A 
ATOM     62  N   UNL     1      -2.570  -5.452  16.357  1.00  0.00    -0.354 N 
ATOM     63  N   UNL     1      -4.256  -3.068  16.065  1.00  0.00    -0.248 NA
ATOM     64  C   UNL     1      -5.979  -1.693  16.842  1.00  0.00     0.031 C 
ATOM     65  C   UNL     1      -2.854  -6.732  18.150  1.00  0.00     0.029 A 
ATOM     66  C   UNL     1      -3.305  -5.582  17.522  1.00  0.00     0.049 A 
ATOM     67  H   UNL     1      -2.678  -4.730  15.697  1.00  0.00     0.167 HD
ATOM     68  C   UNL     1      -4.725  -3.564  17.274  1.00  0.00     0.074 A 
ATOM     69  C   UNL     1      -5.761  -2.658  17.725  1.00  0.00     0.031 C 
ATOM     70  C   UNL     1      -4.332  -4.670  17.953  1.00  0.00     0.031 A 
BRANCH  57  71
ATOM     71  C   UNL     1       0.141  -7.887  15.154  1.00  0.00    -0.014 A 
ATOM     72  C   UNL     1       1.528  -7.779  15.351  1.00  0.00     0.009 A 
ATOM     73  C   UNL     1      -0.420  -9.159  14.968  1.00  0.00     0.009 A 
ATOM     74  C   UNL     1       2.338  -8.916  15.322  1.00  0.00     0.001 A 
ATOM     75  C   UNL     1       0.388 -10.298  14.969  1.00  0.00     0.001 A 
ATOM     76  C   UNL     1       1.767 -10.174  15.135  1.00  0.00     0.000 A 
ENDBRANCH  57  71
BRANCH  58  77
ATOM     77  C   UNL     1      -5.747   0.162  14.596  1.00  0.00    -0.014 A 
ATOM     78  C   UNL     1      -5.599   1.225  15.500  1.00  0.00     0.009 A 
ATOM     79  C   UNL     1      -6.755   0.234  13.622  1.00  0.00     0.009 A 
ATOM     80  C   UNL     1      -6.460   2.324  15.449  1.00  0.00     0.001 A 
ATOM     81  C   UNL     1      -7.597   1.347  13.556  1.00  0.00     0.001 A 
ATOM     82  C   UNL     1      -7.455   2.385  14.475  1.00  0.00     0.000 A 
ENDBRANCH  58  77
BRANCH  70  83
ATOM     83  C   UNL     1      -5.000  -4.936  19.272  1.00  0.00    -0.014 A 
ATOM     84  C   UNL     1      -6.331  -5.375  19.342  1.00  0.00     0.009 A 
ATOM     85  C   UNL     1      -4.271  -4.776  20.461  1.00  0.00     0.009 A 
ATOM     86  C   UNL     1      -6.931  -5.610  20.581  1.00  0.00     0.001 A 
ATOM     87  C   UNL     1      -4.864  -5.042  21.695  1.00  0.00     0.001 A 
ATOM     88  C   UNL     1      -6.196  -5.448  21.755  1.00  0.00     0.000 A 
ENDBRANCH  70  83
ENDBRANCH  44  45
ENDBRANCH  36  39
ENDBRANCH  34  35
ENDBRANCH  33  34
ENDBRANCH   1  33
TORSDOF 14
