REMARK SMILES Cc1nc(-c2ccccc2Cl)nc2sc(C(=O)NCCCCNC(=O)c3ccc(-c4c5nc(c(-c6ccccc6)c6ccc([nH]6)c(-c6ccccc6)c6nc(c(-c7ccccc7)c7ccc4[nH]7)C=C6)C=C5)cc3)c(N)c12
REMARK SMILES IDX 21 1 20 2 19 3 18 4 16 5 17 6 15 8 1 9 2 10 3 11 76 12 4 13
REMARK SMILES IDX 13 14 74 15 12 16 14 17 5 18 6 19 10 20 7 21 9 22 11 23 8 24
REMARK SMILES IDX 75 25 22 28 23 29 24 30 25 32 26 33 27 34 73 35 28 36 72 37
REMARK SMILES IDX 29 38 30 39 31 40 66 41 32 42 71 43 65 44 67 45 33 46 70 47
REMARK SMILES IDX 64 48 63 49 34 51 56 52 41 53 55 54 42 55 45 56 54 57 68 58
REMARK SMILES IDX 43 59 44 60 53 62 69 63 46 64 35 65 36 66 40 67 37 68 39 69
REMARK SMILES IDX 38 70 57 71 58 72 62 73 59 74 61 75 60 76 47 77 48 78 52 79
REMARK SMILES IDX 49 80 51 81 50 82
REMARK H PARENT 18 7 75 26 75 27 23 31 67 50 45 61
REMARK Flexibility Score: inf
ROOT
ATOM      1  C   UNL     1       1.480   6.996   6.684  1.00  0.00     0.023 C 
ENDROOT
BRANCH   1   2
ATOM      2  C   UNL     1       0.981   5.698   6.036  1.00  0.00     0.023 C 
BRANCH   2   3
ATOM      3  C   UNL     1      -0.012   5.875   4.877  1.00  0.00     0.116 C 
BRANCH   3   4
ATOM      4  N   UNL     1       0.645   6.130   3.600  1.00  0.00    -0.351 N 
ATOM      5  C   UNL     1       1.025   5.306   2.553  1.00  0.00     0.263 C 
ATOM      6  O   UNL     1       1.424   5.906   1.547  1.00  0.00    -0.268 OA
ATOM      7  H   UNL     1       0.863   7.079   3.453  1.00  0.00     0.163 HD
BRANCH   5   8
ATOM      8  C   UNL     1       0.929   3.847   2.590  1.00  0.00     0.118 A 
ATOM      9  C   UNL     1       0.987   0.064  -0.170  1.00  0.00     0.067 C 
ATOM     10  C   UNL     1       0.597   0.333   1.251  1.00  0.00     0.052 A 
ATOM     11  N   UNL     1       0.132  -0.742   1.962  1.00  0.00    -0.233 NA
ATOM     12  C   UNL     1       0.708   1.581   1.906  1.00  0.00     0.056 A 
ATOM     13  C   UNL     1      -0.146  -0.596   3.270  1.00  0.00     0.162 A 
ATOM     14  C   UNL     1       0.453   1.542   3.263  1.00  0.00     0.130 A 
ATOM     15  C   UNL     1       1.016   2.945   1.526  1.00  0.00     0.067 A 
ATOM     16  N   UNL     1       0.020   0.511   3.986  1.00  0.00    -0.217 NA
ATOM     17  S   UNL     1       0.802   2.981   4.050  1.00  0.00    -0.108 S 
BRANCH  13  18
ATOM     18  C   UNL     1      -0.707  -1.707   4.027  1.00  0.00     0.038 A 
ATOM     19  C   UNL     1      -2.053  -1.637   4.449  1.00  0.00     0.013 A 
ATOM     20  C   UNL     1       0.080  -2.765   4.500  1.00  0.00     0.052 A 
ATOM     21  C   UNL     1      -2.588  -2.585   5.323  1.00  0.00     0.001 A 
ATOM     22  C   UNL     1      -0.458  -3.716   5.375  1.00  0.00     0.021 A 
ATOM     23  Cl  UNL     1       1.758  -2.910   4.098  1.00  0.00    -0.084 Cl
ATOM     24  C   UNL     1      -1.788  -3.622   5.790  1.00  0.00     0.002 A 
ENDBRANCH  13  18
BRANCH  15  25
ATOM     25  N   UNL     1       1.294   3.341   0.263  1.00  0.00    -0.397 N 
ATOM     26  H   UNL     1       1.495   4.287   0.077  1.00  0.00     0.156 HD
ATOM     27  H   UNL     1       1.295   2.684  -0.470  1.00  0.00     0.156 HD
ENDBRANCH  15  25
ENDBRANCH   5   8
ENDBRANCH   3   4
ENDBRANCH   2   3
ENDBRANCH   1   2
BRANCH   1  28
ATOM     28  C   UNL     1       0.410   7.803   7.407  1.00  0.00     0.116 C 
BRANCH  28  29
ATOM     29  N   UNL     1      -0.206   7.093   8.528  1.00  0.00    -0.352 N 
ATOM     30  C   UNL     1      -1.301   7.492   9.278  1.00  0.00     0.251 C 
ATOM     31  H   UNL     1       0.205   6.234   8.779  1.00  0.00     0.163 HD
ATOM     32  O   UNL     1      -1.494   7.071  10.405  1.00  0.00    -0.269 OA
BRANCH  30  33
ATOM     33  C   UNL     1      -2.249   8.438   8.661  1.00  0.00     0.039 A 
ATOM     34  C   UNL     1      -2.764   9.529   9.364  1.00  0.00     0.014 A 
ATOM     35  C   UNL     1      -2.572   8.231   7.322  1.00  0.00     0.014 A 
ATOM     36  C   UNL     1      -3.540  10.457   8.674  1.00  0.00     0.010 A 
ATOM     37  C   UNL     1      -3.192   9.225   6.610  1.00  0.00     0.010 A 
ATOM     38  C   UNL     1      -3.728  10.311   7.287  1.00  0.00    -0.014 A 
BRANCH  38  39
ATOM     39  C   UNL     1      -4.416  11.334   6.513  1.00  0.00     0.031 A 
ATOM     40  C   UNL     1      -3.913  12.717   6.708  1.00  0.00     0.074 A 
ATOM     41  C   UNL     1      -5.351  11.068   5.576  1.00  0.00     0.049 A 
ATOM     42  N   UNL     1      -4.494  13.656   7.374  1.00  0.00    -0.248 NA
ATOM     43  C   UNL     1      -2.570  13.067   6.226  1.00  0.00     0.031 C 
ATOM     44  C   UNL     1      -5.793   9.777   5.035  1.00  0.00     0.029 A 
ATOM     45  N   UNL     1      -6.073  11.957   4.843  1.00  0.00    -0.354 N 
ATOM     46  C   UNL     1      -3.686  14.780   7.255  1.00  0.00     0.074 A 
ATOM     47  C   UNL     1      -2.452  14.324   6.663  1.00  0.00     0.031 C 
ATOM     48  C   UNL     1      -6.537   9.978   3.922  1.00  0.00     0.029 A 
ATOM     49  C   UNL     1      -6.783  11.401   3.788  1.00  0.00     0.049 A 
ATOM     50  H   UNL     1      -6.090  12.920   5.045  1.00  0.00     0.167 HD
ATOM     51  C   UNL     1      -4.188  16.029   7.463  1.00  0.00     0.031 A 
ATOM     52  C   UNL     1      -7.536  12.071   2.883  1.00  0.00     0.031 A 
ATOM     53  C   UNL     1      -5.481  15.980   8.101  1.00  0.00     0.049 A 
ATOM     54  C   UNL     1      -7.920  13.355   3.512  1.00  0.00     0.074 A 
ATOM     55  C   UNL     1      -5.951  15.502   9.308  1.00  0.00     0.029 A 
ATOM     56  N   UNL     1      -6.584  16.094   7.287  1.00  0.00    -0.354 N 
ATOM     57  N   UNL     1      -8.713  13.431   4.542  1.00  0.00    -0.248 NA
ATOM     58  C   UNL     1      -7.067  14.510   3.290  1.00  0.00     0.031 C 
ATOM     59  C   UNL     1      -7.200  14.888   8.994  1.00  0.00     0.029 A 
ATOM     60  C   UNL     1      -7.456  15.095   7.636  1.00  0.00     0.049 A 
ATOM     61  H   UNL     1      -6.722  16.768   6.583  1.00  0.00     0.167 HD
ATOM     62  C   UNL     1      -8.155  14.416   5.343  1.00  0.00     0.074 A 
ATOM     63  C   UNL     1      -7.202  15.111   4.476  1.00  0.00     0.031 C 
ATOM     64  C   UNL     1      -8.309  14.397   6.699  1.00  0.00     0.031 A 
BRANCH  51  65
ATOM     65  C   UNL     1      -3.708  17.265   6.749  1.00  0.00    -0.014 A 
ATOM     66  C   UNL     1      -4.292  18.503   7.080  1.00  0.00     0.009 A 
ATOM     67  C   UNL     1      -2.922  17.227   5.583  1.00  0.00     0.009 A 
ATOM     68  C   UNL     1      -4.160  19.618   6.244  1.00  0.00     0.001 A 
ATOM     69  C   UNL     1      -2.756  18.349   4.767  1.00  0.00     0.001 A 
ATOM     70  C   UNL     1      -3.400  19.537   5.083  1.00  0.00     0.000 A 
ENDBRANCH  51  65
BRANCH  52  71
ATOM     71  C   UNL     1      -7.700  11.824   1.436  1.00  0.00    -0.014 A 
ATOM     72  C   UNL     1      -8.726  12.458   0.716  1.00  0.00     0.009 A 
ATOM     73  C   UNL     1      -6.662  11.219   0.704  1.00  0.00     0.009 A 
ATOM     74  C   UNL     1      -8.683  12.536  -0.683  1.00  0.00     0.001 A 
ATOM     75  C   UNL     1      -6.621  11.296  -0.693  1.00  0.00     0.001 A 
ATOM     76  C   UNL     1      -7.621  11.971  -1.385  1.00  0.00     0.000 A 
ENDBRANCH  52  71
BRANCH  64  77
ATOM     77  C   UNL     1      -9.264  13.385   7.292  1.00  0.00    -0.014 A 
ATOM     78  C   UNL     1      -9.076  11.994   7.180  1.00  0.00     0.009 A 
ATOM     79  C   UNL     1     -10.281  13.849   8.138  1.00  0.00     0.009 A 
ATOM     80  C   UNL     1      -9.893  11.100   7.884  1.00  0.00     0.001 A 
ATOM     81  C   UNL     1     -11.083  12.957   8.855  1.00  0.00     0.001 A 
ATOM     82  C   UNL     1     -10.890  11.584   8.727  1.00  0.00     0.000 A 
ENDBRANCH  64  77
ENDBRANCH  38  39
ENDBRANCH  30  33
ENDBRANCH  28  29
ENDBRANCH   1  28
TORSDOF 13
