REMARK SMILES C[C@@H]1OCC[C@@H]1C(=O)Nc1ccc(C(=O)NCCCCNC(=O)c2ccc(-c3c4nc(c(-c5ccccc5)c5ccc([nH]5)c(-c5ccccc5)c5nc(c(-c6ccccc6)c6ccc3[nH]6)C=C5)C=C4)cc2)cc1F
REMARK SMILES IDX 18 1 17 2 16 3 14 4 15 5 13 7 10 8 11 9 73 10 12 11 72 12
REMARK SMILES IDX 74 13 9 14 7 15 8 16 6 18 1 19 2 20 3 21 4 22 5 23 19 24
REMARK SMILES IDX 20 25 21 26 22 27 23 29 24 30 25 31 71 32 26 33 70 34 27 35
REMARK SMILES IDX 28 36 29 37 64 38 30 39 69 40 63 41 65 42 31 43 68 44 62 45
REMARK SMILES IDX 61 46 32 48 54 49 39 50 53 51 40 52 43 53 52 54 66 55 41 56
REMARK SMILES IDX 42 57 51 59 67 60 44 61 33 62 34 63 38 64 35 65 37 66 36 67
REMARK SMILES IDX 55 68 56 69 60 70 57 71 59 72 58 73 45 74 46 75 50 76 47 77
REMARK SMILES IDX 49 78 48 79
REMARK H PARENT 16 6 9 17 21 28 65 47 43 58
REMARK Flexibility Score: inf
ROOT
ATOM      1  C   UNL     1       2.259  -3.183   4.704  1.00  0.00     0.023 C 
ENDROOT
BRANCH   1   2
ATOM      2  C   UNL     1       1.662  -2.225   5.751  1.00  0.00     0.116 C 
BRANCH   2   3
ATOM      3  N   UNL     1       2.668  -1.313   6.286  1.00  0.00    -0.352 N 
ATOM      4  C   UNL     1       3.143  -0.084   5.880  1.00  0.00     0.251 C 
ATOM      5  O   UNL     1       3.979   0.472   6.592  1.00  0.00    -0.269 OA
ATOM      6  H   UNL     1       3.098  -1.645   7.107  1.00  0.00     0.163 HD
BRANCH   4   7
ATOM      7  C   UNL     1       2.675   0.618   4.650  1.00  0.00     0.042 A 
ATOM      8  C   UNL     1       1.670   2.002   2.354  1.00  0.00     0.077 A 
ATOM      9  C   UNL     1       2.491   2.649   3.293  1.00  0.00     0.030 A 
ATOM     10  C   UNL     1       1.346   0.688   2.643  1.00  0.00     0.147 A 
ATOM     11  C   UNL     1       2.961   1.975   4.445  1.00  0.00     0.016 A 
ATOM     12  C   UNL     1       1.924  -0.009   3.684  1.00  0.00     0.055 A 
ATOM     13  F   UNL     1       0.404  -0.008   2.016  1.00  0.00    -0.205 F 
BRANCH   8  14
ATOM     14  N   UNL     1       1.294   2.723   1.199  1.00  0.00    -0.323 N 
ATOM     15  C   UNL     1       0.587   2.435   0.061  1.00  0.00     0.230 C 
ATOM     16  O   UNL     1       0.533   3.328  -0.793  1.00  0.00    -0.274 OA
ATOM     17  H   UNL     1       1.616   3.653   1.216  1.00  0.00     0.170 HD
BRANCH  15  18
ATOM     18  C   UNL     1      -0.133   1.122  -0.160  1.00  0.00     0.110 C 
ATOM     19  C   UNL     1       1.848   0.227  -1.575  1.00  0.00     0.039 C 
ATOM     20  C   UNL     1       0.723  -0.076  -0.595  1.00  0.00     0.127 C 
ATOM     21  O   UNL     1      -0.182  -1.003  -1.241  1.00  0.00    -0.378 OA
ATOM     22  C   UNL     1      -1.463  -0.368  -1.349  1.00  0.00     0.161 C 
ATOM     23  C   UNL     1      -1.194   1.118  -1.247  1.00  0.00     0.044 C 
ENDBRANCH  15  18
ENDBRANCH   8  14
ENDBRANCH   4   7
ENDBRANCH   2   3
ENDBRANCH   1   2
BRANCH   1  24
ATOM     24  C   UNL     1       2.807  -4.477   5.299  1.00  0.00     0.023 C 
BRANCH  24  25
ATOM     25  C   UNL     1       1.719  -5.426   5.780  1.00  0.00     0.116 C 
BRANCH  25  26
ATOM     26  N   UNL     1       0.939  -6.015   4.702  1.00  0.00    -0.352 N 
ATOM     27  C   UNL     1       0.253  -7.212   4.730  1.00  0.00     0.251 C 
ATOM     28  H   UNL     1       0.896  -5.503   3.862  1.00  0.00     0.163 HD
ATOM     29  O   UNL     1      -0.290  -7.658   3.736  1.00  0.00    -0.269 OA
BRANCH  27  30
ATOM     30  C   UNL     1       0.238  -7.972   6.000  1.00  0.00     0.039 A 
ATOM     31  C   UNL     1       0.699  -9.290   6.004  1.00  0.00     0.014 A 
ATOM     32  C   UNL     1      -0.149  -7.348   7.188  1.00  0.00     0.014 A 
ATOM     33  C   UNL     1       0.842  -9.962   7.220  1.00  0.00     0.010 A 
ATOM     34  C   UNL     1       0.062  -7.992   8.400  1.00  0.00     0.010 A 
ATOM     35  C   UNL     1       0.562  -9.304   8.428  1.00  0.00    -0.014 A 
BRANCH  35  36
ATOM     36  C   UNL     1       0.760  -9.963   9.742  1.00  0.00     0.031 A 
ATOM     37  C   UNL     1      -0.427 -10.219  10.627  1.00  0.00     0.074 A 
ATOM     38  C   UNL     1       2.003 -10.242  10.178  1.00  0.00     0.049 A 
ATOM     39  N   UNL     1      -0.459 -10.643  11.864  1.00  0.00    -0.248 NA
ATOM     40  C   UNL     1      -1.752  -9.928  10.054  1.00  0.00     0.031 C 
ATOM     41  C   UNL     1       3.241 -10.013   9.429  1.00  0.00     0.029 A 
ATOM     42  N   UNL     1       2.430 -10.765  11.373  1.00  0.00    -0.354 N 
ATOM     43  C   UNL     1      -1.800 -10.642  12.225  1.00  0.00     0.074 A 
ATOM     44  C   UNL     1      -2.546 -10.137  11.093  1.00  0.00     0.031 C 
ATOM     45  C   UNL     1       4.286 -10.404  10.178  1.00  0.00     0.029 A 
ATOM     46  C   UNL     1       3.796 -10.873  11.471  1.00  0.00     0.049 A 
ATOM     47  H   UNL     1       1.816 -11.038  12.092  1.00  0.00     0.167 HD
ATOM     48  C   UNL     1      -2.364 -11.041  13.389  1.00  0.00     0.031 A 
ATOM     49  C   UNL     1       4.568 -11.289  12.493  1.00  0.00     0.031 A 
ATOM     50  C   UNL     1      -1.628 -11.566  14.506  1.00  0.00     0.049 A 
ATOM     51  C   UNL     1       3.917 -11.736  13.772  1.00  0.00     0.074 A 
ATOM     52  C   UNL     1      -2.112 -12.036  15.714  1.00  0.00     0.029 A 
ATOM     53  N   UNL     1      -0.249 -11.699  14.546  1.00  0.00    -0.354 N 
ATOM     54  N   UNL     1       2.644 -11.767  14.084  1.00  0.00    -0.248 NA
ATOM     55  C   UNL     1       4.810 -12.217  14.837  1.00  0.00     0.031 C 
ATOM     56  C   UNL     1      -1.022 -12.427  16.498  1.00  0.00     0.029 A 
ATOM     57  C   UNL     1       0.136 -12.241  15.759  1.00  0.00     0.049 A 
ATOM     58  H   UNL     1       0.365 -11.447  13.819  1.00  0.00     0.167 HD
ATOM     59  C   UNL     1       2.582 -12.300  15.365  1.00  0.00     0.074 A 
ATOM     60  C   UNL     1       3.942 -12.585  15.770  1.00  0.00     0.031 C 
ATOM     61  C   UNL     1       1.493 -12.535  16.136  1.00  0.00     0.031 A 
BRANCH  48  62
ATOM     62  C   UNL     1      -3.856 -10.922  13.507  1.00  0.00    -0.014 A 
ATOM     63  C   UNL     1      -4.710 -11.779  12.793  1.00  0.00     0.009 A 
ATOM     64  C   UNL     1      -4.416  -9.960  14.361  1.00  0.00     0.009 A 
ATOM     65  C   UNL     1      -6.095 -11.649  12.905  1.00  0.00     0.001 A 
ATOM     66  C   UNL     1      -5.802  -9.851  14.491  1.00  0.00     0.001 A 
ATOM     67  C   UNL     1      -6.640 -10.689  13.756  1.00  0.00     0.000 A 
ENDBRANCH  48  62
BRANCH  49  68
ATOM     68  C   UNL     1       6.046 -11.316  12.349  1.00  0.00    -0.014 A 
ATOM     69  C   UNL     1       6.727 -12.537  12.232  1.00  0.00     0.009 A 
ATOM     70  C   UNL     1       6.786 -10.123  12.342  1.00  0.00     0.009 A 
ATOM     71  C   UNL     1       8.120 -12.566  12.140  1.00  0.00     0.001 A 
ATOM     72  C   UNL     1       8.177 -10.153  12.223  1.00  0.00     0.001 A 
ATOM     73  C   UNL     1       8.844 -11.374  12.132  1.00  0.00     0.000 A 
ENDBRANCH  49  68
BRANCH  61  74
ATOM     74  C   UNL     1       1.719 -13.180  17.471  1.00  0.00    -0.014 A 
ATOM     75  C   UNL     1       2.236 -12.454  18.555  1.00  0.00     0.009 A 
ATOM     76  C   UNL     1       1.351 -14.522  17.660  1.00  0.00     0.009 A 
ATOM     77  C   UNL     1       2.401 -13.069  19.797  1.00  0.00     0.001 A 
ATOM     78  C   UNL     1       1.496 -15.126  18.909  1.00  0.00     0.001 A 
ATOM     79  C   UNL     1       2.027 -14.401  19.974  1.00  0.00     0.000 A 
ENDBRANCH  61  74
ENDBRANCH  35  36
ENDBRANCH  27  30
ENDBRANCH  25  26
ENDBRANCH  24  25
ENDBRANCH   1  24
TORSDOF 13
