REMARK SMILES O=C(NCCCCNC(=O)C1CCN(C(=O)COc2ccc(Cl)cc2Cl)CC1)c1ccc(-c2c3nc(c(-c4ccccc4)c4ccc([nH]4)c(-c4ccccc4)c4nc(c(-c5ccccc5)c5ccc2[nH]5)C=C4)C=C3)cc1
REMARK SMILES IDX 6 1 5 2 4 3 3 4 1 5 2 6 29 8 30 9 76 10 31 11 75 12 32 13
REMARK SMILES IDX 33 14 34 15 69 16 35 17 74 18 68 19 70 20 36 21 73 22 67 23
REMARK SMILES IDX 66 24 37 26 59 27 44 28 58 29 45 30 48 31 57 32 71 33 46 34
REMARK SMILES IDX 47 35 56 37 72 38 49 39 38 40 39 41 43 42 40 43 42 44 41 45
REMARK SMILES IDX 60 46 61 47 65 48 62 49 64 50 63 51 50 52 51 53 55 54 52 55
REMARK SMILES IDX 54 56 53 57 7 58 8 59 9 60 10 62 11 63 12 64 28 65 13 66
REMARK SMILES IDX 27 67 14 68 15 69 16 70 17 71 18 72 19 73 20 74 25 75 21 76
REMARK SMILES IDX 24 77 26 78 22 79 23 80
REMARK H PARENT 3 7 70 25 48 36 8 61
REMARK Flexibility Score: inf
ROOT
ATOM      1  C   UNL     1       4.937   2.870   2.013  1.00  0.00     0.023 C 
ENDROOT
BRANCH   1   2
ATOM      2  C   UNL     1       5.269   2.370   0.614  1.00  0.00     0.023 C 
BRANCH   2   3
ATOM      3  C   UNL     1       4.708   0.993   0.303  1.00  0.00     0.116 C 
BRANCH   3   4
ATOM      4  N   UNL     1       3.263   0.884   0.464  1.00  0.00    -0.352 N 
ATOM      5  O   UNL     1       1.216   0.033  -0.007  1.00  0.00    -0.269 OA
ATOM      6  C   UNL     1       2.417   0.005  -0.175  1.00  0.00     0.251 C 
ATOM      7  H   UNL     1       2.845   1.509   1.100  1.00  0.00     0.163 HD
BRANCH   6   8
ATOM      8  C   UNL     1       3.029  -0.951  -1.119  1.00  0.00     0.039 A 
ATOM      9  C   UNL     1       4.086  -1.761  -0.697  1.00  0.00     0.014 A 
ATOM     10  C   UNL     1       2.604  -0.952  -2.448  1.00  0.00     0.014 A 
ATOM     11  C   UNL     1       4.807  -2.479  -1.636  1.00  0.00     0.010 A 
ATOM     12  C   UNL     1       3.276  -1.745  -3.376  1.00  0.00     0.010 A 
ATOM     13  C   UNL     1       4.392  -2.497  -2.978  1.00  0.00    -0.014 A 
BRANCH  13  14
ATOM     14  C   UNL     1       5.064  -3.415  -3.922  1.00  0.00     0.031 A 
ATOM     15  C   UNL     1       5.862  -2.903  -5.083  1.00  0.00     0.074 A 
ATOM     16  C   UNL     1       4.925  -4.737  -3.705  1.00  0.00     0.049 A 
ATOM     17  N   UNL     1       6.468  -3.586  -6.019  1.00  0.00    -0.248 NA
ATOM     18  C   UNL     1       5.993  -1.444  -5.221  1.00  0.00     0.031 C 
ATOM     19  C   UNL     1       4.158  -5.333  -2.605  1.00  0.00     0.029 A 
ATOM     20  N   UNL     1       5.422  -5.814  -4.386  1.00  0.00    -0.354 N 
ATOM     21  C   UNL     1       7.027  -2.646  -6.874  1.00  0.00     0.074 A 
ATOM     22  C   UNL     1       6.689  -1.341  -6.347  1.00  0.00     0.031 C 
ATOM     23  C   UNL     1       4.263  -6.667  -2.669  1.00  0.00     0.029 A 
ATOM     24  C   UNL     1       5.037  -7.018  -3.850  1.00  0.00     0.049 A 
ATOM     25  H   UNL     1       5.998  -5.734  -5.180  1.00  0.00     0.167 HD
ATOM     26  C   UNL     1       7.749  -2.863  -7.998  1.00  0.00     0.031 A 
ATOM     27  C   UNL     1       5.247  -8.272  -4.285  1.00  0.00     0.031 A 
ATOM     28  C   UNL     1       8.089  -4.169  -8.500  1.00  0.00     0.049 A 
ATOM     29  C   UNL     1       6.020  -8.474  -5.550  1.00  0.00     0.074 A 
ATOM     30  C   UNL     1       8.879  -4.494  -9.589  1.00  0.00     0.029 A 
ATOM     31  N   UNL     1       7.650  -5.364  -7.952  1.00  0.00    -0.354 N 
ATOM     32  N   UNL     1       6.584  -7.575  -6.319  1.00  0.00    -0.248 NA
ATOM     33  C   UNL     1       6.171  -9.857  -6.016  1.00  0.00     0.031 C 
ATOM     34  C   UNL     1       8.873  -5.886  -9.731  1.00  0.00     0.029 A 
ATOM     35  C   UNL     1       8.114  -6.427  -8.706  1.00  0.00     0.049 A 
ATOM     36  H   UNL     1       7.090  -5.444  -7.146  1.00  0.00     0.167 HD
ATOM     37  C   UNL     1       7.152  -8.282  -7.366  1.00  0.00     0.074 A 
ATOM     38  C   UNL     1       6.891  -9.686  -7.116  1.00  0.00     0.031 C 
ATOM     39  C   UNL     1       7.821  -7.811  -8.446  1.00  0.00     0.031 A 
BRANCH  26  40
ATOM     40  C   UNL     1       8.198  -1.670  -8.793  1.00  0.00    -0.014 A 
ATOM     41  C   UNL     1       9.286  -0.886  -8.383  1.00  0.00     0.009 A 
ATOM     42  C   UNL     1       7.575  -1.383 -10.018  1.00  0.00     0.009 A 
ATOM     43  C   UNL     1       9.734   0.171  -9.181  1.00  0.00     0.001 A 
ATOM     44  C   UNL     1       8.034  -0.337 -10.820  1.00  0.00     0.001 A 
ATOM     45  C   UNL     1       9.112   0.441 -10.400  1.00  0.00     0.000 A 
ENDBRANCH  26  40
BRANCH  27  46
ATOM     46  C   UNL     1       4.656  -9.413  -3.543  1.00  0.00    -0.014 A 
ATOM     47  C   UNL     1       5.468 -10.289  -2.809  1.00  0.00     0.009 A 
ATOM     48  C   UNL     1       3.265  -9.606  -3.539  1.00  0.00     0.009 A 
ATOM     49  C   UNL     1       4.896 -11.345  -2.096  1.00  0.00     0.001 A 
ATOM     50  C   UNL     1       2.695 -10.645  -2.803  1.00  0.00     0.001 A 
ATOM     51  C   UNL     1       3.512 -11.518  -2.088  1.00  0.00     0.000 A 
ENDBRANCH  27  46
BRANCH  39  52
ATOM     52  C   UNL     1       8.302  -8.832  -9.432  1.00  0.00    -0.014 A 
ATOM     53  C   UNL     1       7.407  -9.436 -10.327  1.00  0.00     0.009 A 
ATOM     54  C   UNL     1       9.660  -9.177  -9.478  1.00  0.00     0.009 A 
ATOM     55  C   UNL     1       7.862 -10.391 -11.237  1.00  0.00     0.001 A 
ATOM     56  C   UNL     1      10.115 -10.116 -10.404  1.00  0.00     0.001 A 
ATOM     57  C   UNL     1       9.215 -10.727 -11.277  1.00  0.00     0.000 A 
ENDBRANCH  39  52
ENDBRANCH  13  14
ENDBRANCH   6   8
ENDBRANCH   3   4
ENDBRANCH   2   3
ENDBRANCH   1   2
BRANCH   1  58
ATOM     58  C   UNL     1       5.541   2.054   3.158  1.00  0.00     0.116 C 
BRANCH  58  59
ATOM     59  N   UNL     1       6.856   2.541   3.515  1.00  0.00    -0.356 N 
ATOM     60  C   UNL     1       7.324   3.464   4.380  1.00  0.00     0.223 C 
ATOM     61  H   UNL     1       7.574   2.097   3.009  1.00  0.00     0.163 HD
ATOM     62  O   UNL     1       8.548   3.652   4.318  1.00  0.00    -0.275 OA
BRANCH  60  63
ATOM     63  C   UNL     1       6.518   4.277   5.402  1.00  0.00     0.082 C 
ATOM     64  C   UNL     1       5.057   4.003   5.726  1.00  0.00     0.035 C 
ATOM     65  C   UNL     1       6.709   5.782   5.149  1.00  0.00     0.035 C 
ATOM     66  C   UNL     1       4.059   4.617   4.755  1.00  0.00     0.120 C 
ATOM     67  C   UNL     1       5.794   6.280   4.043  1.00  0.00     0.120 C 
ATOM     68  N   UNL     1       4.394   5.952   4.293  1.00  0.00    -0.340 N 
ATOM     69  C   UNL     1       3.361   6.681   3.711  1.00  0.00     0.260 C 
ATOM     70  O   UNL     1       2.340   6.138   3.283  1.00  0.00    -0.271 OA
BRANCH  69  71
ATOM     71  C   UNL     1       3.470   8.209   3.754  1.00  0.00     0.329 C 
BRANCH  71  72
ATOM     72  O   UNL     1       4.037   8.806   4.911  1.00  0.00    -0.482 OA
BRANCH  72  73
ATOM     73  C   UNL     1       3.393   8.700   6.117  1.00  0.00     0.138 A 
ATOM     74  C   UNL     1       2.537   7.656   6.484  1.00  0.00     0.049 A 
ATOM     75  C   UNL     1       3.694   9.678   7.080  1.00  0.00     0.084 A 
ATOM     76  C   UNL     1       2.044   7.556   7.788  1.00  0.00     0.024 A 
ATOM     77  C   UNL     1       3.176   9.599   8.377  1.00  0.00     0.045 A 
ATOM     78  Cl  UNL     1       4.706  11.029   6.698  1.00  0.00    -0.080 Cl
ATOM     79  C   UNL     1       2.367   8.525   8.729  1.00  0.00     0.042 A 
ATOM     80  Cl  UNL     1       1.765   8.387  10.333  1.00  0.00    -0.084 Cl
ENDBRANCH  72  73
ENDBRANCH  71  72
ENDBRANCH  69  71
ENDBRANCH  60  63
ENDBRANCH  58  59
ENDBRANCH   1  58
TORSDOF 14
