REMARK SMILES C[C@@H](C(=O)NCCCCNC(=O)c1ccc(-c2c3nc(c(-c4ccccc4)c4ccc([nH]4)c(-c4ccccc4)c4nc(c(-c5ccccc5)c5ccc2[nH]5)C=C4)C=C3)cc1)c1cc(C(=O)c2ccccc2)ccc1O
REMARK SMILES IDX 7 1 6 2 5 3 3 4 4 5 2 7 1 8 61 9 62 10 74 11 63 12 73 13
REMARK SMILES IDX 72 14 75 15 64 17 65 18 66 19 67 20 71 21 68 22 70 23 69 24
REMARK SMILES IDX 8 25 9 26 10 27 11 28 12 30 13 31 14 32 60 33 15 34 59 35
REMARK SMILES IDX 16 36 17 37 18 38 53 39 19 40 58 41 52 42 54 43 20 44 57 45
REMARK SMILES IDX 51 46 50 47 21 49 43 50 28 51 42 52 29 53 32 54 41 55 55 56
REMARK SMILES IDX 30 57 31 58 40 60 56 61 33 62 22 63 23 64 27 65 24 66 26 67
REMARK SMILES IDX 25 68 44 69 45 70 49 71 46 72 48 73 47 74 34 75 35 76 39 77
REMARK SMILES IDX 36 78 38 79 37 80
REMARK H PARENT 5 6 75 16 10 29 54 48 32 59
REMARK Flexibility Score: inf
ROOT
ATOM      1  C   UNL     1       4.314  -0.899  -0.673  1.00  0.00     0.023 C 
ENDROOT
BRANCH   1   2
ATOM      2  C   UNL     1       3.523  -0.199  -1.781  1.00  0.00     0.116 C 
BRANCH   2   3
ATOM      3  N   UNL     1       2.524  -1.070  -2.362  1.00  0.00    -0.356 N 
ATOM      4  C   UNL     1       1.171  -1.109  -2.211  1.00  0.00     0.227 C 
ATOM      5  O   UNL     1       0.593  -1.984  -2.865  1.00  0.00    -0.274 OA
ATOM      6  H   UNL     1       2.885  -1.753  -2.972  1.00  0.00     0.163 HD
BRANCH   4   7
ATOM      7  C   UNL     1       0.425  -0.102  -1.315  1.00  0.00     0.109 C 
ATOM      8  C   UNL     1       0.815  -0.190   0.162  1.00  0.00     0.023 C 
BRANCH   7   9
ATOM      9  C   UNL     1      -1.106  -0.181  -1.381  1.00  0.00     0.007 A 
ATOM     10  C   UNL     1      -1.833   1.029  -1.340  1.00  0.00     0.020 A 
ATOM     11  C   UNL     1      -1.844  -1.373  -1.322  1.00  0.00     0.119 A 
ATOM     12  C   UNL     1      -3.235   1.038  -1.254  1.00  0.00     0.023 A 
ATOM     13  C   UNL     1      -3.236  -1.374  -1.285  1.00  0.00     0.047 A 
ATOM     14  C   UNL     1      -3.934  -0.172  -1.274  1.00  0.00     0.016 A 
BRANCH  11  15
ATOM     15  O   UNL     1      -1.261  -2.606  -1.277  1.00  0.00    -0.508 OA
ATOM     16  H   UNL     1      -0.328  -2.684  -1.298  1.00  0.00     0.293 HD
ENDBRANCH  11  15
BRANCH  12  17
ATOM     17  C   UNL     1      -3.940   2.347  -1.134  1.00  0.00     0.193 C 
ATOM     18  O   UNL     1      -3.385   3.378  -1.503  1.00  0.00    -0.289 OA
BRANCH  17  19
ATOM     19  C   UNL     1      -5.316   2.427  -0.584  1.00  0.00     0.022 A 
ATOM     20  C   UNL     1      -6.253   3.225  -1.247  1.00  0.00     0.012 A 
ATOM     21  C   UNL     1      -5.688   1.718   0.566  1.00  0.00     0.012 A 
ATOM     22  C   UNL     1      -7.573   3.265  -0.796  1.00  0.00     0.001 A 
ATOM     23  C   UNL     1      -7.011   1.756   1.009  1.00  0.00     0.001 A 
ATOM     24  C   UNL     1      -7.954   2.521   0.322  1.00  0.00     0.000 A 
ENDBRANCH  17  19
ENDBRANCH  12  17
ENDBRANCH   7   9
ENDBRANCH   4   7
ENDBRANCH   2   3
ENDBRANCH   1   2
BRANCH   1  25
ATOM     25  C   UNL     1       5.071  -2.159  -1.103  1.00  0.00     0.023 C 
BRANCH  25  26
ATOM     26  C   UNL     1       6.023  -1.992  -2.282  1.00  0.00     0.116 C 
BRANCH  26  27
ATOM     27  N   UNL     1       7.037  -0.975  -2.055  1.00  0.00    -0.352 N 
ATOM     28  C   UNL     1       8.396  -1.036  -2.245  1.00  0.00     0.251 C 
ATOM     29  H   UNL     1       6.700  -0.115  -1.714  1.00  0.00     0.163 HD
ATOM     30  O   UNL     1       9.109  -0.106  -1.881  1.00  0.00    -0.269 OA
BRANCH  28  31
ATOM     31  C   UNL     1       9.008  -2.239  -2.849  1.00  0.00     0.039 A 
ATOM     32  C   UNL     1      10.122  -2.807  -2.226  1.00  0.00     0.014 A 
ATOM     33  C   UNL     1       8.479  -2.817  -4.007  1.00  0.00     0.014 A 
ATOM     34  C   UNL     1      10.649  -4.006  -2.709  1.00  0.00     0.010 A 
ATOM     35  C   UNL     1       8.968  -4.044  -4.452  1.00  0.00     0.010 A 
ATOM     36  C   UNL     1      10.044  -4.660  -3.795  1.00  0.00    -0.014 A 
BRANCH  36  37
ATOM     37  C   UNL     1      10.479  -6.018  -4.210  1.00  0.00     0.031 A 
ATOM     38  C   UNL     1      11.092  -6.250  -5.562  1.00  0.00     0.074 A 
ATOM     39  C   UNL     1      10.246  -7.061  -3.388  1.00  0.00     0.049 A 
ATOM     40  N   UNL     1      11.463  -7.378  -6.114  1.00  0.00    -0.248 NA
ATOM     41  C   UNL     1      11.297  -5.067  -6.413  1.00  0.00     0.031 C 
ATOM     42  C   UNL     1       9.619  -6.976  -2.066  1.00  0.00     0.029 A 
ATOM     43  N   UNL     1      10.496  -8.402  -3.549  1.00  0.00    -0.354 N 
ATOM     44  C   UNL     1      11.931  -7.044  -7.378  1.00  0.00     0.074 A 
ATOM     45  C   UNL     1      11.766  -5.614  -7.526  1.00  0.00     0.031 C 
ATOM     46  C   UNL     1       9.549  -8.206  -1.532  1.00  0.00     0.029 A 
ATOM     47  C   UNL     1      10.084  -9.171  -2.487  1.00  0.00     0.049 A 
ATOM     48  H   UNL     1      10.930  -8.777  -4.349  1.00  0.00     0.167 HD
ATOM     49  C   UNL     1      12.463  -7.855  -8.324  1.00  0.00     0.031 A 
ATOM     50  C   UNL     1      10.115 -10.504  -2.306  1.00  0.00     0.031 A 
ATOM     51  C   UNL     1      12.637  -9.275  -8.174  1.00  0.00     0.049 A 
ATOM     52  C   UNL     1      10.688 -11.380  -3.385  1.00  0.00     0.074 A 
ATOM     53  C   UNL     1      13.234 -10.165  -9.052  1.00  0.00     0.029 A 
ATOM     54  N   UNL     1      12.210 -10.014  -7.084  1.00  0.00    -0.354 N 
ATOM     55  N   UNL     1      11.205 -11.036  -4.539  1.00  0.00    -0.248 NA
ATOM     56  C   UNL     1      10.684 -12.828  -3.133  1.00  0.00     0.031 C 
ATOM     57  C   UNL     1      13.117 -11.452  -8.517  1.00  0.00     0.029 A 
ATOM     58  C   UNL     1      12.496 -11.355  -7.282  1.00  0.00     0.049 A 
ATOM     59  H   UNL     1      11.768  -9.642  -6.287  1.00  0.00     0.167 HD
ATOM     60  C   UNL     1      11.605 -12.221  -5.141  1.00  0.00     0.074 A 
ATOM     61  C   UNL     1      11.293 -13.290  -4.216  1.00  0.00     0.031 C 
ATOM     62  C   UNL     1      12.175 -12.408  -6.356  1.00  0.00     0.031 A 
BRANCH  49  63
ATOM     63  C   UNL     1      12.894  -7.229  -9.620  1.00  0.00    -0.014 A 
ATOM     64  C   UNL     1      14.048  -6.434  -9.694  1.00  0.00     0.009 A 
ATOM     65  C   UNL     1      12.180  -7.502 -10.798  1.00  0.00     0.009 A 
ATOM     66  C   UNL     1      14.466  -5.907 -10.918  1.00  0.00     0.001 A 
ATOM     67  C   UNL     1      12.614  -6.994 -12.023  1.00  0.00     0.001 A 
ATOM     68  C   UNL     1      13.753  -6.193 -12.082  1.00  0.00     0.000 A 
ENDBRANCH  49  63
BRANCH  50  69
ATOM     69  C   UNL     1       9.574 -11.105  -1.059  1.00  0.00    -0.014 A 
ATOM     70  C   UNL     1      10.432 -11.706  -0.125  1.00  0.00     0.009 A 
ATOM     71  C   UNL     1       8.193 -11.109  -0.811  1.00  0.00     0.009 A 
ATOM     72  C   UNL     1       9.915 -12.327   1.014  1.00  0.00     0.001 A 
ATOM     73  C   UNL     1       7.681 -11.704   0.344  1.00  0.00     0.001 A 
ATOM     74  C   UNL     1       8.541 -12.323   1.249  1.00  0.00     0.000 A 
ENDBRANCH  50  69
BRANCH  62  75
ATOM     75  C   UNL     1      12.514 -13.819  -6.744  1.00  0.00    -0.014 A 
ATOM     76  C   UNL     1      11.510 -14.737  -7.091  1.00  0.00     0.009 A 
ATOM     77  C   UNL     1      13.857 -14.226  -6.795  1.00  0.00     0.009 A 
ATOM     78  C   UNL     1      11.844 -16.044  -7.451  1.00  0.00     0.001 A 
ATOM     79  C   UNL     1      14.188 -15.524  -7.184  1.00  0.00     0.001 A 
ATOM     80  C   UNL     1      13.181 -16.434  -7.502  1.00  0.00     0.000 A 
ENDBRANCH  62  75
ENDBRANCH  36  37
ENDBRANCH  28  31
ENDBRANCH  26  27
ENDBRANCH  25  26
ENDBRANCH   1  25
TORSDOF 15
