REMARK SMILES C#CCN(CC(=O)NCCCCNC(=O)c1ccc(-c2c3nc(c(-c4ccccc4)c4ccc([nH]4)c(-c4ccccc4)c4nc(c(-c5ccccc5)c5ccc2[nH]5)C=C4)C=C3)cc1)C(=O)NCc1ccnc(C)n1
REMARK SMILES IDX 9 1 8 2 6 3 7 4 5 6 4 7 3 8 2 9 1 10 64 11 65 12 66 13 67 15
REMARK SMILES IDX 68 16 69 17 74 18 70 19 72 20 71 21 73 22 10 23 11 24 12 25
REMARK SMILES IDX 13 26 14 27 15 29 16 30 17 31 63 32 18 33 62 34 19 35 20 36
REMARK SMILES IDX 21 37 56 38 22 39 61 40 55 41 57 42 23 43 60 44 54 45 53 46
REMARK SMILES IDX 24 48 46 49 31 50 45 51 32 52 35 53 44 54 58 55 33 56 34 57
REMARK SMILES IDX 43 59 59 60 36 61 25 62 26 63 30 64 27 65 29 66 28 67 47 68
REMARK SMILES IDX 48 69 52 70 49 71 51 72 50 73 37 74 38 75 42 76 39 77 41 78
REMARK SMILES IDX 40 79
REMARK H PARENT 8 5 66 14 13 28 57 47 35 58
REMARK Flexibility Score: inf
ROOT
ATOM      1  C   UNL     1      -5.026   0.380   0.020  1.00  0.00     0.116 C 
ENDROOT
BRANCH   1   2
ATOM      2  N   UNL     1      -5.353  -0.861   0.686  1.00  0.00    -0.355 N 
ATOM      3  C   UNL     1      -4.571  -1.704   1.421  1.00  0.00     0.239 C 
ATOM      4  O   UNL     1      -5.164  -2.529   2.124  1.00  0.00    -0.273 OA
ATOM      5  H   UNL     1      -6.292  -1.144   0.595  1.00  0.00     0.163 HD
BRANCH   3   6
ATOM      6  C   UNL     1      -3.041  -1.567   1.516  1.00  0.00     0.222 C 
BRANCH   6   7
ATOM      7  N   UNL     1      -2.334  -1.356   0.258  1.00  0.00    -0.304 N 
BRANCH   7   8
ATOM      8  C   UNL     1      -1.757  -0.028   0.069  1.00  0.00     0.211 C 
BRANCH   8   9
ATOM      9  C   UNL     1      -0.237  -0.028   0.069  1.00  0.00    -0.085 C 
ATOM     10  C   UNL     1       1.067  -0.028   0.069  1.00  0.00     0.006 C 
ENDBRANCH   8   9
ENDBRANCH   7   8
BRANCH   7  11
ATOM     11  C   UNL     1      -2.134  -2.253  -0.751  1.00  0.00     0.318 C 
ATOM     12  O   UNL     1      -1.593  -1.914  -1.810  1.00  0.00    -0.249 OA
ATOM     13  N   UNL     1      -2.520  -3.533  -0.722  1.00  0.00    -0.332 N 
ATOM     14  H   UNL     1      -2.261  -3.986  -1.557  1.00  0.00     0.165 HD
BRANCH  13  15
ATOM     15  C   UNL     1      -3.206  -4.464   0.164  1.00  0.00     0.174 C 
BRANCH  15  16
ATOM     16  C   UNL     1      -4.515  -4.955  -0.419  1.00  0.00     0.063 A 
ATOM     17  C   UNL     1      -5.419  -4.073  -0.979  1.00  0.00     0.046 A 
ATOM     18  N   UNL     1      -4.773  -6.280  -0.339  1.00  0.00    -0.236 NA
ATOM     19  C   UNL     1      -6.598  -4.607  -1.438  1.00  0.00     0.115 A 
ATOM     20  C   UNL     1      -5.959  -6.707  -0.818  1.00  0.00     0.125 A 
ATOM     21  N   UNL     1      -6.894  -5.914  -1.373  1.00  0.00    -0.242 NA
ATOM     22  C   UNL     1      -6.247  -8.173  -0.746  1.00  0.00     0.089 C 
ENDBRANCH  15  16
ENDBRANCH  13  15
ENDBRANCH   7  11
ENDBRANCH   6   7
ENDBRANCH   3   6
ENDBRANCH   1   2
BRANCH   1  23
ATOM     23  C   UNL     1      -4.750   0.223  -1.475  1.00  0.00     0.023 C 
BRANCH  23  24
ATOM     24  C   UNL     1      -5.952  -0.117  -2.350  1.00  0.00     0.023 C 
BRANCH  24  25
ATOM     25  C   UNL     1      -7.159   0.791  -2.188  1.00  0.00     0.116 C 
BRANCH  25  26
ATOM     26  N   UNL     1      -6.859   2.204  -2.348  1.00  0.00    -0.352 N 
ATOM     27  C   UNL     1      -7.665   3.197  -2.852  1.00  0.00     0.251 C 
ATOM     28  H   UNL     1      -5.962   2.487  -2.057  1.00  0.00     0.163 HD
ATOM     29  O   UNL     1      -7.237   4.340  -2.976  1.00  0.00    -0.269 OA
BRANCH  27  30
ATOM     30  C   UNL     1      -9.034   2.863  -3.293  1.00  0.00     0.039 A 
ATOM     31  C   UNL     1      -9.454   3.295  -4.554  1.00  0.00     0.014 A 
ATOM     32  C   UNL     1      -9.879   2.090  -2.493  1.00  0.00     0.014 A 
ATOM     33  C   UNL     1     -10.696   2.888  -5.043  1.00  0.00     0.010 A 
ATOM     34  C   UNL     1     -11.081   1.623  -3.011  1.00  0.00     0.010 A 
ATOM     35  C   UNL     1     -11.500   2.017  -4.291  1.00  0.00    -0.014 A 
BRANCH  35  36
ATOM     36  C   UNL     1     -12.786   1.504  -4.820  1.00  0.00     0.031 A 
ATOM     37  C   UNL     1     -14.076   1.875  -4.148  1.00  0.00     0.074 A 
ATOM     38  C   UNL     1     -12.787   0.646  -5.858  1.00  0.00     0.049 A 
ATOM     39  N   UNL     1     -15.292   1.471  -4.415  1.00  0.00    -0.248 NA
ATOM     40  C   UNL     1     -13.984   2.802  -3.009  1.00  0.00     0.031 C 
ATOM     41  C   UNL     1     -11.599   0.180  -6.577  1.00  0.00     0.029 A 
ATOM     42  N   UNL     1     -13.827   0.009  -6.486  1.00  0.00    -0.354 N 
ATOM     43  C   UNL     1     -16.105   2.077  -3.465  1.00  0.00     0.074 A 
ATOM     44  C   UNL     1     -15.239   2.835  -2.588  1.00  0.00     0.031 C 
ATOM     45  C   UNL     1     -11.981  -0.642  -7.568  1.00  0.00     0.029 A 
ATOM     46  C   UNL     1     -13.432  -0.791  -7.529  1.00  0.00     0.049 A 
ATOM     47  H   UNL     1     -14.767   0.116  -6.214  1.00  0.00     0.167 HD
ATOM     48  C   UNL     1     -17.452   2.023  -3.343  1.00  0.00     0.031 A 
ATOM     49  C   UNL     1     -14.159  -1.560  -8.361  1.00  0.00     0.031 A 
ATOM     50  C   UNL     1     -18.315   1.280  -4.221  1.00  0.00     0.049 A 
ATOM     51  C   UNL     1     -15.650  -1.618  -8.197  1.00  0.00     0.074 A 
ATOM     52  C   UNL     1     -19.697   1.206  -4.214  1.00  0.00     0.029 A 
ATOM     53  N   UNL     1     -17.875   0.478  -5.263  1.00  0.00    -0.354 N 
ATOM     54  N   UNL     1     -16.410  -0.997  -7.328  1.00  0.00    -0.248 NA
ATOM     55  C   UNL     1     -16.384  -2.480  -9.135  1.00  0.00     0.031 C 
ATOM     56  C   UNL     1     -20.091   0.327  -5.229  1.00  0.00     0.029 A 
ATOM     57  C   UNL     1     -18.957  -0.110  -5.895  1.00  0.00     0.049 A 
ATOM     58  H   UNL     1     -16.933   0.347  -5.516  1.00  0.00     0.167 HD
ATOM     59  C   UNL     1     -17.712  -1.371  -7.630  1.00  0.00     0.074 A 
ATOM     60  C   UNL     1     -17.640  -2.266  -8.767  1.00  0.00     0.031 C 
ATOM     61  C   UNL     1     -18.866  -1.001  -7.022  1.00  0.00     0.031 A 
BRANCH  48  62
ATOM     62  C   UNL     1     -18.064   2.788  -2.204  1.00  0.00    -0.014 A 
ATOM     63  C   UNL     1     -18.089   4.193  -2.203  1.00  0.00     0.009 A 
ATOM     64  C   UNL     1     -18.618   2.098  -1.116  1.00  0.00     0.009 A 
ATOM     65  C   UNL     1     -18.614   4.890  -1.114  1.00  0.00     0.001 A 
ATOM     66  C   UNL     1     -19.169   2.798  -0.041  1.00  0.00     0.001 A 
ATOM     67  C   UNL     1     -19.155   4.192  -0.035  1.00  0.00     0.000 A 
ENDBRANCH  48  62
BRANCH  49  68
ATOM     68  C   UNL     1     -13.485  -2.311  -9.450  1.00  0.00    -0.014 A 
ATOM     69  C   UNL     1     -13.596  -1.873 -10.778  1.00  0.00     0.009 A 
ATOM     70  C   UNL     1     -12.718  -3.452  -9.170  1.00  0.00     0.009 A 
ATOM     71  C   UNL     1     -12.966  -2.574 -11.809  1.00  0.00     0.001 A 
ATOM     72  C   UNL     1     -12.071  -4.138 -10.201  1.00  0.00     0.001 A 
ATOM     73  C   UNL     1     -12.200  -3.702 -11.519  1.00  0.00     0.000 A 
ENDBRANCH  49  68
BRANCH  61  74
ATOM     74  C   UNL     1     -20.144  -1.539  -7.597  1.00  0.00    -0.014 A 
ATOM     75  C   UNL     1     -20.528  -2.873  -7.394  1.00  0.00     0.009 A 
ATOM     76  C   UNL     1     -20.994  -0.686  -8.319  1.00  0.00     0.009 A 
ATOM     77  C   UNL     1     -21.727  -3.350  -7.927  1.00  0.00     0.001 A 
ATOM     78  C   UNL     1     -22.203  -1.159  -8.830  1.00  0.00     0.001 A 
ATOM     79  C   UNL     1     -22.565  -2.492  -8.640  1.00  0.00     0.000 A 
ENDBRANCH  61  74
ENDBRANCH  35  36
ENDBRANCH  27  30
ENDBRANCH  25  26
ENDBRANCH  24  25
ENDBRANCH  23  24
ENDBRANCH   1  23
TORSDOF 17
