REMARK SMILES Cc1cc(C(=O)N[C@H]2C=C[C@H](C(=O)NCCCCNC(=O)c3ccc(-c4c5nc(c(-c6ccccc6)c6ccc([nH]6)c(-c6ccccc6)c6nc(c(-c7ccccc7)c7ccc4[nH]7)C=C6)C=C5)cc3)C2)ccc1F
REMARK SMILES IDX 16 1 15 2 14 3 12 4 13 5 11 7 8 8 9 9 70 10 10 11 7 12 5 13
REMARK SMILES IDX 6 14 4 16 1 17 2 18 3 19 73 20 72 21 74 22 71 23 17 24 18 25
REMARK SMILES IDX 19 26 20 27 21 29 22 30 23 31 69 32 24 33 68 34 25 35 26 36
REMARK SMILES IDX 27 37 62 38 28 39 67 40 61 41 63 42 29 43 66 44 60 45 59 46
REMARK SMILES IDX 30 48 52 49 37 50 51 51 38 52 41 53 50 54 64 55 39 56 40 57
REMARK SMILES IDX 49 59 65 60 42 61 31 62 32 63 36 64 33 65 35 66 34 67 53 68
REMARK SMILES IDX 54 69 58 70 55 71 57 72 56 73 43 74 44 75 48 76 45 77 47 78
REMARK SMILES IDX 46 79
REMARK H PARENT 14 6 7 15 19 28 63 47 41 58
REMARK Flexibility Score: inf
ROOT
ATOM      1  C   UNL     1       0.607   8.249   1.906  1.00  0.00     0.023 C 
ENDROOT
BRANCH   1   2
ATOM      2  C   UNL     1      -0.040   7.259   0.945  1.00  0.00     0.116 C 
BRANCH   2   3
ATOM      3  N   UNL     1       0.492   5.928   1.119  1.00  0.00    -0.356 N 
ATOM      4  C   UNL     1      -0.064   4.778   1.568  1.00  0.00     0.227 C 
ATOM      5  O   UNL     1       0.710   3.816   1.637  1.00  0.00    -0.274 OA
ATOM      6  H   UNL     1       1.438   5.840   0.863  1.00  0.00     0.163 HD
BRANCH   4   7
ATOM      7  C   UNL     1      -1.536   4.643   2.030  1.00  0.00     0.103 C 
ATOM      8  C   UNL     1      -2.534   3.371   0.246  1.00  0.00     0.106 C 
ATOM      9  C   UNL     1      -3.197   4.703   0.349  1.00  0.00    -0.006 C 
ATOM     10  C   UNL     1      -2.005   3.216   1.676  1.00  0.00     0.047 C 
ATOM     11  C   UNL     1      -2.623   5.417   1.328  1.00  0.00    -0.016 C 
BRANCH   8  12
ATOM     12  N   UNL     1      -3.445   2.343  -0.169  1.00  0.00    -0.346 N 
ATOM     13  C   UNL     1      -3.210   1.020  -0.464  1.00  0.00     0.251 C 
ATOM     14  O   UNL     1      -4.174   0.317  -0.768  1.00  0.00    -0.269 OA
ATOM     15  H   UNL     1      -4.383   2.629  -0.257  1.00  0.00     0.164 HD
BRANCH  13  16
ATOM     16  C   UNL     1      -1.859   0.387  -0.360  1.00  0.00     0.040 A 
ATOM     17  C   UNL     1       1.857   1.230  -0.406  1.00  0.00     0.047 C 
ATOM     18  C   UNL     1       0.584   0.443  -0.329  1.00  0.00    -0.015 A 
ATOM     19  C   UNL     1      -0.650   1.054  -0.595  1.00  0.00     0.020 A 
ATOM     20  C   UNL     1       0.599  -0.900   0.039  1.00  0.00     0.126 A 
ATOM     21  C   UNL     1      -0.584  -1.616   0.178  1.00  0.00     0.040 A 
ATOM     22  F   UNL     1       1.767  -1.518   0.263  1.00  0.00    -0.207 F 
ATOM     23  C   UNL     1      -1.811  -0.970  -0.002  1.00  0.00     0.017 A 
ENDBRANCH  13  16
ENDBRANCH   8  12
ENDBRANCH   4   7
ENDBRANCH   2   3
ENDBRANCH   1   2
BRANCH   1  24
ATOM     24  C   UNL     1       2.082   8.542   1.629  1.00  0.00     0.023 C 
BRANCH  24  25
ATOM     25  C   UNL     1       2.405   8.983   0.205  1.00  0.00     0.116 C 
BRANCH  25  26
ATOM     26  N   UNL     1       1.600  10.110  -0.243  1.00  0.00    -0.352 N 
ATOM     27  C   UNL     1       1.989  11.266  -0.876  1.00  0.00     0.251 C 
ATOM     28  H   UNL     1       0.634  10.032  -0.066  1.00  0.00     0.163 HD
ATOM     29  O   UNL     1       1.182  12.165  -1.068  1.00  0.00    -0.269 OA
BRANCH  27  30
ATOM     30  C   UNL     1       3.397  11.430  -1.294  1.00  0.00     0.039 A 
ATOM     31  C   UNL     1       4.047  12.631  -1.005  1.00  0.00     0.014 A 
ATOM     32  C   UNL     1       4.076  10.399  -1.949  1.00  0.00     0.014 A 
ATOM     33  C   UNL     1       5.401  12.772  -1.312  1.00  0.00     0.010 A 
ATOM     34  C   UNL     1       5.443  10.509  -2.176  1.00  0.00     0.010 A 
ATOM     35  C   UNL     1       6.120  11.698  -1.864  1.00  0.00    -0.014 A 
BRANCH  35  36
ATOM     36  C   UNL     1       7.578  11.806  -2.120  1.00  0.00     0.031 A 
ATOM     37  C   UNL     1       8.111  11.710  -3.523  1.00  0.00     0.074 A 
ATOM     38  C   UNL     1       8.427  11.943  -1.083  1.00  0.00     0.049 A 
ATOM     39  N   UNL     1       9.352  11.762  -3.939  1.00  0.00    -0.248 NA
ATOM     40  C   UNL     1       7.126  11.503  -4.597  1.00  0.00     0.031 C 
ATOM     41  C   UNL     1       8.041  12.002   0.330  1.00  0.00     0.029 A 
ATOM     42  N   UNL     1       9.795  12.059  -1.057  1.00  0.00    -0.354 N 
ATOM     43  C   UNL     1       9.295  11.585  -5.316  1.00  0.00     0.074 A 
ATOM     44  C   UNL     1       7.907  11.362  -5.657  1.00  0.00     0.031 C 
ATOM     45  C   UNL     1       9.141  12.183   1.079  1.00  0.00     0.029 A 
ATOM     46  C   UNL     1      10.311  12.210   0.207  1.00  0.00     0.049 A 
ATOM     47  H   UNL     1      10.353  12.035  -1.867  1.00  0.00     0.167 HD
ATOM     48  C   UNL     1      10.302  11.631  -6.220  1.00  0.00     0.031 A 
ATOM     49  C   UNL     1      11.585  12.355   0.619  1.00  0.00     0.031 A 
ATOM     50  C   UNL     1      11.682  11.855  -5.882  1.00  0.00     0.049 A 
ATOM     51  C   UNL     1      12.687  12.381  -0.404  1.00  0.00     0.074 A 
ATOM     52  C   UNL     1      12.770  11.965  -6.730  1.00  0.00     0.029 A 
ATOM     53  N   UNL     1      12.163  12.002  -4.591  1.00  0.00    -0.354 N 
ATOM     54  N   UNL     1      12.607  12.286  -1.709  1.00  0.00    -0.248 NA
ATOM     55  C   UNL     1      14.055  12.549   0.106  1.00  0.00     0.031 C 
ATOM     56  C   UNL     1      13.919  12.123  -5.947  1.00  0.00     0.029 A 
ATOM     57  C   UNL     1      13.537  12.177  -4.616  1.00  0.00     0.049 A 
ATOM     58  H   UNL     1      11.611  11.984  -3.776  1.00  0.00     0.167 HD
ATOM     59  C   UNL     1      13.908  12.415  -2.178  1.00  0.00     0.074 A 
ATOM     60  C   UNL     1      14.753  12.615  -1.018  1.00  0.00     0.031 C 
ATOM     61  C   UNL     1      14.364  12.374  -3.454  1.00  0.00     0.031 A 
BRANCH  48  62
ATOM     62  C   UNL     1       9.940  11.428  -7.667  1.00  0.00    -0.014 A 
ATOM     63  C   UNL     1       9.194  12.387  -8.371  1.00  0.00     0.009 A 
ATOM     64  C   UNL     1      10.376  10.279  -8.344  1.00  0.00     0.009 A 
ATOM     65  C   UNL     1       8.857  12.180  -9.710  1.00  0.00     0.001 A 
ATOM     66  C   UNL     1      10.065  10.089  -9.692  1.00  0.00     0.001 A 
ATOM     67  C   UNL     1       9.297  11.034 -10.371  1.00  0.00     0.000 A 
ENDBRANCH  48  62
BRANCH  49  68
ATOM     68  C   UNL     1      11.892  12.509   2.066  1.00  0.00    -0.014 A 
ATOM     69  C   UNL     1      12.370  13.729   2.568  1.00  0.00     0.009 A 
ATOM     70  C   UNL     1      11.727  11.431   2.951  1.00  0.00     0.009 A 
ATOM     71  C   UNL     1      12.710  13.857   3.917  1.00  0.00     0.001 A 
ATOM     72  C   UNL     1      12.037  11.572   4.305  1.00  0.00     0.001 A 
ATOM     73  C   UNL     1      12.539  12.780   4.785  1.00  0.00     0.000 A 
ENDBRANCH  49  68
BRANCH  61  74
ATOM     74  C   UNL     1      15.837  12.591  -3.664  1.00  0.00    -0.014 A 
ATOM     75  C   UNL     1      16.782  11.629  -3.276  1.00  0.00     0.009 A 
ATOM     76  C   UNL     1      16.281  13.769  -4.285  1.00  0.00     0.009 A 
ATOM     77  C   UNL     1      18.146  11.862  -3.469  1.00  0.00     0.001 A 
ATOM     78  C   UNL     1      17.642  13.984  -4.507  1.00  0.00     0.001 A 
ATOM     79  C   UNL     1      18.573  13.036  -4.088  1.00  0.00     0.000 A 
ENDBRANCH  61  74
ENDBRANCH  35  36
ENDBRANCH  27  30
ENDBRANCH  25  26
ENDBRANCH  24  25
ENDBRANCH   1  24
TORSDOF 13
