REMARK SMILES C[C@@H](C(=O)NCCCCNC(=O)c1ccc(-c2c3nc(c(-c4ccccc4)c4ccc([nH]4)c(-c4ccccc4)c4nc(c(-c5ccccc5)c5ccc2[nH]5)C=C4)C=C3)cc1)c1ccc(-c2cccc(OC(=O)NC3CC3)c2)c(F)c1
REMARK SMILES IDX 6 1 5 2 3 3 4 4 2 6 1 7 61 8 62 9 80 10 63 11 78 12 64 13
REMARK SMILES IDX 79 14 65 15 66 16 77 17 67 18 69 19 68 20 70 21 71 22 72 23
REMARK SMILES IDX 73 24 74 26 75 27 76 28 7 29 8 30 9 31 10 32 11 33 12 35
REMARK SMILES IDX 13 36 14 37 60 38 15 39 59 40 16 41 17 42 18 43 53 44 19 45
REMARK SMILES IDX 58 46 52 47 54 48 20 49 57 50 51 51 50 52 21 54 43 55 28 56
REMARK SMILES IDX 42 57 29 58 32 59 41 60 55 61 30 62 31 63 40 65 56 66 33 67
REMARK SMILES IDX 22 68 23 69 27 70 24 71 26 72 25 73 44 74 45 75 49 76 46 77
REMARK SMILES IDX 48 78 47 79 34 80 35 81 39 82 36 83 38 84 37 85
REMARK H PARENT 5 5 73 25 10 34 54 53 32 64
REMARK Flexibility Score: inf
ROOT
ATOM      1  C   UNL     1       3.443   0.819  -1.599  1.00  0.00     0.116 C 
ENDROOT
BRANCH   1   2
ATOM      2  N   UNL     1       2.405   0.439  -2.531  1.00  0.00    -0.356 N 
ATOM      3  C   UNL     1       1.069   0.270  -2.322  1.00  0.00     0.227 C 
ATOM      4  O   UNL     1       0.420  -0.201  -3.259  1.00  0.00    -0.274 OA
ATOM      5  H   UNL     1       2.708   0.279  -3.454  1.00  0.00     0.163 HD
BRANCH   3   6
ATOM      6  C   UNL     1       0.442   0.706  -0.989  1.00  0.00     0.105 C 
ATOM      7  C   UNL     1       0.843  -0.191   0.190  1.00  0.00     0.023 C 
BRANCH   6   8
ATOM      8  C   UNL     1      -1.076   0.772  -1.078  1.00  0.00    -0.033 A 
ATOM      9  C   UNL     1      -1.741   2.006  -1.051  1.00  0.00     0.005 A 
ATOM     10  C   UNL     1      -1.836  -0.403  -1.171  1.00  0.00     0.044 A 
ATOM     11  C   UNL     1      -3.138   2.058  -1.058  1.00  0.00     0.012 A 
ATOM     12  C   UNL     1      -3.222  -0.342  -1.174  1.00  0.00     0.131 A 
ATOM     13  C   UNL     1      -3.899   0.880  -1.089  1.00  0.00     0.018 A 
ATOM     14  F   UNL     1      -3.905  -1.496  -1.222  1.00  0.00    -0.206 F 
BRANCH  13  15
ATOM     15  C   UNL     1      -5.354   0.917  -0.922  1.00  0.00    -0.012 A 
ATOM     16  C   UNL     1      -6.198   1.561  -1.836  1.00  0.00     0.009 A 
ATOM     17  C   UNL     1      -5.920   0.299   0.206  1.00  0.00     0.056 A 
ATOM     18  C   UNL     1      -7.580   1.577  -1.632  1.00  0.00     0.004 A 
ATOM     19  C   UNL     1      -7.293   0.318   0.409  1.00  0.00     0.133 A 
ATOM     20  C   UNL     1      -8.128   0.955  -0.508  1.00  0.00     0.047 A 
BRANCH  19  21
ATOM     21  O   UNL     1      -7.937  -0.279   1.520  1.00  0.00    -0.410 OA
BRANCH  21  22
ATOM     22  C   UNL     1      -7.342  -1.100   2.474  1.00  0.00     0.412 C 
ATOM     23  O   UNL     1      -6.148  -1.375   2.560  1.00  0.00    -0.224 OA
ATOM     24  N   UNL     1      -8.224  -1.637   3.374  1.00  0.00    -0.318 N 
ATOM     25  H   UNL     1      -7.829  -2.258   4.028  1.00  0.00     0.167 HD
BRANCH  24  26
ATOM     26  C   UNL     1      -9.627  -1.433   3.506  1.00  0.00     0.085 C 
ATOM     27  C   UNL     1     -10.591  -1.066   2.416  1.00  0.00     0.027 C 
ATOM     28  C   UNL     1     -10.557  -2.471   2.931  1.00  0.00     0.027 C 
ENDBRANCH  24  26
ENDBRANCH  21  22
ENDBRANCH  19  21
ENDBRANCH  13  15
ENDBRANCH   6   8
ENDBRANCH   3   6
ENDBRANCH   1   2
BRANCH   1  29
ATOM     29  C   UNL     1       4.223  -0.411  -1.133  1.00  0.00     0.023 C 
BRANCH  29  30
ATOM     30  C   UNL     1       5.009  -1.113  -2.242  1.00  0.00     0.023 C 
BRANCH  30  31
ATOM     31  C   UNL     1       5.981  -0.219  -3.002  1.00  0.00     0.116 C 
BRANCH  31  32
ATOM     32  N   UNL     1       6.973   0.397  -2.133  1.00  0.00    -0.352 N 
ATOM     33  C   UNL     1       8.333   0.476  -2.303  1.00  0.00     0.251 C 
ATOM     34  H   UNL     1       6.621   0.812  -1.312  1.00  0.00     0.163 HD
ATOM     35  O   UNL     1       9.051   0.900  -1.404  1.00  0.00    -0.269 OA
BRANCH  33  36
ATOM     36  C   UNL     1       8.925   0.007  -3.570  1.00  0.00     0.039 A 
ATOM     37  C   UNL     1       9.984  -0.902  -3.525  1.00  0.00     0.014 A 
ATOM     38  C   UNL     1       8.392   0.418  -4.795  1.00  0.00     0.014 A 
ATOM     39  C   UNL     1      10.452  -1.470  -4.711  1.00  0.00     0.010 A 
ATOM     40  C   UNL     1       8.812  -0.202  -5.967  1.00  0.00     0.010 A 
ATOM     41  C   UNL     1       9.835  -1.163  -5.934  1.00  0.00    -0.014 A 
BRANCH  41  42
ATOM     42  C   UNL     1      10.205  -1.869  -7.187  1.00  0.00     0.031 A 
ATOM     43  C   UNL     1      10.784  -1.105  -8.344  1.00  0.00     0.074 A 
ATOM     44  C   UNL     1       9.927  -3.183  -7.313  1.00  0.00     0.049 A 
ATOM     45  N   UNL     1      11.066  -1.527  -9.550  1.00  0.00    -0.248 NA
ATOM     46  C   UNL     1      11.060   0.324  -8.126  1.00  0.00     0.031 C 
ATOM     47  C   UNL     1       9.329  -4.029  -6.276  1.00  0.00     0.029 A 
ATOM     48  N   UNL     1      10.091  -4.034  -8.378  1.00  0.00    -0.354 N 
ATOM     49  C   UNL     1      11.528  -0.413 -10.240  1.00  0.00     0.074 A 
ATOM     50  C   UNL     1      11.458   0.709  -9.330  1.00  0.00     0.031 C 
ATOM     51  C   UNL     1       9.188  -5.276  -6.753  1.00  0.00     0.029 A 
ATOM     52  C   UNL     1       9.633  -5.309  -8.141  1.00  0.00     0.049 A 
ATOM     53  H   UNL     1      10.498  -3.757  -9.231  1.00  0.00     0.167 HD
ATOM     54  C   UNL     1      11.977  -0.337 -11.514  1.00  0.00     0.031 A 
ATOM     55  C   UNL     1       9.554  -6.377  -8.957  1.00  0.00     0.031 A 
ATOM     56  C   UNL     1      12.057  -1.458 -12.412  1.00  0.00     0.049 A 
ATOM     57  C   UNL     1      10.032  -6.253 -10.378  1.00  0.00     0.074 A 
ATOM     58  C   UNL     1      12.577  -1.495 -13.695  1.00  0.00     0.029 A 
ATOM     59  N   UNL     1      11.594  -2.733 -12.130  1.00  0.00    -0.354 N 
ATOM     60  N   UNL     1      10.559  -5.216 -10.984  1.00  0.00    -0.248 NA
ATOM     61  C   UNL     1       9.906  -7.446 -11.228  1.00  0.00     0.031 C 
ATOM     62  C   UNL     1      12.360  -2.773 -14.216  1.00  0.00     0.029 A 
ATOM     63  C   UNL     1      11.770  -3.551 -13.233  1.00  0.00     0.049 A 
ATOM     64  H   UNL     1      11.198  -3.014 -11.274  1.00  0.00     0.167 HD
ATOM     65  C   UNL     1      10.848  -5.639 -12.275  1.00  0.00     0.074 A 
ATOM     66  C   UNL     1      10.460  -7.031 -12.359  1.00  0.00     0.031 C 
ATOM     67  C   UNL     1      11.382  -4.935 -13.302  1.00  0.00     0.031 A 
BRANCH  54  68
ATOM     68  C   UNL     1      12.402   1.008 -12.032  1.00  0.00    -0.014 A 
ATOM     69  C   UNL     1      13.578   1.629 -11.582  1.00  0.00     0.009 A 
ATOM     70  C   UNL     1      11.651   1.629 -13.043  1.00  0.00     0.009 A 
ATOM     71  C   UNL     1      13.979   2.855 -12.117  1.00  0.00     0.001 A 
ATOM     72  C   UNL     1      12.069   2.840 -13.596  1.00  0.00     0.001 A 
ATOM     73  C   UNL     1      13.229   3.455 -13.129  1.00  0.00     0.000 A 
ENDBRANCH  54  68
BRANCH  55  74
ATOM     74  C   UNL     1       8.969  -7.655  -8.468  1.00  0.00    -0.014 A 
ATOM     75  C   UNL     1       9.764  -8.804  -8.334  1.00  0.00     0.009 A 
ATOM     76  C   UNL     1       7.600  -7.742  -8.165  1.00  0.00     0.009 A 
ATOM     77  C   UNL     1       9.194 -10.019  -7.944  1.00  0.00     0.001 A 
ATOM     78  C   UNL     1       7.040  -8.949  -7.741  1.00  0.00     0.001 A 
ATOM     79  C   UNL     1       7.835 -10.090  -7.645  1.00  0.00     0.000 A 
ENDBRANCH  55  74
BRANCH  67  80
ATOM     80  C   UNL     1      11.606  -5.661 -14.598  1.00  0.00    -0.014 A 
ATOM     81  C   UNL     1      10.531  -6.025 -15.424  1.00  0.00     0.009 A 
ATOM     82  C   UNL     1      12.916  -5.928 -15.029  1.00  0.00     0.009 A 
ATOM     83  C   UNL     1      10.763  -6.663 -16.644  1.00  0.00     0.001 A 
ATOM     84  C   UNL     1      13.146  -6.536 -16.263  1.00  0.00     0.001 A 
ATOM     85  C   UNL     1      12.070  -6.910 -17.066  1.00  0.00     0.000 A 
ENDBRANCH  67  80
ENDBRANCH  41  42
ENDBRANCH  33  36
ENDBRANCH  31  32
ENDBRANCH  30  31
ENDBRANCH  29  30
ENDBRANCH   1  29
TORSDOF 16
