REMARK SMILES O=C(NCCCCNC(=O)[C@@H]1CS[C@@H](C2CC2)N1C(=O)Cc1ccn[nH]1)c1ccc(-c2c3nc(c(-c4ccccc4)c4ccc([nH]4)c(-c4ccccc4)c4nc(c(-c5ccccc5)c5ccc2[nH]5)C=C4)C=C3)cc1
REMARK SMILES IDX 6 1 5 2 4 3 3 4 1 5 2 6 27 8 28 9 74 10 29 11 73 12 30 13
REMARK SMILES IDX 31 14 32 15 67 16 33 17 72 18 66 19 68 20 34 21 71 22 65 23
REMARK SMILES IDX 64 24 35 26 57 27 42 28 56 29 43 30 46 31 55 32 69 33 44 34
REMARK SMILES IDX 45 35 54 37 70 38 47 39 36 40 37 41 41 42 38 43 40 44 39 45
REMARK SMILES IDX 58 46 59 47 63 48 60 49 62 50 61 51 48 52 49 53 53 54 50 55
REMARK SMILES IDX 52 56 51 57 7 58 8 59 9 60 10 62 11 63 12 64 18 65 13 66
REMARK SMILES IDX 14 67 19 68 20 69 21 70 22 71 23 72 26 73 24 74 25 75 15 77
REMARK SMILES IDX 16 78 17 79
REMARK H PARENT 3 7 68 25 46 36 8 61 26 76
REMARK Flexibility Score: inf
ROOT
ATOM      1  C   UNL     1       6.117   2.623  -5.584  1.00  0.00     0.023 C 
ENDROOT
BRANCH   1   2
ATOM      2  C   UNL     1       6.259   2.482  -7.100  1.00  0.00     0.023 C 
BRANCH   2   3
ATOM      3  C   UNL     1       7.626   2.018  -7.585  1.00  0.00     0.116 C 
BRANCH   3   4
ATOM      4  N   UNL     1       7.960   0.670  -7.154  1.00  0.00    -0.352 N 
ATOM      5  O   UNL     1       8.581  -1.488  -7.405  1.00  0.00    -0.269 OA
ATOM      6  C   UNL     1       8.474  -0.368  -7.897  1.00  0.00     0.251 C 
ATOM      7  H   UNL     1       7.796   0.473  -6.204  1.00  0.00     0.163 HD
BRANCH   6   8
ATOM      8  C   UNL     1       8.870  -0.137  -9.304  1.00  0.00     0.039 A 
ATOM      9  C   UNL     1       9.609   0.995  -9.653  1.00  0.00     0.014 A 
ATOM     10  C   UNL     1       8.487  -1.055 -10.286  1.00  0.00     0.014 A 
ATOM     11  C   UNL     1       9.832   1.284 -10.993  1.00  0.00     0.010 A 
ATOM     12  C   UNL     1       8.793  -0.807 -11.629  1.00  0.00     0.010 A 
ATOM     13  C   UNL     1       9.442   0.380 -11.996  1.00  0.00    -0.014 A 
BRANCH  13  14
ATOM     14  C   UNL     1       9.799   0.684 -13.405  1.00  0.00     0.031 A 
ATOM     15  C   UNL     1       8.748   0.966 -14.444  1.00  0.00     0.074 A 
ATOM     16  C   UNL     1      11.105   0.771 -13.726  1.00  0.00     0.049 A 
ATOM     17  N   UNL     1       8.908   1.335 -15.691  1.00  0.00    -0.248 NA
ATOM     18  C   UNL     1       7.342   0.813 -14.040  1.00  0.00     0.031 C 
ATOM     19  C   UNL     1      12.216   0.506 -12.807  1.00  0.00     0.029 A 
ATOM     20  N   UNL     1      11.721   1.144 -14.892  1.00  0.00    -0.354 N 
ATOM     21  C   UNL     1       7.630   1.448 -16.223  1.00  0.00     0.074 A 
ATOM     22  C   UNL     1       6.704   1.084 -15.172  1.00  0.00     0.031 C 
ATOM     23  C   UNL     1      13.372   0.790 -13.422  1.00  0.00     0.029 A 
ATOM     24  C   UNL     1      13.090   1.197 -14.793  1.00  0.00     0.049 A 
ATOM     25  H   UNL     1      11.230   1.353 -15.719  1.00  0.00     0.167 HD
ATOM     26  C   UNL     1       7.263   1.825 -17.472  1.00  0.00     0.031 A 
ATOM     27  C   UNL     1      14.022   1.530 -15.703  1.00  0.00     0.031 A 
ATOM     28  C   UNL     1       8.185   2.185 -18.519  1.00  0.00     0.049 A 
ATOM     29  C   UNL     1      13.584   1.934 -17.079  1.00  0.00     0.074 A 
ATOM     30  C   UNL     1       7.905   2.590 -19.814  1.00  0.00     0.029 A 
ATOM     31  N   UNL     1       9.565   2.185 -18.392  1.00  0.00    -0.354 N 
ATOM     32  N   UNL     1      12.368   2.054 -17.555  1.00  0.00    -0.248 NA
ATOM     33  C   UNL     1      14.647   2.248 -18.042  1.00  0.00     0.031 C 
ATOM     34  C   UNL     1       9.117   2.795 -20.482  1.00  0.00     0.029 A 
ATOM     35  C   UNL     1      10.150   2.565 -19.588  1.00  0.00     0.049 A 
ATOM     36  H   UNL     1      10.057   1.949 -17.572  1.00  0.00     0.167 HD
ATOM     37  C   UNL     1      12.520   2.459 -18.873  1.00  0.00     0.074 A 
ATOM     38  C   UNL     1      13.943   2.600 -19.108  1.00  0.00     0.031 C 
ATOM     39  C   UNL     1      11.567   2.683 -19.809  1.00  0.00     0.031 A 
BRANCH  26  40
ATOM     40  C   UNL     1       5.794   1.858 -17.789  1.00  0.00    -0.014 A 
ATOM     41  C   UNL     1       4.969   2.883 -17.300  1.00  0.00     0.009 A 
ATOM     42  C   UNL     1       5.242   0.892 -18.646  1.00  0.00     0.009 A 
ATOM     43  C   UNL     1       3.616   2.929 -17.648  1.00  0.00     0.001 A 
ATOM     44  C   UNL     1       3.895   0.954 -19.009  1.00  0.00     0.001 A 
ATOM     45  C   UNL     1       3.082   1.968 -18.506  1.00  0.00     0.000 A 
ENDBRANCH  26  40
BRANCH  27  46
ATOM     46  C   UNL     1      15.461   1.476 -15.344  1.00  0.00    -0.014 A 
ATOM     47  C   UNL     1      16.218   2.651 -15.228  1.00  0.00     0.009 A 
ATOM     48  C   UNL     1      16.085   0.239 -15.112  1.00  0.00     0.009 A 
ATOM     49  C   UNL     1      17.577   2.586 -14.911  1.00  0.00     0.001 A 
ATOM     50  C   UNL     1      17.434   0.180 -14.763  1.00  0.00     0.001 A 
ATOM     51  C   UNL     1      18.181   1.352 -14.673  1.00  0.00     0.000 A 
ENDBRANCH  27  46
BRANCH  39  52
ATOM     52  C   UNL     1      12.046   3.110 -21.166  1.00  0.00    -0.014 A 
ATOM     53  C   UNL     1      12.672   2.197 -22.031  1.00  0.00     0.009 A 
ATOM     54  C   UNL     1      11.871   4.437 -21.584  1.00  0.00     0.009 A 
ATOM     55  C   UNL     1      13.151   2.618 -23.272  1.00  0.00     0.001 A 
ATOM     56  C   UNL     1      12.328   4.848 -22.837  1.00  0.00     0.001 A 
ATOM     57  C   UNL     1      12.978   3.942 -23.674  1.00  0.00     0.000 A 
ENDBRANCH  39  52
ENDBRANCH  13  14
ENDBRANCH   6   8
ENDBRANCH   3   4
ENDBRANCH   2   3
ENDBRANCH   1   2
BRANCH   1  58
ATOM     58  C   UNL     1       7.120   3.571  -4.928  1.00  0.00     0.116 C 
BRANCH  58  59
ATOM     59  N   UNL     1       6.993   4.926  -5.433  1.00  0.00    -0.354 N 
ATOM     60  C   UNL     1       6.701   6.077  -4.757  1.00  0.00     0.243 C 
ATOM     61  H   UNL     1       7.138   5.031  -6.401  1.00  0.00     0.163 HD
ATOM     62  O   UNL     1       6.688   7.136  -5.394  1.00  0.00    -0.273 OA
BRANCH  60  63
ATOM     63  C   UNL     1       6.385   6.022  -3.240  1.00  0.00     0.185 C 
ATOM     64  C   UNL     1       4.951   5.576  -3.035  1.00  0.00     0.107 C 
ATOM     65  N   UNL     1       6.621   7.353  -2.658  1.00  0.00    -0.317 N 
ATOM     66  S   UNL     1       3.993   7.096  -2.922  1.00  0.00    -0.134 SA
ATOM     67  C   UNL     1       5.415   8.140  -2.402  1.00  0.00     0.147 C 
BRANCH  65  68
ATOM     68  C   UNL     1       7.944   7.765  -2.704  1.00  0.00     0.230 C 
ATOM     69  O   UNL     1       8.839   6.924  -2.877  1.00  0.00    -0.274 OA
BRANCH  68  70
ATOM     70  C   UNL     1       8.357   9.216  -2.558  1.00  0.00     0.155 C 
BRANCH  70  71
ATOM     71  C   UNL     1       7.742  10.181  -3.510  1.00  0.00     0.044 A 
ATOM     72  C   UNL     1       7.661  11.557  -3.423  1.00  0.00     0.045 A 
ATOM     73  N   UNL     1       7.160   9.854  -4.712  1.00  0.00    -0.282 N 
ATOM     74  C   UNL     1       6.945  11.952  -4.562  1.00  0.00     0.135 A 
ATOM     75  N   UNL     1       6.617  10.918  -5.335  1.00  0.00    -0.184 NA
ATOM     76  H   UNL     1       7.142   8.940  -5.078  1.00  0.00     0.190 HD
ENDBRANCH  70  71
ENDBRANCH  68  70
ENDBRANCH  65  68
BRANCH  67  77
ATOM     77  C   UNL     1       5.156   8.510  -0.952  1.00  0.00     0.022 C 
ATOM     78  C   UNL     1       6.190   8.617   0.148  1.00  0.00     0.007 C 
ATOM     79  C   UNL     1       5.621   9.865  -0.458  1.00  0.00     0.007 C 
ENDBRANCH  67  77
ENDBRANCH  60  63
ENDBRANCH  58  59
ENDBRANCH   1  58
TORSDOF 15
