REMARK SMILES O=C(/C=C/c1ccc(NC(=O)[C@@H]2COc3ccccc3C2)cc1)NCCCCNC(=O)c1ccc(-c2c3nc(c(-c4ccccc4)c4ccc([nH]4)c(-c4ccccc4)c4nc(c(-c5ccccc5)c5ccc2[nH]5)C=C4)C=C3)cc1
REMARK SMILES IDX 26 1 25 2 24 3 1 4 2 5 3 7 4 8 5 9 6 10 23 11 7 12 22 13
REMARK SMILES IDX 8 14 9 15 10 16 11 18 12 19 13 20 21 21 14 22 20 23 15 24
REMARK SMILES IDX 19 25 16 26 18 27 17 28 27 29 28 30 29 31 30 32 31 34 32 35
REMARK SMILES IDX 33 36 79 37 34 38 78 39 35 40 36 41 37 42 72 43 38 44 77 45
REMARK SMILES IDX 71 46 73 47 39 48 76 49 70 50 69 51 40 53 62 54 47 55 61 56
REMARK SMILES IDX 48 57 51 58 60 59 74 60 49 61 50 62 59 64 75 65 52 66 41 67
REMARK SMILES IDX 42 68 46 69 43 70 45 71 44 72 63 73 64 74 68 75 65 76 67 77
REMARK SMILES IDX 66 78 53 79 54 80 58 81 55 82 57 83 56 84
REMARK H PARENT 24 6 9 17 29 33 73 52 51 63
REMARK Flexibility Score: inf
ROOT
ATOM      1  C   UNL     1       6.169  11.906   6.923  1.00  0.00     0.023 C 
ENDROOT
BRANCH   1   2
ATOM      2  C   UNL     1       7.624  12.316   6.692  1.00  0.00     0.116 C 
BRANCH   2   3
ATOM      3  N   UNL     1       8.227  11.645   5.558  1.00  0.00    -0.353 N 
ATOM      4  O   UNL     1       8.423  13.501   4.220  1.00  0.00    -0.270 OA
ATOM      5  C   UNL     1       8.594  12.302   4.408  1.00  0.00     0.243 C 
ATOM      6  H   UNL     1       8.382  10.674   5.614  1.00  0.00     0.163 HD
BRANCH   5   7
ATOM      7  C   UNL     1       9.281  11.490   3.357  1.00  0.00     0.072 C 
ATOM      8  C   UNL     1       9.351  10.151   3.347  1.00  0.00     0.014 C 
BRANCH   8   9
ATOM      9  C   UNL     1       9.978   9.278   2.340  1.00  0.00    -0.025 A 
ATOM     10  C   UNL     1       9.673   7.915   2.441  1.00  0.00     0.010 A 
ATOM     11  C   UNL     1      10.857   9.687   1.327  1.00  0.00     0.010 A 
ATOM     12  C   UNL     1      10.166   7.001   1.517  1.00  0.00     0.027 A 
ATOM     13  C   UNL     1      11.347   8.761   0.385  1.00  0.00     0.027 A 
ATOM     14  C   UNL     1      10.929   7.433   0.440  1.00  0.00     0.041 A 
BRANCH  14  15
ATOM     15  N   UNL     1      11.283   6.503  -0.547  1.00  0.00    -0.326 N 
ATOM     16  C   UNL     1      10.434   5.555  -1.105  1.00  0.00     0.231 C 
ATOM     17  H   UNL     1      12.212   6.524  -0.872  1.00  0.00     0.169 HD
ATOM     18  O   UNL     1      10.873   4.470  -1.482  1.00  0.00    -0.274 OA
BRANCH  16  19
ATOM     19  C   UNL     1       9.075   6.087  -1.559  1.00  0.00     0.121 C 
ATOM     20  C   UNL     1       7.906   6.351  -0.619  1.00  0.00     0.243 C 
ATOM     21  C   UNL     1       8.422   5.302  -2.707  1.00  0.00     0.056 C 
ATOM     22  O   UNL     1       7.030   7.348  -1.187  1.00  0.00    -0.492 OA
ATOM     23  C   UNL     1       7.523   6.330  -3.357  1.00  0.00    -0.005 A 
ATOM     24  C   UNL     1       6.990   7.362  -2.561  1.00  0.00     0.122 A 
ATOM     25  C   UNL     1       7.435   6.409  -4.747  1.00  0.00     0.007 A 
ATOM     26  C   UNL     1       6.553   8.541  -3.152  1.00  0.00     0.047 A 
ATOM     27  C   UNL     1       6.988   7.592  -5.335  1.00  0.00     0.001 A 
ATOM     28  C   UNL     1       6.597   8.671  -4.539  1.00  0.00     0.004 A 
ENDBRANCH  16  19
ENDBRANCH  14  15
ENDBRANCH   8   9
ENDBRANCH   5   7
ENDBRANCH   2   3
ENDBRANCH   1   2
BRANCH   1  29
ATOM     29  C   UNL     1       5.930  10.414   7.176  1.00  0.00     0.023 C 
BRANCH  29  30
ATOM     30  C   UNL     1       6.698   9.801   8.345  1.00  0.00     0.116 C 
BRANCH  30  31
ATOM     31  N   UNL     1       6.336  10.370   9.633  1.00  0.00    -0.352 N 
ATOM     32  C   UNL     1       5.963   9.744  10.798  1.00  0.00     0.251 C 
ATOM     33  H   UNL     1       6.363  11.353   9.678  1.00  0.00     0.163 HD
ATOM     34  O   UNL     1       5.572  10.416  11.754  1.00  0.00    -0.269 OA
BRANCH  32  35
ATOM     35  C   UNL     1       5.994   8.268  10.911  1.00  0.00     0.039 A 
ATOM     36  C   UNL     1       4.918   7.618  11.524  1.00  0.00     0.014 A 
ATOM     37  C   UNL     1       7.074   7.522  10.432  1.00  0.00     0.014 A 
ATOM     38  C   UNL     1       4.890   6.221  11.586  1.00  0.00     0.010 A 
ATOM     39  C   UNL     1       7.009   6.129  10.426  1.00  0.00     0.010 A 
ATOM     40  C   UNL     1       5.916   5.462  10.999  1.00  0.00    -0.014 A 
BRANCH  40  41
ATOM     41  C   UNL     1       5.850   3.977  10.960  1.00  0.00     0.031 A 
ATOM     42  C   UNL     1       6.888   3.145  11.664  1.00  0.00     0.074 A 
ATOM     43  C   UNL     1       4.889   3.370  10.235  1.00  0.00     0.049 A 
ATOM     44  N   UNL     1       7.022   1.842  11.694  1.00  0.00    -0.248 NA
ATOM     45  C   UNL     1       7.925   3.872  12.413  1.00  0.00     0.031 C 
ATOM     46  C   UNL     1       3.838   4.054   9.477  1.00  0.00     0.029 A 
ATOM     47  N   UNL     1       4.641   2.037  10.013  1.00  0.00    -0.354 N 
ATOM     48  C   UNL     1       8.163   1.596  12.448  1.00  0.00     0.074 A 
ATOM     49  C   UNL     1       8.712   2.884  12.814  1.00  0.00     0.031 C 
ATOM     50  C   UNL     1       3.042   3.139   8.903  1.00  0.00     0.029 A 
ATOM     51  C   UNL     1       3.551   1.806   9.208  1.00  0.00     0.049 A 
ATOM     52  H   UNL     1       5.192   1.316  10.394  1.00  0.00     0.167 HD
ATOM     53  C   UNL     1       8.698   0.407  12.818  1.00  0.00     0.031 A 
ATOM     54  C   UNL     1       3.022   0.651   8.759  1.00  0.00     0.031 A 
ATOM     55  C   UNL     1       8.152  -0.875  12.459  1.00  0.00     0.049 A 
ATOM     56  C   UNL     1       3.655  -0.654   9.156  1.00  0.00     0.074 A 
ATOM     57  C   UNL     1       8.591  -2.134  12.835  1.00  0.00     0.029 A 
ATOM     58  N   UNL     1       7.053  -1.065  11.636  1.00  0.00    -0.354 N 
ATOM     59  N   UNL     1       4.692  -0.869   9.928  1.00  0.00    -0.248 NA
ATOM     60  C   UNL     1       3.035  -1.877   8.626  1.00  0.00     0.031 C 
ATOM     61  C   UNL     1       7.798  -3.085  12.185  1.00  0.00     0.029 A 
ATOM     62  C   UNL     1       6.821  -2.420  11.463  1.00  0.00     0.049 A 
ATOM     63  H   UNL     1       6.518  -0.344  11.233  1.00  0.00     0.167 HD
ATOM     64  C   UNL     1       4.828  -2.250  10.003  1.00  0.00     0.074 A 
ATOM     65  C   UNL     1       3.759  -2.820   9.210  1.00  0.00     0.031 C 
ATOM     66  C   UNL     1       5.756  -2.978  10.671  1.00  0.00     0.031 A 
BRANCH  53  67
ATOM     67  C   UNL     1       9.956   0.439  13.645  1.00  0.00    -0.014 A 
ATOM     68  C   UNL     1       9.949   0.899  14.972  1.00  0.00     0.009 A 
ATOM     69  C   UNL     1      11.160  -0.036  13.100  1.00  0.00     0.009 A 
ATOM     70  C   UNL     1      11.127   0.921  15.720  1.00  0.00     0.001 A 
ATOM     71  C   UNL     1      12.330  -0.044  13.862  1.00  0.00     0.001 A 
ATOM     72  C   UNL     1      12.315   0.445  15.167  1.00  0.00     0.000 A 
ENDBRANCH  53  67
BRANCH  54  73
ATOM     73  C   UNL     1       1.816   0.671   7.887  1.00  0.00    -0.014 A 
ATOM     74  C   UNL     1       0.587   0.189   8.361  1.00  0.00     0.009 A 
ATOM     75  C   UNL     1       1.890   1.159   6.573  1.00  0.00     0.009 A 
ATOM     76  C   UNL     1      -0.535   0.167   7.529  1.00  0.00     0.001 A 
ATOM     77  C   UNL     1       0.759   1.167   5.754  1.00  0.00     0.001 A 
ATOM     78  C   UNL     1      -0.449   0.660   6.229  1.00  0.00     0.000 A 
ENDBRANCH  54  73
BRANCH  66  79
ATOM     79  C   UNL     1       5.633  -4.476  10.609  1.00  0.00    -0.014 A 
ATOM     80  C   UNL     1       5.906  -5.188   9.430  1.00  0.00     0.009 A 
ATOM     81  C   UNL     1       5.274  -5.190  11.764  1.00  0.00     0.009 A 
ATOM     82  C   UNL     1       5.787  -6.579   9.402  1.00  0.00     0.001 A 
ATOM     83  C   UNL     1       5.189  -6.582  11.742  1.00  0.00     0.001 A 
ATOM     84  C   UNL     1       5.435  -7.275  10.558  1.00  0.00     0.000 A 
ENDBRANCH  66  79
ENDBRANCH  40  41
ENDBRANCH  32  35
ENDBRANCH  30  31
ENDBRANCH  29  30
ENDBRANCH   1  29
TORSDOF 14
