REMARK SMILES Cc1ccc(C)c(N2C(=O)S[C@H](CC(=O)Nc3ccc(C(=O)NCCCCNC(=O)c4ccc(-c5c6nc(c(-c7ccccc7)c7ccc([nH]7)c(-c7ccccc7)c7nc(c(-c8ccccc8)c8ccc5[nH]8)C=C7)C=C6)cc4)c(O)c3)C2=O)c1
REMARK SMILES IDX 24 1 23 2 21 3 22 4 20 6 17 7 18 8 81 9 19 10 79 11 16 12
REMARK SMILES IDX 14 13 15 14 13 16 12 17 8 18 9 19 82 20 10 21 11 22 83 23
REMARK SMILES IDX 7 24 1 25 2 26 3 27 84 28 4 29 5 30 6 31 80 32 25 34 26 35
REMARK SMILES IDX 27 36 28 37 29 38 30 40 31 41 32 42 78 43 33 44 77 45 34 46
REMARK SMILES IDX 35 47 36 48 71 49 37 50 76 51 70 52 72 53 38 54 75 55 69 56
REMARK SMILES IDX 68 57 39 59 61 60 46 61 60 62 47 63 50 64 59 65 73 66 48 67
REMARK SMILES IDX 49 68 58 70 74 71 51 72 40 73 41 74 45 75 42 76 44 77 43 78
REMARK SMILES IDX 62 79 63 80 67 81 64 82 66 83 65 84 52 85 53 86 57 87 54 88
REMARK SMILES IDX 56 89 55 90
REMARK H PARENT 23 5 16 15 80 33 28 39 72 58 50 69
REMARK Flexibility Score: inf
ROOT
ATOM      1  C   UNL     1       2.933   7.489  -2.524  1.00  0.00     0.116 C 
ENDROOT
BRANCH   1   2
ATOM      2  N   UNL     1       2.311   6.466  -3.342  1.00  0.00    -0.352 N 
ATOM      3  C   UNL     1       0.975   6.162  -3.524  1.00  0.00     0.255 C 
ATOM      4  O   UNL     1       0.694   5.368  -4.423  1.00  0.00    -0.269 OA
ATOM      5  H   UNL     1       2.938   5.899  -3.847  1.00  0.00     0.163 HD
BRANCH   3   6
ATOM      6  C   UNL     1      -0.116   6.651  -2.624  1.00  0.00     0.081 A 
ATOM      7  C   UNL     1      -1.993   7.100  -0.562  1.00  0.00     0.044 A 
ATOM      8  C   UNL     1      -2.115   6.016  -1.420  1.00  0.00     0.027 A 
ATOM      9  C   UNL     1      -1.095   8.100  -0.909  1.00  0.00     0.073 A 
ATOM     10  C   UNL     1      -1.162   5.753  -2.401  1.00  0.00     0.020 A 
ATOM     11  C   UNL     1      -0.203   7.889  -1.975  1.00  0.00     0.130 A 
BRANCH   7  12
ATOM     12  N   UNL     1      -2.813   7.209   0.575  1.00  0.00    -0.326 N 
ATOM     13  C   UNL     1      -3.290   6.186   1.372  1.00  0.00     0.226 C 
ATOM     14  O   UNL     1      -4.265   6.373   2.100  1.00  0.00    -0.275 OA
ATOM     15  H   UNL     1      -3.078   8.121   0.834  1.00  0.00     0.169 HD
BRANCH  13  16
ATOM     16  C   UNL     1      -2.459   4.912   1.500  1.00  0.00     0.125 C 
BRANCH  16  17
ATOM     17  C   UNL     1      -3.228   3.597   1.388  1.00  0.00     0.156 C 
ATOM     18  N   UNL     1      -1.759   1.965   0.423  1.00  0.00    -0.240 N 
ATOM     19  C   UNL     1      -2.379   2.401  -0.727  1.00  0.00     0.293 C 
ATOM     20  C   UNL     1      -2.253   2.448   1.622  1.00  0.00     0.248 C 
ATOM     21  O   UNL     1      -2.037   2.259  -1.875  1.00  0.00    -0.261 OA
ATOM     22  S   UNL     1      -3.854   3.253  -0.283  1.00  0.00    -0.050 SA
ATOM     23  O   UNL     1      -1.951   2.057   2.745  1.00  0.00    -0.273 OA
BRANCH  18  24
ATOM     24  C   UNL     1      -0.899   0.846   0.359  1.00  0.00     0.056 A 
ATOM     25  C   UNL     1       2.845   0.093   0.105  1.00  0.00     0.044 C 
ATOM     26  C   UNL     1       1.353  -0.068   0.177  1.00  0.00    -0.049 A 
ATOM     27  C   UNL     1       0.807  -1.352   0.084  1.00  0.00     0.004 A 
ATOM     28  C   UNL     1       0.494   1.032   0.330  1.00  0.00     0.030 A 
ATOM     29  C   UNL     1      -0.574  -1.539   0.118  1.00  0.00     0.006 A 
ATOM     30  C   UNL     1      -1.444  -0.448   0.243  1.00  0.00    -0.027 A 
ATOM     31  C   UNL     1      -2.921  -0.733   0.247  1.00  0.00     0.046 C 
ENDBRANCH  18  24
ENDBRANCH  16  17
ENDBRANCH  13  16
ENDBRANCH   7  12
BRANCH  11  32
ATOM     32  O   UNL     1       0.509   8.988  -2.369  1.00  0.00    -0.507 OA
ATOM     33  H   UNL     1       1.123   8.920  -3.074  1.00  0.00     0.293 HD
ENDBRANCH  11  32
ENDBRANCH   3   6
ENDBRANCH   1   2
BRANCH   1  34
ATOM     34  C   UNL     1       4.366   7.248  -2.058  1.00  0.00     0.023 C 
BRANCH  34  35
ATOM     35  C   UNL     1       5.513   6.983  -3.040  1.00  0.00     0.023 C 
BRANCH  35  36
ATOM     36  C   UNL     1       5.625   7.776  -4.337  1.00  0.00     0.116 C 
BRANCH  36  37
ATOM     37  N   UNL     1       5.467   9.225  -4.203  1.00  0.00    -0.352 N 
ATOM     38  C   UNL     1       5.028  10.165  -5.127  1.00  0.00     0.251 C 
ATOM     39  H   UNL     1       5.708   9.590  -3.321  1.00  0.00     0.163 HD
ATOM     40  O   UNL     1       5.335  11.346  -4.994  1.00  0.00    -0.269 OA
BRANCH  38  41
ATOM     41  C   UNL     1       4.190   9.751  -6.273  1.00  0.00     0.039 A 
ATOM     42  C   UNL     1       4.149  10.448  -7.484  1.00  0.00     0.014 A 
ATOM     43  C   UNL     1       3.423   8.609  -6.127  1.00  0.00     0.014 A 
ATOM     44  C   UNL     1       3.392   9.926  -8.539  1.00  0.00     0.010 A 
ATOM     45  C   UNL     1       2.917   7.967  -7.218  1.00  0.00     0.010 A 
ATOM     46  C   UNL     1       2.789   8.664  -8.401  1.00  0.00    -0.014 A 
BRANCH  46  47
ATOM     47  C   UNL     1       2.043   8.019  -9.474  1.00  0.00     0.031 A 
ATOM     48  C   UNL     1       2.734   7.970 -10.779  1.00  0.00     0.074 A 
ATOM     49  C   UNL     1       0.897   7.322  -9.299  1.00  0.00     0.049 A 
ATOM     50  N   UNL     1       2.477   8.687 -11.819  1.00  0.00    -0.248 NA
ATOM     51  C   UNL     1       3.916   7.107 -10.909  1.00  0.00     0.031 C 
ATOM     52  C   UNL     1       0.225   6.953  -8.044  1.00  0.00     0.029 A 
ATOM     53  N   UNL     1       0.135   6.694 -10.238  1.00  0.00    -0.354 N 
ATOM     54  C   UNL     1       3.324   8.220 -12.813  1.00  0.00     0.074 A 
ATOM     55  C   UNL     1       4.304   7.390 -12.155  1.00  0.00     0.031 C 
ATOM     56  C   UNL     1      -0.691   5.990  -8.281  1.00  0.00     0.029 A 
ATOM     57  C   UNL     1      -0.817   5.830  -9.715  1.00  0.00     0.049 A 
ATOM     58  H   UNL     1       0.250   6.841 -11.205  1.00  0.00     0.167 HD
ATOM     59  C   UNL     1       2.990   8.333 -14.127  1.00  0.00     0.031 A 
ATOM     60  C   UNL     1      -1.669   5.043 -10.408  1.00  0.00     0.031 A 
ATOM     61  C   UNL     1       1.853   9.202 -14.316  1.00  0.00     0.049 A 
ATOM     62  C   UNL     1      -1.790   5.615 -11.763  1.00  0.00     0.074 A 
ATOM     63  C   UNL     1       1.571  10.529 -14.067  1.00  0.00     0.029 A 
ATOM     64  N   UNL     1       0.644   8.572 -14.486  1.00  0.00    -0.354 N 
ATOM     65  N   UNL     1      -2.369   6.753 -12.015  1.00  0.00    -0.248 NA
ATOM     66  C   UNL     1      -0.970   5.083 -12.840  1.00  0.00     0.031 C 
ATOM     67  C   UNL     1       0.188  10.563 -13.715  1.00  0.00     0.029 A 
ATOM     68  C   UNL     1      -0.320   9.266 -13.803  1.00  0.00     0.049 A 
ATOM     69  H   UNL     1       0.495   7.754 -15.014  1.00  0.00     0.167 HD
ATOM     70  C   UNL     1      -1.645   7.287 -13.067  1.00  0.00     0.074 A 
ATOM     71  C   UNL     1      -0.933   6.152 -13.641  1.00  0.00     0.031 C 
ATOM     72  C   UNL     1      -1.466   8.636 -13.176  1.00  0.00     0.031 A 
BRANCH  59  73
ATOM     73  C   UNL     1       3.385   7.326 -15.180  1.00  0.00    -0.014 A 
ATOM     74  C   UNL     1       3.054   7.591 -16.521  1.00  0.00     0.009 A 
ATOM     75  C   UNL     1       3.809   6.018 -14.881  1.00  0.00     0.009 A 
ATOM     76  C   UNL     1       3.088   6.585 -17.494  1.00  0.00     0.001 A 
ATOM     77  C   UNL     1       3.887   5.021 -15.857  1.00  0.00     0.001 A 
ATOM     78  C   UNL     1       3.500   5.298 -17.160  1.00  0.00     0.000 A 
ENDBRANCH  59  73
BRANCH  60  79
ATOM     79  C   UNL     1      -2.306   3.768 -10.032  1.00  0.00    -0.014 A 
ATOM     80  C   UNL     1      -3.435   3.310 -10.728  1.00  0.00     0.009 A 
ATOM     81  C   UNL     1      -1.643   2.867  -9.181  1.00  0.00     0.009 A 
ATOM     82  C   UNL     1      -3.846   1.976 -10.629  1.00  0.00     0.001 A 
ATOM     83  C   UNL     1      -2.058   1.536  -9.078  1.00  0.00     0.001 A 
ATOM     84  C   UNL     1      -3.146   1.085  -9.820  1.00  0.00     0.000 A 
ENDBRANCH  60  79
BRANCH  72  85
ATOM     85  C   UNL     1      -2.388   9.524 -12.373  1.00  0.00    -0.014 A 
ATOM     86  C   UNL     1      -2.469   9.488 -10.969  1.00  0.00     0.009 A 
ATOM     87  C   UNL     1      -3.139  10.492 -13.055  1.00  0.00     0.009 A 
ATOM     88  C   UNL     1      -3.312  10.363 -10.276  1.00  0.00     0.001 A 
ATOM     89  C   UNL     1      -3.962  11.383 -12.361  1.00  0.00     0.001 A 
ATOM     90  C   UNL     1      -4.056  11.312 -10.973  1.00  0.00     0.000 A 
ENDBRANCH  72  85
ENDBRANCH  46  47
ENDBRANCH  38  41
ENDBRANCH  36  37
ENDBRANCH  35  36
ENDBRANCH  34  35
ENDBRANCH   1  34
TORSDOF 16
