REMARK SMILES C[C@@H](C(=O)NCCCCNC(=O)c1ccc(-c2c3nc(c(-c4ccccc4)c4ccc([nH]4)c(-c4ccccc4)c4nc(c(-c5ccccc5)c5ccc2[nH]5)C=C4)C=C3)cc1)c1cc(/C=C/S(C)(=O)=O)cc(C(=O)c2ccccc2)c1
REMARK SMILES IDX 7 1 6 2 5 3 3 4 4 5 2 7 1 8 61 9 62 10 80 11 63 12 71 13
REMARK SMILES IDX 70 14 64 15 65 16 66 17 67 18 68 19 69 20 72 21 73 22 74 23
REMARK SMILES IDX 75 24 79 25 76 26 78 27 77 28 8 29 9 30 10 31 11 32 12 34
REMARK SMILES IDX 13 35 14 36 60 37 15 38 59 39 16 40 17 41 18 42 53 43 19 44
REMARK SMILES IDX 58 45 52 46 54 47 20 48 57 49 51 50 50 51 21 53 43 54 28 55
REMARK SMILES IDX 42 56 29 57 32 58 41 59 55 60 30 61 31 62 40 64 56 65 33 66
REMARK SMILES IDX 22 67 23 68 27 69 24 70 26 71 25 72 44 73 45 74 49 75 46 76
REMARK SMILES IDX 48 77 47 78 34 79 35 80 39 81 36 82 38 83 37 84
REMARK H PARENT 5 6 10 33 54 52 32 63
REMARK Flexibility Score: inf
ROOT
ATOM      1  C   UNL     1       4.344  -1.175  -0.580  1.00  0.00     0.023 C 
ENDROOT
BRANCH   1   2
ATOM      2  C   UNL     1       3.587  -0.559  -1.759  1.00  0.00     0.116 C 
BRANCH   2   3
ATOM      3  N   UNL     1       2.581  -1.461  -2.275  1.00  0.00    -0.356 N 
ATOM      4  C   UNL     1       1.222  -1.413  -2.205  1.00  0.00     0.227 C 
ATOM      5  O   UNL     1       0.632  -2.292  -2.837  1.00  0.00    -0.274 OA
ATOM      6  H   UNL     1       2.939  -2.241  -2.757  1.00  0.00     0.163 HD
BRANCH   4   7
ATOM      7  C   UNL     1       0.513  -0.282  -1.434  1.00  0.00     0.105 C 
ATOM      8  C   UNL     1       0.875  -0.240   0.057  1.00  0.00     0.023 C 
BRANCH   7   9
ATOM      9  C   UNL     1      -1.018  -0.308  -1.477  1.00  0.00    -0.035 A 
ATOM     10  C   UNL     1      -1.723   0.903  -1.379  1.00  0.00     0.012 A 
ATOM     11  C   UNL     1      -1.742  -1.502  -1.410  1.00  0.00     0.016 A 
ATOM     12  C   UNL     1      -3.110   0.936  -1.166  1.00  0.00    -0.024 A 
ATOM     13  C   UNL     1      -3.128  -1.506  -1.229  1.00  0.00     0.023 A 
ATOM     14  C   UNL     1      -3.806  -0.284  -1.112  1.00  0.00     0.020 A 
BRANCH  12  15
ATOM     15  C   UNL     1      -3.845   2.196  -0.930  1.00  0.00     0.020 C 
ATOM     16  C   UNL     1      -3.268   3.396  -0.753  1.00  0.00     0.106 C 
BRANCH  16  17
ATOM     17  S   UNL     1      -4.226   4.795  -0.380  1.00  0.00     0.168 S 
ATOM     18  C   UNL     1      -3.395   5.400   1.071  1.00  0.00     0.163 C 
ATOM     19  O   UNL     1      -4.018   5.777  -1.428  1.00  0.00    -0.225 OA
ATOM     20  O   UNL     1      -5.562   4.406   0.022  1.00  0.00    -0.225 OA
ENDBRANCH  16  17
ENDBRANCH  12  15
BRANCH  13  21
ATOM     21  C   UNL     1      -3.892  -2.789  -1.150  1.00  0.00     0.193 C 
ATOM     22  O   UNL     1      -5.118  -2.786  -1.205  1.00  0.00    -0.289 OA
BRANCH  21  23
ATOM     23  C   UNL     1      -3.186  -4.092  -1.048  1.00  0.00     0.022 A 
ATOM     24  C   UNL     1      -3.435  -5.066  -2.018  1.00  0.00     0.012 A 
ATOM     25  C   UNL     1      -2.257  -4.336  -0.027  1.00  0.00     0.012 A 
ATOM     26  C   UNL     1      -2.714  -6.262  -2.000  1.00  0.00     0.001 A 
ATOM     27  C   UNL     1      -1.532  -5.529  -0.019  1.00  0.00     0.001 A 
ATOM     28  C   UNL     1      -1.756  -6.487  -1.010  1.00  0.00     0.000 A 
ENDBRANCH  21  23
ENDBRANCH  13  21
ENDBRANCH   7   9
ENDBRANCH   4   7
ENDBRANCH   2   3
ENDBRANCH   1   2
BRANCH   1  29
ATOM     29  C   UNL     1       5.108  -2.461  -0.907  1.00  0.00     0.023 C 
BRANCH  29  30
ATOM     30  C   UNL     1       6.056  -2.367  -2.096  1.00  0.00     0.116 C 
BRANCH  30  31
ATOM     31  N   UNL     1       7.047  -1.315  -1.941  1.00  0.00    -0.352 N 
ATOM     32  C   UNL     1       8.409  -1.371  -2.108  1.00  0.00     0.251 C 
ATOM     33  H   UNL     1       6.691  -0.435  -1.679  1.00  0.00     0.163 HD
ATOM     34  O   UNL     1       9.108  -0.415  -1.789  1.00  0.00    -0.269 OA
BRANCH  32  35
ATOM     35  C   UNL     1       9.032  -2.602  -2.635  1.00  0.00     0.039 A 
ATOM     36  C   UNL     1      10.141  -3.129  -1.970  1.00  0.00     0.014 A 
ATOM     37  C   UNL     1       8.507  -3.251  -3.756  1.00  0.00     0.014 A 
ATOM     38  C   UNL     1      10.671  -4.353  -2.378  1.00  0.00     0.010 A 
ATOM     39  C   UNL     1       8.991  -4.506  -4.117  1.00  0.00     0.010 A 
ATOM     40  C   UNL     1      10.069  -5.076  -3.422  1.00  0.00    -0.014 A 
BRANCH  40  41
ATOM     41  C   UNL     1      10.518  -6.451  -3.756  1.00  0.00     0.031 A 
ATOM     42  C   UNL     1      11.110  -6.760  -5.103  1.00  0.00     0.074 A 
ATOM     43  C   UNL     1      10.329  -7.440  -2.859  1.00  0.00     0.049 A 
ATOM     44  N   UNL     1      11.510  -7.911  -5.580  1.00  0.00    -0.248 NA
ATOM     45  C   UNL     1      11.254  -5.636  -6.042  1.00  0.00     0.031 C 
ATOM     46  C   UNL     1       9.727  -7.279  -1.532  1.00  0.00     0.029 A 
ATOM     47  N   UNL     1      10.617  -8.781  -2.929  1.00  0.00    -0.354 N 
ATOM     48  C   UNL     1      11.943  -7.654  -6.875  1.00  0.00     0.074 A 
ATOM     49  C   UNL     1      11.717  -6.246  -7.124  1.00  0.00     0.031 C 
ATOM     50  C   UNL     1       9.715  -8.466  -0.906  1.00  0.00     0.029 A 
ATOM     51  C   UNL     1      10.261  -9.481  -1.800  1.00  0.00     0.049 A 
ATOM     52  H   UNL     1      11.039  -9.201  -3.713  1.00  0.00     0.167 HD
ATOM     53  C   UNL     1      12.492  -8.509  -7.769  1.00  0.00     0.031 A 
ATOM     54  C   UNL     1      10.348 -10.795  -1.521  1.00  0.00     0.031 A 
ATOM     55  C   UNL     1      12.720  -9.909  -7.519  1.00  0.00     0.049 A 
ATOM     56  C   UNL     1      10.932 -11.726  -2.549  1.00  0.00     0.074 A 
ATOM     57  C   UNL     1      13.328 -10.840  -8.343  1.00  0.00     0.029 A 
ATOM     58  N   UNL     1      12.341 -10.579  -6.368  1.00  0.00    -0.354 N 
ATOM     59  N   UNL     1      11.415 -11.448  -3.735  1.00  0.00    -0.248 NA
ATOM     60  C   UNL     1      10.987 -13.151  -2.194  1.00  0.00     0.031 C 
ATOM     61  C   UNL     1      13.258 -12.088  -7.718  1.00  0.00     0.029 A 
ATOM     62  C   UNL     1      12.667 -11.921  -6.476  1.00  0.00     0.049 A 
ATOM     63  H   UNL     1      11.905 -10.164  -5.589  1.00  0.00     0.167 HD
ATOM     64  C   UNL     1      11.854 -12.658  -4.257  1.00  0.00     0.074 A 
ATOM     65  C   UNL     1      11.604 -13.666  -3.248  1.00  0.00     0.031 C 
ATOM     66  C   UNL     1      12.410 -12.914  -5.466  1.00  0.00     0.031 A 
BRANCH  53  67
ATOM     67  C   UNL     1      12.883  -7.964  -9.115  1.00  0.00    -0.014 A 
ATOM     68  C   UNL     1      13.983  -7.106  -9.261  1.00  0.00     0.009 A 
ATOM     69  C   UNL     1      12.187  -8.378 -10.262  1.00  0.00     0.009 A 
ATOM     70  C   UNL     1      14.366  -6.656 -10.527  1.00  0.00     0.001 A 
ATOM     71  C   UNL     1      12.589  -7.950 -11.528  1.00  0.00     0.001 A 
ATOM     72  C   UNL     1      13.674  -7.084 -11.659  1.00  0.00     0.000 A 
ENDBRANCH  53  67
BRANCH  54  73
ATOM     73  C   UNL     1       9.858 -11.323  -0.219  1.00  0.00    -0.014 A 
ATOM     74  C   UNL     1      10.753 -11.867   0.716  1.00  0.00     0.009 A 
ATOM     75  C   UNL     1       8.486 -11.323   0.078  1.00  0.00     0.009 A 
ATOM     76  C   UNL     1      10.280 -12.434   1.902  1.00  0.00     0.001 A 
ATOM     77  C   UNL     1       8.020 -11.858   1.280  1.00  0.00     0.001 A 
ATOM     78  C   UNL     1       8.915 -12.426   2.184  1.00  0.00     0.000 A 
ENDBRANCH  54  73
BRANCH  66  79
ATOM     79  C   UNL     1      12.811 -14.335  -5.751  1.00  0.00    -0.014 A 
ATOM     80  C   UNL     1      11.850 -15.335  -5.963  1.00  0.00     0.009 A 
ATOM     81  C   UNL     1      14.171 -14.668  -5.844  1.00  0.00     0.009 A 
ATOM     82  C   UNL     1      12.244 -16.649  -6.223  1.00  0.00     0.001 A 
ATOM     83  C   UNL     1      14.562 -15.975  -6.138  1.00  0.00     0.001 A 
ATOM     84  C   UNL     1      13.599 -16.966  -6.317  1.00  0.00     0.000 A 
ENDBRANCH  66  79
ENDBRANCH  40  41
ENDBRANCH  32  35
ENDBRANCH  30  31
ENDBRANCH  29  30
ENDBRANCH   1  29
TORSDOF 16
