REMARK SMILES [NH3+][C@H](CSCc1ccco1)C(=O)NCCCCNC(=O)c1ccc(-c2c3nc(c(-c4ccccc4)c4ccc([nH]4)c(-c4ccccc4)c4nc(c(-c5ccccc5)c5ccc2[nH]5)C=C4)C=C3)cc1
REMARK SMILES IDX 14 1 13 2 11 3 12 4 2 6 1 7 3 11 4 12 5 13 6 14 7 15 10 16
REMARK SMILES IDX 8 17 9 18 15 19 16 20 17 21 18 22 19 23 20 25 21 26 22 27
REMARK SMILES IDX 68 28 23 29 67 30 24 31 25 32 26 33 61 34 27 35 66 36 60 37
REMARK SMILES IDX 62 38 28 39 65 40 59 41 58 42 29 44 51 45 36 46 50 47 37 48
REMARK SMILES IDX 40 49 49 50 63 51 38 52 39 53 48 55 64 56 41 57 30 58 31 59
REMARK SMILES IDX 35 60 32 61 34 62 33 63 52 64 53 65 57 66 54 67 56 68 55 69
REMARK SMILES IDX 42 70 43 71 47 72 44 73 46 74 45 75
REMARK H PARENT 13 5 1 8 1 9 1 10 18 24 62 43 40 54
REMARK Flexibility Score: inf
ROOT
ATOM      1  C   UNL     1      -0.742  -2.718   0.021  1.00  0.00     0.116 C 
ENDROOT
BRANCH   1   2
ATOM      2  N   UNL     1      -1.432  -1.715  -0.775  1.00  0.00    -0.351 N 
ATOM      3  C   UNL     1      -1.014  -0.579  -1.403  1.00  0.00     0.279 C 
ATOM      4  O   UNL     1      -1.895   0.127  -1.909  1.00  0.00    -0.268 OA
ATOM      5  H   UNL     1      -2.394  -1.892  -0.883  1.00  0.00     0.163 HD
BRANCH   3   6
ATOM      6  C   UNL     1       0.453  -0.126  -1.444  1.00  0.00     0.280 C 
BRANCH   6   7
ATOM      7  N   UNL     1       1.367  -1.193  -1.907  1.00  0.00    -0.347 N 
ATOM      8  H   UNL     1       0.940  -1.691  -2.688  1.00  0.00     0.345 HD
ATOM      9  H   UNL     1       1.542  -1.846  -1.143  1.00  0.00     0.345 HD
ATOM     10  H   UNL     1       2.249  -0.779  -2.209  1.00  0.00     0.345 HD
ENDBRANCH   6   7
BRANCH   6  11
ATOM     11  C   UNL     1       0.935   0.739  -0.258  1.00  0.00     0.145 C 
BRANCH  11  12
ATOM     12  S   UNL     1       0.586   0.288   1.471  1.00  0.00    -0.147 SA
BRANCH  12  13
ATOM     13  C   UNL     1      -1.183   0.728   1.634  1.00  0.00     0.145 C 
BRANCH  13  14
ATOM     14  C   UNL     1      -1.437   2.180   1.732  1.00  0.00     0.113 A 
ATOM     15  C   UNL     1      -1.644   3.175   0.799  1.00  0.00     0.046 A 
ATOM     16  O   UNL     1      -1.598   2.682   2.990  1.00  0.00    -0.468 OA
ATOM     17  C   UNL     1      -1.925   4.353   1.530  1.00  0.00     0.042 A 
ATOM     18  C   UNL     1      -1.892   3.999   2.858  1.00  0.00     0.195 A 
ENDBRANCH  13  14
ENDBRANCH  12  13
ENDBRANCH  11  12
ENDBRANCH   6  11
ENDBRANCH   3   6
ENDBRANCH   1   2
BRANCH   1  19
ATOM     19  C   UNL     1      -1.208  -2.788   1.478  1.00  0.00     0.023 C 
BRANCH  19  20
ATOM     20  C   UNL     1      -2.716  -2.824   1.696  1.00  0.00     0.023 C 
BRANCH  20  21
ATOM     21  C   UNL     1      -3.384  -4.051   1.103  1.00  0.00     0.116 C 
BRANCH  21  22
ATOM     22  N   UNL     1      -2.843  -5.280   1.666  1.00  0.00    -0.352 N 
ATOM     23  C   UNL     1      -3.466  -6.244   2.417  1.00  0.00     0.251 C 
ATOM     24  H   UNL     1      -1.890  -5.443   1.480  1.00  0.00     0.163 HD
ATOM     25  O   UNL     1      -2.805  -7.073   3.031  1.00  0.00    -0.269 OA
BRANCH  23  26
ATOM     26  C   UNL     1      -4.940  -6.273   2.478  1.00  0.00     0.039 A 
ATOM     27  C   UNL     1      -5.571  -6.548   3.693  1.00  0.00     0.014 A 
ATOM     28  C   UNL     1      -5.693  -6.033   1.326  1.00  0.00     0.014 A 
ATOM     29  C   UNL     1      -6.964  -6.530   3.759  1.00  0.00     0.010 A 
ATOM     30  C   UNL     1      -7.070  -5.911   1.417  1.00  0.00     0.010 A 
ATOM     31  C   UNL     1      -7.721  -6.183   2.628  1.00  0.00    -0.014 A 
BRANCH  31  32
ATOM     32  C   UNL     1      -9.200  -6.131   2.668  1.00  0.00     0.031 A 
ATOM     33  C   UNL     1     -10.000  -7.054   1.789  1.00  0.00     0.074 A 
ATOM     34  C   UNL     1      -9.815  -5.209   3.433  1.00  0.00     0.049 A 
ATOM     35  N   UNL     1     -11.295  -7.114   1.616  1.00  0.00    -0.248 NA
ATOM     36  C   UNL     1      -9.242  -8.014   0.967  1.00  0.00     0.031 C 
ATOM     37  C   UNL     1      -9.143  -4.230   4.290  1.00  0.00     0.029 A 
ATOM     38  N   UNL     1     -11.149  -4.943   3.607  1.00  0.00    -0.354 N 
ATOM     39  C   UNL     1     -11.500  -8.090   0.649  1.00  0.00     0.074 A 
ATOM     40  C   UNL     1     -10.198  -8.557   0.231  1.00  0.00     0.031 C 
ATOM     41  C   UNL     1     -10.069  -3.496   4.928  1.00  0.00     0.029 A 
ATOM     42  C   UNL     1     -11.394  -3.921   4.491  1.00  0.00     0.049 A 
ATOM     43  H   UNL     1     -11.862  -5.437   3.142  1.00  0.00     0.167 HD
ATOM     44  C   UNL     1     -12.669  -8.574   0.170  1.00  0.00     0.031 A 
ATOM     45  C   UNL     1     -12.560  -3.388   4.901  1.00  0.00     0.031 A 
ATOM     46  C   UNL     1     -13.961  -8.124   0.611  1.00  0.00     0.049 A 
ATOM     47  C   UNL     1     -13.845  -3.945   4.355  1.00  0.00     0.074 A 
ATOM     48  C   UNL     1     -15.209  -8.595   0.244  1.00  0.00     0.029 A 
ATOM     49  N   UNL     1     -14.168  -7.098   1.520  1.00  0.00    -0.354 N 
ATOM     50  N   UNL     1     -14.025  -4.920   3.497  1.00  0.00    -0.248 NA
ATOM     51  C   UNL     1     -15.088  -3.333   4.844  1.00  0.00     0.031 C 
ATOM     52  C   UNL     1     -16.173  -7.816   0.892  1.00  0.00     0.029 A 
ATOM     53  C   UNL     1     -15.524  -6.902   1.708  1.00  0.00     0.049 A 
ATOM     54  H   UNL     1     -13.455  -6.585   1.965  1.00  0.00     0.167 HD
ATOM     55  C   UNL     1     -15.400  -5.060   3.367  1.00  0.00     0.074 A 
ATOM     56  C   UNL     1     -16.005  -4.080   4.246  1.00  0.00     0.031 C 
ATOM     57  C   UNL     1     -16.102  -5.922   2.590  1.00  0.00     0.031 A 
BRANCH  44  58
ATOM     58  C   UNL     1     -12.599  -9.641  -0.887  1.00  0.00    -0.014 A 
ATOM     59  C   UNL     1     -12.131 -10.933  -0.593  1.00  0.00     0.009 A 
ATOM     60  C   UNL     1     -13.030  -9.359  -2.193  1.00  0.00     0.009 A 
ATOM     61  C   UNL     1     -12.059 -11.906  -1.592  1.00  0.00     0.001 A 
ATOM     62  C   UNL     1     -12.988 -10.344  -3.182  1.00  0.00     0.001 A 
ATOM     63  C   UNL     1     -12.493 -11.612  -2.884  1.00  0.00     0.000 A 
ENDBRANCH  44  58
BRANCH  45  64
ATOM     64  C   UNL     1     -12.568  -2.284   5.897  1.00  0.00    -0.014 A 
ATOM     65  C   UNL     1     -13.039  -2.509   7.200  1.00  0.00     0.009 A 
ATOM     66  C   UNL     1     -12.112  -1.002   5.553  1.00  0.00     0.009 A 
ATOM     67  C   UNL     1     -13.082  -1.466   8.128  1.00  0.00     0.001 A 
ATOM     68  C   UNL     1     -12.128   0.031   6.492  1.00  0.00     0.001 A 
ATOM     69  C   UNL     1     -12.623  -0.199   7.775  1.00  0.00     0.000 A 
ENDBRANCH  45  64
BRANCH  57  70
ATOM     70  C   UNL     1     -17.599  -5.868   2.688  1.00  0.00    -0.014 A 
ATOM     71  C   UNL     1     -18.329  -4.799   2.147  1.00  0.00     0.009 A 
ATOM     72  C   UNL     1     -18.291  -6.929   3.295  1.00  0.00     0.009 A 
ATOM     73  C   UNL     1     -19.721  -4.777   2.242  1.00  0.00     0.001 A 
ATOM     74  C   UNL     1     -19.684  -6.920   3.360  1.00  0.00     0.001 A 
ATOM     75  C   UNL     1     -20.397  -5.840   2.843  1.00  0.00     0.000 A 
ENDBRANCH  57  70
ENDBRANCH  31  32
ENDBRANCH  23  26
ENDBRANCH  21  22
ENDBRANCH  20  21
ENDBRANCH  19  20
ENDBRANCH   1  19
TORSDOF 16
