REMARK SMILES O=C(NCCCCNC(=O)c1cccc(NC(=O)c2ccc(N3C(=O)CCC3=O)cc2)c1)c1ccc(-c2c3nc(c(-c4ccccc4)c4ccc([nH]4)c(-c4ccccc4)c4nc(c(-c5ccccc5)c5ccc2[nH]5)C=C4)C=C3)cc1
REMARK SMILES IDX 6 1 5 2 4 3 3 4 1 5 2 6 33 8 34 9 80 10 35 11 79 12 36 13
REMARK SMILES IDX 37 14 38 15 73 16 39 17 78 18 72 19 74 20 40 21 77 22 71 23
REMARK SMILES IDX 70 24 41 26 63 27 48 28 62 29 49 30 52 31 61 32 75 33 50 34
REMARK SMILES IDX 51 35 60 37 76 38 53 39 42 40 43 41 47 42 44 43 46 44 45 45
REMARK SMILES IDX 64 46 65 47 69 48 66 49 68 50 67 51 54 52 55 53 59 54 56 55
REMARK SMILES IDX 58 56 57 57 7 58 8 59 9 60 10 62 11 63 12 64 32 65 13 66
REMARK SMILES IDX 15 67 14 68 16 69 17 70 18 72 19 73 20 74 31 75 21 76 30 77
REMARK SMILES IDX 22 78 23 79 24 80 28 81 25 82 26 83 27 84 29 85
REMARK H PARENT 3 7 74 25 52 36 8 61 16 71
REMARK Flexibility Score: inf
ROOT
ATOM      1  C   UNL     1       4.439   3.327  -2.070  1.00  0.00     0.023 C 
ENDROOT
BRANCH   1   2
ATOM      2  C   UNL     1       4.906   1.882  -1.920  1.00  0.00     0.023 C 
BRANCH   2   3
ATOM      3  C   UNL     1       4.586   1.237  -0.579  1.00  0.00     0.116 C 
BRANCH   3   4
ATOM      4  N   UNL     1       3.158   1.124  -0.332  1.00  0.00    -0.352 N 
ATOM      5  O   UNL     1       1.191   0.063  -0.018  1.00  0.00    -0.269 OA
ATOM      6  C   UNL     1       2.409   0.001  -0.060  1.00  0.00     0.251 C 
ATOM      7  H   UNL     1       2.655   1.970  -0.362  1.00  0.00     0.163 HD
BRANCH   6   8
ATOM      8  C   UNL     1       3.097  -1.292   0.151  1.00  0.00     0.039 A 
ATOM      9  C   UNL     1       4.221  -1.370   0.975  1.00  0.00     0.014 A 
ATOM     10  C   UNL     1       2.616  -2.434  -0.495  1.00  0.00     0.014 A 
ATOM     11  C   UNL     1       4.953  -2.549   1.029  1.00  0.00     0.010 A 
ATOM     12  C   UNL     1       3.300  -3.645  -0.360  1.00  0.00     0.010 A 
ATOM     13  C   UNL     1       4.491  -3.705   0.380  1.00  0.00    -0.014 A 
BRANCH  13  14
ATOM     14  C   UNL     1       5.231  -4.979   0.561  1.00  0.00     0.031 A 
ATOM     15  C   UNL     1       5.894  -5.674  -0.595  1.00  0.00     0.074 A 
ATOM     16  C   UNL     1       5.322  -5.492   1.803  1.00  0.00     0.049 A 
ATOM     17  N   UNL     1       6.599  -6.778  -0.592  1.00  0.00    -0.248 NA
ATOM     18  C   UNL     1       5.747  -5.060  -1.923  1.00  0.00     0.031 C 
ATOM     19  C   UNL     1       4.714  -4.908   3.003  1.00  0.00     0.029 A 
ATOM     20  N   UNL     1       5.974  -6.603   2.269  1.00  0.00    -0.354 N 
ATOM     21  C   UNL     1       6.963  -7.002  -1.914  1.00  0.00     0.074 A 
ATOM     22  C   UNL     1       6.381  -5.932  -2.696  1.00  0.00     0.031 C 
ATOM     23  C   UNL     1       5.068  -5.634   4.072  1.00  0.00     0.029 A 
ATOM     24  C   UNL     1       5.863  -6.771   3.628  1.00  0.00     0.049 A 
ATOM     25  H   UNL     1       6.474  -7.220   1.688  1.00  0.00     0.167 HD
ATOM     26  C   UNL     1       7.716  -8.006  -2.425  1.00  0.00     0.031 A 
ATOM     27  C   UNL     1       6.330  -7.744   4.431  1.00  0.00     0.031 A 
ATOM     28  C   UNL     1       8.289  -9.071  -1.642  1.00  0.00     0.049 A 
ATOM     29  C   UNL     1       7.124  -8.864   3.829  1.00  0.00     0.074 A 
ATOM     30  C   UNL     1       9.091 -10.118  -2.066  1.00  0.00     0.029 A 
ATOM     31  N   UNL     1       8.114  -9.231  -0.276  1.00  0.00    -0.354 N 
ATOM     32  N   UNL     1       7.488  -9.040   2.583  1.00  0.00    -0.248 NA
ATOM     33  C   UNL     1       7.570  -9.920   4.746  1.00  0.00     0.031 C 
ATOM     34  C   UNL     1       9.354 -10.941  -0.966  1.00  0.00     0.029 A 
ATOM     35  C   UNL     1       8.768 -10.375   0.154  1.00  0.00     0.049 A 
ATOM     36  H   UNL     1       7.601  -8.623   0.303  1.00  0.00     0.167 HD
ATOM     37  C   UNL     1       8.221 -10.217   2.567  1.00  0.00     0.074 A 
ATOM     38  C   UNL     1       8.270 -10.699   3.933  1.00  0.00     0.031 C 
ATOM     39  C   UNL     1       8.800 -10.845   1.515  1.00  0.00     0.031 A 
BRANCH  26  40
ATOM     40  C   UNL     1       7.943  -8.022  -3.913  1.00  0.00    -0.014 A 
ATOM     41  C   UNL     1       8.786  -7.088  -4.535  1.00  0.00     0.009 A 
ATOM     42  C   UNL     1       7.346  -9.023  -4.697  1.00  0.00     0.009 A 
ATOM     43  C   UNL     1       9.002  -7.139  -5.915  1.00  0.00     0.001 A 
ATOM     44  C   UNL     1       7.586  -9.088  -6.071  1.00  0.00     0.001 A 
ATOM     45  C   UNL     1       8.407  -8.141  -6.680  1.00  0.00     0.000 A 
ENDBRANCH  26  40
BRANCH  27  46
ATOM     46  C   UNL     1       6.036  -7.705   5.886  1.00  0.00    -0.014 A 
ATOM     47  C   UNL     1       7.058  -7.471   6.818  1.00  0.00     0.009 A 
ATOM     48  C   UNL     1       4.723  -7.889   6.349  1.00  0.00     0.009 A 
ATOM     49  C   UNL     1       6.774  -7.446   8.185  1.00  0.00     0.001 A 
ATOM     50  C   UNL     1       4.437  -7.829   7.714  1.00  0.00     0.001 A 
ATOM     51  C   UNL     1       5.464  -7.618   8.631  1.00  0.00     0.000 A 
ENDBRANCH  27  46
BRANCH  39  52
ATOM     52  C   UNL     1       9.559 -12.108   1.812  1.00  0.00    -0.014 A 
ATOM     53  C   UNL     1       8.893 -13.294   2.157  1.00  0.00     0.009 A 
ATOM     54  C   UNL     1      10.960 -12.112   1.726  1.00  0.00     0.009 A 
ATOM     55  C   UNL     1       9.620 -14.451   2.447  1.00  0.00     0.001 A 
ATOM     56  C   UNL     1      11.681 -13.277   1.986  1.00  0.00     0.001 A 
ATOM     57  C   UNL     1      11.011 -14.443   2.357  1.00  0.00     0.000 A 
ENDBRANCH  39  52
ENDBRANCH  13  14
ENDBRANCH   6   8
ENDBRANCH   3   4
ENDBRANCH   2   3
ENDBRANCH   1   2
BRANCH   1  58
ATOM     58  C   UNL     1       4.847   4.261  -0.935  1.00  0.00     0.116 C 
BRANCH  58  59
ATOM     59  N   UNL     1       6.283   4.265  -0.710  1.00  0.00    -0.352 N 
ATOM     60  C   UNL     1       7.178   5.301  -0.753  1.00  0.00     0.251 C 
ATOM     61  H   UNL     1       6.673   3.387  -0.493  1.00  0.00     0.163 HD
ATOM     62  O   UNL     1       8.383   5.067  -0.719  1.00  0.00    -0.269 OA
BRANCH  60  63
ATOM     63  C   UNL     1       6.707   6.695  -0.852  1.00  0.00     0.041 A 
ATOM     64  C   UNL     1       7.351   7.544  -1.751  1.00  0.00     0.014 A 
ATOM     65  C   UNL     1       5.669   7.173  -0.039  1.00  0.00     0.040 A 
ATOM     66  C   UNL     1       6.954   8.871  -1.831  1.00  0.00     0.003 A 
ATOM     67  C   UNL     1       5.203   8.482  -0.179  1.00  0.00     0.042 A 
ATOM     68  C   UNL     1       5.898   9.335  -1.039  1.00  0.00     0.026 A 
BRANCH  67  69
ATOM     69  N   UNL     1       4.051   8.820   0.565  1.00  0.00    -0.322 N 
ATOM     70  C   UNL     1       3.182   9.889   0.524  1.00  0.00     0.255 C 
ATOM     71  H   UNL     1       3.821   8.155   1.254  1.00  0.00     0.170 HD
ATOM     72  O   UNL     1       2.265   9.979   1.336  1.00  0.00    -0.269 OA
BRANCH  70  73
ATOM     73  C   UNL     1       3.327  10.936  -0.493  1.00  0.00     0.040 A 
ATOM     74  C   UNL     1       3.834  12.168  -0.093  1.00  0.00     0.016 A 
ATOM     75  C   UNL     1       3.086  10.667  -1.841  1.00  0.00     0.016 A 
ATOM     76  C   UNL     1       4.241  13.082  -1.065  1.00  0.00     0.027 A 
ATOM     77  C   UNL     1       3.482  11.600  -2.808  1.00  0.00     0.027 A 
ATOM     78  C   UNL     1       4.128  12.793  -2.438  1.00  0.00     0.052 A 
BRANCH  78  79
ATOM     79  N   UNL     1       4.709  13.662  -3.408  1.00  0.00    -0.251 N 
ATOM     80  C   UNL     1       4.342  13.724  -4.732  1.00  0.00     0.234 C 
ATOM     81  C   UNL     1       5.788  14.478  -3.145  1.00  0.00     0.234 C 
ATOM     82  O   UNL     1       3.477  13.092  -5.324  1.00  0.00    -0.274 OA
ATOM     83  C   UNL     1       5.153  14.784  -5.415  1.00  0.00     0.111 C 
ATOM     84  C   UNL     1       6.172  15.212  -4.391  1.00  0.00     0.111 C 
ATOM     85  O   UNL     1       6.444  14.580  -2.116  1.00  0.00    -0.274 OA
ENDBRANCH  78  79
ENDBRANCH  70  73
ENDBRANCH  67  69
ENDBRANCH  60  63
ENDBRANCH  58  59
ENDBRANCH   1  58
TORSDOF 14
