REMARK SMILES CS(=O)(=O)c1ccc(C(=O)N2C[C@@H](C(=O)NCCCCNC(=O)c3ccc(-c4c5nc(c(-c6ccccc6)c6ccc([nH]6)c(-c6ccccc6)c6nc(c(-c7ccccc7)c7ccc4[nH]7)C=C6)C=C5)cc3)[C@H](c3ccncc3)C2)cc1
REMARK SMILES IDX 18 1 17 2 16 3 14 4 15 5 13 7 11 8 12 9 79 10 72 11 9 12
REMARK SMILES IDX 10 13 8 14 5 15 6 16 81 17 7 18 80 19 2 20 1 21 3 22 4 23
REMARK SMILES IDX 73 24 74 25 78 26 75 27 77 28 76 29 19 30 20 31 21 32 22 33
REMARK SMILES IDX 23 35 24 36 25 37 71 38 26 39 70 40 27 41 28 42 29 43 64 44
REMARK SMILES IDX 30 45 69 46 63 47 65 48 31 49 68 50 62 51 61 52 32 54 54 55
REMARK SMILES IDX 39 56 53 57 40 58 43 59 52 60 66 61 41 62 42 63 51 65 67 66
REMARK SMILES IDX 44 67 33 68 34 69 38 70 35 71 37 72 36 73 55 74 56 75 60 76
REMARK SMILES IDX 57 77 59 78 58 79 45 80 46 81 50 82 47 83 49 84 48 85
REMARK H PARENT 16 6 21 34 65 53 43 64
REMARK Flexibility Score: inf
ROOT
ATOM      1  C   UNL     1       0.574  11.839   5.412  1.00  0.00     0.023 C 
ENDROOT
BRANCH   1   2
ATOM      2  C   UNL     1       0.034  10.463   5.019  1.00  0.00     0.116 C 
BRANCH   2   3
ATOM      3  N   UNL     1      -0.298  10.435   3.607  1.00  0.00    -0.356 N 
ATOM      4  C   UNL     1       0.223   9.744   2.566  1.00  0.00     0.225 C 
ATOM      5  O   UNL     1      -0.231  10.003   1.447  1.00  0.00    -0.275 OA
ATOM      6  H   UNL     1      -1.042  11.030   3.360  1.00  0.00     0.163 HD
BRANCH   4   7
ATOM      7  C   UNL     1       1.266   8.656   2.715  1.00  0.00     0.107 C 
ATOM      8  N   UNL     1       1.858   6.728   3.842  1.00  0.00    -0.337 N 
ATOM      9  C   UNL     1       0.677   7.434   3.397  1.00  0.00     0.134 C 
ATOM     10  C   UNL     1       2.857   7.680   4.286  1.00  0.00     0.129 C 
ATOM     11  C   UNL     1       2.584   8.977   3.475  1.00  0.00     0.053 C 
BRANCH   8  12
ATOM     12  C   UNL     1       2.088   5.368   3.917  1.00  0.00     0.253 C 
ATOM     13  O   UNL     1       2.889   4.888   4.718  1.00  0.00    -0.269 OA
BRANCH  12  14
ATOM     14  C   UNL     1       1.458   4.456   2.921  1.00  0.00     0.040 A 
ATOM     15  C   UNL     1       0.619   2.616   0.982  1.00  0.00     0.067 A 
ATOM     16  C   UNL     1       0.829   2.188   2.295  1.00  0.00     0.021 A 
ATOM     17  C   UNL     1       0.817   3.954   0.633  1.00  0.00     0.021 A 
ATOM     18  C   UNL     1       1.252   3.111   3.261  1.00  0.00     0.015 A 
ATOM     19  C   UNL     1       1.254   4.864   1.595  1.00  0.00     0.015 A 
BRANCH  15  20
ATOM     20  S   UNL     1       0.170   1.474  -0.306  1.00  0.00     0.175 S 
ATOM     21  C   UNL     1       1.010  -0.043   0.055  1.00  0.00     0.163 C 
ATOM     22  O   UNL     1       0.746   1.985  -1.538  1.00  0.00    -0.224 OA
ATOM     23  O   UNL     1      -1.255   1.251  -0.181  1.00  0.00    -0.224 OA
ENDBRANCH  15  20
ENDBRANCH  12  14
ENDBRANCH   8  12
BRANCH  11  24
ATOM     24  C   UNL     1       3.678   9.501   2.550  1.00  0.00    -0.039 A 
ATOM     25  C   UNL     1       3.418  10.641   1.771  1.00  0.00     0.024 A 
ATOM     26  C   UNL     1       4.969   8.970   2.482  1.00  0.00     0.024 A 
ATOM     27  C   UNL     1       4.422  11.171   0.972  1.00  0.00     0.111 A 
ATOM     28  C   UNL     1       5.910   9.574   1.656  1.00  0.00     0.111 A 
ATOM     29  N   UNL     1       5.665  10.662   0.900  1.00  0.00    -0.265 NA
ENDBRANCH  11  24
ENDBRANCH   4   7
ENDBRANCH   2   3
ENDBRANCH   1   2
BRANCH   1  30
ATOM     30  C   UNL     1      -0.507  12.920   5.534  1.00  0.00     0.023 C 
BRANCH  30  31
ATOM     31  C   UNL     1      -1.587  12.635   6.575  1.00  0.00     0.116 C 
BRANCH  31  32
ATOM     32  N   UNL     1      -1.054  12.442   7.915  1.00  0.00    -0.352 N 
ATOM     33  C   UNL     1      -1.633  12.784   9.114  1.00  0.00     0.251 C 
ATOM     34  H   UNL     1      -0.170  12.013   7.970  1.00  0.00     0.163 HD
ATOM     35  O   UNL     1      -1.020  12.656  10.167  1.00  0.00    -0.269 OA
BRANCH  33  36
ATOM     36  C   UNL     1      -2.994  13.351   9.107  1.00  0.00     0.039 A 
ATOM     37  C   UNL     1      -3.209  14.595   9.704  1.00  0.00     0.014 A 
ATOM     38  C   UNL     1      -4.031  12.684   8.450  1.00  0.00     0.014 A 
ATOM     39  C   UNL     1      -4.454  15.212   9.573  1.00  0.00     0.010 A 
ATOM     40  C   UNL     1      -5.252  13.324   8.273  1.00  0.00     0.010 A 
ATOM     41  C   UNL     1      -5.469  14.599   8.821  1.00  0.00    -0.014 A 
BRANCH  41  42
ATOM     42  C   UNL     1      -6.758  15.283   8.562  1.00  0.00     0.031 A 
ATOM     43  C   UNL     1      -8.033  14.723   9.121  1.00  0.00     0.074 A 
ATOM     44  C   UNL     1      -6.787  16.356   7.749  1.00  0.00     0.049 A 
ATOM     45  N   UNL     1      -9.265  15.116   8.918  1.00  0.00    -0.248 NA
ATOM     46  C   UNL     1      -7.910  13.553  10.004  1.00  0.00     0.031 C 
ATOM     47  C   UNL     1      -5.621  16.975   7.114  1.00  0.00     0.029 A 
ATOM     48  N   UNL     1      -7.845  17.108   7.303  1.00  0.00    -0.354 N 
ATOM     49  C   UNL     1     -10.063  14.231   9.630  1.00  0.00     0.074 A 
ATOM     50  C   UNL     1      -9.181  13.259  10.239  1.00  0.00     0.031 C 
ATOM     51  C   UNL     1      -6.026  18.020   6.375  1.00  0.00     0.029 A 
ATOM     52  C   UNL     1      -7.479  18.121   6.450  1.00  0.00     0.049 A 
ATOM     53  H   UNL     1      -8.778  16.938   7.569  1.00  0.00     0.167 HD
ATOM     54  C   UNL     1     -11.409  14.236   9.775  1.00  0.00     0.031 A 
ATOM     55  C   UNL     1      -8.232  19.022   5.791  1.00  0.00     0.031 A 
ATOM     56  C   UNL     1     -12.285  15.209   9.181  1.00  0.00     0.049 A 
ATOM     57  C   UNL     1      -9.725  18.994   5.954  1.00  0.00     0.074 A 
ATOM     58  C   UNL     1     -13.656  15.334   9.322  1.00  0.00     0.029 A 
ATOM     59  N   UNL     1     -11.874  16.223   8.330  1.00  0.00    -0.354 N 
ATOM     60  N   UNL     1     -10.460  18.188   6.681  1.00  0.00    -0.248 NA
ATOM     61  C   UNL     1     -10.490  20.002   5.208  1.00  0.00     0.031 C 
ATOM     62  C   UNL     1     -14.081  16.399   8.520  1.00  0.00     0.029 A 
ATOM     63  C   UNL     1     -12.969  16.963   7.916  1.00  0.00     0.049 A 
ATOM     64  H   UNL     1     -10.943  16.391   8.059  1.00  0.00     0.167 HD
ATOM     65  C   UNL     1     -11.771  18.604   6.496  1.00  0.00     0.074 A 
ATOM     66  C   UNL     1     -11.730  19.741   5.601  1.00  0.00     0.031 C 
ATOM     67  C   UNL     1     -12.909  18.089   7.022  1.00  0.00     0.031 A 
BRANCH  54  68
ATOM     68  C   UNL     1     -12.015  13.143  10.608  1.00  0.00    -0.014 A 
ATOM     69  C   UNL     1     -11.866  13.127  12.004  1.00  0.00     0.009 A 
ATOM     70  C   UNL     1     -12.769  12.132   9.992  1.00  0.00     0.009 A 
ATOM     71  C   UNL     1     -12.431  12.100  12.763  1.00  0.00     0.001 A 
ATOM     72  C   UNL     1     -13.354  11.121  10.757  1.00  0.00     0.001 A 
ATOM     73  C   UNL     1     -13.177  11.101  12.139  1.00  0.00     0.000 A 
ENDBRANCH  54  68
BRANCH  55  74
ATOM     74  C   UNL     1      -7.585  20.033   4.917  1.00  0.00    -0.014 A 
ATOM     75  C   UNL     1      -7.524  21.377   5.314  1.00  0.00     0.009 A 
ATOM     76  C   UNL     1      -7.029  19.662   3.683  1.00  0.00     0.009 A 
ATOM     77  C   UNL     1      -6.939  22.334   4.482  1.00  0.00     0.001 A 
ATOM     78  C   UNL     1      -6.423  20.617   2.865  1.00  0.00     0.001 A 
ATOM     79  C   UNL     1      -6.385  21.953   3.261  1.00  0.00     0.000 A 
ENDBRANCH  55  74
BRANCH  67  80
ATOM     80  C   UNL     1     -14.198  18.767   6.661  1.00  0.00    -0.014 A 
ATOM     81  C   UNL     1     -14.776  18.596   5.394  1.00  0.00     0.009 A 
ATOM     82  C   UNL     1     -14.866  19.547   7.617  1.00  0.00     0.009 A 
ATOM     83  C   UNL     1     -15.987  19.217   5.083  1.00  0.00     0.001 A 
ATOM     84  C   UNL     1     -16.088  20.146   7.312  1.00  0.00     0.001 A 
ATOM     85  C   UNL     1     -16.645  19.986   6.044  1.00  0.00     0.000 A 
ENDBRANCH  67  80
ENDBRANCH  41  42
ENDBRANCH  33  36
ENDBRANCH  31  32
ENDBRANCH  30  31
ENDBRANCH   1  30
TORSDOF 15
