REMARK SMILES COc1cc2c[nH]nc2cc1C(=O)NCCCCNC(=O)c1ccc(-c2c3nc(c(-c4ccccc4)c4ccc([nH]4)c(-c4ccccc4)c4nc(c(-c5ccccc5)c5ccc2[nH]5)C=C4)C=C3)cc1
REMARK SMILES IDX 17 1 16 2 15 3 14 4 12 5 13 6 11 8 3 9 4 10 5 11 10 12 6 13
REMARK SMILES IDX 9 14 7 15 8 16 2 18 1 19 18 20 19 21 20 22 21 24 22 25 23 26
REMARK SMILES IDX 69 27 24 28 68 29 25 30 26 31 27 32 62 33 28 34 67 35 61 36
REMARK SMILES IDX 63 37 29 38 66 39 60 40 59 41 30 43 52 44 37 45 51 46 38 47
REMARK SMILES IDX 41 48 50 49 64 50 39 51 40 52 49 54 65 55 42 56 31 57 32 58
REMARK SMILES IDX 36 59 33 60 35 61 34 62 53 63 54 64 58 65 55 66 57 67 56 68
REMARK SMILES IDX 43 69 44 70 48 71 45 72 47 73 46 74
REMARK H PARENT 14 7 7 17 19 23 63 42 41 53
REMARK Flexibility Score: inf
ROOT
ATOM      1  C   UNL     1       2.720  -2.663   1.803  1.00  0.00     0.023 C 
ENDROOT
BRANCH   1   2
ATOM      2  C   UNL     1       2.100  -2.939   0.431  1.00  0.00     0.023 C 
BRANCH   2   3
ATOM      3  C   UNL     1       1.714  -1.714  -0.392  1.00  0.00     0.116 C 
BRANCH   3   4
ATOM      4  N   UNL     1       2.803  -0.793  -0.647  1.00  0.00    -0.352 N 
ATOM      5  C   UNL     1       2.931   0.167  -1.623  1.00  0.00     0.255 C 
ATOM      6  O   UNL     1       3.928   0.889  -1.598  1.00  0.00    -0.269 OA
ATOM      7  H   UNL     1       3.566  -0.865  -0.029  1.00  0.00     0.163 HD
BRANCH   5   8
ATOM      8  C   UNL     1       1.961   0.325  -2.743  1.00  0.00     0.084 A 
ATOM      9  C   UNL     1       0.530   0.342  -2.577  1.00  0.00     0.132 A 
ATOM     10  C   UNL     1      -0.395   0.387  -3.647  1.00  0.00     0.059 A 
ATOM     11  C   UNL     1       0.257   0.523  -4.863  1.00  0.00     0.023 A 
ATOM     12  C   UNL     1       2.575   0.500  -4.014  1.00  0.00     0.048 A 
ATOM     13  C   UNL     1      -0.350   0.617  -6.083  1.00  0.00     0.114 A 
ATOM     14  C   UNL     1       1.675   0.600  -5.086  1.00  0.00     0.093 A 
ATOM     15  N   UNL     1       0.681   0.771  -6.966  1.00  0.00    -0.285 N 
ATOM     16  N   UNL     1       1.903   0.760  -6.400  1.00  0.00    -0.176 NA
ATOM     17  H   UNL     1       0.542   0.881  -7.934  1.00  0.00     0.189 HD
BRANCH   9  18
ATOM     18  O   UNL     1      -0.068   0.272  -1.338  1.00  0.00    -0.496 OA
ATOM     19  C   UNL     1       0.026   1.515  -0.642  1.00  0.00     0.278 C 
ENDBRANCH   9  18
ENDBRANCH   5   8
ENDBRANCH   3   4
ENDBRANCH   2   3
ENDBRANCH   1   2
BRANCH   1  20
ATOM     20  C   UNL     1       2.056  -1.585   2.656  1.00  0.00     0.116 C 
BRANCH  20  21
ATOM     21  N   UNL     1       0.678  -1.880   3.019  1.00  0.00    -0.352 N 
ATOM     22  C   UNL     1       0.102  -2.103   4.251  1.00  0.00     0.251 C 
ATOM     23  H   UNL     1       0.054  -1.929   2.259  1.00  0.00     0.163 HD
ATOM     24  O   UNL     1      -1.078  -2.408   4.328  1.00  0.00    -0.269 OA
BRANCH  22  25
ATOM     25  C   UNL     1       0.919  -2.022   5.484  1.00  0.00     0.039 A 
ATOM     26  C   UNL     1       0.818  -3.055   6.421  1.00  0.00     0.014 A 
ATOM     27  C   UNL     1       1.788  -0.956   5.715  1.00  0.00     0.014 A 
ATOM     28  C   UNL     1       1.667  -3.072   7.531  1.00  0.00     0.010 A 
ATOM     29  C   UNL     1       2.692  -1.017   6.774  1.00  0.00     0.010 A 
ATOM     30  C   UNL     1       2.652  -2.083   7.685  1.00  0.00    -0.014 A 
BRANCH  30  31
ATOM     31  C   UNL     1       3.667  -2.162   8.769  1.00  0.00     0.031 A 
ATOM     32  C   UNL     1       3.748  -1.089   9.819  1.00  0.00     0.074 A 
ATOM     33  C   UNL     1       4.570  -3.163   8.765  1.00  0.00     0.049 A 
ATOM     34  N   UNL     1       4.608  -0.954  10.798  1.00  0.00    -0.248 NA
ATOM     35  C   UNL     1       2.747  -0.014   9.745  1.00  0.00     0.031 C 
ATOM     36  C   UNL     1       4.632  -4.250   7.786  1.00  0.00     0.029 A 
ATOM     37  N   UNL     1       5.616  -3.425   9.615  1.00  0.00    -0.354 N 
ATOM     38  C   UNL     1       4.265   0.228  11.441  1.00  0.00     0.074 A 
ATOM     39  C   UNL     1       3.152   0.797  10.711  1.00  0.00     0.031 C 
ATOM     40  C   UNL     1       5.634  -5.081   8.113  1.00  0.00     0.029 A 
ATOM     41  C   UNL     1       6.314  -4.564   9.296  1.00  0.00     0.049 A 
ATOM     42  H   UNL     1       5.845  -2.850  10.381  1.00  0.00     0.167 HD
ATOM     43  C   UNL     1       4.809   0.783  12.550  1.00  0.00     0.031 A 
ATOM     44  C   UNL     1       7.383  -5.131   9.887  1.00  0.00     0.031 A 
ATOM     45  C   UNL     1       5.910   0.219  13.285  1.00  0.00     0.049 A 
ATOM     46  C   UNL     1       7.989  -4.482  11.098  1.00  0.00     0.074 A 
ATOM     47  C   UNL     1       6.497   0.680  14.451  1.00  0.00     0.029 A 
ATOM     48  N   UNL     1       6.595  -0.930  12.920  1.00  0.00    -0.354 N 
ATOM     49  N   UNL     1       7.613  -3.396  11.729  1.00  0.00    -0.248 NA
ATOM     50  C   UNL     1       9.165  -5.143  11.681  1.00  0.00     0.031 C 
ATOM     51  C   UNL     1       7.566  -0.166  14.767  1.00  0.00     0.029 A 
ATOM     52  C   UNL     1       7.612  -1.181  13.825  1.00  0.00     0.049 A 
ATOM     53  H   UNL     1       6.388  -1.485  12.134  1.00  0.00     0.167 HD
ATOM     54  C   UNL     1       8.486  -3.261  12.800  1.00  0.00     0.074 A 
ATOM     55  C   UNL     1       9.404  -4.380  12.739  1.00  0.00     0.031 C 
ATOM     56  C   UNL     1       8.520  -2.297  13.752  1.00  0.00     0.031 A 
BRANCH  43  57
ATOM     57  C   UNL     1       4.215   2.080  13.027  1.00  0.00    -0.014 A 
ATOM     58  C   UNL     1       2.926   2.128  13.582  1.00  0.00     0.009 A 
ATOM     59  C   UNL     1       4.954   3.268  12.925  1.00  0.00     0.009 A 
ATOM     60  C   UNL     1       2.370   3.346  13.978  1.00  0.00     0.001 A 
ATOM     61  C   UNL     1       4.408   4.480  13.351  1.00  0.00     0.001 A 
ATOM     62  C   UNL     1       3.112   4.520  13.864  1.00  0.00     0.000 A 
ENDBRANCH  43  57
BRANCH  44  63
ATOM     63  C   UNL     1       7.932  -6.408   9.362  1.00  0.00    -0.014 A 
ATOM     64  C   UNL     1       7.747  -7.601  10.079  1.00  0.00     0.009 A 
ATOM     65  C   UNL     1       8.643  -6.446   8.153  1.00  0.00     0.009 A 
ATOM     66  C   UNL     1       8.281  -8.801   9.607  1.00  0.00     0.001 A 
ATOM     67  C   UNL     1       9.153  -7.653   7.670  1.00  0.00     0.001 A 
ATOM     68  C   UNL     1       8.979  -8.828   8.401  1.00  0.00     0.000 A 
ENDBRANCH  44  63
BRANCH  56  69
ATOM     69  C   UNL     1       9.561  -2.432  14.828  1.00  0.00    -0.014 A 
ATOM     70  C   UNL     1      10.917  -2.180  14.567  1.00  0.00     0.009 A 
ATOM     71  C   UNL     1       9.171  -2.784  16.130  1.00  0.00     0.009 A 
ATOM     72  C   UNL     1      11.866  -2.309  15.584  1.00  0.00     0.001 A 
ATOM     73  C   UNL     1      10.118  -2.886  17.149  1.00  0.00     0.001 A 
ATOM     74  C   UNL     1      11.465  -2.657  16.874  1.00  0.00     0.000 A 
ENDBRANCH  56  69
ENDBRANCH  30  31
ENDBRANCH  22  25
ENDBRANCH  20  21
ENDBRANCH   1  20
TORSDOF 12
