REMARK SMILES C[N@H+]1C[C@@H](Oc2cccc3cccnc23)C[C@H]1C(=O)NCCCCNC(=O)c1ccc(-c2c3nc(c(-c4ccccc4)c4ccc([nH]4)c(-c4ccccc4)c4nc(c(-c5ccccc5)c5ccc2[nH]5)C=C4)C=C3)cc1
REMARK SMILES IDX 22 1 21 2 20 3 18 4 19 5 17 7 1 8 2 9 3 10 4 12 16 13 5 14
REMARK SMILES IDX 6 15 7 16 15 17 8 18 10 19 14 20 9 21 11 22 13 23 12 24
REMARK SMILES IDX 23 25 24 26 25 27 26 28 27 30 28 31 29 32 75 33 30 34 74 35
REMARK SMILES IDX 31 36 32 37 33 38 68 39 34 40 73 41 67 42 69 43 35 44 72 45
REMARK SMILES IDX 66 46 65 47 36 49 58 50 43 51 57 52 44 53 47 54 56 55 70 56
REMARK SMILES IDX 45 57 46 58 55 60 71 61 48 62 37 63 38 64 42 65 39 66 41 67
REMARK SMILES IDX 40 68 59 69 60 70 64 71 61 72 63 73 62 74 49 75 50 76 54 77
REMARK SMILES IDX 51 78 53 79 52 80
REMARK H PARENT 20 6 2 11 25 29 69 48 47 59
REMARK Flexibility Score: inf
ROOT
ATOM      1  C   UNL     1      -1.369   1.918   2.897  1.00  0.00     0.023 C 
ENDROOT
BRANCH   1   2
ATOM      2  C   UNL     1      -0.345   0.791   2.796  1.00  0.00     0.116 C 
BRANCH   2   3
ATOM      3  N   UNL     1      -0.866  -0.538   2.559  1.00  0.00    -0.351 N 
ATOM      4  C   UNL     1      -0.516  -1.439   1.594  1.00  0.00     0.278 C 
ATOM      5  O   UNL     1      -0.492  -2.624   1.965  1.00  0.00    -0.268 OA
ATOM      6  H   UNL     1      -1.569  -0.834   3.181  1.00  0.00     0.163 HD
BRANCH   4   7
ATOM      7  C   UNL     1      -0.209  -1.132   0.107  1.00  0.00     0.278 C 
ATOM      8  C   UNL     1      -2.054   0.463  -0.389  1.00  0.00     0.333 C 
ATOM      9  N   UNL     1      -0.663   0.126  -0.461  1.00  0.00    -0.324 N 
ATOM     10  C   UNL     1       0.395   1.123  -0.461  1.00  0.00     0.308 C 
ATOM     11  H   UNL     1      -0.821   0.001  -1.461  1.00  0.00     0.348 HD
ATOM     12  C   UNL     1       1.709   0.302  -0.329  1.00  0.00     0.234 C 
ATOM     13  C   UNL     1       1.249  -1.155  -0.330  1.00  0.00     0.126 C 
BRANCH  12  14
ATOM     14  O   UNL     1       2.645   0.809   0.630  1.00  0.00    -0.482 OA
BRANCH  14  15
ATOM     15  C   UNL     1       2.788   0.461   1.947  1.00  0.00     0.146 A 
ATOM     16  C   UNL     1       2.795  -0.856   2.413  1.00  0.00     0.049 A 
ATOM     17  C   UNL     1       3.047   1.520   2.848  1.00  0.00     0.112 A 
ATOM     18  C   UNL     1       2.936  -1.145   3.769  1.00  0.00     0.005 A 
ATOM     19  C   UNL     1       3.259   1.200   4.214  1.00  0.00     0.004 A 
ATOM     20  N   UNL     1       3.073   2.812   2.442  1.00  0.00    -0.252 NA
ATOM     21  C   UNL     1       3.167  -0.120   4.670  1.00  0.00     0.010 A 
ATOM     22  C   UNL     1       3.567   2.224   5.115  1.00  0.00     0.012 A 
ATOM     23  C   UNL     1       3.360   3.779   3.343  1.00  0.00     0.112 A 
ATOM     24  C   UNL     1       3.627   3.537   4.675  1.00  0.00     0.021 A 
ENDBRANCH  14  15
ENDBRANCH  12  14
ENDBRANCH   4   7
ENDBRANCH   2   3
ENDBRANCH   1   2
BRANCH   1  25
ATOM     25  C   UNL     1      -1.777   2.301   4.320  1.00  0.00     0.023 C 
BRANCH  25  26
ATOM     26  C   UNL     1      -0.654   2.826   5.211  1.00  0.00     0.116 C 
BRANCH  26  27
ATOM     27  N   UNL     1      -0.054   4.072   4.765  1.00  0.00    -0.352 N 
ATOM     28  C   UNL     1       0.613   5.023   5.508  1.00  0.00     0.251 C 
ATOM     29  H   UNL     1      -0.136   4.263   3.803  1.00  0.00     0.163 HD
ATOM     30  O   UNL     1       1.021   6.049   4.974  1.00  0.00    -0.269 OA
BRANCH  28  31
ATOM     31  C   UNL     1       0.823   4.830   6.965  1.00  0.00     0.039 A 
ATOM     32  C   UNL     1       0.635   5.919   7.822  1.00  0.00     0.014 A 
ATOM     33  C   UNL     1       1.195   3.592   7.496  1.00  0.00     0.014 A 
ATOM     34  C   UNL     1       0.714   5.737   9.205  1.00  0.00     0.010 A 
ATOM     35  C   UNL     1       1.222   3.394   8.872  1.00  0.00     0.010 A 
ATOM     36  C   UNL     1       0.950   4.458   9.737  1.00  0.00    -0.014 A 
BRANCH  36  37
ATOM     37  C   UNL     1       0.756   4.185  11.179  1.00  0.00     0.031 A 
ATOM     38  C   UNL     1       1.898   3.789  12.065  1.00  0.00     0.074 A 
ATOM     39  C   UNL     1      -0.505   4.196  11.654  1.00  0.00     0.049 A 
ATOM     40  N   UNL     1       1.893   3.550  13.352  1.00  0.00    -0.248 NA
ATOM     41  C   UNL     1       3.209   3.607  11.424  1.00  0.00     0.031 C 
ATOM     42  C   UNL     1      -1.704   4.459  10.852  1.00  0.00     0.029 A 
ATOM     43  N   UNL     1      -0.992   3.977  12.916  1.00  0.00    -0.354 N 
ATOM     44  C   UNL     1       3.195   3.193  13.677  1.00  0.00     0.074 A 
ATOM     45  C   UNL     1       3.952   3.193  12.443  1.00  0.00     0.031 C 
ATOM     46  C   UNL     1      -2.782   4.428  11.650  1.00  0.00     0.029 A 
ATOM     47  C   UNL     1      -2.355   4.119  13.008  1.00  0.00     0.049 A 
ATOM     48  H   UNL     1      -0.420   3.740  13.682  1.00  0.00     0.167 HD
ATOM     49  C   UNL     1       3.712   2.910  14.898  1.00  0.00     0.031 A 
ATOM     50  C   UNL     1      -3.170   4.030  14.074  1.00  0.00     0.031 A 
ATOM     51  C   UNL     1       2.939   2.897  16.114  1.00  0.00     0.049 A 
ATOM     52  C   UNL     1      -2.568   3.755  15.421  1.00  0.00     0.074 A 
ATOM     53  C   UNL     1       3.373   2.696  17.412  1.00  0.00     0.029 A 
ATOM     54  N   UNL     1       1.565   3.084  16.177  1.00  0.00    -0.354 N 
ATOM     55  N   UNL     1      -1.312   3.543  15.734  1.00  0.00    -0.248 NA
ATOM     56  C   UNL     1      -3.490   3.733  16.563  1.00  0.00     0.031 C 
ATOM     57  C   UNL     1       2.255   2.709  18.254  1.00  0.00     0.029 A 
ATOM     58  C   UNL     1       1.132   2.978  17.488  1.00  0.00     0.049 A 
ATOM     59  H   UNL     1       0.984   3.264  15.403  1.00  0.00     0.167 HD
ATOM     60  C   UNL     1      -1.288   3.387  17.112  1.00  0.00     0.074 A 
ATOM     61  C   UNL     1      -2.653   3.550  17.574  1.00  0.00     0.031 C 
ATOM     62  C   UNL     1      -0.233   3.131  17.923  1.00  0.00     0.031 A 
BRANCH  49  63
ATOM     63  C   UNL     1       5.181   2.594  14.977  1.00  0.00    -0.014 A 
ATOM     64  C   UNL     1       6.150   3.582  14.734  1.00  0.00     0.009 A 
ATOM     65  C   UNL     1       5.607   1.308  15.345  1.00  0.00     0.009 A 
ATOM     66  C   UNL     1       7.511   3.280  14.820  1.00  0.00     0.001 A 
ATOM     67  C   UNL     1       6.969   1.016  15.459  1.00  0.00     0.001 A 
ATOM     68  C   UNL     1       7.920   1.999  15.187  1.00  0.00     0.000 A 
ENDBRANCH  49  63
BRANCH  50  69
ATOM     69  C   UNL     1      -4.627   4.267  13.912  1.00  0.00    -0.014 A 
ATOM     70  C   UNL     1      -5.213   5.444  14.402  1.00  0.00     0.009 A 
ATOM     71  C   UNL     1      -5.434   3.336  13.239  1.00  0.00     0.009 A 
ATOM     72  C   UNL     1      -6.581   5.673  14.243  1.00  0.00     0.001 A 
ATOM     73  C   UNL     1      -6.797   3.582  13.056  1.00  0.00     0.001 A 
ATOM     74  C   UNL     1      -7.371   4.746  13.565  1.00  0.00     0.000 A 
ENDBRANCH  50  69
BRANCH  62  75
ATOM     75  C   UNL     1      -0.519   3.034  19.395  1.00  0.00    -0.014 A 
ATOM     76  C   UNL     1      -1.211   1.937  19.932  1.00  0.00     0.009 A 
ATOM     77  C   UNL     1      -0.072   4.047  20.257  1.00  0.00     0.009 A 
ATOM     78  C   UNL     1      -1.484   1.877  21.299  1.00  0.00     0.001 A 
ATOM     79  C   UNL     1      -0.320   3.969  21.628  1.00  0.00     0.001 A 
ATOM     80  C   UNL     1      -1.036   2.891  22.146  1.00  0.00     0.000 A 
ENDBRANCH  62  75
ENDBRANCH  36  37
ENDBRANCH  28  31
ENDBRANCH  26  27
ENDBRANCH  25  26
ENDBRANCH   1  25
TORSDOF 13
