REMARK SMILES C[NH2+][C@@]1(C(=O)NCCCCNC(=O)c2ccc(-c3c4nc(c(-c5ccccc5)c5ccc([nH]5)c(-c5ccccc5)c5nc(c(-c6ccccc6)c6ccc3[nH]6)C=C5)C=C4)cc2)CC[C@H](Sc2nccc(=O)[nH]2)C1
REMARK SMILES IDX 8 1 7 2 6 3 4 4 5 5 3 7 62 8 73 9 63 10 64 11 2 12 1 13
REMARK SMILES IDX 65 16 66 17 67 18 72 19 68 20 70 21 69 23 71 24 9 25 10 26
REMARK SMILES IDX 11 27 12 28 13 30 14 31 15 32 61 33 16 34 60 35 17 36 18 37
REMARK SMILES IDX 19 38 54 39 20 40 59 41 53 42 55 43 21 44 58 45 52 46 51 47
REMARK SMILES IDX 22 49 44 50 29 51 43 52 30 53 33 54 42 55 56 56 31 57 32 58
REMARK SMILES IDX 41 60 57 61 34 62 23 63 24 64 28 65 25 66 27 67 26 68 45 69
REMARK SMILES IDX 46 70 50 71 47 72 49 73 48 74 35 75 36 76 40 77 37 78 39 79
REMARK SMILES IDX 38 80
REMARK H PARENT 6 6 2 14 2 15 72 22 11 29 55 48 33 59
REMARK Flexibility Score: inf
ROOT
ATOM      1  C   UNL     1      -4.465  -2.415   2.946  1.00  0.00     0.023 C 
ENDROOT
BRANCH   1   2
ATOM      2  C   UNL     1      -3.762  -1.160   2.447  1.00  0.00     0.116 C 
BRANCH   2   3
ATOM      3  N   UNL     1      -2.407  -1.015   2.913  1.00  0.00    -0.351 N 
ATOM      4  C   UNL     1      -1.235  -0.917   2.223  1.00  0.00     0.281 C 
ATOM      5  O   UNL     1      -0.221  -0.742   2.915  1.00  0.00    -0.268 OA
ATOM      6  H   UNL     1      -2.310  -0.981   3.892  1.00  0.00     0.163 HD
BRANCH   4   7
ATOM      7  C   UNL     1      -1.110  -1.027   0.642  1.00  0.00     0.176 C 
ATOM      8  C   UNL     1      -1.804   0.154  -0.074  1.00  0.00     0.080 C 
ATOM      9  C   UNL     1      -1.786  -2.302   0.097  1.00  0.00     0.094 C 
ATOM     10  C   UNL     1      -3.049  -0.388  -0.778  1.00  0.00     0.022 C 
ATOM     11  C   UNL     1      -2.761  -1.867  -1.013  1.00  0.00     0.062 C 
BRANCH   7  12
ATOM     12  N   UNL     1       0.348  -1.220   0.362  1.00  0.00    -0.336 N 
ATOM     13  C   UNL     1       1.078  -0.102  -0.209  1.00  0.00     0.331 C 
ATOM     14  H   UNL     1       0.799  -1.458   1.245  1.00  0.00     0.346 HD
ATOM     15  H   UNL     1       0.381  -1.943  -0.356  1.00  0.00     0.346 HD
ENDBRANCH   7  12
BRANCH  11  16
ATOM     16  S   UNL     1      -4.089  -3.110  -1.113  1.00  0.00    -0.084 SA
BRANCH  16  17
ATOM     17  C   UNL     1      -5.604  -2.291  -0.972  1.00  0.00     0.168 A 
ATOM     18  N   UNL     1      -5.861  -1.136  -1.484  1.00  0.00    -0.233 NA
ATOM     19  N   UNL     1      -6.513  -3.046  -0.294  1.00  0.00    -0.301 N 
ATOM     20  C   UNL     1      -7.145  -0.677  -1.320  1.00  0.00     0.120 A 
ATOM     21  C   UNL     1      -7.808  -2.654  -0.128  1.00  0.00     0.251 A 
ATOM     22  H   UNL     1      -6.225  -3.905   0.089  1.00  0.00     0.172 HD
ATOM     23  C   UNL     1      -8.128  -1.339  -0.700  1.00  0.00     0.091 A 
ATOM     24  O   UNL     1      -8.641  -3.345   0.443  1.00  0.00    -0.269 OA
ENDBRANCH  16  17
ENDBRANCH  11  16
ENDBRANCH   4   7
ENDBRANCH   2   3
ENDBRANCH   1   2
BRANCH   1  25
ATOM     25  C   UNL     1      -5.231  -2.257   4.249  1.00  0.00     0.023 C 
BRANCH  25  26
ATOM     26  C   UNL     1      -6.170  -1.058   4.328  1.00  0.00     0.116 C 
BRANCH  26  27
ATOM     27  N   UNL     1      -7.057  -0.888   3.186  1.00  0.00    -0.352 N 
ATOM     28  C   UNL     1      -8.396  -0.532   3.187  1.00  0.00     0.251 C 
ATOM     29  H   UNL     1      -6.654  -1.046   2.302  1.00  0.00     0.163 HD
ATOM     30  O   UNL     1      -9.013  -0.365   2.152  1.00  0.00    -0.269 OA
BRANCH  28  31
ATOM     31  C   UNL     1      -9.065  -0.377   4.492  1.00  0.00     0.039 A 
ATOM     32  C   UNL     1     -10.149  -1.197   4.803  1.00  0.00     0.014 A 
ATOM     33  C   UNL     1      -8.526   0.496   5.436  1.00  0.00     0.014 A 
ATOM     34  C   UNL     1     -10.642  -1.207   6.111  1.00  0.00     0.010 A 
ATOM     35  C   UNL     1      -8.954   0.414   6.753  1.00  0.00     0.010 A 
ATOM     36  C   UNL     1     -10.014  -0.439   7.105  1.00  0.00    -0.014 A 
BRANCH  36  37
ATOM     37  C   UNL     1     -10.437  -0.489   8.526  1.00  0.00     0.031 A 
ATOM     38  C   UNL     1     -10.912   0.770   9.197  1.00  0.00     0.074 A 
ATOM     39  C   UNL     1     -10.287  -1.622   9.240  1.00  0.00     0.049 A 
ATOM     40  N   UNL     1     -11.164   0.991  10.461  1.00  0.00    -0.248 NA
ATOM     41  C   UNL     1     -11.079   1.952   8.335  1.00  0.00     0.031 C 
ATOM     42  C   UNL     1      -9.791  -2.900   8.723  1.00  0.00     0.029 A 
ATOM     43  N   UNL     1     -10.524  -1.873  10.569  1.00  0.00    -0.354 N 
ATOM     44  C   UNL     1     -11.472   2.342  10.550  1.00  0.00     0.074 A 
ATOM     45  C   UNL     1     -11.330   2.900   9.224  1.00  0.00     0.031 C 
ATOM     46  C   UNL     1      -9.784  -3.804   9.716  1.00  0.00     0.029 A 
ATOM     47  C   UNL     1     -10.233  -3.162  10.947  1.00  0.00     0.049 A 
ATOM     48  H   UNL     1     -10.870  -1.194  11.192  1.00  0.00     0.167 HD
ATOM     49  C   UNL     1     -11.860   3.053  11.634  1.00  0.00     0.031 A 
ATOM     50  C   UNL     1     -10.310  -3.755  12.153  1.00  0.00     0.031 A 
ATOM     51  C   UNL     1     -12.046   2.488  12.942  1.00  0.00     0.049 A 
ATOM     52  C   UNL     1     -10.779  -2.954  13.336  1.00  0.00     0.074 A 
ATOM     53  C   UNL     1     -12.510   3.105  14.090  1.00  0.00     0.029 A 
ATOM     54  N   UNL     1     -11.787   1.167  13.271  1.00  0.00    -0.354 N 
ATOM     55  N   UNL     1     -11.120  -1.690  13.394  1.00  0.00    -0.248 NA
ATOM     56  C   UNL     1     -10.882  -3.667  14.618  1.00  0.00     0.031 C 
ATOM     57  C   UNL     1     -12.500   2.163  15.124  1.00  0.00     0.029 A 
ATOM     58  C   UNL     1     -12.072   0.951  14.607  1.00  0.00     0.049 A 
ATOM     59  H   UNL     1     -11.451   0.484  12.646  1.00  0.00     0.167 HD
ATOM     60  C   UNL     1     -11.504  -1.461  14.709  1.00  0.00     0.074 A 
ATOM     61  C   UNL     1     -11.366  -2.721  15.412  1.00  0.00     0.031 C 
ATOM     62  C   UNL     1     -11.932  -0.312  15.284  1.00  0.00     0.031 A 
BRANCH  49  63
ATOM     63  C   UNL     1     -12.107   4.522  11.441  1.00  0.00    -0.014 A 
ATOM     64  C   UNL     1     -13.208   4.984  10.701  1.00  0.00     0.009 A 
ATOM     65  C   UNL     1     -11.234   5.459  12.015  1.00  0.00     0.009 A 
ATOM     66  C   UNL     1     -13.404   6.353  10.503  1.00  0.00     0.001 A 
ATOM     67  C   UNL     1     -11.450   6.827  11.841  1.00  0.00     0.001 A 
ATOM     68  C   UNL     1     -12.527   7.272  11.076  1.00  0.00     0.000 A 
ENDBRANCH  49  63
BRANCH  50  69
ATOM     69  C   UNL     1      -9.960  -5.191  12.303  1.00  0.00    -0.014 A 
ATOM     70  C   UNL     1     -10.967  -6.147  12.509  1.00  0.00     0.009 A 
ATOM     71  C   UNL     1      -8.623  -5.616  12.244  1.00  0.00     0.009 A 
ATOM     72  C   UNL     1     -10.642  -7.495  12.679  1.00  0.00     0.001 A 
ATOM     73  C   UNL     1      -8.303  -6.968  12.388  1.00  0.00     0.001 A 
ATOM     74  C   UNL     1      -9.311  -7.905  12.614  1.00  0.00     0.000 A 
ENDBRANCH  50  69
BRANCH  62  75
ATOM     75  C   UNL     1     -12.318  -0.372  16.734  1.00  0.00    -0.014 A 
ATOM     76  C   UNL     1     -11.347  -0.458  17.742  1.00  0.00     0.009 A 
ATOM     77  C   UNL     1     -13.673  -0.294  17.094  1.00  0.00     0.009 A 
ATOM     78  C   UNL     1     -11.728  -0.492  19.085  1.00  0.00     0.001 A 
ATOM     79  C   UNL     1     -14.048  -0.303  18.437  1.00  0.00     0.001 A 
ATOM     80  C   UNL     1     -13.077  -0.410  19.431  1.00  0.00     0.000 A 
ENDBRANCH  62  75
ENDBRANCH  36  37
ENDBRANCH  28  31
ENDBRANCH  26  27
ENDBRANCH  25  26
ENDBRANCH   1  25
TORSDOF 14
