REMARK SMILES O=C(NCCCCNC(=O)c1cccnc1Nc1cccc(C(F)(F)F)c1)c1ccc(-c2c3nc(c(-c4ccccc4)c4ccc([nH]4)c(-c4ccccc4)c4nc(c(-c5ccccc5)c5ccc2[nH]5)C=C4)C=C3)cc1
REMARK SMILES IDX 6 1 5 2 4 3 3 4 1 5 2 6 28 8 29 9 75 10 30 11 74 12 31 13
REMARK SMILES IDX 32 14 33 15 68 16 34 17 73 18 67 19 69 20 35 21 72 22 66 23
REMARK SMILES IDX 65 24 36 26 58 27 43 28 57 29 44 30 47 31 56 32 70 33 45 34
REMARK SMILES IDX 46 35 55 37 71 38 48 39 37 40 38 41 42 42 39 43 41 44 40 45
REMARK SMILES IDX 59 46 60 47 64 48 61 49 63 50 62 51 49 52 50 53 54 54 51 55
REMARK SMILES IDX 53 56 52 57 7 58 8 59 9 60 10 62 11 63 12 64 16 65 13 66
REMARK SMILES IDX 15 67 14 68 17 69 18 71 19 72 27 73 20 74 22 75 21 76 23 77
REMARK SMILES IDX 24 78 25 79 26 80
REMARK H PARENT 3 7 69 25 47 36 8 61 17 70
REMARK Flexibility Score: inf
ROOT
ATOM      1  C   UNL     1       4.412  -3.163   2.079  1.00  0.00     0.023 C 
ENDROOT
BRANCH   1   2
ATOM      2  C   UNL     1       4.923  -1.735   1.889  1.00  0.00     0.023 C 
BRANCH   2   3
ATOM      3  C   UNL     1       4.609  -1.104   0.538  1.00  0.00     0.116 C 
BRANCH   3   4
ATOM      4  N   UNL     1       3.182  -1.012   0.272  1.00  0.00    -0.352 N 
ATOM      5  O   UNL     1       1.207  -0.002  -0.138  1.00  0.00    -0.269 OA
ATOM      6  C   UNL     1       2.430   0.084  -0.078  1.00  0.00     0.251 C 
ATOM      7  H   UNL     1       2.683  -1.856   0.353  1.00  0.00     0.163 HD
BRANCH   6   8
ATOM      8  C   UNL     1       3.093   1.376  -0.351  1.00  0.00     0.039 A 
ATOM      9  C   UNL     1       4.230   1.440  -1.160  1.00  0.00     0.014 A 
ATOM     10  C   UNL     1       2.567   2.541   0.216  1.00  0.00     0.014 A 
ATOM     11  C   UNL     1       4.921   2.640  -1.284  1.00  0.00     0.010 A 
ATOM     12  C   UNL     1       3.220   3.761   0.024  1.00  0.00     0.010 A 
ATOM     13  C   UNL     1       4.421   3.815  -0.699  1.00  0.00    -0.014 A 
BRANCH  13  14
ATOM     14  C   UNL     1       5.144   5.095  -0.899  1.00  0.00     0.031 A 
ATOM     15  C   UNL     1       5.786   5.815   0.253  1.00  0.00     0.074 A 
ATOM     16  C   UNL     1       5.239   5.596  -2.146  1.00  0.00     0.049 A 
ATOM     17  N   UNL     1       6.470   6.933   0.245  1.00  0.00    -0.248 NA
ATOM     18  C   UNL     1       5.641   5.210   1.586  1.00  0.00     0.031 C 
ATOM     19  C   UNL     1       4.656   4.990  -3.346  1.00  0.00     0.029 A 
ATOM     20  N   UNL     1       5.876   6.716  -2.614  1.00  0.00    -0.354 N 
ATOM     21  C   UNL     1       6.818   7.176   1.568  1.00  0.00     0.074 A 
ATOM     22  C   UNL     1       6.253   6.101   2.356  1.00  0.00     0.031 C 
ATOM     23  C   UNL     1       5.000   5.719  -4.417  1.00  0.00     0.029 A 
ATOM     24  C   UNL     1       5.775   6.873  -3.974  1.00  0.00     0.049 A 
ATOM     25  H   UNL     1       6.358   7.347  -2.032  1.00  0.00     0.167 HD
ATOM     26  C   UNL     1       7.545   8.199   2.078  1.00  0.00     0.031 A 
ATOM     27  C   UNL     1       6.241   7.844  -4.780  1.00  0.00     0.031 A 
ATOM     28  C   UNL     1       8.108   9.267   1.294  1.00  0.00     0.049 A 
ATOM     29  C   UNL     1       7.016   8.980  -4.184  1.00  0.00     0.074 A 
ATOM     30  C   UNL     1       8.886  10.332   1.718  1.00  0.00     0.029 A 
ATOM     31  N   UNL     1       7.950   9.410  -0.076  1.00  0.00    -0.354 N 
ATOM     32  N   UNL     1       7.360   9.178  -2.935  1.00  0.00    -0.248 NA
ATOM     33  C   UNL     1       7.466  10.028  -5.110  1.00  0.00     0.031 C 
ATOM     34  C   UNL     1       9.160  11.143   0.612  1.00  0.00     0.029 A 
ATOM     35  C   UNL     1       8.595  10.557  -0.509  1.00  0.00     0.049 A 
ATOM     36  H   UNL     1       7.454   8.788  -0.655  1.00  0.00     0.167 HD
ATOM     37  C   UNL     1       8.078  10.365  -2.926  1.00  0.00     0.074 A 
ATOM     38  C   UNL     1       8.137  10.831  -4.297  1.00  0.00     0.031 C 
ATOM     39  C   UNL     1       8.636  11.012  -1.874  1.00  0.00     0.031 A 
BRANCH  26  40
ATOM     40  C   UNL     1       7.751   8.229   3.567  1.00  0.00    -0.014 A 
ATOM     41  C   UNL     1       8.631   7.337   4.200  1.00  0.00     0.009 A 
ATOM     42  C   UNL     1       7.091   9.196   4.341  1.00  0.00     0.009 A 
ATOM     43  C   UNL     1       8.822   7.395   5.583  1.00  0.00     0.001 A 
ATOM     44  C   UNL     1       7.301   9.267   5.720  1.00  0.00     0.001 A 
ATOM     45  C   UNL     1       8.161   8.361   6.340  1.00  0.00     0.000 A 
ENDBRANCH  26  40
BRANCH  27  46
ATOM     46  C   UNL     1       5.971   7.780  -6.238  1.00  0.00    -0.014 A 
ATOM     47  C   UNL     1       7.003   7.493  -7.143  1.00  0.00     0.009 A 
ATOM     48  C   UNL     1       4.671   7.984  -6.729  1.00  0.00     0.009 A 
ATOM     49  C   UNL     1       6.741   7.427  -8.513  1.00  0.00     0.001 A 
ATOM     50  C   UNL     1       4.408   7.890  -8.096  1.00  0.00     0.001 A 
ATOM     51  C   UNL     1       5.444   7.619  -8.987  1.00  0.00     0.000 A 
ENDBRANCH  27  46
BRANCH  39  52
ATOM     52  C   UNL     1       9.378  12.282  -2.175  1.00  0.00    -0.014 A 
ATOM     53  C   UNL     1       8.692  13.464  -2.492  1.00  0.00     0.009 A 
ATOM     54  C   UNL     1      10.780  12.300  -2.117  1.00  0.00     0.009 A 
ATOM     55  C   UNL     1       9.399  14.634  -2.777  1.00  0.00     0.001 A 
ATOM     56  C   UNL     1      11.483  13.476  -2.378  1.00  0.00     0.001 A 
ATOM     57  C   UNL     1      10.792  14.640  -2.717  1.00  0.00     0.000 A 
ENDBRANCH  39  52
ENDBRANCH  13  14
ENDBRANCH   6   8
ENDBRANCH   3   4
ENDBRANCH   2   3
ENDBRANCH   1   2
BRANCH   1  58
ATOM     58  C   UNL     1       4.796  -4.143   0.972  1.00  0.00     0.116 C 
BRANCH  58  59
ATOM     59  N   UNL     1       6.237  -4.278   0.837  1.00  0.00    -0.352 N 
ATOM     60  C   UNL     1       7.022  -5.381   1.060  1.00  0.00     0.255 C 
ATOM     61  H   UNL     1       6.714  -3.468   0.547  1.00  0.00     0.163 HD
ATOM     62  O   UNL     1       8.240  -5.254   1.159  1.00  0.00    -0.269 OA
BRANCH  60  63
ATOM     63  C   UNL     1       6.412  -6.714   1.208  1.00  0.00     0.082 A 
ATOM     64  C   UNL     1       5.492  -7.171   0.255  1.00  0.00     0.019 A 
ATOM     65  C   UNL     1       6.791  -7.552   2.264  1.00  0.00     0.143 A 
ATOM     66  C   UNL     1       4.889  -8.409   0.430  1.00  0.00     0.021 A 
ATOM     67  N   UNL     1       6.185  -8.756   2.431  1.00  0.00    -0.238 NA
ATOM     68  C   UNL     1       5.256  -9.152   1.534  1.00  0.00     0.113 A 
BRANCH  65  69
ATOM     69  N   UNL     1       7.732  -7.126   3.226  1.00  0.00    -0.340 N 
ATOM     70  H   UNL     1       7.949  -6.165   3.220  1.00  0.00     0.168 HD
BRANCH  69  71
ATOM     71  C   UNL     1       8.397  -7.901   4.192  1.00  0.00     0.040 A 
ATOM     72  C   UNL     1       8.724  -7.329   5.425  1.00  0.00     0.026 A 
ATOM     73  C   UNL     1       8.809  -9.213   3.930  1.00  0.00     0.039 A 
ATOM     74  C   UNL     1       9.410  -8.065   6.394  1.00  0.00     0.003 A 
ATOM     75  C   UNL     1       9.520  -9.959   4.882  1.00  0.00     0.058 A 
ATOM     76  C   UNL     1       9.806  -9.375   6.124  1.00  0.00     0.013 A 
BRANCH  75  77
ATOM     77  C   UNL     1       9.978 -11.361   4.576  1.00  0.00     0.416 C 
ATOM     78  F   UNL     1      11.328 -11.504   4.705  1.00  0.00    -0.166 F 
ATOM     79  F   UNL     1       9.428 -12.287   5.410  1.00  0.00    -0.166 F 
ATOM     80  F   UNL     1       9.684 -11.778   3.312  1.00  0.00    -0.166 F 
ENDBRANCH  75  77
ENDBRANCH  69  71
ENDBRANCH  65  69
ENDBRANCH  60  63
ENDBRANCH  58  59
ENDBRANCH   1  58
TORSDOF 14
