REMARK SMILES CC1(C)CCN(c2ncccc2C(=O)NCCCCNC(=O)c2ccc(-c3c4nc(c(-c5ccccc5)c5ccc([nH]5)c(-c5ccccc5)c5nc(c(-c6ccccc6)c6ccc3[nH]6)C=C5)C=C4)cc2)C1
REMARK SMILES IDX 18 1 17 2 16 3 15 4 13 5 14 6 12 8 7 9 8 10 9 11 11 12 10 13
REMARK SMILES IDX 6 14 1 15 2 16 3 17 4 18 71 19 5 20 19 21 20 22 21 23 22 25
REMARK SMILES IDX 23 26 24 27 70 28 25 29 69 30 26 31 27 32 28 33 63 34 29 35
REMARK SMILES IDX 68 36 62 37 64 38 30 39 67 40 61 41 60 42 31 44 53 45 38 46
REMARK SMILES IDX 52 47 39 48 42 49 51 50 65 51 40 52 41 53 50 55 66 56 43 57
REMARK SMILES IDX 32 58 33 59 37 60 34 61 36 62 35 63 54 64 55 65 59 66 56 67
REMARK SMILES IDX 58 68 57 69 44 70 45 71 49 72 46 73 48 74 47 75
REMARK H PARENT 15 7 20 24 64 43 42 54
REMARK Flexibility Score: inf
ROOT
ATOM      1  C   UNL     1       3.183   6.519   3.570  1.00  0.00     0.023 C 
ENDROOT
BRANCH   1   2
ATOM      2  C   UNL     1       3.879   5.929   2.335  1.00  0.00     0.023 C 
BRANCH   2   3
ATOM      3  C   UNL     1       4.439   4.521   2.543  1.00  0.00     0.116 C 
BRANCH   3   4
ATOM      4  N   UNL     1       3.360   3.567   2.676  1.00  0.00    -0.352 N 
ATOM      5  C   UNL     1       2.684   2.720   1.832  1.00  0.00     0.255 C 
ATOM      6  O   UNL     1       1.783   2.109   2.407  1.00  0.00    -0.269 OA
ATOM      7  H   UNL     1       3.027   3.512   3.601  1.00  0.00     0.163 HD
BRANCH   5   8
ATOM      8  C   UNL     1       3.018   2.501   0.378  1.00  0.00     0.082 A 
ATOM      9  C   UNL     1       2.565   1.348  -0.306  1.00  0.00     0.141 A 
ATOM     10  N   UNL     1       3.043   1.020  -1.540  1.00  0.00    -0.238 NA
ATOM     11  C   UNL     1       3.896   1.855  -2.159  1.00  0.00     0.113 A 
ATOM     12  C   UNL     1       3.832   3.382  -0.348  1.00  0.00     0.019 A 
ATOM     13  C   UNL     1       4.291   3.056  -1.622  1.00  0.00     0.021 A 
BRANCH   9  14
ATOM     14  N   UNL     1       1.550   0.537   0.154  1.00  0.00    -0.355 N 
ATOM     15  C   UNL     1      -1.085  -0.180  -1.618  1.00  0.00     0.013 C 
ATOM     16  C   UNL     1      -0.731  -0.116  -0.124  1.00  0.00    -0.016 C 
ATOM     17  C   UNL     1      -2.021  -0.049   0.699  1.00  0.00     0.013 C 
ATOM     18  C   UNL     1       0.143  -1.311   0.294  1.00  0.00     0.030 C 
ATOM     19  C   UNL     1       0.191   1.089   0.170  1.00  0.00     0.124 C 
ATOM     20  C   UNL     1       1.547  -0.887  -0.132  1.00  0.00     0.119 C 
ENDBRANCH   9  14
ENDBRANCH   5   8
ENDBRANCH   3   4
ENDBRANCH   2   3
ENDBRANCH   1   2
BRANCH   1  21
ATOM     21  C   UNL     1       4.032   6.567   4.838  1.00  0.00     0.116 C 
BRANCH  21  22
ATOM     22  N   UNL     1       5.307   7.240   4.646  1.00  0.00    -0.352 N 
ATOM     23  C   UNL     1       6.035   7.978   5.546  1.00  0.00     0.251 C 
ATOM     24  H   UNL     1       5.702   7.154   3.748  1.00  0.00     0.163 HD
ATOM     25  O   UNL     1       7.049   8.564   5.192  1.00  0.00    -0.269 OA
BRANCH  23  26
ATOM     26  C   UNL     1       5.559   8.095   6.939  1.00  0.00     0.039 A 
ATOM     27  C   UNL     1       5.469   9.366   7.510  1.00  0.00     0.014 A 
ATOM     28  C   UNL     1       5.186   6.962   7.667  1.00  0.00     0.014 A 
ATOM     29  C   UNL     1       4.941   9.509   8.794  1.00  0.00     0.010 A 
ATOM     30  C   UNL     1       4.605   7.111   8.923  1.00  0.00     0.010 A 
ATOM     31  C   UNL     1       4.475   8.386   9.495  1.00  0.00    -0.014 A 
BRANCH  31  32
ATOM     32  C   UNL     1       3.838   8.527  10.827  1.00  0.00     0.031 A 
ATOM     33  C   UNL     1       4.498   7.950  12.046  1.00  0.00     0.074 A 
ATOM     34  C   UNL     1       2.633   9.120  10.926  1.00  0.00     0.049 A 
ATOM     35  N   UNL     1       4.072   7.930  13.283  1.00  0.00    -0.248 NA
ATOM     36  C   UNL     1       5.797   7.288  11.845  1.00  0.00     0.031 C 
ATOM     37  C   UNL     1       1.871   9.687   9.811  1.00  0.00     0.029 A 
ATOM     38  N   UNL     1       1.836   9.342  12.020  1.00  0.00    -0.354 N 
ATOM     39  C   UNL     1       5.040   7.243  14.003  1.00  0.00     0.074 A 
ATOM     40  C   UNL     1       6.051   6.821  13.058  1.00  0.00     0.031 C 
ATOM     41  C   UNL     1       0.731  10.217  10.283  1.00  0.00     0.029 A 
ATOM     42  C   UNL     1       0.665   9.995  11.724  1.00  0.00     0.049 A 
ATOM     43  H   UNL     1       2.080   9.059  12.931  1.00  0.00     0.167 HD
ATOM     44  C   UNL     1       5.094   7.000  15.335  1.00  0.00     0.031 A 
ATOM     45  C   UNL     1      -0.349  10.373  12.524  1.00  0.00     0.031 A 
ATOM     46  C   UNL     1       4.093   7.425  16.276  1.00  0.00     0.049 A 
ATOM     47  C   UNL     1      -0.273  10.080  13.995  1.00  0.00     0.074 A 
ATOM     48  C   UNL     1       4.081   7.271  17.651  1.00  0.00     0.029 A 
ATOM     49  N   UNL     1       2.923   8.086  15.936  1.00  0.00    -0.354 N 
ATOM     50  N   UNL     1       0.679   9.484  14.670  1.00  0.00    -0.248 NA
ATOM     51  C   UNL     1      -1.409  10.524  14.816  1.00  0.00     0.031 C 
ATOM     52  C   UNL     1       2.882   7.803  18.139  1.00  0.00     0.029 A 
ATOM     53  C   UNL     1       2.172   8.331  17.073  1.00  0.00     0.049 A 
ATOM     54  H   UNL     1       2.664   8.343  15.021  1.00  0.00     0.167 HD
ATOM     55  C   UNL     1       0.271   9.504  15.997  1.00  0.00     0.074 A 
ATOM     56  C   UNL     1      -1.008  10.183  16.033  1.00  0.00     0.031 C 
ATOM     57  C   UNL     1       0.901   9.007  17.090  1.00  0.00     0.031 A 
BRANCH  44  58
ATOM     58  C   UNL     1       6.280   6.230  15.844  1.00  0.00    -0.014 A 
ATOM     59  C   UNL     1       7.561   6.805  15.872  1.00  0.00     0.009 A 
ATOM     60  C   UNL     1       6.113   4.920  16.319  1.00  0.00     0.009 A 
ATOM     61  C   UNL     1       8.657   6.069  16.325  1.00  0.00     0.001 A 
ATOM     62  C   UNL     1       7.207   4.196  16.798  1.00  0.00     0.001 A 
ATOM     63  C   UNL     1       8.479   4.767  16.791  1.00  0.00     0.000 A 
ENDBRANCH  44  58
BRANCH  45  64
ATOM     64  C   UNL     1      -1.515  11.097  11.954  1.00  0.00    -0.014 A 
ATOM     65  C   UNL     1      -1.692  12.464  12.213  1.00  0.00     0.009 A 
ATOM     66  C   UNL     1      -2.453  10.428  11.153  1.00  0.00     0.009 A 
ATOM     67  C   UNL     1      -2.800  13.143  11.699  1.00  0.00     0.001 A 
ATOM     68  C   UNL     1      -3.545  11.116  10.620  1.00  0.00     0.001 A 
ATOM     69  C   UNL     1      -3.722  12.470  10.900  1.00  0.00     0.000 A 
ENDBRANCH  45  64
BRANCH  57  70
ATOM     70  C   UNL     1       0.230   9.210  18.418  1.00  0.00    -0.014 A 
ATOM     71  C   UNL     1      -0.908   8.473  18.779  1.00  0.00     0.009 A 
ATOM     72  C   UNL     1       0.768  10.129  19.333  1.00  0.00     0.009 A 
ATOM     73  C   UNL     1      -1.513   8.676  20.021  1.00  0.00     0.001 A 
ATOM     74  C   UNL     1       0.177  10.309  20.584  1.00  0.00     0.001 A 
ATOM     75  C   UNL     1      -0.968   9.589  20.924  1.00  0.00     0.000 A 
ENDBRANCH  57  70
ENDBRANCH  31  32
ENDBRANCH  23  26
ENDBRANCH  21  22
ENDBRANCH   1  21
TORSDOF 12
