REMARK SMILES Cc1cccc(-c2ccccc2C(=O)N2CC[C@H](O)C[C@@H]2C(=O)NCCCCNC(=O)c2ccc(-c3c4nc(c(-c5ccccc5)c5ccc([nH]5)c(-c5ccccc5)c5nc(c(-c6ccccc6)c6ccc3[nH]6)C=C5)C=C4)cc2)c1
REMARK SMILES IDX 26 1 25 2 24 3 22 4 23 5 21 7 15 8 16 9 17 10 20 11 18 12
REMARK SMILES IDX 13 13 14 14 12 15 7 16 8 17 9 18 11 19 10 20 6 21 1 22 2 23
REMARK SMILES IDX 3 24 80 25 4 26 5 27 19 28 27 30 28 31 29 32 30 33 31 35
REMARK SMILES IDX 32 36 33 37 79 38 34 39 78 40 35 41 36 42 37 43 72 44 38 45
REMARK SMILES IDX 77 46 71 47 73 48 39 49 76 50 70 51 69 52 40 54 62 55 47 56
REMARK SMILES IDX 61 57 48 58 51 59 60 60 74 61 49 62 50 63 59 65 75 66 52 67
REMARK SMILES IDX 41 68 42 69 46 70 43 71 45 72 44 73 63 74 64 75 68 76 65 77
REMARK SMILES IDX 67 78 66 79 53 80 54 81 58 82 55 83 57 84 56 85
REMARK H PARENT 24 6 19 29 29 34 73 53 51 64
REMARK Flexibility Score: inf
ROOT
ATOM      1  C   UNL     1      -4.557   3.495  -3.280  1.00  0.00     0.023 C 
ENDROOT
BRANCH   1   2
ATOM      2  C   UNL     1      -3.870   3.314  -4.643  1.00  0.00     0.116 C 
BRANCH   2   3
ATOM      3  N   UNL     1      -3.198   4.509  -5.132  1.00  0.00    -0.354 N 
ATOM      4  C   UNL     1      -1.876   4.834  -5.223  1.00  0.00     0.242 C 
ATOM      5  O   UNL     1      -1.614   5.947  -5.695  1.00  0.00    -0.273 OA
ATOM      6  H   UNL     1      -3.808   5.210  -5.456  1.00  0.00     0.163 HD
BRANCH   4   7
ATOM      7  C   UNL     1      -0.762   3.919  -4.663  1.00  0.00     0.177 C 
ATOM      8  N   UNL     1      -0.614   4.159  -3.215  1.00  0.00    -0.326 N 
ATOM      9  C   UNL     1       0.061   5.397  -2.820  1.00  0.00     0.123 C 
ATOM     10  C   UNL     1       1.441   5.496  -3.456  1.00  0.00     0.053 C 
ATOM     11  C   UNL     1       0.576   4.107  -5.403  1.00  0.00     0.067 C 
ATOM     12  C   UNL     1       1.390   5.330  -4.971  1.00  0.00     0.118 C 
BRANCH   8  13
ATOM     13  C   UNL     1      -1.161   3.211  -2.350  1.00  0.00     0.255 C 
ATOM     14  O   UNL     1      -1.435   2.079  -2.749  1.00  0.00    -0.269 OA
BRANCH  13  15
ATOM     15  C   UNL     1      -1.612   3.590  -0.972  1.00  0.00     0.047 A 
ATOM     16  C   UNL     1      -1.661   2.628   0.063  1.00  0.00    -0.006 A 
ATOM     17  C   UNL     1      -2.406   2.936   1.222  1.00  0.00     0.009 A 
ATOM     18  C   UNL     1      -3.070   4.156   1.364  1.00  0.00     0.001 A 
ATOM     19  C   UNL     1      -2.274   4.824  -0.806  1.00  0.00     0.014 A 
ATOM     20  C   UNL     1      -2.989   5.108   0.357  1.00  0.00     0.001 A 
BRANCH  16  21
ATOM     21  C   UNL     1      -0.983   1.320   0.005  1.00  0.00    -0.017 A 
ATOM     22  C   UNL     1       2.573  -0.078   0.025  1.00  0.00     0.044 C 
ATOM     23  C   UNL     1       1.076  -0.000   0.012  1.00  0.00    -0.051 A 
ATOM     24  C   UNL     1       0.317  -1.176  -0.003  1.00  0.00     0.003 A 
ATOM     25  C   UNL     1       0.419   1.239   0.014  1.00  0.00     0.012 A 
ATOM     26  C   UNL     1      -1.075  -1.114  -0.018  1.00  0.00     0.001 A 
ATOM     27  C   UNL     1      -1.720   0.124  -0.012  1.00  0.00     0.009 A 
ENDBRANCH  16  21
ENDBRANCH  13  15
ENDBRANCH   8  13
BRANCH  12  28
ATOM     28  O   UNL     1       0.938   6.538  -5.574  1.00  0.00    -0.393 OA
ATOM     29  H   UNL     1       0.038   6.734  -5.271  1.00  0.00     0.210 HD
ENDBRANCH  12  28
ENDBRANCH   4   7
ENDBRANCH   2   3
ENDBRANCH   1   2
BRANCH   1  30
ATOM     30  C   UNL     1      -5.365   4.781  -3.083  1.00  0.00     0.023 C 
BRANCH  30  31
ATOM     31  C   UNL     1      -6.653   4.820  -3.890  1.00  0.00     0.116 C 
BRANCH  31  32
ATOM     32  N   UNL     1      -7.838   4.380  -3.161  1.00  0.00    -0.352 N 
ATOM     33  C   UNL     1      -9.107   4.101  -3.644  1.00  0.00     0.251 C 
ATOM     34  H   UNL     1      -7.719   4.265  -2.190  1.00  0.00     0.163 HD
ATOM     35  O   UNL     1     -10.006   3.783  -2.880  1.00  0.00    -0.269 OA
BRANCH  33  36
ATOM     36  C   UNL     1      -9.326   4.060  -5.111  1.00  0.00     0.039 A 
ATOM     37  C   UNL     1      -9.942   2.922  -5.642  1.00  0.00     0.014 A 
ATOM     38  C   UNL     1      -8.719   4.988  -5.952  1.00  0.00     0.014 A 
ATOM     39  C   UNL     1      -9.707   2.581  -6.970  1.00  0.00     0.010 A 
ATOM     40  C   UNL     1      -8.400   4.603  -7.239  1.00  0.00     0.010 A 
ATOM     41  C   UNL     1      -8.829   3.362  -7.720  1.00  0.00    -0.014 A 
BRANCH  41  42
ATOM     42  C   UNL     1      -8.180   2.880  -8.932  1.00  0.00     0.031 A 
ATOM     43  C   UNL     1      -8.547   3.404 -10.257  1.00  0.00     0.074 A 
ATOM     44  C   UNL     1      -7.175   1.981  -8.837  1.00  0.00     0.049 A 
ATOM     45  N   UNL     1      -8.365   2.755 -11.359  1.00  0.00    -0.248 NA
ATOM     46  C   UNL     1      -9.191   4.697 -10.442  1.00  0.00     0.031 C 
ATOM     47  C   UNL     1      -6.219   1.592  -9.870  1.00  0.00     0.029 A 
ATOM     48  N   UNL     1      -6.973   1.057  -7.815  1.00  0.00    -0.354 N 
ATOM     49  C   UNL     1      -8.566   3.642 -12.386  1.00  0.00     0.074 A 
ATOM     50  C   UNL     1      -9.165   4.807 -11.773  1.00  0.00     0.031 C 
ATOM     51  C   UNL     1      -5.712   0.388  -9.560  1.00  0.00     0.029 A 
ATOM     52  C   UNL     1      -6.446  -0.106  -8.407  1.00  0.00     0.049 A 
ATOM     53  H   UNL     1      -7.162   1.192  -6.859  1.00  0.00     0.167 HD
ATOM     54  C   UNL     1      -8.072   3.367 -13.625  1.00  0.00     0.031 A 
ATOM     55  C   UNL     1      -7.139  -1.282  -8.361  1.00  0.00     0.031 A 
ATOM     56  C   UNL     1      -7.418   2.061 -13.700  1.00  0.00     0.049 A 
ATOM     57  C   UNL     1      -7.524  -1.848  -9.716  1.00  0.00     0.074 A 
ATOM     58  C   UNL     1      -6.099   1.639 -13.762  1.00  0.00     0.029 A 
ATOM     59  N   UNL     1      -8.166   0.924 -13.441  1.00  0.00    -0.354 N 
ATOM     60  N   UNL     1      -7.309  -1.258 -10.859  1.00  0.00    -0.248 NA
ATOM     61  C   UNL     1      -8.301  -3.079  -9.869  1.00  0.00     0.031 C 
ATOM     62  C   UNL     1      -6.069   0.230 -13.563  1.00  0.00     0.029 A 
ATOM     63  C   UNL     1      -7.368  -0.202 -13.386  1.00  0.00     0.049 A 
ATOM     64  H   UNL     1      -9.142   0.919 -13.313  1.00  0.00     0.167 HD
ATOM     65  C   UNL     1      -7.954  -1.944 -11.857  1.00  0.00     0.074 A 
ATOM     66  C   UNL     1      -8.556  -3.082 -11.188  1.00  0.00     0.031 C 
ATOM     67  C   UNL     1      -7.997  -1.490 -13.144  1.00  0.00     0.031 A 
BRANCH  54  68
ATOM     68  C   UNL     1      -7.960   4.425 -14.693  1.00  0.00    -0.014 A 
ATOM     69  C   UNL     1      -6.883   4.397 -15.595  1.00  0.00     0.009 A 
ATOM     70  C   UNL     1      -8.857   5.498 -14.828  1.00  0.00     0.009 A 
ATOM     71  C   UNL     1      -6.649   5.440 -16.500  1.00  0.00     0.001 A 
ATOM     72  C   UNL     1      -8.604   6.569 -15.696  1.00  0.00     0.001 A 
ATOM     73  C   UNL     1      -7.489   6.545 -16.523  1.00  0.00     0.000 A 
ENDBRANCH  54  68
BRANCH  55  74
ATOM     74  C   UNL     1      -7.975  -1.423  -7.133  1.00  0.00    -0.014 A 
ATOM     75  C   UNL     1      -7.333  -1.438  -5.877  1.00  0.00     0.009 A 
ATOM     76  C   UNL     1      -9.357  -1.196  -7.175  1.00  0.00     0.009 A 
ATOM     77  C   UNL     1      -8.034  -1.113  -4.712  1.00  0.00     0.001 A 
ATOM     78  C   UNL     1     -10.060  -0.896  -6.003  1.00  0.00     0.001 A 
ATOM     79  C   UNL     1      -9.393  -0.817  -4.780  1.00  0.00     0.000 A 
ENDBRANCH  55  74
BRANCH  67  80
ATOM     80  C   UNL     1      -8.692  -2.185 -14.291  1.00  0.00    -0.014 A 
ATOM     81  C   UNL     1      -8.815  -3.576 -14.399  1.00  0.00     0.009 A 
ATOM     82  C   UNL     1      -9.165  -1.424 -15.384  1.00  0.00     0.009 A 
ATOM     83  C   UNL     1      -9.454  -4.168 -15.499  1.00  0.00     0.001 A 
ATOM     84  C   UNL     1      -9.781  -2.009 -16.493  1.00  0.00     0.001 A 
ATOM     85  C   UNL     1      -9.941  -3.385 -16.542  1.00  0.00     0.000 A 
ENDBRANCH  67  80
ENDBRANCH  41  42
ENDBRANCH  33  36
ENDBRANCH  31  32
ENDBRANCH  30  31
ENDBRANCH   1  30
TORSDOF 15
