REMARK SMILES O=C(NCCCCNC(=O)[C@@H]1C=C[C@@H](NS(=O)(=O)c2ccc(F)c(F)c2F)C1)c1ccc(-c2c3nc(c(-c4ccccc4)c4ccc([nH]4)c(-c4ccccc4)c4nc(c(-c5ccccc5)c5ccc2[nH]5)C=C4)C=C3)cc1
REMARK SMILES IDX 6 1 5 2 4 3 3 4 1 5 2 6 29 8 30 9 76 10 31 11 75 12 32 13
REMARK SMILES IDX 33 14 34 15 69 16 35 17 74 18 68 19 70 20 36 21 73 22 67 23
REMARK SMILES IDX 66 24 37 26 59 27 44 28 58 29 45 30 48 31 57 32 71 33 46 34
REMARK SMILES IDX 47 35 56 37 72 38 49 39 38 40 39 41 43 42 40 43 42 44 41 45
REMARK SMILES IDX 60 46 61 47 65 48 62 49 64 50 63 51 50 52 51 53 55 54 52 55
REMARK SMILES IDX 54 56 53 57 7 58 8 59 9 60 10 62 11 63 12 64 28 65 13 66
REMARK SMILES IDX 14 67 15 68 16 70 17 71 18 72 19 73 20 74 26 75 21 76 24 77
REMARK SMILES IDX 27 78 22 79 25 80 23 81
REMARK H PARENT 3 7 70 25 48 36 8 61 15 69
REMARK Flexibility Score: inf
ROOT
ATOM      1  C   UNL     1       4.117  -5.745   4.661  1.00  0.00     0.023 C 
ENDROOT
BRANCH   1   2
ATOM      2  C   UNL     1       2.607  -5.937   4.818  1.00  0.00     0.023 C 
BRANCH   2   3
ATOM      3  C   UNL     1       1.835  -5.992   3.507  1.00  0.00     0.116 C 
BRANCH   3   4
ATOM      4  N   UNL     1       2.310  -7.035   2.612  1.00  0.00    -0.352 N 
ATOM      5  O   UNL     1       2.099  -8.736   1.140  1.00  0.00    -0.269 OA
ATOM      6  C   UNL     1       1.576  -7.813   1.752  1.00  0.00     0.251 C 
ATOM      7  H   UNL     1       3.279  -7.205   2.625  1.00  0.00     0.163 HD
BRANCH   6   8
ATOM      8  C   UNL     1       0.136  -7.540   1.602  1.00  0.00     0.039 A 
ATOM      9  C   UNL     1      -0.316  -6.240   1.356  1.00  0.00     0.014 A 
ATOM     10  C   UNL     1      -0.767  -8.596   1.738  1.00  0.00     0.014 A 
ATOM     11  C   UNL     1      -1.680  -5.976   1.355  1.00  0.00     0.010 A 
ATOM     12  C   UNL     1      -2.135  -8.340   1.667  1.00  0.00     0.010 A 
ATOM     13  C   UNL     1      -2.599  -7.026   1.496  1.00  0.00    -0.014 A 
BRANCH  13  14
ATOM     14  C   UNL     1      -4.051  -6.756   1.392  1.00  0.00     0.031 A 
ATOM     15  C   UNL     1      -4.959  -6.961   2.566  1.00  0.00     0.074 A 
ATOM     16  C   UNL     1      -4.546  -6.358   0.206  1.00  0.00     0.049 A 
ATOM     17  N   UNL     1      -6.262  -6.850   2.627  1.00  0.00    -0.248 NA
ATOM     18  C   UNL     1      -4.326  -7.351   3.835  1.00  0.00     0.031 C 
ATOM     19  C   UNL     1      -3.754  -6.132  -1.006  1.00  0.00     0.029 A 
ATOM     20  N   UNL     1      -5.833  -6.089  -0.180  1.00  0.00    -0.354 N 
ATOM     21  C   UNL     1      -6.609  -7.183   3.929  1.00  0.00     0.074 A 
ATOM     22  C   UNL     1      -5.382  -7.516   4.621  1.00  0.00     0.031 C 
ATOM     23  C   UNL     1      -4.570  -5.750  -1.997  1.00  0.00     0.029 A 
ATOM     24  C   UNL     1      -5.944  -5.768  -1.510  1.00  0.00     0.049 A 
ATOM     25  H   UNL     1      -6.601  -6.122   0.435  1.00  0.00     0.167 HD
ATOM     26  C   UNL     1      -7.841  -7.210   4.492  1.00  0.00     0.031 A 
ATOM     27  C   UNL     1      -7.033  -5.551  -2.268  1.00  0.00     0.031 A 
ATOM     28  C   UNL     1      -9.056  -6.886   3.790  1.00  0.00     0.049 A 
ATOM     29  C   UNL     1      -8.389  -5.626  -1.635  1.00  0.00     0.074 A 
ATOM     30  C   UNL     1     -10.349  -6.837   4.281  1.00  0.00     0.029 A 
ATOM     31  N   UNL     1      -9.128  -6.570   2.441  1.00  0.00    -0.354 N 
ATOM     32  N   UNL     1      -8.701  -5.895  -0.390  1.00  0.00    -0.248 NA
ATOM     33  C   UNL     1      -9.542  -5.367  -2.506  1.00  0.00     0.031 C 
ATOM     34  C   UNL     1     -11.209  -6.550   3.216  1.00  0.00     0.029 A 
ATOM     35  C   UNL     1     -10.447  -6.359   2.074  1.00  0.00     0.049 A 
ATOM     36  H   UNL     1      -8.355  -6.505   1.834  1.00  0.00     0.167 HD
ATOM     37  C   UNL     1     -10.084  -5.819  -0.321  1.00  0.00     0.074 A 
ATOM     38  C   UNL     1     -10.550  -5.468  -1.649  1.00  0.00     0.031 C 
ATOM     39  C   UNL     1     -10.893  -6.017   0.747  1.00  0.00     0.031 A 
BRANCH  26  40
ATOM     40  C   UNL     1      -7.936  -7.651   5.927  1.00  0.00    -0.014 A 
ATOM     41  C   UNL     1      -7.457  -6.851   6.976  1.00  0.00     0.009 A 
ATOM     42  C   UNL     1      -8.536  -8.883   6.234  1.00  0.00     0.009 A 
ATOM     43  C   UNL     1      -7.536  -7.295   8.299  1.00  0.00     0.001 A 
ATOM     44  C   UNL     1      -8.640  -9.312   7.559  1.00  0.00     0.001 A 
ATOM     45  C   UNL     1      -8.129  -8.524   8.589  1.00  0.00     0.000 A 
ENDBRANCH  26  40
BRANCH  27  46
ATOM     46  C   UNL     1      -6.860  -5.272  -3.715  1.00  0.00    -0.014 A 
ATOM     47  C   UNL     1      -7.057  -3.981  -4.224  1.00  0.00     0.009 A 
ATOM     48  C   UNL     1      -6.426  -6.288  -4.583  1.00  0.00     0.009 A 
ATOM     49  C   UNL     1      -6.829  -3.715  -5.577  1.00  0.00     0.001 A 
ATOM     50  C   UNL     1      -6.173  -6.013  -5.927  1.00  0.00     0.001 A 
ATOM     51  C   UNL     1      -6.379  -4.728  -6.424  1.00  0.00     0.000 A 
ENDBRANCH  27  46
BRANCH  39  52
ATOM     52  C   UNL     1     -12.368  -5.831   0.536  1.00  0.00    -0.014 A 
ATOM     53  C   UNL     1     -13.132  -6.787  -0.148  1.00  0.00     0.009 A 
ATOM     54  C   UNL     1     -13.009  -4.710   1.087  1.00  0.00     0.009 A 
ATOM     55  C   UNL     1     -14.511  -6.614  -0.293  1.00  0.00     0.001 A 
ATOM     56  C   UNL     1     -14.390  -4.553   0.963  1.00  0.00     0.001 A 
ATOM     57  C   UNL     1     -15.138  -5.502   0.269  1.00  0.00     0.000 A 
ENDBRANCH  39  52
ENDBRANCH  13  14
ENDBRANCH   6   8
ENDBRANCH   3   4
ENDBRANCH   2   3
ENDBRANCH   1   2
BRANCH   1  58
ATOM     58  C   UNL     1       4.512  -4.433   3.978  1.00  0.00     0.116 C 
BRANCH  58  59
ATOM     59  N   UNL     1       4.399  -3.324   4.898  1.00  0.00    -0.356 N 
ATOM     60  C   UNL     1       5.280  -2.865   5.827  1.00  0.00     0.226 C 
ATOM     61  H   UNL     1       3.553  -2.823   4.843  1.00  0.00     0.163 HD
ATOM     62  O   UNL     1       4.859  -1.988   6.588  1.00  0.00    -0.274 OA
BRANCH  60  63
ATOM     63  C   UNL     1       6.760  -3.309   5.861  1.00  0.00     0.103 C 
ATOM     64  C   UNL     1       7.095  -4.753   5.640  1.00  0.00    -0.016 C 
ATOM     65  C   UNL     1       7.349  -3.109   7.276  1.00  0.00     0.042 C 
ATOM     66  C   UNL     1       7.364  -5.396   6.779  1.00  0.00    -0.011 C 
ATOM     67  C   UNL     1       7.288  -4.490   7.955  1.00  0.00     0.093 C 
BRANCH  67  68
ATOM     68  N   UNL     1       8.435  -4.668   8.820  1.00  0.00    -0.204 NA
ATOM     69  H   UNL     1       8.443  -3.855   9.435  1.00  0.00     0.142 HD
BRANCH  68  70
ATOM     70  S   UNL     1       8.669  -5.981   9.810  1.00  0.00     0.244 S 
ATOM     71  O   UNL     1       8.564  -7.177   8.993  1.00  0.00    -0.207 OA
ATOM     72  O   UNL     1       9.854  -5.715  10.584  1.00  0.00    -0.207 OA
BRANCH  70  73
ATOM     73  C   UNL     1       7.315  -6.011  10.934  1.00  0.00     0.121 A 
ATOM     74  C   UNL     1       6.726  -7.244  11.256  1.00  0.00     0.028 A 
ATOM     75  C   UNL     1       6.830  -4.832  11.484  1.00  0.00     0.181 A 
ATOM     76  C   UNL     1       5.643  -7.285  12.135  1.00  0.00     0.044 A 
ATOM     77  C   UNL     1       5.744  -4.878  12.350  1.00  0.00     0.195 A 
ATOM     78  F   UNL     1       7.379  -3.647  11.186  1.00  0.00    -0.202 F 
ATOM     79  C   UNL     1       5.156  -6.097  12.674  1.00  0.00     0.161 A 
ATOM     80  F   UNL     1       5.254  -3.743  12.869  1.00  0.00    -0.200 F 
ATOM     81  F   UNL     1       4.108  -6.141  13.507  1.00  0.00    -0.204 F 
ENDBRANCH  70  73
ENDBRANCH  68  70
ENDBRANCH  67  68
ENDBRANCH  60  63
ENDBRANCH  58  59
ENDBRANCH   1  58
TORSDOF 14
