REMARK SMILES CCNC(=O)N1[C@@H](C(=O)NCCCCNC(=O)c2ccc(-c3c4nc(c(-c5ccccc5)c5ccc([nH]5)c(-c5ccccc5)c5nc(c(-c6ccccc6)c6ccc3[nH]6)C=C5)C=C4)cc2)CC[C@@H]2CCCC[C@H]21
REMARK SMILES IDX 12 1 11 2 10 3 8 4 9 5 7 7 6 8 73 9 66 10 68 11 72 12 67 13
REMARK SMILES IDX 69 14 71 15 70 16 4 17 3 18 5 20 2 21 1 22 13 23 14 24 15 25
REMARK SMILES IDX 16 26 17 28 18 29 19 30 65 31 20 32 64 33 21 34 22 35 23 36
REMARK SMILES IDX 58 37 24 38 63 39 57 40 59 41 25 42 62 43 56 44 55 45 26 47
REMARK SMILES IDX 48 48 33 49 47 50 34 51 37 52 46 53 60 54 35 55 36 56 45 58
REMARK SMILES IDX 61 59 38 60 27 61 28 62 32 63 29 64 31 65 30 66 49 67 50 68
REMARK SMILES IDX 54 69 51 70 53 71 52 72 39 73 40 74 44 75 41 76 43 77 42 78
REMARK H PARENT 10 6 3 19 15 27 59 46 37 57
REMARK Flexibility Score: inf
ROOT
ATOM      1  C   UNL     1      -0.906   6.599  -1.476  1.00  0.00     0.023 C 
ENDROOT
BRANCH   1   2
ATOM      2  C   UNL     1      -0.453   5.151  -1.636  1.00  0.00     0.116 C 
BRANCH   2   3
ATOM      3  N   UNL     1      -0.477   4.474  -0.353  1.00  0.00    -0.354 N 
ATOM      4  C   UNL     1      -1.212   3.398   0.043  1.00  0.00     0.242 C 
ATOM      5  O   UNL     1      -1.241   3.142   1.251  1.00  0.00    -0.273 OA
ATOM      6  H   UNL     1       0.126   4.847   0.330  1.00  0.00     0.163 HD
BRANCH   4   7
ATOM      7  C   UNL     1      -2.093   2.604  -0.950  1.00  0.00     0.176 C 
ATOM      8  N   UNL     1      -1.450   2.209  -2.230  1.00  0.00    -0.310 N 
ATOM      9  C   UNL     1      -2.370   1.728  -3.296  1.00  0.00     0.091 C 
ATOM     10  C   UNL     1      -3.349   3.481  -1.154  1.00  0.00     0.036 C 
ATOM     11  C   UNL     1      -3.521   2.728  -3.540  1.00  0.00     0.012 C 
ATOM     12  C   UNL     1      -1.721   1.316  -4.634  1.00  0.00     0.025 C 
ATOM     13  C   UNL     1      -4.282   2.975  -2.236  1.00  0.00     0.008 C 
ATOM     14  C   UNL     1      -4.510   2.242  -4.611  1.00  0.00     0.006 C 
ATOM     15  C   UNL     1      -2.743   0.796  -5.641  1.00  0.00     0.002 C 
ATOM     16  C   UNL     1      -3.818   1.839  -5.906  1.00  0.00     0.000 C 
BRANCH   8  17
ATOM     17  C   UNL     1      -0.094   2.066  -2.386  1.00  0.00     0.318 C 
ATOM     18  N   UNL     1       0.701   1.625  -1.392  1.00  0.00    -0.338 N 
ATOM     19  H   UNL     1       1.649   1.856  -1.523  1.00  0.00     0.165 HD
ATOM     20  O   UNL     1       0.485   2.379  -3.429  1.00  0.00    -0.249 OA
BRANCH  18  21
ATOM     21  C   UNL     1       0.457   0.883  -0.170  1.00  0.00     0.114 C 
ATOM     22  C   UNL     1       1.248  -0.413  -0.160  1.00  0.00     0.027 C 
ENDBRANCH  18  21
ENDBRANCH   8  17
ENDBRANCH   4   7
ENDBRANCH   2   3
ENDBRANCH   1   2
BRANCH   1  23
ATOM     23  C   UNL     1       0.053   7.459  -0.653  1.00  0.00     0.023 C 
BRANCH  23  24
ATOM     24  C   UNL     1       1.481   7.487  -1.181  1.00  0.00     0.116 C 
BRANCH  24  25
ATOM     25  N   UNL     1       1.559   7.983  -2.546  1.00  0.00    -0.352 N 
ATOM     26  C   UNL     1       2.395   8.940  -3.062  1.00  0.00     0.251 C 
ATOM     27  H   UNL     1       0.927   7.579  -3.184  1.00  0.00     0.163 HD
ATOM     28  O   UNL     1       2.218   9.384  -4.192  1.00  0.00    -0.269 OA
BRANCH  26  29
ATOM     29  C   UNL     1       3.501   9.449  -2.229  1.00  0.00     0.039 A 
ATOM     30  C   UNL     1       3.703  10.827  -2.140  1.00  0.00     0.014 A 
ATOM     31  C   UNL     1       4.314   8.564  -1.515  1.00  0.00     0.014 A 
ATOM     32  C   UNL     1       4.692  11.321  -1.290  1.00  0.00     0.010 A 
ATOM     33  C   UNL     1       5.239   9.061  -0.605  1.00  0.00     0.010 A 
ATOM     34  C   UNL     1       5.446  10.444  -0.492  1.00  0.00    -0.014 A 
BRANCH  34  35
ATOM     35  C   UNL     1       6.472  10.954   0.450  1.00  0.00     0.031 A 
ATOM     36  C   UNL     1       7.920  10.597   0.250  1.00  0.00     0.074 A 
ATOM     37  C   UNL     1       6.098  11.703   1.506  1.00  0.00     0.049 A 
ATOM     38  N   UNL     1       8.957  10.916   0.982  1.00  0.00    -0.248 NA
ATOM     39  C   UNL     1       8.243   9.750  -0.910  1.00  0.00     0.031 C 
ATOM     40  C   UNL     1       4.723  12.091   1.830  1.00  0.00     0.029 A 
ATOM     41  N   UNL     1       6.847  12.276   2.503  1.00  0.00    -0.354 N 
ATOM     42  C   UNL     1      10.047  10.304   0.376  1.00  0.00     0.074 A 
ATOM     43  C   UNL     1       9.540   9.543  -0.743  1.00  0.00     0.031 C 
ATOM     44  C   UNL     1       4.732  12.868   2.925  1.00  0.00     0.029 A 
ATOM     45  C   UNL     1       6.103  12.997   3.406  1.00  0.00     0.049 A 
ATOM     46  H   UNL     1       7.824  12.179   2.566  1.00  0.00     0.167 HD
ATOM     47  C   UNL     1      11.358  10.389   0.704  1.00  0.00     0.031 A 
ATOM     48  C   UNL     1       6.485  13.683   4.499  1.00  0.00     0.031 A 
ATOM     49  C   UNL     1      11.865  11.150   1.814  1.00  0.00     0.049 A 
ATOM     50  C   UNL     1       7.944  13.732   4.860  1.00  0.00     0.074 A 
ATOM     51  C   UNL     1      13.179  11.328   2.209  1.00  0.00     0.029 A 
ATOM     52  N   UNL     1      11.078  11.860   2.707  1.00  0.00    -0.354 N 
ATOM     53  N   UNL     1       8.969  13.197   4.241  1.00  0.00    -0.248 NA
ATOM     54  C   UNL     1       8.300  14.494   6.066  1.00  0.00     0.031 C 
ATOM     55  C   UNL     1      13.184  12.103   3.372  1.00  0.00     0.029 A 
ATOM     56  C   UNL     1      11.877  12.462   3.663  1.00  0.00     0.049 A 
ATOM     57  H   UNL     1      10.096  11.925   2.668  1.00  0.00     0.167 HD
ATOM     58  C   UNL     1      10.092  13.590   4.959  1.00  0.00     0.074 A 
ATOM     59  C   UNL     1       9.623  14.421   6.049  1.00  0.00     0.031 C 
ATOM     60  C   UNL     1      11.395  13.293   4.736  1.00  0.00     0.031 A 
BRANCH  47  61
ATOM     61  C   UNL     1      12.337   9.637  -0.155  1.00  0.00    -0.014 A 
ATOM     62  C   UNL     1      12.596  10.033  -1.478  1.00  0.00     0.009 A 
ATOM     63  C   UNL     1      13.039   8.543   0.374  1.00  0.00     0.009 A 
ATOM     64  C   UNL     1      13.510   9.327  -2.263  1.00  0.00     0.001 A 
ATOM     65  C   UNL     1      13.976   7.859  -0.403  1.00  0.00     0.001 A 
ATOM     66  C   UNL     1      14.203   8.245  -1.723  1.00  0.00     0.000 A 
ENDBRANCH  47  61
BRANCH  48  67
ATOM     67  C   UNL     1       5.479  14.398   5.330  1.00  0.00    -0.014 A 
ATOM     68  C   UNL     1       5.469  15.801   5.387  1.00  0.00     0.009 A 
ATOM     69  C   UNL     1       4.545  13.684   6.097  1.00  0.00     0.009 A 
ATOM     70  C   UNL     1       4.575  16.471   6.225  1.00  0.00     0.001 A 
ATOM     71  C   UNL     1       3.629  14.358   6.907  1.00  0.00     0.001 A 
ATOM     72  C   UNL     1       3.654  15.749   6.982  1.00  0.00     0.000 A 
ENDBRANCH  48  67
BRANCH  60  73
ATOM     73  C   UNL     1      12.410  13.915   5.655  1.00  0.00    -0.014 A 
ATOM     74  C   UNL     1      12.534  13.514   6.994  1.00  0.00     0.009 A 
ATOM     75  C   UNL     1      13.279  14.899   5.157  1.00  0.00     0.009 A 
ATOM     76  C   UNL     1      13.479  14.116   7.826  1.00  0.00     0.001 A 
ATOM     77  C   UNL     1      14.246  15.474   5.981  1.00  0.00     0.001 A 
ATOM     78  C   UNL     1      14.337  15.091   7.318  1.00  0.00     0.000 A 
ENDBRANCH  60  73
ENDBRANCH  34  35
ENDBRANCH  26  29
ENDBRANCH  24  25
ENDBRANCH  23  24
ENDBRANCH   1  23
TORSDOF 13
