REMARK SMILES CC[NH+]1CCC2(CC1)OC[C@H](C(=O)NCCCCNC(=O)c1ccc(-c3c4nc(c(-c5ccccc5)c5ccc([nH]5)c(-c5ccccc5)c5nc(c(-c6ccccc6)c6ccc3[nH]6)C=C5)C=C4)cc1)N2C(=O)c1ccccc1
REMARK SMILES IDX 16 1 15 2 14 3 12 4 13 5 11 7 3 8 4 9 8 10 5 12 7 13 6 14
REMARK SMILES IDX 9 15 70 16 10 17 2 18 1 19 71 20 72 21 73 22 74 23 78 24
REMARK SMILES IDX 75 25 77 26 76 27 17 28 18 29 19 30 20 31 21 33 22 34 23 35
REMARK SMILES IDX 69 36 24 37 68 38 25 39 26 40 27 41 62 42 28 43 67 44 61 45
REMARK SMILES IDX 63 46 29 47 66 48 60 49 59 50 30 52 52 53 37 54 51 55 38 56
REMARK SMILES IDX 41 57 50 58 64 59 39 60 40 61 49 63 65 64 42 65 31 66 32 67
REMARK SMILES IDX 36 68 33 69 35 70 34 71 53 72 54 73 58 74 55 75 57 76 56 77
REMARK SMILES IDX 43 78 44 79 48 80 45 81 47 82 46 83
REMARK H PARENT 14 6 3 11 19 32 63 51 41 62
REMARK Flexibility Score: inf
ROOT
ATOM      1  C   UNL     1      -5.641   3.286   3.318  1.00  0.00     0.023 C 
ENDROOT
BRANCH   1   2
ATOM      2  C   UNL     1      -4.147   3.037   3.163  1.00  0.00     0.116 C 
BRANCH   2   3
ATOM      3  N   UNL     1      -3.321   4.115   3.681  1.00  0.00    -0.354 N 
ATOM      4  C   UNL     1      -2.252   4.163   4.528  1.00  0.00     0.245 C 
ATOM      5  O   UNL     1      -1.626   5.232   4.484  1.00  0.00    -0.273 OA
ATOM      6  H   UNL     1      -3.592   5.002   3.350  1.00  0.00     0.163 HD
BRANCH   4   7
ATOM      7  C   UNL     1      -1.737   3.000   5.430  1.00  0.00     0.203 C 
ATOM      8  N   UNL     1       0.596  -0.017   1.925  1.00  0.00    -0.335 N 
ATOM      9  C   UNL     1       0.011   1.310   1.851  1.00  0.00     0.267 C 
ATOM     10  C   UNL     1       0.622  -0.635   3.247  1.00  0.00     0.267 C 
ATOM     11  H   UNL     1       1.584   0.176   1.763  1.00  0.00     0.348 HD
ATOM     12  C   UNL     1      -1.264   1.459   2.646  1.00  0.00     0.120 C 
ATOM     13  C   UNL     1      -0.464  -0.270   4.259  1.00  0.00     0.120 C 
ATOM     14  C   UNL     1      -1.083   1.121   4.130  1.00  0.00     0.155 C 
ATOM     15  O   UNL     1      -2.438   0.919   4.671  1.00  0.00    -0.352 OA
ATOM     16  N   UNL     1      -0.586   2.263   4.912  1.00  0.00    -0.295 N 
ATOM     17  C   UNL     1      -2.679   1.876   5.720  1.00  0.00     0.198 C 
BRANCH   8  18
ATOM     18  C   UNL     1       0.239  -0.912   0.830  1.00  0.00     0.258 C 
ATOM     19  C   UNL     1       0.918  -0.479  -0.470  1.00  0.00     0.071 C 
ENDBRANCH   8  18
BRANCH  16  20
ATOM     20  C   UNL     1       0.674   2.704   5.283  1.00  0.00     0.256 C 
ATOM     21  O   UNL     1       0.857   3.722   5.948  1.00  0.00    -0.269 OA
BRANCH  20  22
ATOM     22  C   UNL     1       1.879   1.917   4.997  1.00  0.00     0.040 A 
ATOM     23  C   UNL     1       2.294   0.940   5.909  1.00  0.00     0.014 A 
ATOM     24  C   UNL     1       2.676   2.237   3.896  1.00  0.00     0.014 A 
ATOM     25  C   UNL     1       3.449   0.198   5.647  1.00  0.00     0.001 A 
ATOM     26  C   UNL     1       3.814   1.476   3.623  1.00  0.00     0.001 A 
ATOM     27  C   UNL     1       4.192   0.449   4.491  1.00  0.00     0.000 A 
ENDBRANCH  20  22
ENDBRANCH  16  20
ENDBRANCH   4   7
ENDBRANCH   2   3
ENDBRANCH   1   2
BRANCH   1  28
ATOM     28  C   UNL     1      -6.258   4.150   2.222  1.00  0.00     0.023 C 
BRANCH  28  29
ATOM     29  C   UNL     1      -6.036   3.668   0.790  1.00  0.00     0.116 C 
BRANCH  29  30
ATOM     30  N   UNL     1      -6.436   2.288   0.556  1.00  0.00    -0.352 N 
ATOM     31  C   UNL     1      -7.094   1.751  -0.527  1.00  0.00     0.251 C 
ATOM     32  H   UNL     1      -6.205   1.652   1.271  1.00  0.00     0.163 HD
ATOM     33  O   UNL     1      -7.428   0.574  -0.532  1.00  0.00    -0.269 OA
BRANCH  31  34
ATOM     34  C   UNL     1      -7.433   2.622  -1.673  1.00  0.00     0.039 A 
ATOM     35  C   UNL     1      -8.741   2.608  -2.165  1.00  0.00     0.014 A 
ATOM     36  C   UNL     1      -6.479   3.477  -2.230  1.00  0.00     0.014 A 
ATOM     37  C   UNL     1      -9.110   3.507  -3.166  1.00  0.00     0.010 A 
ATOM     38  C   UNL     1      -6.868   4.426  -3.170  1.00  0.00     0.010 A 
ATOM     39  C   UNL     1      -8.187   4.451  -3.649  1.00  0.00    -0.014 A 
BRANCH  39  40
ATOM     40  C   UNL     1      -8.590   5.471  -4.649  1.00  0.00     0.031 A 
ATOM     41  C   UNL     1      -7.963   5.482  -6.016  1.00  0.00     0.074 A 
ATOM     42  C   UNL     1      -9.483   6.421  -4.311  1.00  0.00     0.049 A 
ATOM     43  N   UNL     1      -8.176   6.301  -7.015  1.00  0.00    -0.248 NA
ATOM     44  C   UNL     1      -6.943   4.456  -6.289  1.00  0.00     0.031 C 
ATOM     45  C   UNL     1     -10.125   6.556  -3.001  1.00  0.00     0.029 A 
ATOM     46  N   UNL     1     -10.006   7.457  -5.044  1.00  0.00    -0.354 N 
ATOM     47  C   UNL     1      -7.310   5.899  -8.024  1.00  0.00     0.074 A 
ATOM     48  C   UNL     1      -6.529   4.801  -7.498  1.00  0.00     0.031 C 
ATOM     49  C   UNL     1     -10.982   7.589  -3.035  1.00  0.00     0.029 A 
ATOM     50  C   UNL     1     -10.926   8.210  -4.354  1.00  0.00     0.049 A 
ATOM     51  H   UNL     1      -9.747   7.643  -5.975  1.00  0.00     0.167 HD
ATOM     52  C   UNL     1      -7.191   6.381  -9.284  1.00  0.00     0.031 A 
ATOM     53  C   UNL     1     -11.646   9.280  -4.742  1.00  0.00     0.031 A 
ATOM     54  C   UNL     1      -7.973   7.466  -9.812  1.00  0.00     0.049 A 
ATOM     55  C   UNL     1     -11.496   9.796  -6.146  1.00  0.00     0.074 A 
ATOM     56  C   UNL     1      -7.968   7.989 -11.093  1.00  0.00     0.029 A 
ATOM     57  N   UNL     1      -8.899   8.197  -9.085  1.00  0.00    -0.354 N 
ATOM     58  N   UNL     1     -10.730   9.352  -7.113  1.00  0.00    -0.248 NA
ATOM     59  C   UNL     1     -12.325  10.952  -6.515  1.00  0.00     0.031 C 
ATOM     60  C   UNL     1      -8.856   9.070 -11.128  1.00  0.00     0.029 A 
ATOM     61  C   UNL     1      -9.456   9.182  -9.884  1.00  0.00     0.049 A 
ATOM     62  H   UNL     1      -9.128   8.039  -8.140  1.00  0.00     0.167 HD
ATOM     63  C   UNL     1     -11.004  10.156  -8.212  1.00  0.00     0.074 A 
ATOM     64  C   UNL     1     -12.021  11.100  -7.797  1.00  0.00     0.031 C 
ATOM     65  C   UNL     1     -10.462  10.118  -9.454  1.00  0.00     0.031 A 
BRANCH  52  66
ATOM     66  C   UNL     1      -6.168   5.733 -10.176  1.00  0.00    -0.014 A 
ATOM     67  C   UNL     1      -6.343   4.423 -10.651  1.00  0.00     0.009 A 
ATOM     68  C   UNL     1      -5.026   6.449 -10.566  1.00  0.00     0.009 A 
ATOM     69  C   UNL     1      -5.376   3.829 -11.465  1.00  0.00     0.001 A 
ATOM     70  C   UNL     1      -4.076   5.864 -11.406  1.00  0.00     0.001 A 
ATOM     71  C   UNL     1      -4.246   4.551 -11.845  1.00  0.00     0.000 A 
ENDBRANCH  52  66
BRANCH  53  72
ATOM     72  C   UNL     1     -12.598   9.921  -3.798  1.00  0.00    -0.014 A 
ATOM     73  C   UNL     1     -13.983   9.805  -3.995  1.00  0.00     0.009 A 
ATOM     74  C   UNL     1     -12.129  10.663  -2.703  1.00  0.00     0.009 A 
ATOM     75  C   UNL     1     -14.877  10.443  -3.132  1.00  0.00     0.001 A 
ATOM     76  C   UNL     1     -13.026  11.275  -1.825  1.00  0.00     0.001 A 
ATOM     77  C   UNL     1     -14.399  11.173  -2.046  1.00  0.00     0.000 A 
ENDBRANCH  53  72
BRANCH  65  78
ATOM     78  C   UNL     1     -10.984  11.107 -10.458  1.00  0.00    -0.014 A 
ATOM     79  C   UNL     1     -10.683  12.474 -10.361  1.00  0.00     0.009 A 
ATOM     80  C   UNL     1     -11.768  10.658 -11.532  1.00  0.00     0.009 A 
ATOM     81  C   UNL     1     -11.193  13.377 -11.296  1.00  0.00     0.001 A 
ATOM     82  C   UNL     1     -12.251  11.558 -12.482  1.00  0.00     0.001 A 
ATOM     83  C   UNL     1     -11.973  12.918 -12.357  1.00  0.00     0.000 A 
ENDBRANCH  65  78
ENDBRANCH  39  40
ENDBRANCH  31  34
ENDBRANCH  29  30
ENDBRANCH  28  29
ENDBRANCH   1  28
TORSDOF 14
