REMARK SMILES CCCCN(c1ccccc1C(=O)NCCCCNC(=O)c1ccc(-c2c3nc(c(-c4ccccc4)c4ccc([nH]4)c(-c4ccccc4)c4nc(c(-c5ccccc5)c5ccc2[nH]5)C=C4)C=C3)cc1)S(=O)(=O)c1ccc2c(c1)oc(=O)n2C
REMARK SMILES IDX 15 1 14 2 12 3 13 4 11 6 6 7 7 8 8 9 10 10 9 11 5 12 4 13
REMARK SMILES IDX 3 14 2 15 1 16 70 17 71 18 72 19 73 20 74 21 78 22 75 23
REMARK SMILES IDX 77 24 76 25 79 26 82 27 80 28 83 29 81 30 16 31 17 32 18 33
REMARK SMILES IDX 19 34 20 35 21 37 22 38 23 39 69 40 24 41 68 42 25 43 26 44
REMARK SMILES IDX 27 45 62 46 28 47 67 48 61 49 63 50 29 51 66 52 60 53 59 54
REMARK SMILES IDX 30 56 52 57 37 58 51 59 38 60 41 61 50 62 64 63 39 64 40 65
REMARK SMILES IDX 49 67 65 68 42 69 31 70 32 71 36 72 33 73 35 74 34 75 53 76
REMARK SMILES IDX 54 77 58 78 55 79 57 80 56 81 43 82 44 83 48 84 45 85 47 86
REMARK SMILES IDX 46 87
REMARK H PARENT 14 5 19 36 63 55 41 66
REMARK Flexibility Score: inf
ROOT
ATOM      1  C   UNL     1      -0.231  -2.729   0.301  1.00  0.00     0.116 C 
ENDROOT
BRANCH   1   2
ATOM      2  N   UNL     1       0.263  -3.959  -0.270  1.00  0.00    -0.352 N 
ATOM      3  C   UNL     1      -0.096  -4.643  -1.414  1.00  0.00     0.253 C 
ATOM      4  O   UNL     1       0.602  -5.622  -1.700  1.00  0.00    -0.269 OA
ATOM      5  H   UNL     1       0.983  -4.386   0.248  1.00  0.00     0.163 HD
BRANCH   3   6
ATOM      6  C   UNL     1      -1.272  -4.360  -2.308  1.00  0.00     0.064 A 
ATOM      7  C   UNL     1      -1.723  -3.119  -2.809  1.00  0.00     0.065 A 
ATOM      8  C   UNL     1      -2.755  -3.078  -3.771  1.00  0.00     0.028 A 
ATOM      9  C   UNL     1      -3.409  -4.238  -4.175  1.00  0.00     0.002 A 
ATOM     10  C   UNL     1      -1.933  -5.522  -2.764  1.00  0.00     0.016 A 
ATOM     11  C   UNL     1      -2.999  -5.463  -3.668  1.00  0.00     0.001 A 
BRANCH   7  12
ATOM     12  N   UNL     1      -1.143  -1.865  -2.417  1.00  0.00    -0.266 N 
BRANCH  12  13
ATOM     13  C   UNL     1       0.259  -1.640  -2.899  1.00  0.00     0.136 C 
BRANCH  13  14
ATOM     14  C   UNL     1       0.652  -0.360  -3.634  1.00  0.00     0.022 C 
BRANCH  14  15
ATOM     15  C   UNL     1       0.604   0.994  -2.929  1.00  0.00    -0.002 C 
ATOM     16  C   UNL     1       1.124   1.012  -1.510  1.00  0.00     0.004 C 
ENDBRANCH  14  15
ENDBRANCH  13  14
ENDBRANCH  12  13
BRANCH  12  17
ATOM     17  S   UNL     1      -2.155  -0.638  -1.790  1.00  0.00     0.264 S 
ATOM     18  O   UNL     1      -1.570  -0.140  -0.562  1.00  0.00    -0.201 OA
ATOM     19  O   UNL     1      -2.468   0.249  -2.893  1.00  0.00    -0.201 OA
BRANCH  17  20
ATOM     20  C   UNL     1      -3.750  -1.342  -1.297  1.00  0.00     0.091 A 
ATOM     21  C   UNL     1      -4.911  -0.605  -1.635  1.00  0.00     0.025 A 
ATOM     22  C   UNL     1      -3.873  -2.623  -0.750  1.00  0.00     0.071 A 
ATOM     23  C   UNL     1      -6.185  -1.183  -1.549  1.00  0.00     0.032 A 
ATOM     24  C   UNL     1      -5.130  -3.187  -0.731  1.00  0.00     0.157 A 
ATOM     25  C   UNL     1      -6.248  -2.498  -1.147  1.00  0.00     0.090 A 
ATOM     26  O   UNL     1      -5.389  -4.513  -0.423  1.00  0.00    -0.408 OA
ATOM     27  N   UNL     1      -7.272  -3.413  -1.128  1.00  0.00    -0.277 N 
ATOM     28  C   UNL     1      -6.747  -4.634  -0.748  1.00  0.00     0.419 A 
ATOM     29  C   UNL     1      -8.606  -3.217  -1.610  1.00  0.00     0.157 C 
ATOM     30  O   UNL     1      -7.345  -5.698  -0.717  1.00  0.00    -0.223 OA
ENDBRANCH  17  20
ENDBRANCH  12  17
ENDBRANCH   7  12
ENDBRANCH   3   6
ENDBRANCH   1   2
BRANCH   1  31
ATOM     31  C   UNL     1      -0.062  -2.537   1.801  1.00  0.00     0.023 C 
BRANCH  31  32
ATOM     32  C   UNL     1       1.354  -2.252   2.292  1.00  0.00     0.023 C 
BRANCH  32  33
ATOM     33  C   UNL     1       2.149  -1.157   1.583  1.00  0.00     0.116 C 
BRANCH  33  34
ATOM     34  N   UNL     1       1.541   0.166   1.567  1.00  0.00    -0.352 N 
ATOM     35  C   UNL     1       2.142   1.405   1.678  1.00  0.00     0.251 C 
ATOM     36  H   UNL     1       0.562   0.179   1.464  1.00  0.00     0.163 HD
ATOM     37  O   UNL     1       1.490   2.435   1.533  1.00  0.00    -0.269 OA
BRANCH  35  38
ATOM     38  C   UNL     1       3.561   1.505   2.081  1.00  0.00     0.039 A 
ATOM     39  C   UNL     1       3.857   2.327   3.171  1.00  0.00     0.014 A 
ATOM     40  C   UNL     1       4.556   0.715   1.504  1.00  0.00     0.014 A 
ATOM     41  C   UNL     1       5.099   2.223   3.792  1.00  0.00     0.010 A 
ATOM     42  C   UNL     1       5.761   0.542   2.179  1.00  0.00     0.010 A 
ATOM     43  C   UNL     1       6.021   1.260   3.356  1.00  0.00    -0.014 A 
BRANCH  43  44
ATOM     44  C   UNL     1       7.210   0.943   4.183  1.00  0.00     0.031 A 
ATOM     45  C   UNL     1       8.591   1.195   3.658  1.00  0.00     0.074 A 
ATOM     46  C   UNL     1       7.029   0.386   5.399  1.00  0.00     0.049 A 
ATOM     47  N   UNL     1       9.742   0.990   4.243  1.00  0.00    -0.248 NA
ATOM     48  C   UNL     1       8.695   1.726   2.290  1.00  0.00     0.031 C 
ATOM     49  C   UNL     1       5.731   0.045   5.992  1.00  0.00     0.029 A 
ATOM     50  N   UNL     1       7.934   0.012   6.361  1.00  0.00    -0.354 N 
ATOM     51  C   UNL     1      10.706   1.361   3.315  1.00  0.00     0.074 A 
ATOM     52  C   UNL     1      10.008   1.751   2.110  1.00  0.00     0.031 C 
ATOM     53  C   UNL     1       5.922  -0.443   7.228  1.00  0.00     0.029 A 
ATOM     54  C   UNL     1       7.353  -0.493   7.501  1.00  0.00     0.049 A 
ATOM     55  H   UNL     1       8.908   0.099   6.247  1.00  0.00     0.167 HD
ATOM     56  C   UNL     1      12.050   1.393   3.464  1.00  0.00     0.031 A 
ATOM     57  C   UNL     1       7.912  -0.947   8.639  1.00  0.00     0.031 A 
ATOM     58  C   UNL     1      12.735   1.000   4.666  1.00  0.00     0.049 A 
ATOM     59  C   UNL     1       9.410  -0.912   8.769  1.00  0.00     0.074 A 
ATOM     60  C   UNL     1      14.091   1.037   4.937  1.00  0.00     0.029 A 
ATOM     61  N   UNL     1      12.113   0.493   5.798  1.00  0.00    -0.354 N 
ATOM     62  N   UNL     1      10.303  -0.480   7.911  1.00  0.00    -0.248 NA
ATOM     63  C   UNL     1       9.977  -1.414  10.028  1.00  0.00     0.031 C 
ATOM     64  C   UNL     1      14.295   0.496   6.210  1.00  0.00     0.029 A 
ATOM     65  C   UNL     1      13.061   0.186   6.758  1.00  0.00     0.049 A 
ATOM     66  H   UNL     1      11.142   0.370   5.901  1.00  0.00     0.167 HD
ATOM     67  C   UNL     1      11.534  -0.632   8.536  1.00  0.00     0.074 A 
ATOM     68  C   UNL     1      11.269  -1.173   9.854  1.00  0.00     0.031 C 
ATOM     69  C   UNL     1      12.773  -0.351   8.064  1.00  0.00     0.031 A 
BRANCH  56  70
ATOM     70  C   UNL     1      12.867   1.856   2.289  1.00  0.00    -0.014 A 
ATOM     71  C   UNL     1      12.841   3.196   1.867  1.00  0.00     0.009 A 
ATOM     72  C   UNL     1      13.698   0.949   1.615  1.00  0.00     0.009 A 
ATOM     73  C   UNL     1      13.605   3.608   0.772  1.00  0.00     0.001 A 
ATOM     74  C   UNL     1      14.484   1.370   0.541  1.00  0.00     0.001 A 
ATOM     75  C   UNL     1      14.429   2.696   0.115  1.00  0.00     0.000 A 
ENDBRANCH  56  70
BRANCH  57  76
ATOM     76  C   UNL     1       7.063  -1.468   9.747  1.00  0.00    -0.014 A 
ATOM     77  C   UNL     1       6.988  -0.791  10.975  1.00  0.00     0.009 A 
ATOM     78  C   UNL     1       6.343  -2.663   9.592  1.00  0.00     0.009 A 
ATOM     79  C   UNL     1       6.242  -1.319  12.033  1.00  0.00     0.001 A 
ATOM     80  C   UNL     1       5.570  -3.170  10.639  1.00  0.00     0.001 A 
ATOM     81  C   UNL     1       5.531  -2.505  11.863  1.00  0.00     0.000 A 
ENDBRANCH  57  76
BRANCH  69  82
ATOM     82  C   UNL     1      13.930  -0.589   8.992  1.00  0.00    -0.014 A 
ATOM     83  C   UNL     1      14.342  -1.887   9.331  1.00  0.00     0.009 A 
ATOM     84  C   UNL     1      14.645   0.507   9.501  1.00  0.00     0.009 A 
ATOM     85  C   UNL     1      15.425  -2.081  10.190  1.00  0.00     0.001 A 
ATOM     86  C   UNL     1      15.748   0.309  10.331  1.00  0.00     0.001 A 
ATOM     87  C   UNL     1      16.130  -0.984  10.684  1.00  0.00     0.000 A 
ENDBRANCH  69  82
ENDBRANCH  43  44
ENDBRANCH  35  38
ENDBRANCH  33  34
ENDBRANCH  32  33
ENDBRANCH  31  32
ENDBRANCH   1  31
TORSDOF 17
