REMARK SMILES CC[C@H](C(=O)NCCCCNC(=O)c1ccc(-c2c3nc(c(-c4ccccc4)c4ccc([nH]4)c(-c4ccccc4)c4nc(c(-c5ccccc5)c5ccc2[nH]5)C=C4)C=C3)cc1)[N@H+](C)[C@H]1CC[C@H]([NH3+])CC1
REMARK SMILES IDX 8 1 7 2 6 3 4 4 5 5 3 7 2 8 1 9 62 10 63 11 64 13 65 14
REMARK SMILES IDX 70 15 66 16 69 17 67 18 68 19 9 23 10 24 11 25 12 26 13 28
REMARK SMILES IDX 14 29 15 30 61 31 16 32 60 33 17 34 18 35 19 36 54 37 20 38
REMARK SMILES IDX 59 39 53 40 55 41 21 42 58 43 52 44 51 45 22 47 44 48 29 49
REMARK SMILES IDX 43 50 30 51 33 52 42 53 56 54 31 55 32 56 41 58 57 59 34 60
REMARK SMILES IDX 23 61 24 62 28 63 25 64 27 65 26 66 45 67 46 68 50 69 47 70
REMARK SMILES IDX 49 71 48 72 35 73 36 74 40 75 37 76 39 77 38 78
REMARK H PARENT 6 6 62 12 68 20 68 21 68 22 11 27 55 46 33 57
REMARK Flexibility Score: inf
ROOT
ATOM      1  C   UNL     1       2.869   0.992  -1.633  1.00  0.00     0.023 C 
ENDROOT
BRANCH   1   2
ATOM      2  C   UNL     1       1.823   1.312  -0.570  1.00  0.00     0.116 C 
BRANCH   2   3
ATOM      3  N   UNL     1       1.093   0.149  -0.108  1.00  0.00    -0.351 N 
ATOM      4  C   UNL     1       0.463  -0.046   1.096  1.00  0.00     0.278 C 
ATOM      5  O   UNL     1      -0.370  -0.952   1.121  1.00  0.00    -0.268 OA
ATOM      6  H   UNL     1       1.041  -0.602  -0.743  1.00  0.00     0.163 HD
BRANCH   4   7
ATOM      7  C   UNL     1       0.833   0.882   2.288  1.00  0.00     0.273 C 
BRANCH   7   8
ATOM      8  C   UNL     1       0.162   2.276   2.113  1.00  0.00     0.072 C 
ATOM      9  C   UNL     1      -1.168   2.290   1.368  1.00  0.00     0.011 C 
ENDBRANCH   7   8
BRANCH   7  10
ATOM     10  N   UNL     1       0.552   0.375   3.677  1.00  0.00    -0.325 N 
ATOM     11  C   UNL     1       1.481   1.015   4.625  1.00  0.00     0.333 C 
ATOM     12  H   UNL     1      -0.412   0.651   3.864  1.00  0.00     0.348 HD
BRANCH  10  13
ATOM     13  C   UNL     1       0.468  -1.090   3.873  1.00  0.00     0.184 C 
ATOM     14  C   UNL     1       0.012  -1.465   5.306  1.00  0.00     0.071 C 
ATOM     15  C   UNL     1       1.742  -1.886   3.524  1.00  0.00     0.071 C 
ATOM     16  C   UNL     1      -0.248  -2.968   5.429  1.00  0.00     0.071 C 
ATOM     17  C   UNL     1       1.493  -3.394   3.639  1.00  0.00     0.071 C 
ATOM     18  C   UNL     1       0.991  -3.779   5.035  1.00  0.00     0.181 C 
BRANCH  18  19
ATOM     19  N   UNL     1       0.699  -5.212   5.077  1.00  0.00    -0.355 N 
ATOM     20  H   UNL     1      -0.036  -5.429   4.404  1.00  0.00     0.344 HD
ATOM     21  H   UNL     1       0.388  -5.468   6.014  1.00  0.00     0.344 HD
ATOM     22  H   UNL     1       1.541  -5.738   4.843  1.00  0.00     0.344 HD
ENDBRANCH  18  19
ENDBRANCH  10  13
ENDBRANCH   7  10
ENDBRANCH   4   7
ENDBRANCH   2   3
ENDBRANCH   1   2
BRANCH   1  23
ATOM     23  C   UNL     1       2.375   0.198  -2.843  1.00  0.00     0.023 C 
BRANCH  23  24
ATOM     24  C   UNL     1       1.104   0.718  -3.508  1.00  0.00     0.116 C 
BRANCH  24  25
ATOM     25  N   UNL     1       1.254   2.055  -4.059  1.00  0.00    -0.352 N 
ATOM     26  C   UNL     1       1.190   2.489  -5.364  1.00  0.00     0.251 C 
ATOM     27  H   UNL     1       1.430   2.760  -3.396  1.00  0.00     0.163 HD
ATOM     28  O   UNL     1       1.482   3.644  -5.640  1.00  0.00    -0.269 OA
BRANCH  26  29
ATOM     29  C   UNL     1       0.810   1.549  -6.443  1.00  0.00     0.039 A 
ATOM     30  C   UNL     1       1.595   1.505  -7.598  1.00  0.00     0.014 A 
ATOM     31  C   UNL     1      -0.298   0.707  -6.317  1.00  0.00     0.014 A 
ATOM     32  C   UNL     1       1.330   0.547  -8.580  1.00  0.00     0.010 A 
ATOM     33  C   UNL     1      -0.516  -0.295  -7.260  1.00  0.00     0.010 A 
ATOM     34  C   UNL     1       0.308  -0.398  -8.391  1.00  0.00    -0.014 A 
BRANCH  34  35
ATOM     35  C   UNL     1       0.132  -1.535  -9.333  1.00  0.00     0.031 A 
ATOM     36  C   UNL     1      -1.133  -1.688 -10.129  1.00  0.00     0.074 A 
ATOM     37  C   UNL     1       1.093  -2.477  -9.414  1.00  0.00     0.049 A 
ATOM     38  N   UNL     1      -1.477  -2.646 -10.953  1.00  0.00    -0.248 NA
ATOM     39  C   UNL     1      -2.153  -0.640  -9.966  1.00  0.00     0.031 C 
ATOM     40  C   UNL     1       2.352  -2.470  -8.664  1.00  0.00     0.029 A 
ATOM     41  N   UNL     1       1.159  -3.629 -10.158  1.00  0.00    -0.354 N 
ATOM     42  C   UNL     1      -2.753  -2.324 -11.397  1.00  0.00     0.074 A 
ATOM     43  C   UNL     1      -3.141  -1.107 -10.716  1.00  0.00     0.031 C 
ATOM     44  C   UNL     1       3.074  -3.548  -9.006  1.00  0.00     0.029 A 
ATOM     45  C   UNL     1       2.314  -4.347  -9.961  1.00  0.00     0.049 A 
ATOM     46  H   UNL     1       0.446  -3.913 -10.775  1.00  0.00     0.167 HD
ATOM     47  C   UNL     1      -3.526  -2.973 -12.300  1.00  0.00     0.031 A 
ATOM     48  C   UNL     1       2.714  -5.524 -10.478  1.00  0.00     0.031 A 
ATOM     49  C   UNL     1      -3.144  -4.187 -12.975  1.00  0.00     0.049 A 
ATOM     50  C   UNL     1       1.820  -6.243 -11.448  1.00  0.00     0.074 A 
ATOM     51  C   UNL     1      -3.837  -4.886 -13.948  1.00  0.00     0.029 A 
ATOM     52  N   UNL     1      -1.972  -4.888 -12.738  1.00  0.00    -0.354 N 
ATOM     53  N   UNL     1       0.649  -5.884 -11.915  1.00  0.00    -0.248 NA
ATOM     54  C   UNL     1       2.308  -7.529 -11.968  1.00  0.00     0.031 C 
ATOM     55  C   UNL     1      -3.114  -6.043 -14.255  1.00  0.00     0.029 A 
ATOM     56  C   UNL     1      -1.940  -6.031 -13.520  1.00  0.00     0.049 A 
ATOM     57  H   UNL     1      -1.267  -4.614 -12.108  1.00  0.00     0.167 HD
ATOM     58  C   UNL     1       0.270  -6.887 -12.797  1.00  0.00     0.074 A 
ATOM     59  C   UNL     1       1.345  -7.856 -12.818  1.00  0.00     0.031 C 
ATOM     60  C   UNL     1      -0.869  -6.995 -13.524  1.00  0.00     0.031 A 
BRANCH  47  61
ATOM     61  C   UNL     1      -4.878  -2.387 -12.605  1.00  0.00    -0.014 A 
ATOM     62  C   UNL     1      -5.007  -1.183 -13.316  1.00  0.00     0.009 A 
ATOM     63  C   UNL     1      -6.040  -3.071 -12.214  1.00  0.00     0.009 A 
ATOM     64  C   UNL     1      -6.270  -0.659 -13.598  1.00  0.00     0.001 A 
ATOM     65  C   UNL     1      -7.302  -2.560 -12.524  1.00  0.00     0.001 A 
ATOM     66  C   UNL     1      -7.416  -1.350 -13.206  1.00  0.00     0.000 A 
ENDBRANCH  47  61
BRANCH  48  67
ATOM     67  C   UNL     1       4.028  -6.101 -10.088  1.00  0.00    -0.014 A 
ATOM     68  C   UNL     1       5.079  -6.171 -11.014  1.00  0.00     0.009 A 
ATOM     69  C   UNL     1       4.234  -6.593  -8.789  1.00  0.00     0.009 A 
ATOM     70  C   UNL     1       6.301  -6.745 -10.656  1.00  0.00     0.001 A 
ATOM     71  C   UNL     1       5.468  -7.138  -8.425  1.00  0.00     0.001 A 
ATOM     72  C   UNL     1       6.496  -7.223  -9.361  1.00  0.00     0.000 A 
ENDBRANCH  48  67
BRANCH  60  73
ATOM     73  C   UNL     1      -1.001  -8.196 -14.418  1.00  0.00    -0.014 A 
ATOM     74  C   UNL     1      -1.209  -9.480 -13.888  1.00  0.00     0.009 A 
ATOM     75  C   UNL     1      -0.948  -8.037 -15.812  1.00  0.00     0.009 A 
ATOM     76  C   UNL     1      -1.327 -10.583 -14.736  1.00  0.00     0.001 A 
ATOM     77  C   UNL     1      -1.098  -9.137 -16.657  1.00  0.00     0.001 A 
ATOM     78  C   UNL     1      -1.277 -10.410 -16.119  1.00  0.00     0.000 A 
ENDBRANCH  60  73
ENDBRANCH  34  35
ENDBRANCH  26  29
ENDBRANCH  24  25
ENDBRANCH  23  24
ENDBRANCH   1  23
TORSDOF 15
