REMARK SMILES O=C(COc1ccc(N2CCCCC2)cc1)NCCCCNC(=O)c1ccc(-c2c3nc(c(-c4ccccc4)c4ccc([nH]4)c(-c4ccccc4)c4nc(c(-c5ccccc5)c5ccc2[nH]5)C=C4)C=C3)cc1
REMARK SMILES IDX 19 1 18 2 17 3 1 4 2 5 3 7 4 8 5 9 6 10 16 11 7 12 15 13
REMARK SMILES IDX 8 14 9 15 10 16 14 17 11 18 13 19 12 20 20 21 21 22 22 23
REMARK SMILES IDX 23 24 24 26 25 27 26 28 72 29 27 30 71 31 28 32 29 33 30 34
REMARK SMILES IDX 65 35 31 36 70 37 64 38 66 39 32 40 69 41 63 42 62 43 33 45
REMARK SMILES IDX 55 46 40 47 54 48 41 49 44 50 53 51 67 52 42 53 43 54 52 56
REMARK SMILES IDX 68 57 45 58 34 59 35 60 39 61 36 62 38 63 37 64 56 65 57 66
REMARK SMILES IDX 61 67 58 68 60 69 59 70 46 71 47 72 51 73 48 74 50 75 49 76
REMARK H PARENT 17 6 22 25 66 44 44 55
REMARK Flexibility Score: inf
ROOT
ATOM      1  C   UNL     1       2.429   0.658   3.526  1.00  0.00     0.023 C 
ENDROOT
BRANCH   1   2
ATOM      2  C   UNL     1       2.021   1.245   2.180  1.00  0.00     0.116 C 
BRANCH   2   3
ATOM      3  N   UNL     1       2.697   0.626   1.060  1.00  0.00    -0.353 N 
ATOM      4  O   UNL     1       0.916  -0.652   0.364  1.00  0.00    -0.271 OA
ATOM      5  C   UNL     1       2.044  -0.209   0.174  1.00  0.00     0.257 C 
ATOM      6  H   UNL     1       3.656   0.807   0.925  1.00  0.00     0.163 HD
BRANCH   5   7
ATOM      7  C   UNL     1       2.858  -0.542  -1.080  1.00  0.00     0.329 C 
BRANCH   7   8
ATOM      8  O   UNL     1       3.753   0.489  -1.504  1.00  0.00    -0.484 OA
BRANCH   8   9
ATOM      9  C   UNL     1       3.144   1.429  -2.292  1.00  0.00     0.120 A 
ATOM     10  C   UNL     1       3.576   1.561  -3.607  1.00  0.00     0.048 A 
ATOM     11  C   UNL     1       2.202   2.320  -1.785  1.00  0.00     0.048 A 
ATOM     12  C   UNL     1       3.037   2.567  -4.419  1.00  0.00     0.030 A 
ATOM     13  C   UNL     1       1.687   3.333  -2.596  1.00  0.00     0.030 A 
ATOM     14  C   UNL     1       2.095   3.479  -3.924  1.00  0.00     0.037 A 
BRANCH  14  15
ATOM     15  N   UNL     1       1.618   4.506  -4.707  1.00  0.00    -0.372 N 
ATOM     16  C   UNL     1       1.013   4.245  -6.007  1.00  0.00     0.116 C 
ATOM     17  C   UNL     1       1.579   5.877  -4.211  1.00  0.00     0.116 C 
ATOM     18  C   UNL     1       1.677   5.133  -7.057  1.00  0.00     0.021 C 
ATOM     19  C   UNL     1       2.263   6.784  -5.236  1.00  0.00     0.021 C 
ATOM     20  C   UNL     1       1.668   6.603  -6.633  1.00  0.00     0.004 C 
ENDBRANCH  14  15
ENDBRANCH   8   9
ENDBRANCH   7   8
ENDBRANCH   5   7
ENDBRANCH   2   3
ENDBRANCH   1   2
BRANCH   1  21
ATOM     21  C   UNL     1       3.914   0.792   3.867  1.00  0.00     0.023 C 
BRANCH  21  22
ATOM     22  C   UNL     1       4.471   2.212   3.849  1.00  0.00     0.116 C 
BRANCH  22  23
ATOM     23  N   UNL     1       3.860   3.080   4.845  1.00  0.00    -0.352 N 
ATOM     24  C   UNL     1       4.453   3.873   5.798  1.00  0.00     0.251 C 
ATOM     25  H   UNL     1       2.876   3.103   4.834  1.00  0.00     0.163 HD
ATOM     26  O   UNL     1       3.760   4.439   6.642  1.00  0.00    -0.269 OA
BRANCH  24  27
ATOM     27  C   UNL     1       5.925   4.026   5.840  1.00  0.00     0.039 A 
ATOM     28  C   UNL     1       6.575   3.949   7.075  1.00  0.00     0.014 A 
ATOM     29  C   UNL     1       6.666   4.245   4.676  1.00  0.00     0.014 A 
ATOM     30  C   UNL     1       7.970   4.014   7.133  1.00  0.00     0.010 A 
ATOM     31  C   UNL     1       8.059   4.232   4.726  1.00  0.00     0.010 A 
ATOM     32  C   UNL     1       8.727   4.114   5.955  1.00  0.00    -0.014 A 
BRANCH  32  33
ATOM     33  C   UNL     1      10.213   4.078   5.987  1.00  0.00     0.031 A 
ATOM     34  C   UNL     1      11.016   5.262   5.519  1.00  0.00     0.074 A 
ATOM     35  C   UNL     1      10.845   2.954   6.381  1.00  0.00     0.049 A 
ATOM     36  N   UNL     1      12.316   5.393   5.424  1.00  0.00    -0.248 NA
ATOM     37  C   UNL     1      10.260   6.445   5.078  1.00  0.00     0.031 C 
ATOM     38  C   UNL     1      10.190   1.723   6.827  1.00  0.00     0.029 A 
ATOM     39  N   UNL     1      12.185   2.663   6.463  1.00  0.00    -0.354 N 
ATOM     40  C   UNL     1      12.531   6.660   4.898  1.00  0.00     0.074 A 
ATOM     41  C   UNL     1      11.229   7.240   4.649  1.00  0.00     0.031 C 
ATOM     42  C   UNL     1      11.127   0.823   7.166  1.00  0.00     0.029 A 
ATOM     43  C   UNL     1      12.447   1.392   6.916  1.00  0.00     0.049 A 
ATOM     44  H   UNL     1      12.892   3.305   6.220  1.00  0.00     0.167 HD
ATOM     45  C   UNL     1      13.705   7.293   4.660  1.00  0.00     0.031 A 
ATOM     46  C   UNL     1      13.617   0.751   7.102  1.00  0.00     0.031 A 
ATOM     47  C   UNL     1      15.001   6.721   4.912  1.00  0.00     0.049 A 
ATOM     48  C   UNL     1      14.905   1.466   6.799  1.00  0.00     0.074 A 
ATOM     49  C   UNL     1      16.246   7.307   4.756  1.00  0.00     0.029 A 
ATOM     50  N   UNL     1      15.221   5.430   5.364  1.00  0.00    -0.354 N 
ATOM     51  N   UNL     1      15.090   2.691   6.372  1.00  0.00    -0.248 NA
ATOM     52  C   UNL     1      16.146   0.709   7.016  1.00  0.00     0.031 C 
ATOM     53  C   UNL     1      17.221   6.350   5.054  1.00  0.00     0.029 A 
ATOM     54  C   UNL     1      16.582   5.190   5.462  1.00  0.00     0.049 A 
ATOM     55  H   UNL     1      14.515   4.780   5.583  1.00  0.00     0.167 HD
ATOM     56  C   UNL     1      16.467   2.862   6.300  1.00  0.00     0.074 A 
ATOM     57  C   UNL     1      17.068   1.622   6.743  1.00  0.00     0.031 C 
ATOM     58  C   UNL     1      17.170   3.952   5.904  1.00  0.00     0.031 A 
BRANCH  45  59
ATOM     59  C   UNL     1      13.641   8.681   4.081  1.00  0.00    -0.014 A 
ATOM     60  C   UNL     1      13.166   9.767   4.834  1.00  0.00     0.009 A 
ATOM     61  C   UNL     1      14.104   8.914   2.776  1.00  0.00     0.009 A 
ATOM     62  C   UNL     1      13.120  11.048   4.279  1.00  0.00     0.001 A 
ATOM     63  C   UNL     1      14.087  10.201   2.235  1.00  0.00     0.001 A 
ATOM     64  C   UNL     1      13.585  11.264   2.983  1.00  0.00     0.000 A 
ENDBRANCH  45  59
BRANCH  46  65
ATOM     65  C   UNL     1      13.631  -0.646   7.612  1.00  0.00    -0.014 A 
ATOM     66  C   UNL     1      14.123  -0.931   8.895  1.00  0.00     0.009 A 
ATOM     67  C   UNL     1      13.172  -1.705   6.812  1.00  0.00     0.009 A 
ATOM     68  C   UNL     1      14.184  -2.249   9.354  1.00  0.00     0.001 A 
ATOM     69  C   UNL     1      13.203  -3.018   7.287  1.00  0.00     0.001 A 
ATOM     70  C   UNL     1      13.720  -3.290   8.553  1.00  0.00     0.000 A 
ENDBRANCH  46  65
BRANCH  58  71
ATOM     71  C   UNL     1      18.670   3.867   5.972  1.00  0.00    -0.014 A 
ATOM     72  C   UNL     1      19.401   3.064   5.083  1.00  0.00     0.009 A 
ATOM     73  C   UNL     1      19.364   4.638   6.919  1.00  0.00     0.009 A 
ATOM     74  C   UNL     1      20.794   3.007   5.166  1.00  0.00     0.001 A 
ATOM     75  C   UNL     1      20.758   4.604   6.977  1.00  0.00     0.001 A 
ATOM     76  C   UNL     1      21.471   3.781   6.108  1.00  0.00     0.000 A 
ENDBRANCH  58  71
ENDBRANCH  32  33
ENDBRANCH  24  27
ENDBRANCH  22  23
ENDBRANCH  21  22
ENDBRANCH   1  21
TORSDOF 14
