REMARK SMILES Cc1c(Cl)cc2c(c1C)O[C@H](C(F)(F)F)C(C(=O)NCCCCNC(=O)c1ccc(-c3c4nc(c(-c5ccccc5)c5ccc([nH]5)c(-c5ccccc5)c5nc(c(-c6ccccc6)c6ccc3[nH]6)C=C5)C=C4)cc1)=C2
REMARK SMILES IDX 22 1 21 2 20 3 19 4 17 5 18 6 16 8 1 9 2 10 3 11 8 12 4 13
REMARK SMILES IDX 5 14 7 15 9 16 6 17 10 18 75 19 11 20 12 21 13 22 14 23
REMARK SMILES IDX 15 24 23 25 24 26 25 27 26 29 27 30 28 31 74 32 29 33 73 34
REMARK SMILES IDX 30 35 31 36 32 37 67 38 33 39 72 40 66 41 68 42 34 43 71 44
REMARK SMILES IDX 65 45 64 46 35 48 57 49 42 50 56 51 43 52 46 53 55 54 69 55
REMARK SMILES IDX 44 56 45 57 54 59 70 60 47 61 36 62 37 63 41 64 38 65 40 66
REMARK SMILES IDX 39 67 58 68 59 69 63 70 60 71 62 72 61 73 48 74 49 75 53 76
REMARK SMILES IDX 50 77 52 78 51 79
REMARK H PARENT 19 7 24 28 68 47 46 58
REMARK Flexibility Score: inf
ROOT
ATOM      1  C   UNL     1      -1.298   2.068  10.546  1.00  0.00     0.023 C 
ENDROOT
BRANCH   1   2
ATOM      2  C   UNL     1      -1.263   1.540   9.110  1.00  0.00     0.023 C 
BRANCH   2   3
ATOM      3  C   UNL     1      -2.249   2.225   8.168  1.00  0.00     0.116 C 
BRANCH   3   4
ATOM      4  N   UNL     1      -1.702   3.445   7.601  1.00  0.00    -0.352 N 
ATOM      5  C   UNL     1      -1.114   3.813   6.439  1.00  0.00     0.251 C 
ATOM      6  O   UNL     1      -0.774   4.999   6.377  1.00  0.00    -0.270 OA
ATOM      7  H   UNL     1      -1.779   4.202   8.226  1.00  0.00     0.163 HD
BRANCH   5   8
ATOM      8  C   UNL     1      -0.859   2.911   5.276  1.00  0.00     0.067 C 
ATOM      9  C   UNL     1       1.095   0.181  -0.363  1.00  0.00     0.046 C 
ATOM     10  C   UNL     1       0.726   1.002   0.849  1.00  0.00    -0.026 A 
ATOM     11  C   UNL     1       1.003   2.388   0.850  1.00  0.00     0.045 A 
ATOM     12  C   UNL     1       0.168   0.426   2.015  1.00  0.00    -0.004 A 
ATOM     13  Cl  UNL     1       1.746   3.174  -0.504  1.00  0.00    -0.084 Cl
ATOM     14  C   UNL     1       0.711   3.192   1.956  1.00  0.00     0.032 A 
ATOM     15  C   UNL     1      -0.132   1.262   3.114  1.00  0.00     0.131 A 
ATOM     16  C   UNL     1      -0.138  -1.044   2.165  1.00  0.00     0.049 C 
ATOM     17  C   UNL     1       0.139   2.631   3.094  1.00  0.00     0.019 A 
ATOM     18  O   UNL     1      -0.648   0.661   4.233  1.00  0.00    -0.475 OA
ATOM     19  C   UNL     1      -0.130   3.441   4.277  1.00  0.00     0.025 C 
ATOM     20  C   UNL     1      -1.390   1.513   5.147  1.00  0.00     0.314 C 
BRANCH  20  21
ATOM     21  C   UNL     1      -2.886   1.475   4.784  1.00  0.00     0.429 C 
ATOM     22  F   UNL     1      -3.389   0.230   4.978  1.00  0.00    -0.167 F 
ATOM     23  F   UNL     1      -3.626   2.309   5.553  1.00  0.00    -0.167 F 
ATOM     24  F   UNL     1      -3.122   1.813   3.497  1.00  0.00    -0.167 F 
ENDBRANCH  20  21
ENDBRANCH   5   8
ENDBRANCH   3   4
ENDBRANCH   2   3
ENDBRANCH   1   2
BRANCH   1  25
ATOM     25  C   UNL     1      -2.665   2.032  11.226  1.00  0.00     0.116 C 
BRANCH  25  26
ATOM     26  N   UNL     1      -3.326   0.735  11.167  1.00  0.00    -0.352 N 
ATOM     27  C   UNL     1      -4.248   0.225  12.051  1.00  0.00     0.251 C 
ATOM     28  H   UNL     1      -3.085   0.158  10.407  1.00  0.00     0.163 HD
ATOM     29  O   UNL     1      -4.695  -0.909  11.921  1.00  0.00    -0.269 OA
BRANCH  27  30
ATOM     30  C   UNL     1      -4.644   1.060  13.198  1.00  0.00     0.039 A 
ATOM     31  C   UNL     1      -4.369   0.599  14.486  1.00  0.00     0.014 A 
ATOM     32  C   UNL     1      -5.170   2.337  12.986  1.00  0.00     0.014 A 
ATOM     33  C   UNL     1      -4.542   1.460  15.568  1.00  0.00     0.010 A 
ATOM     34  C   UNL     1      -5.288   3.212  14.060  1.00  0.00     0.010 A 
ATOM     35  C   UNL     1      -4.959   2.785  15.355  1.00  0.00    -0.014 A 
BRANCH  35  36
ATOM     36  C   UNL     1      -5.020   3.747  16.479  1.00  0.00     0.031 A 
ATOM     37  C   UNL     1      -6.343   4.276  16.948  1.00  0.00     0.074 A 
ATOM     38  C   UNL     1      -3.876   4.181  17.042  1.00  0.00     0.049 A 
ATOM     39  N   UNL     1      -6.592   5.130  17.907  1.00  0.00    -0.248 NA
ATOM     40  C   UNL     1      -7.539   3.799  16.236  1.00  0.00     0.031 C 
ATOM     41  C   UNL     1      -2.526   3.775  16.644  1.00  0.00     0.029 A 
ATOM     42  N   UNL     1      -3.667   5.058  18.076  1.00  0.00    -0.354 N 
ATOM     43  C   UNL     1      -7.969   5.301  17.906  1.00  0.00     0.074 A 
ATOM     44  C   UNL     1      -8.498   4.498  16.825  1.00  0.00     0.031 C 
ATOM     45  C   UNL     1      -1.633   4.370  17.451  1.00  0.00     0.029 A 
ATOM     46  C   UNL     1      -2.343   5.217  18.404  1.00  0.00     0.049 A 
ATOM     47  H   UNL     1      -4.398   5.528  18.540  1.00  0.00     0.167 HD
ATOM     48  C   UNL     1      -8.729   6.042  18.745  1.00  0.00     0.031 A 
ATOM     49  C   UNL     1      -1.767   5.954  19.371  1.00  0.00     0.031 A 
ATOM     50  C   UNL     1      -8.208   6.824  19.831  1.00  0.00     0.049 A 
ATOM     51  C   UNL     1      -2.631   6.769  20.289  1.00  0.00     0.074 A 
ATOM     52  C   UNL     1      -8.904   7.563  20.772  1.00  0.00     0.029 A 
ATOM     53  N   UNL     1      -6.861   6.966  20.123  1.00  0.00    -0.354 N 
ATOM     54  N   UNL     1      -3.937   6.874  20.312  1.00  0.00    -0.248 NA
ATOM     55  C   UNL     1      -1.942   7.563  21.317  1.00  0.00     0.031 C 
ATOM     56  C   UNL     1      -7.974   8.176  21.618  1.00  0.00     0.029 A 
ATOM     57  C   UNL     1      -6.703   7.792  21.221  1.00  0.00     0.049 A 
ATOM     58  H   UNL     1      -6.127   6.541  19.624  1.00  0.00     0.167 HD
ATOM     59  C   UNL     1      -4.229   7.729  21.365  1.00  0.00     0.074 A 
ATOM     60  C   UNL     1      -2.965   8.109  21.963  1.00  0.00     0.031 C 
ATOM     61  C   UNL     1      -5.438   8.159  21.799  1.00  0.00     0.031 A 
BRANCH  48  62
ATOM     62  C   UNL     1     -10.211   6.025  18.521  1.00  0.00    -0.014 A 
ATOM     63  C   UNL     1     -10.978   4.902  18.870  1.00  0.00     0.009 A 
ATOM     64  C   UNL     1     -10.852   7.149  17.978  1.00  0.00     0.009 A 
ATOM     65  C   UNL     1     -12.356   4.893  18.650  1.00  0.00     0.001 A 
ATOM     66  C   UNL     1     -12.233   7.144  17.779  1.00  0.00     0.001 A 
ATOM     67  C   UNL     1     -12.982   6.015  18.108  1.00  0.00     0.000 A 
ENDBRANCH  48  62
BRANCH  49  68
ATOM     68  C   UNL     1      -0.295   5.919  19.549  1.00  0.00    -0.014 A 
ATOM     69  C   UNL     1       0.268   5.178  20.599  1.00  0.00     0.009 A 
ATOM     70  C   UNL     1       0.553   6.606  18.668  1.00  0.00     0.009 A 
ATOM     71  C   UNL     1       1.652   5.138  20.773  1.00  0.00     0.001 A 
ATOM     72  C   UNL     1       1.939   6.549  18.835  1.00  0.00     0.001 A 
ATOM     73  C   UNL     1       2.487   5.820  19.889  1.00  0.00     0.000 A 
ENDBRANCH  49  68
BRANCH  61  74
ATOM     74  C   UNL     1      -5.459   9.076  22.984  1.00  0.00    -0.014 A 
ATOM     75  C   UNL     1      -5.168  10.441  22.840  1.00  0.00     0.009 A 
ATOM     76  C   UNL     1      -5.849   8.585  24.239  1.00  0.00     0.009 A 
ATOM     77  C   UNL     1      -5.258  11.297  23.939  1.00  0.00     0.001 A 
ATOM     78  C   UNL     1      -5.955   9.447  25.331  1.00  0.00     0.001 A 
ATOM     79  C   UNL     1      -5.657  10.801  25.180  1.00  0.00     0.000 A 
ENDBRANCH  61  74
ENDBRANCH  35  36
ENDBRANCH  27  30
ENDBRANCH  25  26
ENDBRANCH   1  25
TORSDOF 12
