REMARK SMILES CC(C)[NH2+][C@]1(C(=O)NCCCCNC(=O)c2ccc(-c3c4nc(c(-c5ccccc5)c5ccc([nH]5)c(-c5ccccc5)c5nc(c(-c6ccccc6)c6ccc3[nH]6)C=C5)C=C4)cc2)CC[C@@H](Oc2cc(F)ccc2F)C1
REMARK SMILES IDX 10 1 9 2 8 3 6 4 7 5 5 7 64 8 76 9 65 10 66 11 4 12 2 15
REMARK SMILES IDX 1 16 3 17 67 18 68 19 69 20 74 21 70 22 73 23 75 24 71 25
REMARK SMILES IDX 72 26 11 27 12 28 13 29 14 30 15 32 16 33 17 34 63 35 18 36
REMARK SMILES IDX 62 37 19 38 20 39 21 40 56 41 22 42 61 43 55 44 57 45 23 46
REMARK SMILES IDX 60 47 54 48 53 49 24 51 46 52 31 53 45 54 32 55 35 56 44 57
REMARK SMILES IDX 58 58 33 59 34 60 43 62 59 63 36 64 25 65 26 66 30 67 27 68
REMARK SMILES IDX 29 69 28 70 47 71 48 72 52 73 49 74 51 75 50 76 37 77 38 78
REMARK SMILES IDX 42 79 39 80 41 81 40 82
REMARK H PARENT 8 6 4 13 4 14 13 31 57 50 35 61
REMARK Flexibility Score: inf
ROOT
ATOM      1  C   UNL     1       1.607   2.291   3.132  1.00  0.00     0.023 C 
ENDROOT
BRANCH   1   2
ATOM      2  C   UNL     1       0.939   2.959   1.938  1.00  0.00     0.116 C 
BRANCH   2   3
ATOM      3  N   UNL     1       0.491   2.030   0.920  1.00  0.00    -0.351 N 
ATOM      4  C   UNL     1      -0.726   1.986   0.284  1.00  0.00     0.281 C 
ATOM      5  O   UNL     1      -0.882   1.120  -0.580  1.00  0.00    -0.268 OA
ATOM      6  H   UNL     1       1.142   1.343   0.649  1.00  0.00     0.163 HD
BRANCH   4   7
ATOM      7  C   UNL     1      -1.854   2.992   0.680  1.00  0.00     0.179 C 
ATOM      8  C   UNL     1      -1.362   4.418   0.312  1.00  0.00     0.083 C 
ATOM      9  C   UNL     1      -3.120   2.887  -0.208  1.00  0.00     0.124 C 
ATOM     10  C   UNL     1      -2.607   5.268   0.161  1.00  0.00     0.052 C 
ATOM     11  C   UNL     1      -3.627   4.319  -0.458  1.00  0.00     0.180 C 
BRANCH   7  12
ATOM     12  N   UNL     1      -2.207   2.886   2.126  1.00  0.00    -0.332 N 
ATOM     13  H   UNL     1      -1.524   3.431   2.652  1.00  0.00     0.347 HD
ATOM     14  H   UNL     1      -3.166   3.226   2.195  1.00  0.00     0.347 HD
BRANCH  12  15
ATOM     15  C   UNL     1      -2.234   1.525   2.702  1.00  0.00     0.176 C 
ATOM     16  C   UNL     1      -2.289   1.662   4.226  1.00  0.00     0.075 C 
ATOM     17  C   UNL     1      -3.392   0.653   2.222  1.00  0.00     0.075 C 
ENDBRANCH  12  15
ENDBRANCH   7  12
BRANCH  11  18
ATOM     18  O   UNL     1      -4.028   4.619  -1.804  1.00  0.00    -0.487 OA
BRANCH  18  19
ATOM     19  C   UNL     1      -3.058   4.604  -2.767  1.00  0.00     0.158 A 
ATOM     20  C   UNL     1      -2.439   5.798  -3.132  1.00  0.00     0.088 A 
ATOM     21  C   UNL     1      -2.806   3.450  -3.514  1.00  0.00     0.165 A 
ATOM     22  C   UNL     1      -1.513   5.799  -4.173  1.00  0.00     0.127 A 
ATOM     23  C   UNL     1      -1.867   3.450  -4.543  1.00  0.00     0.046 A 
ATOM     24  F   UNL     1      -3.490   2.322  -3.275  1.00  0.00    -0.203 F 
ATOM     25  F   UNL     1      -0.915   6.946  -4.520  1.00  0.00    -0.207 F 
ATOM     26  C   UNL     1      -1.209   4.634  -4.871  1.00  0.00     0.042 A 
ENDBRANCH  18  19
ENDBRANCH  11  18
ENDBRANCH   4   7
ENDBRANCH   2   3
ENDBRANCH   1   2
BRANCH   1  27
ATOM     27  C   UNL     1       2.965   1.659   2.864  1.00  0.00     0.023 C 
BRANCH  27  28
ATOM     28  C   UNL     1       3.925   2.489   2.024  1.00  0.00     0.116 C 
BRANCH  28  29
ATOM     29  N   UNL     1       4.090   3.864   2.479  1.00  0.00    -0.352 N 
ATOM     30  C   UNL     1       5.235   4.625   2.517  1.00  0.00     0.251 C 
ATOM     31  H   UNL     1       3.273   4.307   2.802  1.00  0.00     0.163 HD
ATOM     32  O   UNL     1       5.213   5.778   2.927  1.00  0.00    -0.269 OA
BRANCH  30  33
ATOM     33  C   UNL     1       6.508   3.997   2.121  1.00  0.00     0.039 A 
ATOM     34  C   UNL     1       7.553   3.981   3.046  1.00  0.00     0.014 A 
ATOM     35  C   UNL     1       6.616   3.322   0.903  1.00  0.00     0.014 A 
ATOM     36  C   UNL     1       8.677   3.199   2.791  1.00  0.00     0.010 A 
ATOM     37  C   UNL     1       7.697   2.478   0.690  1.00  0.00     0.010 A 
ATOM     38  C   UNL     1       8.732   2.400   1.637  1.00  0.00    -0.014 A 
BRANCH  38  39
ATOM     39  C   UNL     1       9.858   1.466   1.405  1.00  0.00     0.031 A 
ATOM     40  C   UNL     1      10.759   1.662   0.221  1.00  0.00     0.074 A 
ATOM     41  C   UNL     1      10.021   0.401   2.215  1.00  0.00     0.049 A 
ATOM     42  N   UNL     1      11.752   0.917  -0.192  1.00  0.00    -0.248 NA
ATOM     43  C   UNL     1      10.488   2.831  -0.632  1.00  0.00     0.031 C 
ATOM     44  C   UNL     1       9.177   0.067   3.365  1.00  0.00     0.029 A 
ATOM     45  N   UNL     1      10.955  -0.604   2.188  1.00  0.00    -0.354 N 
ATOM     46  C   UNL     1      12.202   1.511  -1.364  1.00  0.00     0.074 A 
ATOM     47  C   UNL     1      11.346   2.647  -1.622  1.00  0.00     0.031 C 
ATOM     48  C   UNL     1       9.652  -1.044   3.952  1.00  0.00     0.029 A 
ATOM     49  C   UNL     1      10.810  -1.518   3.202  1.00  0.00     0.049 A 
ATOM     50  H   UNL     1      11.662  -0.664   1.505  1.00  0.00     0.167 HD
ATOM     51  C   UNL     1      13.250   1.156  -2.144  1.00  0.00     0.031 A 
ATOM     52  C   UNL     1      11.532  -2.615   3.496  1.00  0.00     0.031 A 
ATOM     53  C   UNL     1      14.120   0.047  -1.871  1.00  0.00     0.049 A 
ATOM     54  C   UNL     1      12.709  -2.971   2.632  1.00  0.00     0.074 A 
ATOM     55  C   UNL     1      15.249  -0.355  -2.561  1.00  0.00     0.029 A 
ATOM     56  N   UNL     1      13.959  -0.836  -0.814  1.00  0.00    -0.354 N 
ATOM     57  N   UNL     1      13.164  -2.359   1.566  1.00  0.00    -0.248 NA
ATOM     58  C   UNL     1      13.478  -4.161   3.021  1.00  0.00     0.031 C 
ATOM     59  C   UNL     1      15.755  -1.502  -1.940  1.00  0.00     0.029 A 
ATOM     60  C   UNL     1      14.962  -1.788  -0.840  1.00  0.00     0.049 A 
ATOM     61  H   UNL     1      13.238  -0.791  -0.145  1.00  0.00     0.167 HD
ATOM     62  C   UNL     1      14.286  -3.074   1.170  1.00  0.00     0.074 A 
ATOM     63  C   UNL     1      14.450  -4.157   2.119  1.00  0.00     0.031 C 
ATOM     64  C   UNL     1      15.108  -2.854   0.116  1.00  0.00     0.031 A 
BRANCH  51  65
ATOM     65  C   UNL     1      13.504   1.989  -3.367  1.00  0.00    -0.014 A 
ATOM     66  C   UNL     1      14.005   3.297  -3.262  1.00  0.00     0.009 A 
ATOM     67  C   UNL     1      13.248   1.458  -4.640  1.00  0.00     0.009 A 
ATOM     68  C   UNL     1      14.205   4.071  -4.406  1.00  0.00     0.001 A 
ATOM     69  C   UNL     1      13.476   2.225  -5.784  1.00  0.00     0.001 A 
ATOM     70  C   UNL     1      13.944   3.533  -5.666  1.00  0.00     0.000 A 
ENDBRANCH  51  65
BRANCH  52  71
ATOM     71  C   UNL     1      11.187  -3.441   4.681  1.00  0.00    -0.014 A 
ATOM     72  C   UNL     1      11.992  -3.401   5.830  1.00  0.00     0.009 A 
ATOM     73  C   UNL     1      10.058  -4.274   4.671  1.00  0.00     0.009 A 
ATOM     74  C   UNL     1      11.688  -4.198   6.936  1.00  0.00     0.001 A 
ATOM     75  C   UNL     1       9.744  -5.053   5.787  1.00  0.00     0.001 A 
ATOM     76  C   UNL     1      10.563  -5.021   6.915  1.00  0.00     0.000 A 
ENDBRANCH  52  71
BRANCH  64  77
ATOM     77  C   UNL     1      16.275  -3.783  -0.047  1.00  0.00    -0.014 A 
ATOM     78  C   UNL     1      16.101  -5.089  -0.530  1.00  0.00     0.009 A 
ATOM     79  C   UNL     1      17.570  -3.329   0.247  1.00  0.00     0.009 A 
ATOM     80  C   UNL     1      17.201  -5.932  -0.690  1.00  0.00     0.001 A 
ATOM     81  C   UNL     1      18.670  -4.166   0.064  1.00  0.00     0.001 A 
ATOM     82  C   UNL     1      18.484  -5.469  -0.398  1.00  0.00     0.000 A 
ENDBRANCH  64  77
ENDBRANCH  38  39
ENDBRANCH  30  33
ENDBRANCH  28  29
ENDBRANCH  27  28
ENDBRANCH   1  27
TORSDOF 15
