REMARK SMILES CC(C)C[C@H](NC(=O)CNC(=O)[C@@H](NC(=O)OCc1ccccc1)C(C)C)C(=O)N[C@@H](C)C(=O)NCCCCNC(=O)c1ccc(-c2c3nc(c(-c4ccccc4)c4ccc([nH]4)c(-c4ccccc4)c4nc(c(-c5ccccc5)c5ccc2[nH]5)C=C4)C=C3)cc1
REMARK SMILES IDX 31 1 32 2 30 3 28 4 29 5 5 7 4 8 2 9 1 10 3 11 6 12 7 13
REMARK SMILES IDX 8 15 9 16 10 17 11 18 12 20 13 21 14 22 15 23 16 25 17 26
REMARK SMILES IDX 18 27 19 28 20 29 24 30 21 31 23 32 22 33 25 34 26 35 27 36
REMARK SMILES IDX 33 37 34 38 35 39 36 41 37 42 38 43 39 44 40 45 41 46 42 48
REMARK SMILES IDX 43 49 44 50 90 51 45 52 89 53 46 54 47 55 48 56 83 57 49 58
REMARK SMILES IDX 88 59 82 60 84 61 50 62 87 63 81 64 80 65 51 67 73 68 58 69
REMARK SMILES IDX 72 70 59 71 62 72 71 73 85 74 60 75 61 76 70 78 86 79 63 80
REMARK SMILES IDX 52 81 53 82 57 83 54 84 56 85 55 86 74 87 75 88 79 89 76 90
REMARK SMILES IDX 78 91 77 92 64 93 65 94 69 95 66 96 68 97 67 98
REMARK H PARENT 30 6 6 14 10 19 14 24 35 40 40 47 84 66 62 77
REMARK Flexibility Score: inf
ROOT
ATOM      1  C   UNL     1      -3.162  -3.284  -1.861  1.00  0.00     0.168 C 
ATOM      2  C   UNL     1      -3.459  -4.366  -0.834  1.00  0.00     0.041 C 
ENDROOT
BRANCH   1   3
ATOM      3  N   UNL     1      -3.604  -1.966  -1.404  1.00  0.00    -0.343 N 
ATOM      4  C   UNL     1      -2.981  -0.760  -1.506  1.00  0.00     0.243 C 
ATOM      5  O   UNL     1      -3.689   0.249  -1.450  1.00  0.00    -0.273 OA
ATOM      6  H   UNL     1      -4.481  -1.949  -0.957  1.00  0.00     0.164 HD
BRANCH   4   7
ATOM      7  C   UNL     1      -1.473  -0.662  -1.797  1.00  0.00     0.171 C 
BRANCH   7   8
ATOM      8  C   UNL     1      -1.148  -0.904  -3.278  1.00  0.00     0.038 C 
BRANCH   8   9
ATOM      9  C   UNL     1      -1.958  -0.061  -4.298  1.00  0.00    -0.015 C 
ATOM     10  C   UNL     1      -1.924   1.450  -4.066  1.00  0.00     0.007 C 
ATOM     11  C   UNL     1      -1.443  -0.349  -5.712  1.00  0.00     0.007 C 
ENDBRANCH   8   9
ENDBRANCH   7   8
BRANCH   7  12
ATOM     12  N   UNL     1      -0.745  -1.525  -0.858  1.00  0.00    -0.343 N 
ATOM     13  C   UNL     1       0.400  -1.344  -0.150  1.00  0.00     0.240 C 
ATOM     14  H   UNL     1      -1.167  -2.403  -0.714  1.00  0.00     0.164 HD
ATOM     15  O   UNL     1       0.597  -2.135   0.779  1.00  0.00    -0.273 OA
BRANCH  13  16
ATOM     16  C   UNL     1       1.348  -0.155  -0.351  1.00  0.00     0.216 C 
BRANCH  16  17
ATOM     17  N   UNL     1       1.508   0.305  -1.710  1.00  0.00    -0.345 N 
ATOM     18  C   UNL     1       1.231   1.476  -2.329  1.00  0.00     0.243 C 
ATOM     19  H   UNL     1       1.899  -0.371  -2.309  1.00  0.00     0.164 HD
ATOM     20  O   UNL     1       1.565   1.533  -3.520  1.00  0.00    -0.273 OA
BRANCH  18  21
ATOM     21  C   UNL     1       0.652   2.741  -1.635  1.00  0.00     0.177 C 
BRANCH  21  22
ATOM     22  N   UNL     1      -0.531   2.464  -0.815  1.00  0.00    -0.309 N 
ATOM     23  C   UNL     1      -0.727   2.270   0.515  1.00  0.00     0.408 C 
ATOM     24  H   UNL     1      -1.361   2.406  -1.341  1.00  0.00     0.167 HD
ATOM     25  O   UNL     1      -1.720   1.694   0.916  1.00  0.00    -0.225 OA
BRANCH  23  26
ATOM     26  O   UNL     1       0.211   2.854   1.291  1.00  0.00    -0.445 OA
BRANCH  26  27
ATOM     27  C   UNL     1      -0.158   2.982   2.671  1.00  0.00     0.270 C 
BRANCH  27  28
ATOM     28  C   UNL     1      -1.125   4.119   2.960  1.00  0.00    -0.011 A 
ATOM     29  C   UNL     1      -1.906   4.742   1.973  1.00  0.00     0.007 A 
ATOM     30  C   UNL     1      -1.301   4.529   4.290  1.00  0.00     0.007 A 
ATOM     31  C   UNL     1      -2.834   5.731   2.298  1.00  0.00     0.000 A 
ATOM     32  C   UNL     1      -2.224   5.526   4.616  1.00  0.00     0.000 A 
ATOM     33  C   UNL     1      -2.993   6.124   3.620  1.00  0.00     0.000 A 
ENDBRANCH  27  28
ENDBRANCH  26  27
ENDBRANCH  23  26
ENDBRANCH  21  22
BRANCH  21  34
ATOM     34  C   UNL     1       1.750   3.640  -1.031  1.00  0.00     0.015 C 
ATOM     35  C   UNL     1       2.914   3.849  -2.013  1.00  0.00     0.010 C 
ATOM     36  C   UNL     1       1.189   5.025  -0.680  1.00  0.00     0.010 C 
ENDBRANCH  21  34
ENDBRANCH  18  21
ENDBRANCH  16  17
ENDBRANCH  13  16
ENDBRANCH   7  12
ENDBRANCH   4   7
ENDBRANCH   1   3
BRANCH   1  37
ATOM     37  C   UNL     1      -3.725  -3.618  -3.253  1.00  0.00     0.242 C 
ATOM     38  O   UNL     1      -2.972  -3.952  -4.172  1.00  0.00    -0.273 OA
ATOM     39  N   UNL     1      -5.061  -3.628  -3.507  1.00  0.00    -0.354 N 
ATOM     40  H   UNL     1      -5.299  -3.828  -4.441  1.00  0.00     0.163 HD
BRANCH  39  41
ATOM     41  C   UNL     1      -6.192  -3.394  -2.634  1.00  0.00     0.116 C 
BRANCH  41  42
ATOM     42  C   UNL     1      -7.048  -2.230  -3.119  1.00  0.00     0.023 C 
BRANCH  42  43
ATOM     43  C   UNL     1      -7.721  -2.466  -4.471  1.00  0.00     0.023 C 
BRANCH  43  44
ATOM     44  C   UNL     1      -8.460  -3.793  -4.599  1.00  0.00     0.116 C 
BRANCH  44  45
ATOM     45  N   UNL     1      -9.469  -3.986  -3.567  1.00  0.00    -0.352 N 
ATOM     46  C   UNL     1     -10.744  -4.480  -3.705  1.00  0.00     0.251 C 
ATOM     47  H   UNL     1      -9.204  -3.731  -2.654  1.00  0.00     0.163 HD
ATOM     48  O   UNL     1     -11.525  -4.483  -2.762  1.00  0.00    -0.269 OA
BRANCH  46  49
ATOM     49  C   UNL     1     -11.168  -4.970  -5.029  1.00  0.00     0.039 A 
ATOM     50  C   UNL     1     -12.319  -4.437  -5.611  1.00  0.00     0.014 A 
ATOM     51  C   UNL     1     -10.374  -5.888  -5.721  1.00  0.00     0.014 A 
ATOM     52  C   UNL     1     -12.634  -4.768  -6.929  1.00  0.00     0.010 A 
ATOM     53  C   UNL     1     -10.647  -6.155  -7.056  1.00  0.00     0.010 A 
ATOM     54  C   UNL     1     -11.777  -5.594  -7.674  1.00  0.00    -0.014 A 
BRANCH  54  55
ATOM     55  C   UNL     1     -12.030  -5.884  -9.106  1.00  0.00     0.031 A 
ATOM     56  C   UNL     1     -12.286  -7.297  -9.548  1.00  0.00     0.074 A 
ATOM     57  C   UNL     1     -11.937  -4.896 -10.016  1.00  0.00     0.049 A 
ATOM     58  N   UNL     1     -12.416  -7.772 -10.760  1.00  0.00    -0.248 NA
ATOM     59  C   UNL     1     -12.375  -8.314  -8.488  1.00  0.00     0.031 C 
ATOM     60  C   UNL     1     -11.652  -3.490  -9.719  1.00  0.00     0.029 A 
ATOM     61  N   UNL     1     -12.053  -4.929 -11.383  1.00  0.00    -0.354 N 
ATOM     62  C   UNL     1     -12.580  -9.143 -10.608  1.00  0.00     0.074 A 
ATOM     63  C   UNL     1     -12.479  -9.429  -9.194  1.00  0.00     0.031 C 
ATOM     64  C   UNL     1     -11.631  -2.794 -10.867  1.00  0.00     0.029 A 
ATOM     65  C   UNL     1     -11.853  -3.708 -11.982  1.00  0.00     0.049 A 
ATOM     66  H   UNL     1     -12.260  -5.749 -11.887  1.00  0.00     0.167 HD
ATOM     67  C   UNL     1     -12.812 -10.078 -11.559  1.00  0.00     0.031 A 
ATOM     68  C   UNL     1     -11.833  -3.366 -13.285  1.00  0.00     0.031 A 
ATOM     69  C   UNL     1     -12.917  -9.790 -12.964  1.00  0.00     0.049 A 
ATOM     70  C   UNL     1     -12.073  -4.425 -14.325  1.00  0.00     0.074 A 
ATOM     71  C   UNL     1     -13.207 -10.658 -14.002  1.00  0.00     0.029 A 
ATOM     72  N   UNL     1     -12.728  -8.537 -13.528  1.00  0.00    -0.354 N 
ATOM     73  N   UNL     1     -12.298  -5.706 -14.162  1.00  0.00    -0.248 NA
ATOM     74  C   UNL     1     -12.065  -3.988 -15.729  1.00  0.00     0.031 C 
ATOM     75  C   UNL     1     -13.139  -9.941 -15.200  1.00  0.00     0.029 A 
ATOM     76  C   UNL     1     -12.868  -8.614 -14.903  1.00  0.00     0.049 A 
ATOM     77  H   UNL     1     -12.525  -7.716 -13.025  1.00  0.00     0.167 HD
ATOM     78  C   UNL     1     -12.486  -6.223 -15.438  1.00  0.00     0.074 A 
ATOM     79  C   UNL     1     -12.361  -5.115 -16.362  1.00  0.00     0.031 C 
ATOM     80  C   UNL     1     -12.742  -7.501 -15.809  1.00  0.00     0.031 A 
BRANCH  67  81
ATOM     81  C   UNL     1     -12.951 -11.504 -11.103  1.00  0.00    -0.014 A 
ATOM     82  C   UNL     1     -14.056 -11.922 -10.342  1.00  0.00     0.009 A 
ATOM     83  C   UNL     1     -11.973 -12.447 -11.452  1.00  0.00     0.009 A 
ATOM     84  C   UNL     1     -14.153 -13.243  -9.901  1.00  0.00     0.001 A 
ATOM     85  C   UNL     1     -12.089 -13.776 -11.038  1.00  0.00     0.001 A 
ATOM     86  C   UNL     1     -13.172 -14.170 -10.253  1.00  0.00     0.000 A 
ENDBRANCH  67  81
BRANCH  68  87
ATOM     87  C   UNL     1     -11.576  -1.956 -13.677  1.00  0.00    -0.014 A 
ATOM     88  C   UNL     1     -12.603  -1.165 -14.215  1.00  0.00     0.009 A 
ATOM     89  C   UNL     1     -10.303  -1.389 -13.508  1.00  0.00     0.009 A 
ATOM     90  C   UNL     1     -12.354   0.155 -14.599  1.00  0.00     0.001 A 
ATOM     91  C   UNL     1     -10.064  -0.060 -13.865  1.00  0.00     0.001 A 
ATOM     92  C   UNL     1     -11.087   0.708 -14.418  1.00  0.00     0.000 A 
ENDBRANCH  68  87
BRANCH  80  93
ATOM     93  C   UNL     1     -12.944  -7.770 -17.273  1.00  0.00    -0.014 A 
ATOM     94  C   UNL     1     -11.867  -7.758 -18.173  1.00  0.00     0.009 A 
ATOM     95  C   UNL     1     -14.223  -8.104 -17.746  1.00  0.00     0.009 A 
ATOM     96  C   UNL     1     -12.074  -8.053 -19.523  1.00  0.00     0.001 A 
ATOM     97  C   UNL     1     -14.421  -8.426 -19.088  1.00  0.00     0.001 A 
ATOM     98  C   UNL     1     -13.348  -8.393 -19.977  1.00  0.00     0.000 A 
ENDBRANCH  80  93
ENDBRANCH  54  55
ENDBRANCH  46  49
ENDBRANCH  44  45
ENDBRANCH  43  44
ENDBRANCH  42  43
ENDBRANCH  41  42
ENDBRANCH  39  41
ENDBRANCH   1  37
TORSDOF 24
