REMARK SMILES O=C(NCCCCNC(=O)c1cc(Br)cnc1S)c1ccc(-c2c3nc(c(-c4ccccc4)c4ccc([nH]4)c(-c4ccccc4)c4nc(c(-c5ccccc5)c5ccc2[nH]5)C=C4)C=C3)cc1
REMARK SMILES IDX 5 1 4 2 3 3 1 4 2 5 19 7 20 8 66 9 21 10 65 11 22 12 23 13
REMARK SMILES IDX 24 14 59 15 25 16 64 17 58 18 60 19 26 20 63 21 57 22 56 23
REMARK SMILES IDX 27 25 49 26 34 27 48 28 35 29 38 30 47 31 61 32 36 33 37 34
REMARK SMILES IDX 46 36 62 37 39 38 28 39 29 40 33 41 30 42 32 43 31 44 50 45
REMARK SMILES IDX 51 46 55 47 52 48 54 49 53 50 40 51 41 52 45 53 42 54 44 55
REMARK SMILES IDX 43 56 6 57 7 58 8 59 9 60 10 62 11 63 12 64 17 65 13 66
REMARK SMILES IDX 16 67 14 68 15 69 18 70
REMARK H PARENT 3 6 60 24 38 35 8 61 18 71
REMARK Flexibility Score: inf
ROOT
ATOM      1  C   UNL     1       4.976  -0.595   2.389  1.00  0.00     0.023 C 
ENDROOT
BRANCH   1   2
ATOM      2  C   UNL     1       4.577  -0.769   0.926  1.00  0.00     0.116 C 
BRANCH   2   3
ATOM      3  N   UNL     1       3.138  -0.807   0.744  1.00  0.00    -0.352 N 
ATOM      4  O   UNL     1       1.103  -0.102   0.110  1.00  0.00    -0.269 OA
ATOM      5  C   UNL     1       2.321  -0.011  -0.018  1.00  0.00     0.251 C 
ATOM      6  H   UNL     1       2.675  -1.516   1.246  1.00  0.00     0.163 HD
BRANCH   5   7
ATOM      7  C   UNL     1       2.880   0.953  -0.992  1.00  0.00     0.039 A 
ATOM      8  C   UNL     1       2.258   2.199  -1.131  1.00  0.00     0.014 A 
ATOM      9  C   UNL     1       3.942   0.610  -1.833  1.00  0.00     0.014 A 
ATOM     10  C   UNL     1       2.706   3.103  -2.099  1.00  0.00     0.010 A 
ATOM     11  C   UNL     1       4.428   1.534  -2.756  1.00  0.00     0.010 A 
ATOM     12  C   UNL     1       3.795   2.777  -2.920  1.00  0.00    -0.014 A 
BRANCH  12  13
ATOM     13  C   UNL     1       4.228   3.666  -4.027  1.00  0.00     0.031 A 
ATOM     14  C   UNL     1       4.051   3.204  -5.449  1.00  0.00     0.074 A 
ATOM     15  C   UNL     1       4.814   4.851  -3.772  1.00  0.00     0.049 A 
ATOM     16  N   UNL     1       4.493   3.745  -6.554  1.00  0.00    -0.248 NA
ATOM     17  C   UNL     1       3.292   1.956  -5.653  1.00  0.00     0.031 C 
ATOM     18  C   UNL     1       5.029   5.421  -2.442  1.00  0.00     0.029 A 
ATOM     19  N   UNL     1       5.352   5.784  -4.626  1.00  0.00    -0.354 N 
ATOM     20  C   UNL     1       4.090   2.895  -7.576  1.00  0.00     0.074 A 
ATOM     21  C   UNL     1       3.398   1.785  -6.963  1.00  0.00     0.031 C 
ATOM     22  C   UNL     1       5.652   6.605  -2.569  1.00  0.00     0.029 A 
ATOM     23  C   UNL     1       5.925   6.855  -3.983  1.00  0.00     0.049 A 
ATOM     24  H   UNL     1       5.328   5.694  -5.606  1.00  0.00     0.167 HD
ATOM     25  C   UNL     1       4.268   3.038  -8.909  1.00  0.00     0.031 A 
ATOM     26  C   UNL     1       6.617   7.905  -4.471  1.00  0.00     0.031 A 
ATOM     27  C   UNL     1       4.919   4.163  -9.520  1.00  0.00     0.049 A 
ATOM     28  C   UNL     1       6.828   8.025  -5.957  1.00  0.00     0.074 A 
ATOM     29  C   UNL     1       5.103   4.413 -10.868  1.00  0.00     0.029 A 
ATOM     30  N   UNL     1       5.477   5.225  -8.829  1.00  0.00    -0.354 N 
ATOM     31  N   UNL     1       6.422   7.225  -6.912  1.00  0.00    -0.248 NA
ATOM     32  C   UNL     1       7.588   9.191  -6.437  1.00  0.00     0.031 C 
ATOM     33  C   UNL     1       5.822   5.601 -10.993  1.00  0.00     0.029 A 
ATOM     34  C   UNL     1       6.028   6.123  -9.726  1.00  0.00     0.049 A 
ATOM     35  H   UNL     1       5.482   5.326  -7.850  1.00  0.00     0.167 HD
ATOM     36  C   UNL     1       6.854   7.800  -8.101  1.00  0.00     0.074 A 
ATOM     37  C   UNL     1       7.544   9.022  -7.753  1.00  0.00     0.031 C 
ATOM     38  C   UNL     1       6.692   7.348  -9.367  1.00  0.00     0.031 A 
BRANCH  25  39
ATOM     39  C   UNL     1       3.744   1.966  -9.821  1.00  0.00    -0.014 A 
ATOM     40  C   UNL     1       4.646   1.161 -10.535  1.00  0.00     0.009 A 
ATOM     41  C   UNL     1       2.371   1.845 -10.078  1.00  0.00     0.009 A 
ATOM     42  C   UNL     1       4.185   0.273 -11.508  1.00  0.00     0.001 A 
ATOM     43  C   UNL     1       1.911   0.937 -11.033  1.00  0.00     0.001 A 
ATOM     44  C   UNL     1       2.818   0.162 -11.756  1.00  0.00     0.000 A 
ENDBRANCH  25  39
BRANCH  26  45
ATOM     45  C   UNL     1       7.172   8.919  -3.534  1.00  0.00    -0.014 A 
ATOM     46  C   UNL     1       8.216   8.582  -2.657  1.00  0.00     0.009 A 
ATOM     47  C   UNL     1       6.647  10.219  -3.490  1.00  0.00     0.009 A 
ATOM     48  C   UNL     1       8.709   9.518  -1.744  1.00  0.00     0.001 A 
ATOM     49  C   UNL     1       7.163  11.162  -2.598  1.00  0.00     0.001 A 
ATOM     50  C   UNL     1       8.187  10.809  -1.720  1.00  0.00     0.000 A 
ENDBRANCH  26  45
BRANCH  38  51
ATOM     51  C   UNL     1       7.238   8.169 -10.501  1.00  0.00    -0.014 A 
ATOM     52  C   UNL     1       6.350   8.805 -11.384  1.00  0.00     0.009 A 
ATOM     53  C   UNL     1       8.609   8.166 -10.795  1.00  0.00     0.009 A 
ATOM     54  C   UNL     1       6.820   9.392 -12.559  1.00  0.00     0.001 A 
ATOM     55  C   UNL     1       9.079   8.778 -11.959  1.00  0.00     0.001 A 
ATOM     56  C   UNL     1       8.184   9.377 -12.846  1.00  0.00     0.000 A 
ENDBRANCH  38  51
ENDBRANCH  12  13
ENDBRANCH   5   7
ENDBRANCH   2   3
ENDBRANCH   1   2
BRANCH   1  57
ATOM     57  C   UNL     1       4.474  -1.679   3.347  1.00  0.00     0.023 C 
BRANCH  57  58
ATOM     58  C   UNL     1       4.785  -3.115   2.933  1.00  0.00     0.116 C 
BRANCH  58  59
ATOM     59  N   UNL     1       6.213  -3.364   2.809  1.00  0.00    -0.352 N 
ATOM     60  C   UNL     1       6.981  -4.308   3.440  1.00  0.00     0.254 C 
ATOM     61  H   UNL     1       6.694  -2.772   2.187  1.00  0.00     0.163 HD
ATOM     62  O   UNL     1       8.195  -4.343   3.272  1.00  0.00    -0.269 OA
BRANCH  60  63
ATOM     63  C   UNL     1       6.353  -5.266   4.355  1.00  0.00     0.072 A 
ATOM     64  C   UNL     1       6.659  -5.142   5.715  1.00  0.00     0.034 A 
ATOM     65  C   UNL     1       5.495  -6.281   3.930  1.00  0.00     0.106 A 
ATOM     66  C   UNL     1       6.054  -6.003   6.618  1.00  0.00     0.037 A 
ATOM     67  N   UNL     1       4.887  -7.111   4.816  1.00  0.00    -0.248 NA
ATOM     68  Br  UNL     1       6.414  -5.870   8.462  1.00  0.00    -0.049 Br
ATOM     69  C   UNL     1       5.174  -6.955   6.132  1.00  0.00     0.128 A 
BRANCH  65  70
ATOM     70  S   UNL     1       5.088  -6.623   2.229  1.00  0.00    -0.123 SA
ATOM     71  H   UNL     1       5.741  -5.745   1.422  1.00  0.00     0.109 HD
ENDBRANCH  65  70
ENDBRANCH  60  63
ENDBRANCH  58  59
ENDBRANCH  57  58
ENDBRANCH   1  57
TORSDOF 12
