REMARK SMILES Cc1n[nH]c(C[N@H+]2CCC[C@H](c3cccc(C(=O)NCCCCNC(=O)c4ccc(-c5c6nc(c(-c7ccccc7)c7ccc([nH]7)c(-c7ccccc7)c7nc(c(-c8ccccc8)c8ccc5[nH]8)C=C7)C=C6)cc4)c3)C2)n1
REMARK SMILES IDX 21 1 20 2 19 3 17 4 18 5 16 7 12 8 13 9 75 10 14 11 15 12
REMARK SMILES IDX 11 13 7 14 8 15 76 16 9 18 10 19 6 20 5 21 1 22 2 23 3 24
REMARK SMILES IDX 77 25 4 26 22 28 23 29 24 30 25 31 26 33 27 34 28 35 74 36
REMARK SMILES IDX 29 37 73 38 30 39 31 40 32 41 67 42 33 43 72 44 66 45 68 46
REMARK SMILES IDX 34 47 71 48 65 49 64 50 35 52 57 53 42 54 56 55 43 56 46 57
REMARK SMILES IDX 55 58 69 59 44 60 45 61 54 63 70 64 47 65 36 66 37 67 41 68
REMARK SMILES IDX 38 69 40 70 39 71 58 72 59 73 63 74 60 75 62 76 61 77 48 78
REMARK SMILES IDX 49 79 53 80 50 81 52 82 51 83
REMARK H PARENT 19 6 7 17 4 27 24 32 68 51 46 62
REMARK Flexibility Score: inf
ROOT
ATOM      1  C   UNL     1       9.136   4.689   3.166  1.00  0.00     0.023 C 
ENDROOT
BRANCH   1   2
ATOM      2  C   UNL     1       8.035   5.654   3.597  1.00  0.00     0.116 C 
BRANCH   2   3
ATOM      3  N   UNL     1       8.303   7.072   3.362  1.00  0.00    -0.352 N 
ATOM      4  C   UNL     1       7.620   8.059   2.669  1.00  0.00     0.251 C 
ATOM      5  O   UNL     1       8.091   9.195   2.658  1.00  0.00    -0.269 OA
ATOM      6  H   UNL     1       9.135   7.390   3.781  1.00  0.00     0.163 HD
BRANCH   4   7
ATOM      7  C   UNL     1       6.384   7.783   1.885  1.00  0.00     0.040 A 
ATOM      8  C   UNL     1       4.595   6.226   1.342  1.00  0.00    -0.039 A 
ATOM      9  C   UNL     1       4.362   6.941   0.160  1.00  0.00     0.004 A 
ATOM     10  C   UNL     1       5.507   6.770   2.252  1.00  0.00     0.018 A 
ATOM     11  C   UNL     1       5.079   8.107  -0.122  1.00  0.00     0.001 A 
ATOM     12  C   UNL     1       6.124   8.502   0.716  1.00  0.00     0.014 A 
BRANCH   8  13
ATOM     13  C   UNL     1       4.084   4.805   1.587  1.00  0.00     0.074 C 
ATOM     14  N   UNL     1       1.672   5.064   1.031  1.00  0.00    -0.328 N 
ATOM     15  C   UNL     1       1.284   4.848   2.432  1.00  0.00     0.262 C 
ATOM     16  C   UNL     1       2.916   4.348   0.696  1.00  0.00     0.270 C 
ATOM     17  H   UNL     1       1.849   6.065   0.938  1.00  0.00     0.348 HD
ATOM     18  C   UNL     1       2.406   5.203   3.413  1.00  0.00     0.062 C 
ATOM     19  C   UNL     1       3.697   4.484   3.045  1.00  0.00     0.020 C 
BRANCH  14  20
ATOM     20  C   UNL     1       0.595   4.741   0.075  1.00  0.00     0.340 C 
BRANCH  20  21
ATOM     21  C   UNL     1       0.204   3.301   0.054  1.00  0.00     0.179 A 
ATOM     22  C   UNL     1       0.699  -0.185  -0.030  1.00  0.00     0.092 C 
ATOM     23  C   UNL     1       0.183   1.194   0.063  1.00  0.00     0.147 A 
ATOM     24  N   UNL     1      -1.003   1.501   0.600  1.00  0.00    -0.159 NA
ATOM     25  N   UNL     1       0.925   2.269  -0.336  1.00  0.00    -0.211 NA
ATOM     26  N   UNL     1      -0.976   2.843   0.565  1.00  0.00    -0.258 N 
ATOM     27  H   UNL     1      -1.712   3.422   0.868  1.00  0.00     0.192 HD
ENDBRANCH  20  21
ENDBRANCH  14  20
ENDBRANCH   8  13
ENDBRANCH   4   7
ENDBRANCH   2   3
ENDBRANCH   1   2
BRANCH   1  28
ATOM     28  C   UNL     1      10.444   4.712   3.955  1.00  0.00     0.023 C 
BRANCH  28  29
ATOM     29  C   UNL     1      10.303   4.466   5.450  1.00  0.00     0.116 C 
BRANCH  29  30
ATOM     30  N   UNL     1       9.744   3.158   5.795  1.00  0.00    -0.352 N 
ATOM     31  C   UNL     1       9.485   2.665   7.066  1.00  0.00     0.251 C 
ATOM     32  H   UNL     1       9.528   2.562   5.041  1.00  0.00     0.163 HD
ATOM     33  O   UNL     1       9.364   1.474   7.281  1.00  0.00    -0.269 OA
BRANCH  31  34
ATOM     34  C   UNL     1       9.344   3.640   8.163  1.00  0.00     0.039 A 
ATOM     35  C   UNL     1       9.981   3.469   9.396  1.00  0.00     0.014 A 
ATOM     36  C   UNL     1       8.594   4.781   7.894  1.00  0.00     0.014 A 
ATOM     37  C   UNL     1       9.931   4.506  10.326  1.00  0.00     0.010 A 
ATOM     38  C   UNL     1       8.682   5.855   8.737  1.00  0.00     0.010 A 
ATOM     39  C   UNL     1       9.295   5.705   9.979  1.00  0.00    -0.014 A 
BRANCH  39  40
ATOM     40  C   UNL     1       9.337   6.872  10.852  1.00  0.00     0.031 A 
ATOM     41  C   UNL     1      10.700   7.402  11.147  1.00  0.00     0.074 A 
ATOM     42  C   UNL     1       8.223   7.592  11.115  1.00  0.00     0.049 A 
ATOM     43  N   UNL     1      11.267   7.535  12.300  1.00  0.00    -0.248 NA
ATOM     44  C   UNL     1      11.579   7.737  10.012  1.00  0.00     0.031 C 
ATOM     45  C   UNL     1       6.870   7.388  10.579  1.00  0.00     0.029 A 
ATOM     46  N   UNL     1       8.102   8.775  11.773  1.00  0.00    -0.354 N 
ATOM     47  C   UNL     1      12.498   8.143  12.061  1.00  0.00     0.074 A 
ATOM     48  C   UNL     1      12.707   8.084  10.637  1.00  0.00     0.031 C 
ATOM     49  C   UNL     1       6.170   8.538  10.682  1.00  0.00     0.029 A 
ATOM     50  C   UNL     1       6.959   9.493  11.438  1.00  0.00     0.049 A 
ATOM     51  H   UNL     1       8.763   9.094  12.428  1.00  0.00     0.167 HD
ATOM     52  C   UNL     1      13.137   8.868  13.023  1.00  0.00     0.031 A 
ATOM     53  C   UNL     1       6.714  10.801  11.699  1.00  0.00     0.031 A 
ATOM     54  C   UNL     1      12.569   8.640  14.327  1.00  0.00     0.049 A 
ATOM     55  C   UNL     1       7.656  11.223  12.764  1.00  0.00     0.074 A 
ATOM     56  C   UNL     1      12.354   7.521  15.109  1.00  0.00     0.029 A 
ATOM     57  N   UNL     1      11.742   9.615  14.835  1.00  0.00    -0.354 N 
ATOM     58  N   UNL     1       7.607  10.771  13.985  1.00  0.00    -0.248 NA
ATOM     59  C   UNL     1       8.941  11.769  12.353  1.00  0.00     0.031 C 
ATOM     60  C   UNL     1      11.058   7.722  15.671  1.00  0.00     0.029 A 
ATOM     61  C   UNL     1      10.610   8.984  15.277  1.00  0.00     0.049 A 
ATOM     62  H   UNL     1      11.929  10.581  14.873  1.00  0.00     0.167 HD
ATOM     63  C   UNL     1       8.933  10.552  14.332  1.00  0.00     0.074 A 
ATOM     64  C   UNL     1       9.713  11.275  13.326  1.00  0.00     0.031 C 
ATOM     65  C   UNL     1       9.288   9.567  15.211  1.00  0.00     0.031 A 
BRANCH  52  66
ATOM     66  C   UNL     1      13.983  10.088  12.739  1.00  0.00    -0.014 A 
ATOM     67  C   UNL     1      14.614  10.736  13.819  1.00  0.00     0.009 A 
ATOM     68  C   UNL     1      13.944  10.789  11.520  1.00  0.00     0.009 A 
ATOM     69  C   UNL     1      15.092  12.047  13.704  1.00  0.00     0.001 A 
ATOM     70  C   UNL     1      14.462  12.081  11.390  1.00  0.00     0.001 A 
ATOM     71  C   UNL     1      15.006  12.723  12.492  1.00  0.00     0.000 A 
ENDBRANCH  52  66
BRANCH  53  72
ATOM     72  C   UNL     1       5.930  11.766  10.893  1.00  0.00    -0.014 A 
ATOM     73  C   UNL     1       5.514  12.992  11.436  1.00  0.00     0.009 A 
ATOM     74  C   UNL     1       5.795  11.594   9.502  1.00  0.00     0.009 A 
ATOM     75  C   UNL     1       5.014  14.013  10.615  1.00  0.00     0.001 A 
ATOM     76  C   UNL     1       5.290  12.610   8.682  1.00  0.00     0.001 A 
ATOM     77  C   UNL     1       4.913  13.827   9.238  1.00  0.00     0.000 A 
ENDBRANCH  53  72
BRANCH  65  78
ATOM     78  C   UNL     1       8.204   8.848  15.978  1.00  0.00    -0.014 A 
ATOM     79  C   UNL     1       7.143   8.163  15.361  1.00  0.00     0.009 A 
ATOM     80  C   UNL     1       8.361   8.711  17.366  1.00  0.00     0.009 A 
ATOM     81  C   UNL     1       6.250   7.393  16.116  1.00  0.00     0.001 A 
ATOM     82  C   UNL     1       7.485   7.924  18.116  1.00  0.00     0.001 A 
ATOM     83  C   UNL     1       6.425   7.270  17.492  1.00  0.00     0.000 A 
ENDBRANCH  65  78
ENDBRANCH  39  40
ENDBRANCH  31  34
ENDBRANCH  29  30
ENDBRANCH  28  29
ENDBRANCH   1  28
TORSDOF 14
