REMARK SMILES C[NH2+][C@]1(C(=O)NCCCCNC(=O)c2ccc(-c3c4nc(c(-c5ccccc5)c5ccc([nH]5)c(-c5ccccc5)c5nc(c(-c6ccccc6)c6ccc3[nH]6)C=C5)C=C4)cc2)CCC[C@H]1CCOC1C[C@@H](C)C[C@H](C)C1
REMARK SMILES IDX 7 1 6 2 4 3 5 4 3 6 62 7 65 8 63 9 64 10 2 11 1 12 66 15
REMARK SMILES IDX 67 16 68 17 69 18 70 19 76 20 71 21 74 22 72 23 73 24 75 25
REMARK SMILES IDX 8 26 9 27 10 28 11 29 12 30 13 32 14 33 15 34 61 35 16 36
REMARK SMILES IDX 60 37 17 38 18 39 19 40 54 41 20 42 59 43 53 44 55 45 21 46
REMARK SMILES IDX 58 47 52 48 51 49 22 51 44 52 29 53 43 54 30 55 33 56 42 57
REMARK SMILES IDX 56 58 31 59 32 60 41 62 57 63 34 64 23 65 24 66 28 67 25 68
REMARK SMILES IDX 27 69 26 70 45 71 46 72 50 73 47 74 49 75 48 76 35 77 36 78
REMARK SMILES IDX 40 79 37 80 39 81 38 82
REMARK H PARENT 6 5 2 13 2 14 11 31 55 50 33 61
REMARK Flexibility Score: inf
ROOT
ATOM      1  C   UNL     1       0.680   0.881  -2.093  1.00  0.00     0.116 C 
ENDROOT
BRANCH   1   2
ATOM      2  N   UNL     1       0.873   0.562  -0.690  1.00  0.00    -0.351 N 
ATOM      3  C   UNL     1       0.326  -0.301   0.214  1.00  0.00     0.281 C 
ATOM      4  O   UNL     1       1.035  -0.404   1.230  1.00  0.00    -0.268 OA
ATOM      5  H   UNL     1       1.582   1.111  -0.285  1.00  0.00     0.163 HD
BRANCH   3   6
ATOM      6  C   UNL     1      -1.070  -1.134   0.076  1.00  0.00     0.178 C 
ATOM      7  C   UNL     1      -2.067  -0.072  -0.483  1.00  0.00     0.079 C 
ATOM      8  C   UNL     1      -1.532  -2.702  -0.784  1.00  0.00     0.063 C 
ATOM      9  C   UNL     1      -3.388  -0.718  -0.736  1.00  0.00     0.008 C 
ATOM     10  C   UNL     1      -3.161  -2.215  -0.827  1.00  0.00     0.011 C 
BRANCH   6  11
ATOM     11  N   UNL     1      -1.618  -1.174   1.513  1.00  0.00    -0.336 N 
ATOM     12  C   UNL     1      -1.012  -2.042   2.502  1.00  0.00     0.331 C 
ATOM     13  H   UNL     1      -1.554  -0.224   1.878  1.00  0.00     0.346 HD
ATOM     14  H   UNL     1      -2.550  -1.572   1.395  1.00  0.00     0.346 HD
ENDBRANCH   6  11
BRANCH   8  15
ATOM     15  C   UNL     1      -0.559  -4.213  -1.907  1.00  0.00     0.039 C 
BRANCH  15  16
ATOM     16  C   UNL     1       0.685  -5.264  -1.475  1.00  0.00     0.161 C 
BRANCH  16  17
ATOM     17  O   UNL     1       1.006  -5.045  -0.144  1.00  0.00    -0.378 OA
BRANCH  17  18
ATOM     18  C   UNL     1       0.067  -4.019   0.047  1.00  0.00     0.118 C 
ATOM     19  C   UNL     1       0.641  -2.688  -1.261  1.00  0.00     0.035 C 
ATOM     20  C   UNL     1      -1.633  -4.963  -0.197  1.00  0.00     0.035 C 
ATOM     21  C   UNL     1      -0.579  -2.161  -2.675  1.00  0.00    -0.011 C 
ATOM     22  C   UNL     1      -2.741  -4.570  -1.700  1.00  0.00    -0.011 C 
ATOM     23  C   UNL     1       0.196  -1.990  -4.001  1.00  0.00     0.008 C 
ATOM     24  C   UNL     1      -2.157  -3.229  -2.973  1.00  0.00     0.006 C 
ATOM     25  C   UNL     1      -4.249  -4.791  -1.444  1.00  0.00     0.008 C 
ENDBRANCH  17  18
ENDBRANCH  16  17
ENDBRANCH  15  16
ENDBRANCH   8  15
ENDBRANCH   3   6
ENDBRANCH   1   2
BRANCH   1  26
ATOM     26  C   UNL     1       1.193   2.272  -2.458  1.00  0.00     0.023 C 
BRANCH  26  27
ATOM     27  C   UNL     1       2.686   2.321  -2.780  1.00  0.00     0.023 C 
BRANCH  27  28
ATOM     28  C   UNL     1       3.125   1.469  -3.971  1.00  0.00     0.116 C 
BRANCH  28  29
ATOM     29  N   UNL     1       2.428   1.801  -5.207  1.00  0.00    -0.352 N 
ATOM     30  C   UNL     1       2.946   2.166  -6.426  1.00  0.00     0.251 C 
ATOM     31  H   UNL     1       1.445   1.758  -5.162  1.00  0.00     0.163 HD
ATOM     32  O   UNL     1       2.209   2.539  -7.332  1.00  0.00    -0.269 OA
BRANCH  30  33
ATOM     33  C   UNL     1       4.408   2.131  -6.628  1.00  0.00     0.039 A 
ATOM     34  C   UNL     1       5.051   3.268  -7.124  1.00  0.00     0.014 A 
ATOM     35  C   UNL     1       5.141   0.992  -6.286  1.00  0.00     0.014 A 
ATOM     36  C   UNL     1       6.444   3.290  -7.199  1.00  0.00     0.010 A 
ATOM     37  C   UNL     1       6.530   1.043  -6.293  1.00  0.00     0.010 A 
ATOM     38  C   UNL     1       7.196   2.194  -6.743  1.00  0.00    -0.014 A 
BRANCH  38  39
ATOM     39  C   UNL     1       8.679   2.239  -6.711  1.00  0.00     0.031 A 
ATOM     40  C   UNL     1       9.483   1.295  -7.560  1.00  0.00     0.074 A 
ATOM     41  C   UNL     1       9.302   3.079  -5.861  1.00  0.00     0.049 A 
ATOM     42  N   UNL     1      10.782   1.144  -7.622  1.00  0.00    -0.248 NA
ATOM     43  C   UNL     1       8.729   0.382  -8.434  1.00  0.00     0.031 C 
ATOM     44  C   UNL     1       8.637   4.011  -4.947  1.00  0.00     0.029 A 
ATOM     45  N   UNL     1      10.639   3.277  -5.621  1.00  0.00    -0.354 N 
ATOM     46  C   UNL     1      10.998   0.110  -8.523  1.00  0.00     0.074 A 
ATOM     47  C   UNL     1       9.698  -0.362  -8.947  1.00  0.00     0.031 C 
ATOM     48  C   UNL     1       9.568   4.697  -4.266  1.00  0.00     0.029 A 
ATOM     49  C   UNL     1      10.891   4.230  -4.665  1.00  0.00     0.049 A 
ATOM     50  H   UNL     1      11.350   2.783  -6.090  1.00  0.00     0.167 HD
ATOM     51  C   UNL     1      12.173  -0.392  -8.972  1.00  0.00     0.031 A 
ATOM     52  C   UNL     1      12.058   4.675  -4.160  1.00  0.00     0.031 A 
ATOM     53  C   UNL     1      13.466   0.085  -8.562  1.00  0.00     0.049 A 
ATOM     54  C   UNL     1      13.348   4.103  -4.676  1.00  0.00     0.074 A 
ATOM     55  C   UNL     1      14.713  -0.314  -9.010  1.00  0.00     0.029 A 
ATOM     56  N   UNL     1      13.679   1.064  -7.605  1.00  0.00    -0.354 N 
ATOM     57  N   UNL     1      13.536   3.179  -5.586  1.00  0.00    -0.248 NA
ATOM     58  C   UNL     1      14.588   4.647  -4.103  1.00  0.00     0.031 C 
ATOM     59  C   UNL     1      15.682   0.389  -8.288  1.00  0.00     0.029 A 
ATOM     60  C   UNL     1      15.037   1.266  -7.430  1.00  0.00     0.049 A 
ATOM     61  H   UNL     1      12.969   1.545  -7.120  1.00  0.00     0.167 HD
ATOM     62  C   UNL     1      14.913   3.048  -5.713  1.00  0.00     0.074 A 
ATOM     63  C   UNL     1      15.512   3.999  -4.800  1.00  0.00     0.031 C 
ATOM     64  C   UNL     1      15.618   2.215  -6.516  1.00  0.00     0.031 A 
BRANCH  51  65
ATOM     65  C   UNL     1      12.110  -1.525  -9.958  1.00  0.00    -0.014 A 
ATOM     66  C   UNL     1      11.668  -1.320 -11.275  1.00  0.00     0.009 A 
ATOM     67  C   UNL     1      12.530  -2.808  -9.575  1.00  0.00     0.009 A 
ATOM     68  C   UNL     1      11.614  -2.385 -12.177  1.00  0.00     0.001 A 
ATOM     69  C   UNL     1      12.502  -3.864 -10.487  1.00  0.00     0.001 A 
ATOM     70  C   UNL     1      12.035  -3.654 -11.784  1.00  0.00     0.000 A 
ENDBRANCH  51  65
BRANCH  52  71
ATOM     71  C   UNL     1      12.061   5.733  -3.116  1.00  0.00    -0.014 A 
ATOM     72  C   UNL     1      12.495   7.032  -3.422  1.00  0.00     0.009 A 
ATOM     73  C   UNL     1      11.632   5.450  -1.810  1.00  0.00     0.009 A 
ATOM     74  C   UNL     1      12.525   8.019  -2.434  1.00  0.00     0.001 A 
ATOM     75  C   UNL     1      11.637   6.447  -0.832  1.00  0.00     0.001 A 
ATOM     76  C   UNL     1      12.092   7.727  -1.141  1.00  0.00     0.000 A 
ENDBRANCH  52  71
BRANCH  64  77
ATOM     77  C   UNL     1      17.116   2.317  -6.468  1.00  0.00    -0.014 A 
ATOM     78  C   UNL     1      17.845   1.839  -5.368  1.00  0.00     0.009 A 
ATOM     79  C   UNL     1      17.810   2.861  -7.561  1.00  0.00     0.009 A 
ATOM     80  C   UNL     1      19.238   1.933  -5.351  1.00  0.00     0.001 A 
ATOM     81  C   UNL     1      19.204   2.927  -7.553  1.00  0.00     0.001 A 
ATOM     82  C   UNL     1      19.916   2.472  -6.444  1.00  0.00     0.000 A 
ENDBRANCH  64  77
ENDBRANCH  38  39
ENDBRANCH  30  33
ENDBRANCH  28  29
ENDBRANCH  27  28
ENDBRANCH  26  27
ENDBRANCH   1  26
TORSDOF 16
