REMARK SMILES Cc1cc(C(=O)NCCCCNC(=O)c2ccc(-c3c4nc(c(-c5ccccc5)c5ccc([nH]5)c(-c5ccccc5)c5nc(c(-c6ccccc6)c6ccc3[nH]6)C=C5)C=C4)cc2)cc(C)c1OC[C@H]1C[N@@H+](C)CCO1
REMARK SMILES IDX 9 1 8 2 7 3 5 4 6 5 4 7 1 8 2 9 3 10 66 11 64 12 63 13 65 14
REMARK SMILES IDX 67 15 68 16 69 17 70 18 75 19 71 20 74 21 72 22 73 23 10 25
REMARK SMILES IDX 11 26 12 27 13 28 14 30 15 31 16 32 62 33 17 34 61 35 18 36
REMARK SMILES IDX 19 37 20 38 55 39 21 40 60 41 54 42 56 43 22 44 59 45 53 46
REMARK SMILES IDX 52 47 23 49 45 50 30 51 44 52 31 53 34 54 43 55 57 56 32 57
REMARK SMILES IDX 33 58 42 60 58 61 35 62 24 63 25 64 29 65 26 66 28 67 27 68
REMARK SMILES IDX 46 69 47 70 51 71 48 72 50 73 49 74 36 75 37 76 41 77 38 78
REMARK SMILES IDX 40 79 39 80
REMARK H PARENT 7 6 71 24 12 29 56 48 34 59
REMARK Flexibility Score: inf
ROOT
ATOM      1  C   UNL     1       9.840  -6.431   1.200  1.00  0.00     0.023 C 
ENDROOT
BRANCH   1   2
ATOM      2  C   UNL     1       8.543  -5.734   1.594  1.00  0.00     0.116 C 
BRANCH   2   3
ATOM      3  N   UNL     1       8.732  -4.579   2.452  1.00  0.00    -0.352 N 
ATOM      4  C   UNL     1       8.181  -3.323   2.376  1.00  0.00     0.251 C 
ATOM      5  O   UNL     1       8.514  -2.472   3.199  1.00  0.00    -0.269 OA
ATOM      6  H   UNL     1       9.352  -4.716   3.205  1.00  0.00     0.163 HD
BRANCH   4   7
ATOM      7  C   UNL     1       7.255  -2.956   1.278  1.00  0.00     0.040 A 
ATOM      8  C   UNL     1       7.225  -0.108  -1.164  1.00  0.00     0.048 C 
ATOM      9  C   UNL     1       6.737  -1.367  -0.515  1.00  0.00    -0.008 A 
ATOM     10  C   UNL     1       7.476  -1.744   0.629  1.00  0.00     0.021 A 
ATOM     11  C   UNL     1       5.699  -2.201  -0.964  1.00  0.00     0.125 A 
ATOM     12  C   UNL     1       5.483  -3.439  -0.307  1.00  0.00    -0.008 A 
ATOM     13  C   UNL     1       6.229  -3.781   0.836  1.00  0.00     0.021 A 
ATOM     14  C   UNL     1       4.569  -4.499  -0.871  1.00  0.00     0.048 C 
BRANCH  11  15
ATOM     15  O   UNL     1       4.890  -2.010  -2.049  1.00  0.00    -0.490 OA
BRANCH  15  16
ATOM     16  C   UNL     1       4.326  -0.737  -2.403  1.00  0.00     0.267 C 
BRANCH  16  17
ATOM     17  C   UNL     1       3.700   0.093  -1.265  1.00  0.00     0.210 C 
ATOM     18  C   UNL     1       4.209   1.547  -1.319  1.00  0.00     0.298 C 
ATOM     19  O   UNL     1       2.258   0.151  -1.422  1.00  0.00    -0.363 OA
ATOM     20  N   UNL     1       3.751   2.233  -0.102  1.00  0.00    -0.333 N 
ATOM     21  C   UNL     1       1.661   0.909  -0.349  1.00  0.00     0.222 C 
ATOM     22  C   UNL     1       4.391   3.529   0.062  1.00  0.00     0.332 C 
ATOM     23  C   UNL     1       2.283   2.314  -0.167  1.00  0.00     0.290 C 
ATOM     24  H   UNL     1       4.021   1.708   0.730  1.00  0.00     0.348 HD
ENDBRANCH  16  17
ENDBRANCH  15  16
ENDBRANCH  11  15
ENDBRANCH   4   7
ENDBRANCH   2   3
ENDBRANCH   1   2
BRANCH   1  25
ATOM     25  C   UNL     1      10.717  -6.924   2.345  1.00  0.00     0.023 C 
BRANCH  25  26
ATOM     26  C   UNL     1      10.002  -7.679   3.458  1.00  0.00     0.116 C 
BRANCH  26  27
ATOM     27  N   UNL     1       9.250  -8.835   2.993  1.00  0.00    -0.352 N 
ATOM     28  C   UNL     1       9.276 -10.133   3.444  1.00  0.00     0.251 C 
ATOM     29  H   UNL     1       8.631  -8.662   2.247  1.00  0.00     0.163 HD
ATOM     30  O   UNL     1       8.615 -11.000   2.878  1.00  0.00    -0.269 OA
BRANCH  28  31
ATOM     31  C   UNL     1      10.145 -10.494   4.582  1.00  0.00     0.039 A 
ATOM     32  C   UNL     1      11.005 -11.586   4.450  1.00  0.00     0.014 A 
ATOM     33  C   UNL     1      10.151  -9.728   5.750  1.00  0.00     0.014 A 
ATOM     34  C   UNL     1      11.938 -11.855   5.453  1.00  0.00     0.010 A 
ATOM     35  C   UNL     1      11.134  -9.946   6.709  1.00  0.00     0.010 A 
ATOM     36  C   UNL     1      12.042 -11.007   6.568  1.00  0.00    -0.014 A 
BRANCH  36  37
ATOM     37  C   UNL     1      13.100 -11.204   7.590  1.00  0.00     0.031 A 
ATOM     38  C   UNL     1      12.724 -11.520   9.012  1.00  0.00     0.074 A 
ATOM     39  C   UNL     1      14.394 -11.024   7.258  1.00  0.00     0.049 A 
ATOM     40  N   UNL     1      13.498 -11.651  10.060  1.00  0.00    -0.248 NA
ATOM     41  C   UNL     1      11.290 -11.683   9.299  1.00  0.00     0.031 C 
ATOM     42  C   UNL     1      14.889 -10.669   5.925  1.00  0.00     0.029 A 
ATOM     43  N   UNL     1      15.532 -11.107   8.021  1.00  0.00    -0.354 N 
ATOM     44  C   UNL     1      12.644 -11.886  11.130  1.00  0.00     0.074 A 
ATOM     45  C   UNL     1      11.293 -11.834  10.615  1.00  0.00     0.031 C 
ATOM     46  C   UNL     1      16.230 -10.593   5.960  1.00  0.00     0.029 A 
ATOM     47  C   UNL     1      16.687 -10.853   7.320  1.00  0.00     0.049 A 
ATOM     48  H   UNL     1      15.522 -11.329   8.980  1.00  0.00     0.167 HD
ATOM     49  C   UNL     1      12.955 -12.141  12.422  1.00  0.00     0.031 A 
ATOM     50  C   UNL     1      17.969 -10.826   7.729  1.00  0.00     0.031 A 
ATOM     51  C   UNL     1      14.298 -12.218  12.931  1.00  0.00     0.049 A 
ATOM     52  C   UNL     1      18.287 -11.118   9.170  1.00  0.00     0.074 A 
ATOM     53  C   UNL     1      14.716 -12.537  14.211  1.00  0.00     0.029 A 
ATOM     54  N   UNL     1      15.439 -11.976  12.183  1.00  0.00    -0.354 N 
ATOM     55  N   UNL     1      17.471 -11.410  10.153  1.00  0.00    -0.248 NA
ATOM     56  C   UNL     1      19.706 -11.087   9.553  1.00  0.00     0.031 C 
ATOM     57  C   UNL     1      16.111 -12.445  14.249  1.00  0.00     0.029 A 
ATOM     58  C   UNL     1      16.561 -12.119  12.980  1.00  0.00     0.049 A 
ATOM     59  H   UNL     1      15.449 -11.737  11.228  1.00  0.00     0.167 HD
ATOM     60  C   UNL     1      18.278 -11.627  11.262  1.00  0.00     0.074 A 
ATOM     61  C   UNL     1      19.647 -11.448  10.827  1.00  0.00     0.031 C 
ATOM     62  C   UNL     1      17.917 -11.946  12.528  1.00  0.00     0.031 A 
BRANCH  49  63
ATOM     63  C   UNL     1      11.818 -12.359  13.380  1.00  0.00    -0.014 A 
ATOM     64  C   UNL     1      11.040 -13.527  13.330  1.00  0.00     0.009 A 
ATOM     65  C   UNL     1      11.549 -11.405  14.373  1.00  0.00     0.009 A 
ATOM     66  C   UNL     1       9.995 -13.719  14.235  1.00  0.00     0.001 A 
ATOM     67  C   UNL     1      10.521 -11.613  15.294  1.00  0.00     0.001 A 
ATOM     68  C   UNL     1       9.740 -12.765  15.219  1.00  0.00     0.000 A 
ENDBRANCH  49  63
BRANCH  50  69
ATOM     69  C   UNL     1      19.060 -10.528   6.764  1.00  0.00    -0.014 A 
ATOM     70  C   UNL     1      19.954 -11.535   6.370  1.00  0.00     0.009 A 
ATOM     71  C   UNL     1      19.229  -9.232   6.253  1.00  0.00     0.009 A 
ATOM     72  C   UNL     1      21.015 -11.243   5.509  1.00  0.00     0.001 A 
ATOM     73  C   UNL     1      20.274  -8.950   5.370  1.00  0.00     0.001 A 
ATOM     74  C   UNL     1      21.173  -9.952   5.008  1.00  0.00     0.000 A 
ENDBRANCH  50  69
BRANCH  62  75
ATOM     75  C   UNL     1      19.020 -12.165  13.523  1.00  0.00    -0.014 A 
ATOM     76  C   UNL     1      19.761 -11.091  14.038  1.00  0.00     0.009 A 
ATOM     77  C   UNL     1      19.291 -13.463  13.983  1.00  0.00     0.009 A 
ATOM     78  C   UNL     1      20.774 -11.317  14.972  1.00  0.00     0.001 A 
ATOM     79  C   UNL     1      20.285 -13.683  14.937  1.00  0.00     0.001 A 
ATOM     80  C   UNL     1      21.031 -12.611  15.424  1.00  0.00     0.000 A 
ENDBRANCH  62  75
ENDBRANCH  36  37
ENDBRANCH  28  31
ENDBRANCH  26  27
ENDBRANCH  25  26
ENDBRANCH   1  25
TORSDOF 14
