REMARK SMILES O=C(CC[NH+]1CCC(n2nccc2NC(=O)c2ccccc2Cl)CC1)NCCCCNC(=O)c1ccc(-c2c3nc(c(-c4ccccc4)c4ccc([nH]4)c(-c4ccccc4)c4nc(c(-c5ccccc5)c5ccc2[nH]5)C=C4)C=C3)cc1
REMARK SMILES IDX 27 1 26 2 1 3 2 4 3 6 4 7 5 8 6 9 25 10 7 12 24 13 8 14 9 15
REMARK SMILES IDX 10 16 13 17 11 18 12 19 14 20 15 21 16 23 17 24 18 25 22 26
REMARK SMILES IDX 19 27 21 28 23 29 20 30 28 31 29 32 30 33 31 34 32 35 33 37
REMARK SMILES IDX 34 38 35 39 81 40 36 41 80 42 37 43 38 44 39 45 74 46 40 47
REMARK SMILES IDX 79 48 73 49 75 50 41 51 78 52 72 53 71 54 42 56 64 57 49 58
REMARK SMILES IDX 63 59 50 60 53 61 62 62 76 63 51 64 52 65 61 67 77 68 54 69
REMARK SMILES IDX 43 70 44 71 48 72 45 73 47 74 46 75 65 76 66 77 70 78 67 79
REMARK SMILES IDX 69 80 68 81 55 82 56 83 60 84 57 85 59 86 58 87
REMARK H PARENT 26 5 5 11 14 22 31 36 75 55 53 66
REMARK Flexibility Score: inf
ROOT
ATOM      1  C   UNL     1       1.766  -0.573  -2.579  1.00  0.00     0.116 C 
ENDROOT
BRANCH   1   2
ATOM      2  N   UNL     1       2.215   0.001  -1.319  1.00  0.00    -0.356 N 
ATOM      3  O   UNL     1       0.309  -0.470  -0.131  1.00  0.00    -0.275 OA
ATOM      4  C   UNL     1       1.444  -0.007  -0.170  1.00  0.00     0.225 C 
ATOM      5  H   UNL     1       3.108   0.413  -1.283  1.00  0.00     0.163 HD
BRANCH   4   6
ATOM      6  C   UNL     1       2.083   0.634   1.055  1.00  0.00     0.161 C 
BRANCH   6   7
ATOM      7  C   UNL     1       3.064  -0.242   1.852  1.00  0.00     0.272 C 
BRANCH   7   8
ATOM      8  N   UNL     1       4.323  -0.660   1.212  1.00  0.00    -0.334 N 
ATOM      9  C   UNL     1       4.177  -1.934   0.530  1.00  0.00     0.264 C 
ATOM     10  C   UNL     1       5.069   0.416   0.588  1.00  0.00     0.264 C 
ATOM     11  H   UNL     1       5.007  -0.890   1.933  1.00  0.00     0.348 HD
ATOM     12  C   UNL     1       5.397  -2.344  -0.255  1.00  0.00     0.089 C 
ATOM     13  C   UNL     1       6.219  -0.004  -0.317  1.00  0.00     0.089 C 
ATOM     14  C   UNL     1       5.906  -1.226  -1.183  1.00  0.00     0.121 C 
BRANCH  14  15
ATOM     15  N   UNL     1       7.086  -1.686  -1.923  1.00  0.00    -0.246 N 
ATOM     16  N   UNL     1       7.329  -3.010  -1.919  1.00  0.00    -0.179 NA
ATOM     17  C   UNL     1       8.156  -0.972  -2.434  1.00  0.00     0.131 A 
ATOM     18  C   UNL     1       8.650  -3.076  -1.950  1.00  0.00     0.137 A 
ATOM     19  C   UNL     1       9.217  -1.850  -2.331  1.00  0.00     0.069 A 
BRANCH  17  20
ATOM     20  N   UNL     1       8.193   0.361  -2.811  1.00  0.00    -0.307 N 
ATOM     21  C   UNL     1       9.289   1.059  -3.415  1.00  0.00     0.258 C 
ATOM     22  H   UNL     1       7.377   0.885  -2.645  1.00  0.00     0.171 HD
ATOM     23  O   UNL     1       9.319   2.254  -3.253  1.00  0.00    -0.269 OA
BRANCH  21  24
ATOM     24  C   UNL     1      10.267   0.354  -4.258  1.00  0.00     0.058 A 
ATOM     25  C   UNL     1      11.605   0.311  -3.845  1.00  0.00     0.015 A 
ATOM     26  C   UNL     1       9.871  -0.237  -5.461  1.00  0.00     0.053 A 
ATOM     27  C   UNL     1      12.538  -0.380  -4.618  1.00  0.00     0.001 A 
ATOM     28  C   UNL     1      10.816  -0.906  -6.240  1.00  0.00     0.021 A 
ATOM     29  Cl  UNL     1       8.247  -0.155  -6.040  1.00  0.00    -0.083 Cl
ATOM     30  C   UNL     1      12.143  -0.988  -5.812  1.00  0.00     0.002 A 
ENDBRANCH  21  24
ENDBRANCH  17  20
ENDBRANCH  14  15
ENDBRANCH   7   8
ENDBRANCH   6   7
ENDBRANCH   4   6
ENDBRANCH   1   2
BRANCH   1  31
ATOM     31  C   UNL     1       2.090   0.311  -3.797  1.00  0.00     0.023 C 
BRANCH  31  32
ATOM     32  C   UNL     1       3.562   0.387  -4.242  1.00  0.00     0.023 C 
BRANCH  32  33
ATOM     33  C   UNL     1       4.133  -0.917  -4.796  1.00  0.00     0.116 C 
BRANCH  33  34
ATOM     34  N   UNL     1       3.719  -1.252  -6.157  1.00  0.00    -0.352 N 
ATOM     35  C   UNL     1       4.179  -2.275  -6.981  1.00  0.00     0.251 C 
ATOM     36  H   UNL     1       3.021  -0.676  -6.544  1.00  0.00     0.163 HD
ATOM     37  O   UNL     1       3.946  -2.248  -8.185  1.00  0.00    -0.269 OA
BRANCH  35  38
ATOM     38  C   UNL     1       4.976  -3.391  -6.412  1.00  0.00     0.039 A 
ATOM     39  C   UNL     1       5.991  -4.039  -7.133  1.00  0.00     0.014 A 
ATOM     40  C   UNL     1       4.703  -3.804  -5.121  1.00  0.00     0.014 A 
ATOM     41  C   UNL     1       6.777  -5.027  -6.511  1.00  0.00     0.010 A 
ATOM     42  C   UNL     1       5.590  -4.615  -4.458  1.00  0.00     0.010 A 
ATOM     43  C   UNL     1       6.595  -5.299  -5.150  1.00  0.00    -0.014 A 
BRANCH  43  44
ATOM     44  C   UNL     1       7.427  -6.234  -4.359  1.00  0.00     0.031 A 
ATOM     45  C   UNL     1       8.906  -5.946  -4.205  1.00  0.00     0.074 A 
ATOM     46  C   UNL     1       6.796  -7.080  -3.497  1.00  0.00     0.049 A 
ATOM     47  N   UNL     1       9.838  -6.742  -3.772  1.00  0.00    -0.248 NA
ATOM     48  C   UNL     1       9.421  -4.589  -4.489  1.00  0.00     0.031 C 
ATOM     49  C   UNL     1       5.342  -7.292  -3.342  1.00  0.00     0.029 A 
ATOM     50  N   UNL     1       7.301  -7.788  -2.443  1.00  0.00    -0.354 N 
ATOM     51  C   UNL     1      10.986  -5.969  -3.584  1.00  0.00     0.074 A 
ATOM     52  C   UNL     1      10.664  -4.632  -3.996  1.00  0.00     0.031 C 
ATOM     53  C   UNL     1       5.081  -7.829  -2.132  1.00  0.00     0.029 A 
ATOM     54  C   UNL     1       6.340  -8.180  -1.508  1.00  0.00     0.049 A 
ATOM     55  H   UNL     1       8.257  -8.004  -2.350  1.00  0.00     0.167 HD
ATOM     56  C   UNL     1      12.142  -6.457  -3.060  1.00  0.00     0.031 A 
ATOM     57  C   UNL     1       6.533  -8.758  -0.299  1.00  0.00     0.031 A 
ATOM     58  C   UNL     1      12.341  -7.825  -3.420  1.00  0.00     0.049 A 
ATOM     59  C   UNL     1       7.910  -9.278  -0.276  1.00  0.00     0.074 A 
ATOM     60  C   UNL     1      12.440  -8.466  -4.638  1.00  0.00     0.029 A 
ATOM     61  N   UNL     1      12.119  -8.809  -2.495  1.00  0.00    -0.354 N 
ATOM     62  N   UNL     1       8.318 -10.275  -1.003  1.00  0.00    -0.248 NA
ATOM     63  C   UNL     1       8.950  -8.454   0.312  1.00  0.00     0.031 C 
ATOM     64  C   UNL     1      11.724  -9.680  -4.453  1.00  0.00     0.029 A 
ATOM     65  C   UNL     1      11.313  -9.725  -3.119  1.00  0.00     0.049 A 
ATOM     66  H   UNL     1      12.467  -8.851  -1.574  1.00  0.00     0.167 HD
ATOM     67  C   UNL     1       9.627  -9.961  -1.318  1.00  0.00     0.074 A 
ATOM     68  C   UNL     1      10.001  -8.909  -0.374  1.00  0.00     0.031 C 
ATOM     69  C   UNL     1      10.188 -10.378  -2.490  1.00  0.00     0.031 A 
BRANCH  56  70
ATOM     70  C   UNL     1      12.974  -5.765  -2.017  1.00  0.00    -0.014 A 
ATOM     71  C   UNL     1      14.219  -6.314  -1.654  1.00  0.00     0.009 A 
ATOM     72  C   UNL     1      12.433  -4.787  -1.163  1.00  0.00     0.009 A 
ATOM     73  C   UNL     1      14.858  -5.955  -0.461  1.00  0.00     0.001 A 
ATOM     74  C   UNL     1      13.081  -4.410   0.021  1.00  0.00     0.001 A 
ATOM     75  C   UNL     1      14.281  -5.013   0.384  1.00  0.00     0.000 A 
ENDBRANCH  56  70
BRANCH  57  76
ATOM     76  C   UNL     1       5.668  -8.841   0.894  1.00  0.00    -0.014 A 
ATOM     77  C   UNL     1       5.787  -9.923   1.782  1.00  0.00     0.009 A 
ATOM     78  C   UNL     1       4.895  -7.740   1.300  1.00  0.00     0.009 A 
ATOM     79  C   UNL     1       5.185  -9.891   3.045  1.00  0.00     0.001 A 
ATOM     80  C   UNL     1       4.291  -7.708   2.563  1.00  0.00     0.001 A 
ATOM     81  C   UNL     1       4.448  -8.777   3.441  1.00  0.00     0.000 A 
ENDBRANCH  57  76
BRANCH  69  82
ATOM     82  C   UNL     1       9.416 -11.343  -3.365  1.00  0.00    -0.014 A 
ATOM     83  C   UNL     1       8.135 -11.054  -3.869  1.00  0.00     0.009 A 
ATOM     84  C   UNL     1      10.086 -12.465  -3.876  1.00  0.00     0.009 A 
ATOM     85  C   UNL     1       7.541 -11.862  -4.843  1.00  0.00     0.001 A 
ATOM     86  C   UNL     1       9.505 -13.257  -4.870  1.00  0.00     0.001 A 
ATOM     87  C   UNL     1       8.233 -12.957  -5.352  1.00  0.00     0.000 A 
ENDBRANCH  69  82
ENDBRANCH  43  44
ENDBRANCH  35  38
ENDBRANCH  33  34
ENDBRANCH  32  33
ENDBRANCH  31  32
ENDBRANCH   1  31
TORSDOF 16
