REMARK SMILES Cn1ccc(-c2n[nH]c(=O)n2-c2ccc(C(=O)NCCCCNC(=O)c3ccc(-c4c5nc(c(-c6ccccc6)c6ccc([nH]6)c(-c6ccccc6)c6nc(c(-c7ccccc7)c7ccc4[nH]7)C=C6)C=C5)cc3)cc2)n1
REMARK SMILES IDX 20 1 19 2 18 3 16 4 17 5 15 7 12 8 13 9 75 10 14 11 74 12
REMARK SMILES IDX 11 13 6 14 7 15 8 16 9 17 10 19 5 20 1 21 2 22 3 23 76 24
REMARK SMILES IDX 4 25 21 26 22 27 23 28 24 29 25 31 26 32 27 33 73 34 28 35
REMARK SMILES IDX 72 36 29 37 30 38 31 39 66 40 32 41 71 42 65 43 67 44 33 45
REMARK SMILES IDX 70 46 64 47 63 48 34 50 56 51 41 52 55 53 42 54 45 55 54 56
REMARK SMILES IDX 68 57 43 58 44 59 53 61 69 62 46 63 35 64 36 65 40 66 37 67
REMARK SMILES IDX 39 68 38 69 57 70 58 71 62 72 59 73 61 74 60 75 47 76 48 77
REMARK SMILES IDX 52 78 49 79 51 80 50 81
REMARK H PARENT 18 6 8 18 23 30 67 49 45 60
REMARK Flexibility Score: inf
ROOT
ATOM      1  C   UNL     1       1.292   0.622   7.331  1.00  0.00     0.023 C 
ENDROOT
BRANCH   1   2
ATOM      2  C   UNL     1       0.044   1.051   6.546  1.00  0.00     0.116 C 
BRANCH   2   3
ATOM      3  N   UNL     1      -0.121   2.493   6.563  1.00  0.00    -0.352 N 
ATOM      4  C   UNL     1       0.272   3.497   5.712  1.00  0.00     0.251 C 
ATOM      5  O   UNL     1      -0.038   4.646   6.032  1.00  0.00    -0.269 OA
ATOM      6  H   UNL     1      -0.618   2.820   7.348  1.00  0.00     0.163 HD
BRANCH   4   7
ATOM      7  C   UNL     1       0.988   3.273   4.419  1.00  0.00     0.039 A 
ATOM      8  C   UNL     1       2.116   2.938   1.854  1.00  0.00     0.052 A 
ATOM      9  C   UNL     1       1.557   4.164   2.210  1.00  0.00     0.028 A 
ATOM     10  C   UNL     1       2.190   1.919   2.806  1.00  0.00     0.028 A 
ATOM     11  C   UNL     1       0.967   4.315   3.473  1.00  0.00     0.016 A 
ATOM     12  C   UNL     1       1.678   2.108   4.089  1.00  0.00     0.016 A 
BRANCH   8  13
ATOM     13  N   UNL     1       2.678   2.728   0.589  1.00  0.00    -0.242 N 
ATOM     14  C   UNL     1       2.559   1.631  -0.213  1.00  0.00     0.189 A 
ATOM     15  N   UNL     1       3.481   1.518  -1.131  1.00  0.00    -0.150 NA
ATOM     16  N   UNL     1       4.254   2.635  -0.949  1.00  0.00    -0.226 N 
ATOM     17  C   UNL     1       3.777   3.401   0.115  1.00  0.00     0.348 A 
ATOM     18  H   UNL     1       5.039   2.867  -1.495  1.00  0.00     0.195 HD
ATOM     19  O   UNL     1       4.325   4.406   0.556  1.00  0.00    -0.246 OA
BRANCH  14  20
ATOM     20  C   UNL     1       1.462   0.682  -0.109  1.00  0.00     0.130 A 
ATOM     21  C   UNL     1      -1.974   0.018   0.008  1.00  0.00     0.173 C 
ATOM     22  N   UNL     1      -0.532  -0.051   0.006  1.00  0.00    -0.275 N 
ATOM     23  C   UNL     1       0.233  -1.172  -0.104  1.00  0.00     0.109 A 
ATOM     24  N   UNL     1       0.189   1.083   0.072  1.00  0.00    -0.170 NA
ATOM     25  C   UNL     1       1.531  -0.731  -0.219  1.00  0.00     0.054 A 
ENDBRANCH  14  20
ENDBRANCH   8  13
ENDBRANCH   4   7
ENDBRANCH   2   3
ENDBRANCH   1   2
BRANCH   1  26
ATOM     26  C   UNL     1       1.143   0.646   8.861  1.00  0.00     0.023 C 
BRANCH  26  27
ATOM     27  C   UNL     1       0.188  -0.399   9.422  1.00  0.00     0.116 C 
BRANCH  27  28
ATOM     28  N   UNL     1       0.603  -1.781   9.139  1.00  0.00    -0.352 N 
ATOM     29  C   UNL     1      -0.126  -2.950   9.311  1.00  0.00     0.251 C 
ATOM     30  H   UNL     1       1.514  -1.891   8.783  1.00  0.00     0.163 HD
ATOM     31  O   UNL     1       0.415  -4.041   9.403  1.00  0.00    -0.269 OA
BRANCH  29  32
ATOM     32  C   UNL     1      -1.592  -2.840   9.325  1.00  0.00     0.039 A 
ATOM     33  C   UNL     1      -2.422  -3.538  10.208  1.00  0.00     0.014 A 
ATOM     34  C   UNL     1      -2.115  -1.922   8.427  1.00  0.00     0.014 A 
ATOM     35  C   UNL     1      -3.788  -3.252  10.197  1.00  0.00     0.010 A 
ATOM     36  C   UNL     1      -3.366  -1.439   8.634  1.00  0.00     0.010 A 
ATOM     37  C   UNL     1      -4.242  -2.197   9.396  1.00  0.00    -0.014 A 
BRANCH  37  38
ATOM     38  C   UNL     1      -5.632  -1.796   9.284  1.00  0.00     0.031 A 
ATOM     39  C   UNL     1      -6.216  -1.196  10.509  1.00  0.00     0.074 A 
ATOM     40  C   UNL     1      -6.199  -1.678   8.059  1.00  0.00     0.049 A 
ATOM     41  N   UNL     1      -7.206  -1.639  11.206  1.00  0.00    -0.248 NA
ATOM     42  C   UNL     1      -5.548  -0.026  11.105  1.00  0.00     0.031 C 
ATOM     43  C   UNL     1      -5.586  -1.879   6.733  1.00  0.00     0.029 A 
ATOM     44  N   UNL     1      -7.421  -1.194   7.733  1.00  0.00    -0.354 N 
ATOM     45  C   UNL     1      -7.405  -0.720  12.232  1.00  0.00     0.074 A 
ATOM     46  C   UNL     1      -6.258   0.150  12.221  1.00  0.00     0.031 C 
ATOM     47  C   UNL     1      -6.341  -1.278   5.785  1.00  0.00     0.029 A 
ATOM     48  C   UNL     1      -7.566  -0.812   6.404  1.00  0.00     0.049 A 
ATOM     49  H   UNL     1      -8.152  -1.118   8.388  1.00  0.00     0.167 HD
ATOM     50  C   UNL     1      -8.606  -0.612  12.868  1.00  0.00     0.031 A 
ATOM     51  C   UNL     1      -8.607  -0.120   5.875  1.00  0.00     0.031 A 
ATOM     52  C   UNL     1      -9.476  -1.709  12.529  1.00  0.00     0.049 A 
ATOM     53  C   UNL     1      -9.731  -0.236   6.838  1.00  0.00     0.074 A 
ATOM     54  C   UNL     1      -9.431  -3.074  12.720  1.00  0.00     0.029 A 
ATOM     55  N   UNL     1     -10.374  -1.494  11.509  1.00  0.00    -0.354 N 
ATOM     56  N   UNL     1     -10.313  -1.368   7.119  1.00  0.00    -0.248 NA
ATOM     57  C   UNL     1      -9.856   0.799   7.853  1.00  0.00     0.031 C 
ATOM     58  C   UNL     1      -9.905  -3.624  11.492  1.00  0.00     0.029 A 
ATOM     59  C   UNL     1     -10.299  -2.571  10.662  1.00  0.00     0.049 A 
ATOM     60  H   UNL     1     -10.963  -0.712  11.406  1.00  0.00     0.167 HD
ATOM     61  C   UNL     1     -10.492  -1.344   8.495  1.00  0.00     0.074 A 
ATOM     62  C   UNL     1     -10.267   0.051   8.882  1.00  0.00     0.031 C 
ATOM     63  C   UNL     1     -10.502  -2.496   9.231  1.00  0.00     0.031 A 
BRANCH  50  64
ATOM     64  C   UNL     1      -9.145   0.653  13.484  1.00  0.00    -0.014 A 
ATOM     65  C   UNL     1     -10.386   0.598  14.146  1.00  0.00     0.009 A 
ATOM     66  C   UNL     1      -8.628   1.933  13.215  1.00  0.00     0.009 A 
ATOM     67  C   UNL     1     -11.106   1.760  14.446  1.00  0.00     0.001 A 
ATOM     68  C   UNL     1      -9.326   3.097  13.549  1.00  0.00     0.001 A 
ATOM     69  C   UNL     1     -10.580   3.010  14.137  1.00  0.00     0.000 A 
ENDBRANCH  50  64
BRANCH  51  70
ATOM     70  C   UNL     1      -8.582   0.895   4.795  1.00  0.00    -0.014 A 
ATOM     71  C   UNL     1      -9.757   1.278   4.128  1.00  0.00     0.009 A 
ATOM     72  C   UNL     1      -7.439   1.696   4.608  1.00  0.00     0.009 A 
ATOM     73  C   UNL     1      -9.794   2.436   3.335  1.00  0.00     0.001 A 
ATOM     74  C   UNL     1      -7.476   2.852   3.819  1.00  0.00     0.001 A 
ATOM     75  C   UNL     1      -8.658   3.230   3.193  1.00  0.00     0.000 A 
ENDBRANCH  51  70
BRANCH  63  76
ATOM     76  C   UNL     1     -10.479  -3.816   8.492  1.00  0.00    -0.014 A 
ATOM     77  C   UNL     1      -9.400  -4.236   7.693  1.00  0.00     0.009 A 
ATOM     78  C   UNL     1     -11.492  -4.743   8.774  1.00  0.00     0.009 A 
ATOM     79  C   UNL     1      -9.347  -5.538   7.181  1.00  0.00     0.001 A 
ATOM     80  C   UNL     1     -11.430  -6.048   8.280  1.00  0.00     0.001 A 
ATOM     81  C   UNL     1     -10.359  -6.445   7.482  1.00  0.00     0.000 A 
ENDBRANCH  63  76
ENDBRANCH  37  38
ENDBRANCH  29  32
ENDBRANCH  27  28
ENDBRANCH  26  27
ENDBRANCH   1  26
TORSDOF 13
