REMARK SMILES O=C(Cc1cncnc1N1CCC2(CC1)OCCC[C@@H]2O)NCCCCNC(=O)c1ccc(-c2c3nc(c(-c4ccccc4)c4ccc([nH]4)c(-c4ccccc4)c4nc(c(-c5ccccc5)c5ccc2[nH]5)C=C4)C=C3)cc1
REMARK SMILES IDX 24 1 23 2 22 3 1 4 2 5 3 7 4 8 5 9 9 10 6 11 8 12 7 13 10 14
REMARK SMILES IDX 11 15 15 16 12 17 14 18 13 19 16 20 20 21 17 22 19 23 18 24
REMARK SMILES IDX 21 25 25 27 26 28 27 29 28 30 29 32 30 33 31 34 77 35 32 36
REMARK SMILES IDX 76 37 33 38 34 39 35 40 70 41 36 42 75 43 69 44 71 45 37 46
REMARK SMILES IDX 74 47 68 48 67 49 38 51 60 52 45 53 59 54 46 55 49 56 58 57
REMARK SMILES IDX 72 58 47 59 48 60 57 62 73 63 50 64 39 65 40 66 44 67 41 68
REMARK SMILES IDX 43 69 42 70 61 71 62 72 66 73 63 74 65 75 64 76 51 77 52 78
REMARK SMILES IDX 56 79 53 80 55 81 54 82
REMARK H PARENT 22 6 21 26 27 31 71 50 49 61
REMARK Flexibility Score: inf
ROOT
ATOM      1  C   UNL     1       2.505  -2.570   2.401  1.00  0.00     0.023 C 
ENDROOT
BRANCH   1   2
ATOM      2  C   UNL     1       2.134  -1.096   2.243  1.00  0.00     0.116 C 
BRANCH   2   3
ATOM      3  N   UNL     1       2.904  -0.451   1.199  1.00  0.00    -0.356 N 
ATOM      4  O   UNL     1       1.251  -0.507  -0.384  1.00  0.00    -0.275 OA
ATOM      5  C   UNL     1       2.392  -0.194  -0.055  1.00  0.00     0.224 C 
ATOM      6  H   UNL     1       3.832  -0.184   1.394  1.00  0.00     0.163 HD
BRANCH   5   7
ATOM      7  C   UNL     1       3.378   0.412  -1.040  1.00  0.00     0.141 C 
BRANCH   7   8
ATOM      8  C   UNL     1       3.989   1.711  -0.592  1.00  0.00     0.022 A 
ATOM      9  C   UNL     1       5.194   1.709   0.093  1.00  0.00     0.121 A 
ATOM     10  C   UNL     1       3.462   2.965  -0.884  1.00  0.00     0.135 A 
ATOM     11  N   UNL     1       5.832   2.812   0.508  1.00  0.00    -0.244 NA
ATOM     12  N   UNL     1       4.094   4.093  -0.507  1.00  0.00    -0.219 NA
ATOM     13  C   UNL     1       5.237   3.963   0.180  1.00  0.00     0.224 A 
BRANCH  10  14
ATOM     14  N   UNL     1       2.364   3.090  -1.703  1.00  0.00    -0.356 N 
ATOM     15  C   UNL     1       2.426   4.044  -2.796  1.00  0.00     0.121 C 
ATOM     16  C   UNL     1       1.016   2.807  -1.228  1.00  0.00     0.121 C 
ATOM     17  C   UNL     1       1.786   3.355  -3.997  1.00  0.00     0.060 C 
ATOM     18  C   UNL     1       0.253   2.125  -2.365  1.00  0.00     0.060 C 
ATOM     19  C   UNL     1       0.329   2.909  -3.702  1.00  0.00     0.097 C 
ATOM     20  O   UNL     1      -0.527   4.061  -3.540  1.00  0.00    -0.372 OA
ATOM     21  C   UNL     1      -0.183   1.997  -4.859  1.00  0.00     0.146 C 
ATOM     22  C   UNL     1      -0.758   4.833  -4.715  1.00  0.00     0.161 C 
ATOM     23  C   UNL     1      -0.415   2.790  -6.143  1.00  0.00     0.037 C 
ATOM     24  C   UNL     1      -1.302   3.998  -5.865  1.00  0.00     0.031 C 
BRANCH  21  25
ATOM     25  O   UNL     1      -1.415   1.361  -4.502  1.00  0.00    -0.390 OA
ATOM     26  H   UNL     1      -2.096   2.036  -4.352  1.00  0.00     0.211 HD
ENDBRANCH  21  25
ENDBRANCH  10  14
ENDBRANCH   7   8
ENDBRANCH   5   7
ENDBRANCH   2   3
ENDBRANCH   1   2
BRANCH   1  27
ATOM     27  C   UNL     1       3.990  -2.839   2.669  1.00  0.00     0.023 C 
BRANCH  27  28
ATOM     28  C   UNL     1       4.583  -2.114   3.873  1.00  0.00     0.116 C 
BRANCH  28  29
ATOM     29  N   UNL     1       3.986  -2.524   5.133  1.00  0.00    -0.352 N 
ATOM     30  C   UNL     1       4.591  -2.950   6.290  1.00  0.00     0.251 C 
ATOM     31  H   UNL     1       3.002  -2.491   5.162  1.00  0.00     0.163 HD
ATOM     32  O   UNL     1       3.909  -3.394   7.211  1.00  0.00    -0.269 OA
BRANCH  30  33
ATOM     33  C   UNL     1       6.065  -2.911   6.425  1.00  0.00     0.039 A 
ATOM     34  C   UNL     1       6.718  -4.016   6.979  1.00  0.00     0.014 A 
ATOM     35  C   UNL     1       6.803  -1.797   6.018  1.00  0.00     0.014 A 
ATOM     36  C   UNL     1       8.113  -4.032   7.057  1.00  0.00     0.010 A 
ATOM     37  C   UNL     1       8.196  -1.846   6.026  1.00  0.00     0.010 A 
ATOM     38  C   UNL     1       8.867  -2.965   6.543  1.00  0.00    -0.014 A 
BRANCH  38  39
ATOM     39  C   UNL     1      10.354  -3.009   6.528  1.00  0.00     0.031 A 
ATOM     40  C   UNL     1      11.156  -2.006   7.311  1.00  0.00     0.074 A 
ATOM     41  C   UNL     1      10.986  -3.918   5.759  1.00  0.00     0.049 A 
ATOM     42  N   UNL     1      12.456  -1.857   7.375  1.00  0.00    -0.248 NA
ATOM     43  C   UNL     1      10.400  -1.029   8.111  1.00  0.00     0.031 C 
ATOM     44  C   UNL     1      10.330  -4.925   4.922  1.00  0.00     0.029 A 
ATOM     45  N   UNL     1      12.326  -4.137   5.552  1.00  0.00    -0.354 N 
ATOM     46  C   UNL     1      12.671  -0.766   8.209  1.00  0.00     0.074 A 
ATOM     47  C   UNL     1      11.368  -0.259   8.582  1.00  0.00     0.031 C 
ATOM     48  C   UNL     1      11.267  -5.669   4.314  1.00  0.00     0.029 A 
ATOM     49  C   UNL     1      12.587  -5.165   4.679  1.00  0.00     0.049 A 
ATOM     50  H   UNL     1      13.032  -3.607   5.987  1.00  0.00     0.167 HD
ATOM     51  C   UNL     1      13.844  -0.244   8.641  1.00  0.00     0.031 A 
ATOM     52  C   UNL     1      13.757  -5.645   4.213  1.00  0.00     0.031 A 
ATOM     53  C   UNL     1      15.141  -0.745   8.269  1.00  0.00     0.049 A 
ATOM     54  C   UNL     1      15.045  -5.028   4.683  1.00  0.00     0.074 A 
ATOM     55  C   UNL     1      16.386  -0.311   8.691  1.00  0.00     0.029 A 
ATOM     56  N   UNL     1      15.361  -1.787   7.381  1.00  0.00    -0.354 N 
ATOM     57  N   UNL     1      15.230  -4.039   5.522  1.00  0.00    -0.248 NA
ATOM     58  C   UNL     1      16.287  -5.604   4.147  1.00  0.00     0.031 C 
ATOM     59  C   UNL     1      17.360  -1.051   8.013  1.00  0.00     0.029 A 
ATOM     60  C   UNL     1      16.722  -1.991   7.221  1.00  0.00     0.049 A 
ATOM     61  H   UNL     1      14.655  -2.304   6.931  1.00  0.00     0.167 HD
ATOM     62  C   UNL     1      16.607  -3.893   5.638  1.00  0.00     0.074 A 
ATOM     63  C   UNL     1      17.208  -4.907   4.797  1.00  0.00     0.031 C 
ATOM     64  C   UNL     1      17.309  -3.001   6.378  1.00  0.00     0.031 A 
BRANCH  51  65
ATOM     65  C   UNL     1      13.775   0.943   9.564  1.00  0.00    -0.014 A 
ATOM     66  C   UNL     1      13.289   0.819  10.876  1.00  0.00     0.009 A 
ATOM     67  C   UNL     1      14.233   2.196   9.128  1.00  0.00     0.009 A 
ATOM     68  C   UNL     1      13.225   1.932  11.716  1.00  0.00     0.001 A 
ATOM     69  C   UNL     1      14.199   3.300   9.981  1.00  0.00     0.001 A 
ATOM     70  C   UNL     1      13.684   3.170  11.270  1.00  0.00     0.000 A 
ENDBRANCH  51  65
BRANCH  52  71
ATOM     71  C   UNL     1      13.766  -6.777   3.248  1.00  0.00    -0.014 A 
ATOM     72  C   UNL     1      14.244  -8.040   3.631  1.00  0.00     0.009 A 
ATOM     73  C   UNL     1      13.303  -6.598   1.935  1.00  0.00     0.009 A 
ATOM     74  C   UNL     1      14.287  -9.090   2.711  1.00  0.00     0.001 A 
ATOM     75  C   UNL     1      13.316  -7.659   1.027  1.00  0.00     0.001 A 
ATOM     76  C   UNL     1      13.818  -8.901   1.413  1.00  0.00     0.000 A 
ENDBRANCH  52  71
BRANCH  64  77
ATOM     77  C   UNL     1      18.810  -3.102   6.340  1.00  0.00    -0.014 A 
ATOM     78  C   UNL     1      19.541  -2.743   5.197  1.00  0.00     0.009 A 
ATOM     79  C   UNL     1      19.504  -3.529   7.484  1.00  0.00     0.009 A 
ATOM     80  C   UNL     1      20.934  -2.843   5.190  1.00  0.00     0.001 A 
ATOM     81  C   UNL     1      20.898  -3.596   7.485  1.00  0.00     0.001 A 
ATOM     82  C   UNL     1      21.611  -3.263   6.335  1.00  0.00     0.000 A 
ENDBRANCH  64  77
ENDBRANCH  38  39
ENDBRANCH  30  33
ENDBRANCH  28  29
ENDBRANCH  27  28
ENDBRANCH   1  27
TORSDOF 14
