REMARK SMILES CNC(=O)[C@H](C)S(=O)(=O)c1cc(C(=O)NCCCCNC(=O)c2ccc(-c3c4nc(c(-c5ccccc5)c5ccc([nH]5)c(-c5ccccc5)c5nc(c(-c6ccccc6)c6ccc3[nH]6)C=C5)C=C4)cc2)c(C)cc1C
REMARK SMILES IDX 17 1 16 2 15 3 13 4 14 5 12 7 10 8 11 9 74 10 73 11 75 12
REMARK SMILES IDX 71 13 72 14 7 15 8 16 9 17 5 18 6 19 3 20 1 21 2 22 4 24
REMARK SMILES IDX 18 25 19 26 20 27 21 28 22 30 23 31 24 32 70 33 25 34 69 35
REMARK SMILES IDX 26 36 27 37 28 38 63 39 29 40 68 41 62 42 64 43 30 44 67 45
REMARK SMILES IDX 61 46 60 47 31 49 53 50 38 51 52 52 39 53 42 54 51 55 65 56
REMARK SMILES IDX 40 57 41 58 50 60 66 61 43 62 32 63 33 64 37 65 34 66 36 67
REMARK SMILES IDX 35 68 54 69 55 70 59 71 56 72 58 73 57 74 44 75 45 76 49 77
REMARK SMILES IDX 46 78 48 79 47 80
REMARK H PARENT 15 6 2 23 20 29 64 48 42 59
REMARK Flexibility Score: inf
ROOT
ATOM      1  C   UNL     1       3.394  -0.135  -4.865  1.00  0.00     0.023 C 
ENDROOT
BRANCH   1   2
ATOM      2  C   UNL     1       1.916  -0.542  -4.842  1.00  0.00     0.116 C 
BRANCH   2   3
ATOM      3  N   UNL     1       1.634  -1.232  -3.606  1.00  0.00    -0.352 N 
ATOM      4  C   UNL     1       1.113  -0.839  -2.406  1.00  0.00     0.251 C 
ATOM      5  O   UNL     1       1.150  -1.683  -1.504  1.00  0.00    -0.269 OA
ATOM      6  H   UNL     1       1.867  -2.188  -3.633  1.00  0.00     0.163 HD
BRANCH   4   7
ATOM      7  C   UNL     1       0.444   0.469  -2.107  1.00  0.00     0.044 A 
ATOM      8  C   UNL     1      -1.143   1.456  -0.503  1.00  0.00     0.071 A 
ATOM      9  C   UNL     1      -0.567   0.345  -1.131  1.00  0.00     0.034 A 
ATOM     10  C   UNL     1      -0.998   2.715  -1.087  1.00  0.00    -0.032 A 
ATOM     11  C   UNL     1      -0.012   2.849  -2.076  1.00  0.00     0.009 A 
ATOM     12  C   UNL     1      -1.731   3.966  -0.695  1.00  0.00     0.046 C 
ATOM     13  C   UNL     1       0.803   1.771  -2.485  1.00  0.00    -0.038 A 
ATOM     14  C   UNL     1       2.058   2.169  -3.193  1.00  0.00     0.045 C 
BRANCH   8  15
ATOM     15  S   UNL     1      -1.938   1.172   1.078  1.00  0.00     0.190 S 
ATOM     16  O   UNL     1      -3.022   0.251   0.778  1.00  0.00    -0.223 OA
ATOM     17  O   UNL     1      -2.241   2.465   1.661  1.00  0.00    -0.223 OA
BRANCH  15  18
ATOM     18  C   UNL     1      -0.828   0.359   2.191  1.00  0.00     0.199 C 
ATOM     19  C   UNL     1      -0.093  -0.880   1.719  1.00  0.00     0.036 C 
BRANCH  18  20
ATOM     20  C   UNL     1       0.045   1.285   3.006  1.00  0.00     0.238 C 
ATOM     21  C   UNL     1       1.606   2.185   1.196  1.00  0.00     0.142 C 
ATOM     22  N   UNL     1       1.128   1.950   2.531  1.00  0.00    -0.358 N 
ATOM     23  H   UNL     1       1.693   2.346   3.233  1.00  0.00     0.163 HD
ATOM     24  O   UNL     1      -0.137   1.375   4.228  1.00  0.00    -0.274 OA
ENDBRANCH  18  20
ENDBRANCH  15  18
ENDBRANCH   8  15
ENDBRANCH   4   7
ENDBRANCH   2   3
ENDBRANCH   1   2
BRANCH   1  25
ATOM     25  C   UNL     1       4.336  -1.145  -5.510  1.00  0.00     0.023 C 
BRANCH  25  26
ATOM     26  C   UNL     1       4.180  -1.276  -7.016  1.00  0.00     0.116 C 
BRANCH  26  27
ATOM     27  N   UNL     1       4.374  -0.024  -7.735  1.00  0.00    -0.352 N 
ATOM     28  C   UNL     1       4.966   0.178  -8.962  1.00  0.00     0.251 C 
ATOM     29  H   UNL     1       4.038   0.784  -7.284  1.00  0.00     0.163 HD
ATOM     30  O   UNL     1       5.120   1.305  -9.405  1.00  0.00    -0.269 OA
BRANCH  28  31
ATOM     31  C   UNL     1       5.465  -0.997  -9.703  1.00  0.00     0.039 A 
ATOM     32  C   UNL     1       6.795  -1.006 -10.125  1.00  0.00     0.014 A 
ATOM     33  C   UNL     1       4.651  -2.119  -9.878  1.00  0.00     0.014 A 
ATOM     34  C   UNL     1       7.342  -2.184 -10.632  1.00  0.00     0.010 A 
ATOM     35  C   UNL     1       5.218  -3.311 -10.309  1.00  0.00     0.010 A 
ATOM     36  C   UNL     1       6.573  -3.358 -10.671  1.00  0.00    -0.014 A 
BRANCH  36  37
ATOM     37  C   UNL     1       7.175  -4.660 -11.042  1.00  0.00     0.031 A 
ATOM     38  C   UNL     1       6.703  -5.388 -12.266  1.00  0.00     0.074 A 
ATOM     39  C   UNL     1       8.082  -5.226 -10.222  1.00  0.00     0.049 A 
ATOM     40  N   UNL     1       7.053  -6.569 -12.707  1.00  0.00    -0.248 NA
ATOM     41  C   UNL     1       5.683  -4.715 -13.086  1.00  0.00     0.031 C 
ATOM     42  C   UNL     1       8.581  -4.644  -8.973  1.00  0.00     0.029 A 
ATOM     43  N   UNL     1       8.739  -6.427 -10.312  1.00  0.00    -0.354 N 
ATOM     44  C   UNL     1       6.285  -6.787 -13.842  1.00  0.00     0.074 A 
ATOM     45  C   UNL     1       5.418  -5.639 -13.997  1.00  0.00     0.031 C 
ATOM     46  C   UNL     1       9.483  -5.476  -8.429  1.00  0.00     0.029 A 
ATOM     47  C   UNL     1       9.600  -6.663  -9.268  1.00  0.00     0.049 A 
ATOM     48  H   UNL     1       8.606  -7.059 -11.055  1.00  0.00     0.167 HD
ATOM     49  C   UNL     1       6.312  -7.841 -14.692  1.00  0.00     0.031 A 
ATOM     50  C   UNL     1      10.390  -7.722  -9.011  1.00  0.00     0.031 A 
ATOM     51  C   UNL     1       7.184  -8.975 -14.547  1.00  0.00     0.049 A 
ATOM     52  C   UNL     1      10.400  -8.879  -9.969  1.00  0.00     0.074 A 
ATOM     53  C   UNL     1       7.336 -10.059 -15.394  1.00  0.00     0.029 A 
ATOM     54  N   UNL     1       8.049  -9.171 -13.483  1.00  0.00    -0.354 N 
ATOM     55  N   UNL     1       9.722  -9.036 -11.079  1.00  0.00    -0.248 NA
ATOM     56  C   UNL     1      11.290 -10.001  -9.639  1.00  0.00     0.031 C 
ATOM     57  C   UNL     1       8.265 -10.933 -14.819  1.00  0.00     0.029 A 
ATOM     58  C   UNL     1       8.721 -10.372 -13.637  1.00  0.00     0.049 A 
ATOM     59  H   UNL     1       8.168  -8.550 -12.729  1.00  0.00     0.167 HD
ATOM     60  C   UNL     1      10.114 -10.266 -11.590  1.00  0.00     0.074 A 
ATOM     61  C   UNL     1      11.103 -10.804 -10.677  1.00  0.00     0.031 C 
ATOM     62  C   UNL     1       9.693 -10.894 -12.714  1.00  0.00     0.031 A 
BRANCH  49  63
ATOM     63  C   UNL     1       5.363  -7.810 -15.855  1.00  0.00    -0.014 A 
ATOM     64  C   UNL     1       5.564  -6.931 -16.931  1.00  0.00     0.009 A 
ATOM     65  C   UNL     1       4.267  -8.686 -15.887  1.00  0.00     0.009 A 
ATOM     66  C   UNL     1       4.667  -6.905 -18.000  1.00  0.00     0.001 A 
ATOM     67  C   UNL     1       3.385  -8.675 -16.969  1.00  0.00     0.001 A 
ATOM     68  C   UNL     1       3.581  -7.780 -18.020  1.00  0.00     0.000 A 
ENDBRANCH  49  63
BRANCH  50  69
ATOM     69  C   UNL     1      11.252  -7.731  -7.802  1.00  0.00    -0.014 A 
ATOM     70  C   UNL     1      12.639  -7.563  -7.920  1.00  0.00     0.009 A 
ATOM     71  C   UNL     1      10.694  -7.909  -6.527  1.00  0.00     0.009 A 
ATOM     72  C   UNL     1      13.455  -7.596  -6.787  1.00  0.00     0.001 A 
ATOM     73  C   UNL     1      11.509  -7.917  -5.393  1.00  0.00     0.001 A 
ATOM     74  C   UNL     1      12.889  -7.769  -5.525  1.00  0.00     0.000 A 
ENDBRANCH  50  69
BRANCH  62  75
ATOM     75  C   UNL     1      10.313 -12.226 -13.023  1.00  0.00    -0.014 A 
ATOM     76  C   UNL     1       9.953 -13.375 -12.302  1.00  0.00     0.009 A 
ATOM     77  C   UNL     1      11.239 -12.337 -14.070  1.00  0.00     0.009 A 
ATOM     78  C   UNL     1      10.533 -14.607 -12.607  1.00  0.00     0.001 A 
ATOM     79  C   UNL     1      11.799 -13.575 -14.389  1.00  0.00     0.001 A 
ATOM     80  C   UNL     1      11.451 -14.707 -13.652  1.00  0.00     0.000 A 
ENDBRANCH  62  75
ENDBRANCH  36  37
ENDBRANCH  28  31
ENDBRANCH  26  27
ENDBRANCH  25  26
ENDBRANCH   1  25
TORSDOF 14
