REMARK SMILES Cc1nc(Nc2ccc(F)cc2)nc(OCC(=O)NCCCCNC(=O)c2ccc(-c3c4nc(c(-c5ccccc5)c5ccc([nH]5)c(-c5ccccc5)c5nc(c(-c6ccccc6)c6ccc3[nH]6)C=C5)C=C4)cc2)c1CCO
REMARK SMILES IDX 20 1 19 2 17 3 18 4 16 6 15 7 14 8 1 9 2 10 3 11 75 12 4 13
REMARK SMILES IDX 13 14 76 15 77 16 78 17 5 19 6 21 7 22 12 23 8 24 11 25 9 26
REMARK SMILES IDX 10 27 21 28 22 29 23 30 24 31 25 32 26 34 27 35 28 36 74 37
REMARK SMILES IDX 29 38 73 39 30 40 31 41 32 42 67 43 33 44 72 45 66 46 68 47
REMARK SMILES IDX 34 48 71 49 65 50 64 51 35 53 57 54 42 55 56 56 43 57 46 58
REMARK SMILES IDX 55 59 69 60 44 61 45 62 54 64 70 65 47 66 36 67 37 68 41 69
REMARK SMILES IDX 38 70 40 71 39 72 58 73 59 74 63 75 60 76 62 77 61 78 48 79
REMARK SMILES IDX 49 80 53 81 50 82 52 83 51 84
REMARK H PARENT 19 5 78 18 5 20 24 33 68 52 46 63
REMARK Flexibility Score: inf
ROOT
ATOM      1  C   UNL     1       2.965  -3.134   2.791  1.00  0.00     0.116 C 
ENDROOT
BRANCH   1   2
ATOM      2  N   UNL     1       1.657  -3.740   2.679  1.00  0.00    -0.353 N 
ATOM      3  C   UNL     1       0.936  -4.002   1.557  1.00  0.00     0.258 C 
ATOM      4  O   UNL     1      -0.151  -4.565   1.696  1.00  0.00    -0.271 OA
ATOM      5  H   UNL     1       1.232  -3.998   3.529  1.00  0.00     0.163 HD
BRANCH   3   6
ATOM      6  C   UNL     1       1.517  -3.665   0.177  1.00  0.00     0.331 C 
BRANCH   6   7
ATOM      7  O   UNL     1       1.767  -2.334  -0.224  1.00  0.00    -0.467 OA
BRANCH   7   8
ATOM      8  C   UNL     1       0.848  -1.342  -0.087  1.00  0.00     0.222 A 
ATOM      9  C   UNL     1      -2.703  -0.086  -0.053  1.00  0.00     0.067 C 
ATOM     10  C   UNL     1      -1.211  -0.240   0.006  1.00  0.00     0.050 A 
ATOM     11  N   UNL     1      -0.576   0.925   0.222  1.00  0.00    -0.218 NA
ATOM     12  C   UNL     1      -0.532  -1.431  -0.243  1.00  0.00     0.038 A 
ATOM     13  C   UNL     1       0.755   0.952   0.176  1.00  0.00     0.230 A 
ATOM     14  N   UNL     1       1.487  -0.159   0.071  1.00  0.00    -0.177 NA
BRANCH  12  15
ATOM     15  C   UNL     1      -1.272  -2.637  -0.762  1.00  0.00     0.071 C 
BRANCH  15  16
ATOM     16  C   UNL     1      -1.110  -2.878  -2.267  1.00  0.00     0.161 C 
BRANCH  16  17
ATOM     17  O   UNL     1       0.237  -3.106  -2.656  1.00  0.00    -0.396 OA
ATOM     18  H   UNL     1       0.770  -2.321  -2.452  1.00  0.00     0.210 HD
ENDBRANCH  16  17
ENDBRANCH  15  16
ENDBRANCH  12  15
BRANCH  13  19
ATOM     19  N   UNL     1       1.409   2.183   0.087  1.00  0.00    -0.324 N 
ATOM     20  H   UNL     1       2.391   2.151   0.028  1.00  0.00     0.170 HD
BRANCH  19  21
ATOM     21  C   UNL     1       0.828   3.459   0.071  1.00  0.00     0.041 A 
ATOM     22  C   UNL     1      -0.144   3.826   1.015  1.00  0.00     0.029 A 
ATOM     23  C   UNL     1       1.102   4.347  -0.980  1.00  0.00     0.029 A 
ATOM     24  C   UNL     1      -0.816   5.047   0.926  1.00  0.00     0.041 A 
ATOM     25  C   UNL     1       0.416   5.563  -1.085  1.00  0.00     0.041 A 
ATOM     26  C   UNL     1      -0.536   5.901  -0.131  1.00  0.00     0.123 A 
ATOM     27  F   UNL     1      -1.204   7.057  -0.241  1.00  0.00    -0.207 F 
ENDBRANCH  19  21
ENDBRANCH  13  19
ENDBRANCH   7   8
ENDBRANCH   6   7
ENDBRANCH   3   6
ENDBRANCH   1   2
BRANCH   1  28
ATOM     28  C   UNL     1       2.902  -1.776   3.481  1.00  0.00     0.023 C 
BRANCH  28  29
ATOM     29  C   UNL     1       2.237  -1.774   4.860  1.00  0.00     0.023 C 
BRANCH  29  30
ATOM     30  C   UNL     1       2.687  -2.870   5.820  1.00  0.00     0.116 C 
BRANCH  30  31
ATOM     31  N   UNL     1       4.123  -2.894   6.039  1.00  0.00    -0.352 N 
ATOM     32  C   UNL     1       4.812  -3.059   7.215  1.00  0.00     0.251 C 
ATOM     33  H   UNL     1       4.677  -2.776   5.234  1.00  0.00     0.163 HD
ATOM     34  O   UNL     1       6.037  -2.972   7.234  1.00  0.00    -0.269 OA
BRANCH  32  35
ATOM     35  C   UNL     1       4.069  -3.297   8.468  1.00  0.00     0.039 A 
ATOM     36  C   UNL     1       4.363  -2.503   9.579  1.00  0.00     0.014 A 
ATOM     37  C   UNL     1       3.067  -4.269   8.537  1.00  0.00     0.014 A 
ATOM     38  C   UNL     1       3.604  -2.638  10.742  1.00  0.00     0.010 A 
ATOM     39  C   UNL     1       2.266  -4.352   9.672  1.00  0.00     0.010 A 
ATOM     40  C   UNL     1       2.526  -3.537  10.785  1.00  0.00    -0.014 A 
BRANCH  40  41
ATOM     41  C   UNL     1       1.659  -3.634  11.986  1.00  0.00     0.031 A 
ATOM     42  C   UNL     1       1.613  -4.907  12.784  1.00  0.00     0.074 A 
ATOM     43  C   UNL     1       0.872  -2.595  12.326  1.00  0.00     0.049 A 
ATOM     44  N   UNL     1       0.888  -5.196  13.835  1.00  0.00    -0.248 NA
ATOM     45  C   UNL     1       2.477  -6.008  12.327  1.00  0.00     0.031 C 
ATOM     46  C   UNL     1       0.795  -1.319  11.612  1.00  0.00     0.029 A 
ATOM     47  N   UNL     1      -0.018  -2.451  13.361  1.00  0.00    -0.354 N 
ATOM     48  C   UNL     1       1.197  -6.513  14.154  1.00  0.00     0.074 A 
ATOM     49  C   UNL     1       2.133  -6.982  13.156  1.00  0.00     0.031 C 
ATOM     50  C   UNL     1      -0.070  -0.512  12.248  1.00  0.00     0.029 A 
ATOM     51  C   UNL     1      -0.637  -1.225  13.387  1.00  0.00     0.049 A 
ATOM     52  H   UNL     1      -0.196  -3.159  14.021  1.00  0.00     0.167 HD
ATOM     53  C   UNL     1       0.757  -7.258  15.196  1.00  0.00     0.031 A 
ATOM     54  C   UNL     1      -1.561  -0.731  14.233  1.00  0.00     0.031 A 
ATOM     55  C   UNL     1      -0.167  -6.790  16.193  1.00  0.00     0.049 A 
ATOM     56  C   UNL     1      -2.046  -1.585  15.371  1.00  0.00     0.074 A 
ATOM     57  C   UNL     1      -0.632  -7.451  17.316  1.00  0.00     0.029 A 
ATOM     58  N   UNL     1      -0.770  -5.541  16.184  1.00  0.00    -0.354 N 
ATOM     59  N   UNL     1      -1.693  -2.804  15.698  1.00  0.00    -0.248 NA
ATOM     60  C   UNL     1      -3.050  -0.988  16.263  1.00  0.00     0.031 C 
ATOM     61  C   UNL     1      -1.556  -6.621  17.960  1.00  0.00     0.029 A 
ATOM     62  C   UNL     1      -1.621  -5.422  17.270  1.00  0.00     0.049 A 
ATOM     63  H   UNL     1      -0.616  -4.844  15.507  1.00  0.00     0.167 HD
ATOM     64  C   UNL     1      -2.408  -3.109  16.849  1.00  0.00     0.074 A 
ATOM     65  C   UNL     1      -3.202  -1.941  17.171  1.00  0.00     0.031 C 
ATOM     66  C   UNL     1      -2.405  -4.253  17.576  1.00  0.00     0.031 A 
BRANCH  53  67
ATOM     67  C   UNL     1       1.272  -8.667  15.300  1.00  0.00    -0.014 A 
ATOM     68  C   UNL     1       2.611  -8.930  15.631  1.00  0.00     0.009 A 
ATOM     69  C   UNL     1       0.400  -9.747  15.092  1.00  0.00     0.009 A 
ATOM     70  C   UNL     1       3.076 -10.245  15.711  1.00  0.00     0.001 A 
ATOM     71  C   UNL     1       0.860 -11.061  15.203  1.00  0.00     0.001 A 
ATOM     72  C   UNL     1       2.199 -11.308  15.502  1.00  0.00     0.000 A 
ENDBRANCH  53  67
BRANCH  54  73
ATOM     73  C   UNL     1      -2.078   0.651  14.049  1.00  0.00    -0.014 A 
ATOM     74  C   UNL     1      -1.737   1.664  14.959  1.00  0.00     0.009 A 
ATOM     75  C   UNL     1      -2.922   0.963  12.972  1.00  0.00     0.009 A 
ATOM     76  C   UNL     1      -2.252   2.954  14.808  1.00  0.00     0.001 A 
ATOM     77  C   UNL     1      -3.412   2.260  12.808  1.00  0.00     0.001 A 
ATOM     78  C   UNL     1      -3.085   3.252  13.731  1.00  0.00     0.000 A 
ENDBRANCH  54  73
BRANCH  66  79
ATOM     79  C   UNL     1      -3.261  -4.284  18.811  1.00  0.00    -0.014 A 
ATOM     80  C   UNL     1      -4.660  -4.354  18.729  1.00  0.00     0.009 A 
ATOM     81  C   UNL     1      -2.651  -4.282  20.076  1.00  0.00     0.009 A 
ATOM     82  C   UNL     1      -5.433  -4.386  19.892  1.00  0.00     0.001 A 
ATOM     83  C   UNL     1      -3.425  -4.346  21.235  1.00  0.00     0.001 A 
ATOM     84  C   UNL     1      -4.816  -4.388  21.142  1.00  0.00     0.000 A 
ENDBRANCH  66  79
ENDBRANCH  40  41
ENDBRANCH  32  35
ENDBRANCH  30  31
ENDBRANCH  29  30
ENDBRANCH  28  29
ENDBRANCH   1  28
TORSDOF 18
