REMARK SMILES COc1ccc(-n2cc(C(=O)NCCCCNC(=O)c3ccc(-c4c5nc(c(-c6ccccc6)c6ccc([nH]6)c(-c6ccccc6)c6nc(c(-c7ccccc7)c7ccc4[nH]7)C=C6)C=C5)cc3)c3c2[C@H](c2ccc(OCC(N)=O)cc2)CC(O)=N3)cc1
REMARK SMILES IDX 13 1 12 2 10 3 11 4 9 6 7 7 8 8 69 9 68 10 70 11 85 12 82 13
REMARK SMILES IDX 83 14 6 15 3 16 4 17 87 18 5 19 86 20 2 21 1 22 71 23 72 24
REMARK SMILES IDX 81 25 73 26 80 27 74 28 75 29 76 30 77 31 78 32 79 33 84 36
REMARK SMILES IDX 14 38 15 39 16 40 17 41 18 42 19 44 20 45 21 46 67 47 22 48
REMARK SMILES IDX 66 49 23 50 24 51 25 52 60 53 26 54 65 55 59 56 61 57 27 58
REMARK SMILES IDX 64 59 58 60 57 61 28 63 50 64 35 65 49 66 36 67 39 68 48 69
REMARK SMILES IDX 62 70 37 71 38 72 47 74 63 75 40 76 29 77 30 78 34 79 31 80
REMARK SMILES IDX 33 81 32 82 51 83 52 84 56 85 53 86 55 87 54 88 41 89 42 90
REMARK SMILES IDX 46 91 43 92 45 93 44 94
REMARK H PARENT 12 5 78 34 78 35 84 37 17 43 61 62 39 73
REMARK Flexibility Score: inf
ROOT
ATOM      1  C   UNL     1       3.484 -11.183  -1.111  1.00  0.00     0.116 C 
ENDROOT
BRANCH   1   2
ATOM      2  N   UNL     1       4.109 -10.840   0.150  1.00  0.00    -0.352 N 
ATOM      3  C   UNL     1       3.834  -9.764   0.979  1.00  0.00     0.255 C 
ATOM      4  O   UNL     1       4.496  -9.664   2.014  1.00  0.00    -0.269 OA
ATOM      5  H   UNL     1       4.819 -11.449   0.458  1.00  0.00     0.163 HD
BRANCH   3   6
ATOM      6  C   UNL     1       2.857  -8.739   0.603  1.00  0.00     0.084 A 
ATOM      7  N   UNL     1       1.950  -6.661   0.393  1.00  0.00    -0.317 N 
ATOM      8  C   UNL     1       3.020  -7.381   0.890  1.00  0.00     0.107 A 
ATOM      9  C   UNL     1       1.165  -7.532  -0.332  1.00  0.00     0.057 A 
ATOM     10  C   UNL     1       1.623  -8.802  -0.086  1.00  0.00     0.101 A 
ATOM     11  C   UNL     1       0.159  -7.222  -1.399  1.00  0.00     0.078 C 
ATOM     12  N   UNL     1       1.014  -9.931  -0.640  1.00  0.00    -0.215 NA
ATOM     13  C   UNL     1       0.297  -8.348  -2.455  1.00  0.00     0.111 C 
ATOM     14  C   UNL     1       0.431  -9.692  -1.770  1.00  0.00     0.186 C 
BRANCH   7  15
ATOM     15  C   UNL     1       1.727  -5.280   0.594  1.00  0.00     0.046 A 
ATOM     16  C   UNL     1       1.174  -2.557   0.895  1.00  0.00     0.119 A 
ATOM     17  C   UNL     1       0.271  -3.511   1.361  1.00  0.00     0.048 A 
ATOM     18  C   UNL     1       2.390  -2.969   0.343  1.00  0.00     0.048 A 
ATOM     19  C   UNL     1       0.541  -4.872   1.207  1.00  0.00     0.030 A 
ATOM     20  C   UNL     1       2.680  -4.336   0.207  1.00  0.00     0.030 A 
BRANCH  16  21
ATOM     21  O   UNL     1       0.793  -1.255   1.075  1.00  0.00    -0.497 OA
ATOM     22  C   UNL     1       1.208  -0.355   0.052  1.00  0.00     0.278 C 
ENDBRANCH  16  21
ENDBRANCH   7  15
BRANCH  11  23
ATOM     23  C   UNL     1      -1.254  -7.070  -0.866  1.00  0.00    -0.038 A 
ATOM     24  C   UNL     1      -1.788  -5.784  -0.704  1.00  0.00     0.008 A 
ATOM     25  C   UNL     1      -2.029  -8.162  -0.448  1.00  0.00     0.008 A 
ATOM     26  C   UNL     1      -3.011  -5.593  -0.061  1.00  0.00     0.047 A 
ATOM     27  C   UNL     1      -3.271  -7.973   0.159  1.00  0.00     0.047 A 
ATOM     28  C   UNL     1      -3.759  -6.687   0.363  1.00  0.00     0.120 A 
BRANCH  28  29
ATOM     29  O   UNL     1      -4.932  -6.393   0.999  1.00  0.00    -0.484 OA
BRANCH  29  30
ATOM     30  C   UNL     1      -5.995  -7.306   0.765  1.00  0.00     0.329 C 
BRANCH  30  31
ATOM     31  C   UNL     1      -6.394  -7.448  -0.708  1.00  0.00     0.255 C 
ATOM     32  N   UNL     1      -6.396  -8.722  -1.204  1.00  0.00    -0.367 N 
ATOM     33  O   UNL     1      -6.679  -6.502  -1.436  1.00  0.00    -0.271 OA
ATOM     34  H   UNL     1      -6.168  -9.479  -0.617  1.00  0.00     0.159 HD
ATOM     35  H   UNL     1      -6.626  -8.883  -2.147  1.00  0.00     0.159 HD
ENDBRANCH  30  31
ENDBRANCH  29  30
ENDBRANCH  28  29
ENDBRANCH  11  23
BRANCH  14  36
ATOM     36  O   UNL     1      -0.072 -10.736  -2.455  1.00  0.00    -0.496 OA
ATOM     37  H   UNL     1      -0.500 -10.595  -3.277  1.00  0.00     0.294 HD
ENDBRANCH  14  36
ENDBRANCH   3   6
ENDBRANCH   1   2
BRANCH   1  38
ATOM     38  C   UNL     1       4.386 -11.747  -2.204  1.00  0.00     0.023 C 
BRANCH  38  39
ATOM     39  C   UNL     1       4.934 -13.161  -2.030  1.00  0.00     0.023 C 
BRANCH  39  40
ATOM     40  C   UNL     1       3.890 -14.244  -1.801  1.00  0.00     0.116 C 
BRANCH  40  41
ATOM     41  N   UNL     1       2.964 -14.449  -2.913  1.00  0.00    -0.352 N 
ATOM     42  C   UNL     1       1.984 -15.430  -3.019  1.00  0.00     0.251 C 
ATOM     43  H   UNL     1       3.042 -13.824  -3.670  1.00  0.00     0.163 HD
ATOM     44  O   UNL     1       1.461 -15.703  -4.078  1.00  0.00    -0.269 OA
BRANCH  42  45
ATOM     45  C   UNL     1       1.603 -16.148  -1.784  1.00  0.00     0.039 A 
ATOM     46  C   UNL     1       1.561 -17.544  -1.736  1.00  0.00     0.014 A 
ATOM     47  C   UNL     1       1.380 -15.386  -0.642  1.00  0.00     0.014 A 
ATOM     48  C   UNL     1       1.403 -18.172  -0.500  1.00  0.00     0.010 A 
ATOM     49  C   UNL     1       1.366 -16.002   0.585  1.00  0.00     0.010 A 
ATOM     50  C   UNL     1       1.339 -17.395   0.667  1.00  0.00    -0.014 A 
BRANCH  50  51
ATOM     51  C   UNL     1       1.368 -18.020   1.991  1.00  0.00     0.031 A 
ATOM     52  C   UNL     1       2.532 -18.911   2.264  1.00  0.00     0.074 A 
ATOM     53  C   UNL     1       0.563 -17.621   3.001  1.00  0.00     0.049 A 
ATOM     54  N   UNL     1       2.518 -20.170   2.554  1.00  0.00    -0.248 NA
ATOM     55  C   UNL     1       3.886 -18.348   2.123  1.00  0.00     0.031 C 
ATOM     56  C   UNL     1      -0.408 -16.518   2.980  1.00  0.00     0.029 A 
ATOM     57  N   UNL     1       0.546 -18.013   4.308  1.00  0.00    -0.354 N 
ATOM     58  C   UNL     1       3.841 -20.521   2.818  1.00  0.00     0.074 A 
ATOM     59  C   UNL     1       4.650 -19.410   2.386  1.00  0.00     0.031 C 
ATOM     60  C   UNL     1      -0.712 -16.161   4.245  1.00  0.00     0.029 A 
ATOM     61  C   UNL     1      -0.119 -17.128   5.148  1.00  0.00     0.049 A 
ATOM     62  H   UNL     1       0.966 -18.844   4.626  1.00  0.00     0.167 HD
ATOM     63  C   UNL     1       4.151 -21.588   3.608  1.00  0.00     0.031 A 
ATOM     64  C   UNL     1      -0.185 -17.164   6.497  1.00  0.00     0.031 A 
ATOM     65  C   UNL     1       2.999 -22.415   3.854  1.00  0.00     0.049 A 
ATOM     66  C   UNL     1       0.130 -18.539   6.928  1.00  0.00     0.074 A 
ATOM     67  C   UNL     1       2.194 -23.255   3.120  1.00  0.00     0.029 A 
ATOM     68  N   UNL     1       2.330 -22.124   5.015  1.00  0.00    -0.354 N 
ATOM     69  N   UNL     1      -0.633 -19.561   6.668  1.00  0.00    -0.248 NA
ATOM     70  C   UNL     1       1.476 -18.864   7.376  1.00  0.00     0.031 C 
ATOM     71  C   UNL     1       0.908 -23.184   3.735  1.00  0.00     0.029 A 
ATOM     72  C   UNL     1       0.990 -22.336   4.841  1.00  0.00     0.049 A 
ATOM     73  H   UNL     1       2.751 -21.811   5.848  1.00  0.00     0.167 HD
ATOM     74  C   UNL     1       0.250 -20.608   6.478  1.00  0.00     0.074 A 
ATOM     75  C   UNL     1       1.489 -20.174   7.111  1.00  0.00     0.031 C 
ATOM     76  C   UNL     1      -0.017 -21.584   5.561  1.00  0.00     0.031 A 
BRANCH  63  77
ATOM     77  C   UNL     1       5.338 -21.638   4.550  1.00  0.00    -0.014 A 
ATOM     78  C   UNL     1       5.537 -22.805   5.317  1.00  0.00     0.009 A 
ATOM     79  C   UNL     1       6.064 -20.499   4.943  1.00  0.00     0.009 A 
ATOM     80  C   UNL     1       6.356 -22.805   6.455  1.00  0.00     0.001 A 
ATOM     81  C   UNL     1       6.913 -20.507   6.055  1.00  0.00     0.001 A 
ATOM     82  C   UNL     1       7.036 -21.652   6.829  1.00  0.00     0.000 A 
ENDBRANCH  63  77
BRANCH  64  83
ATOM     83  C   UNL     1      -0.362 -16.053   7.450  1.00  0.00    -0.014 A 
ATOM     84  C   UNL     1      -0.884 -16.277   8.732  1.00  0.00     0.009 A 
ATOM     85  C   UNL     1       0.225 -14.802   7.184  1.00  0.00     0.009 A 
ATOM     86  C   UNL     1      -0.782 -15.298   9.728  1.00  0.00     0.001 A 
ATOM     87  C   UNL     1       0.326 -13.824   8.178  1.00  0.00     0.001 A 
ATOM     88  C   UNL     1      -0.163 -14.079   9.456  1.00  0.00     0.000 A 
ENDBRANCH  64  83
BRANCH  76  89
ATOM     89  C   UNL     1      -1.442 -21.722   5.093  1.00  0.00    -0.014 A 
ATOM     90  C   UNL     1      -2.123 -20.720   4.382  1.00  0.00     0.009 A 
ATOM     91  C   UNL     1      -2.085 -22.951   5.297  1.00  0.00     0.009 A 
ATOM     92  C   UNL     1      -3.426 -20.933   3.921  1.00  0.00     0.001 A 
ATOM     93  C   UNL     1      -3.376 -23.172   4.815  1.00  0.00     0.001 A 
ATOM     94  C   UNL     1      -4.049 -22.160   4.134  1.00  0.00     0.000 A 
ENDBRANCH  76  89
ENDBRANCH  50  51
ENDBRANCH  42  45
ENDBRANCH  40  41
ENDBRANCH  39  40
ENDBRANCH  38  39
ENDBRANCH   1  38
TORSDOF 18
