REMARK SMILES Cc1c(NC(=O)c2ccc(-c3cccc(Cl)c3)o2)cccc1C(=O)NCCCCNC(=O)c1ccc(-c2c3nc(c(-c4ccccc4)c4ccc([nH]4)c(-c4ccccc4)c4nc(c(-c5ccccc5)c5ccc2[nH]5)C=C4)C=C3)cc1
REMARK SMILES IDX 27 1 26 2 25 3 23 4 24 5 22 7 1 8 2 9 3 10 19 11 21 12 20 13
REMARK SMILES IDX 4 14 5 15 6 17 7 18 8 19 18 20 9 21 10 22 11 23 12 24 17 25
REMARK SMILES IDX 13 26 15 27 14 28 16 29 28 30 29 31 30 32 31 33 32 35 33 36
REMARK SMILES IDX 34 37 80 38 35 39 79 40 36 41 37 42 38 43 73 44 39 45 78 46
REMARK SMILES IDX 72 47 74 48 40 49 77 50 71 51 70 52 41 54 63 55 48 56 62 57
REMARK SMILES IDX 49 58 52 59 61 60 75 61 50 62 51 63 60 65 76 66 53 67 42 68
REMARK SMILES IDX 43 69 47 70 44 71 46 72 45 73 64 74 65 75 69 76 66 77 68 78
REMARK SMILES IDX 67 79 54 80 55 81 59 82 56 83 58 84 57 85
REMARK H PARENT 25 6 4 16 30 34 74 53 52 64
REMARK Flexibility Score: inf
ROOT
ATOM      1  C   UNL     1       4.229   1.268  -1.211  1.00  0.00     0.023 C 
ENDROOT
BRANCH   1   2
ATOM      2  C   UNL     1       3.408   1.721   0.011  1.00  0.00     0.116 C 
BRANCH   2   3
ATOM      3  N   UNL     1       2.262   2.504  -0.416  1.00  0.00    -0.352 N 
ATOM      4  C   UNL     1       0.928   2.239  -0.575  1.00  0.00     0.251 C 
ATOM      5  O   UNL     1       0.243   3.141  -1.064  1.00  0.00    -0.269 OA
ATOM      6  H   UNL     1       2.497   3.433  -0.643  1.00  0.00     0.163 HD
BRANCH   4   7
ATOM      7  C   UNL     1       0.233   1.004  -0.099  1.00  0.00     0.044 A 
ATOM      8  C   UNL     1       1.744  -0.736  -1.197  1.00  0.00     0.047 C 
ATOM      9  C   UNL     1       0.630  -0.338  -0.275  1.00  0.00    -0.015 A 
ATOM     10  C   UNL     1      -0.142  -1.374   0.304  1.00  0.00     0.045 A 
ATOM     11  C   UNL     1      -1.368  -1.082   0.908  1.00  0.00     0.026 A 
ATOM     12  C   UNL     1      -1.022   1.259   0.491  1.00  0.00     0.014 A 
ATOM     13  C   UNL     1      -1.828   0.227   0.963  1.00  0.00     0.003 A 
BRANCH  10  14
ATOM     14  N   UNL     1       0.391  -2.681   0.300  1.00  0.00    -0.319 N 
ATOM     15  C   UNL     1      -0.235  -3.907   0.332  1.00  0.00     0.291 C 
ATOM     16  H   UNL     1       1.374  -2.723   0.269  1.00  0.00     0.170 HD
ATOM     17  O   UNL     1       0.439  -4.895   0.625  1.00  0.00    -0.265 OA
BRANCH  15  18
ATOM     18  C   UNL     1      -1.610  -3.980  -0.090  1.00  0.00     0.192 A 
ATOM     19  C   UNL     1      -2.257  -3.527  -1.225  1.00  0.00     0.057 A 
ATOM     20  O   UNL     1      -2.511  -4.559   0.753  1.00  0.00    -0.451 OA
ATOM     21  C   UNL     1      -3.628  -3.838  -1.058  1.00  0.00     0.052 A 
ATOM     22  C   UNL     1      -3.740  -4.447   0.175  1.00  0.00     0.135 A 
BRANCH  22  23
ATOM     23  C   UNL     1      -4.845  -4.962   0.961  1.00  0.00     0.019 A 
ATOM     24  C   UNL     1      -5.916  -5.616   0.340  1.00  0.00     0.012 A 
ATOM     25  C   UNL     1      -4.857  -4.798   2.353  1.00  0.00     0.032 A 
ATOM     26  C   UNL     1      -6.981  -6.106   1.099  1.00  0.00     0.002 A 
ATOM     27  C   UNL     1      -5.928  -5.277   3.104  1.00  0.00     0.041 A 
ATOM     28  C   UNL     1      -6.988  -5.933   2.483  1.00  0.00     0.020 A 
ATOM     29  Cl  UNL     1      -5.943  -5.048   4.809  1.00  0.00    -0.084 Cl
ENDBRANCH  22  23
ENDBRANCH  15  18
ENDBRANCH  10  14
ENDBRANCH   4   7
ENDBRANCH   2   3
ENDBRANCH   1   2
BRANCH   1  30
ATOM     30  C   UNL     1       4.995   2.380  -1.924  1.00  0.00     0.023 C 
BRANCH  30  31
ATOM     31  C   UNL     1       6.348   2.642  -1.295  1.00  0.00     0.116 C 
BRANCH  31  32
ATOM     32  N   UNL     1       7.410   1.747  -1.750  1.00  0.00    -0.352 N 
ATOM     33  C   UNL     1       8.699   1.601  -1.269  1.00  0.00     0.251 C 
ATOM     34  H   UNL     1       7.174   1.164  -2.507  1.00  0.00     0.163 HD
ATOM     35  O   UNL     1       9.479   0.826  -1.821  1.00  0.00    -0.269 OA
BRANCH  33  36
ATOM     36  C   UNL     1       9.082   2.248   0.011  1.00  0.00     0.039 A 
ATOM     37  C   UNL     1       9.710   1.444   0.970  1.00  0.00     0.014 A 
ATOM     38  C   UNL     1       8.538   3.472   0.378  1.00  0.00     0.014 A 
ATOM     39  C   UNL     1       9.490   1.707   2.317  1.00  0.00     0.010 A 
ATOM     40  C   UNL     1       8.192   3.653   1.700  1.00  0.00     0.010 A 
ATOM     41  C   UNL     1       8.592   2.716   2.656  1.00  0.00    -0.014 A 
BRANCH  41  42
ATOM     42  C   UNL     1       7.906   2.764   3.942  1.00  0.00     0.031 A 
ATOM     43  C   UNL     1       8.189   3.870   4.887  1.00  0.00     0.074 A 
ATOM     44  C   UNL     1       6.953   1.843   4.234  1.00  0.00     0.049 A 
ATOM     45  N   UNL     1       8.001   3.806   6.163  1.00  0.00    -0.248 NA
ATOM     46  C   UNL     1       8.773   5.141   4.464  1.00  0.00     0.031 C 
ATOM     47  C   UNL     1       6.015   1.885   5.356  1.00  0.00     0.029 A 
ATOM     48  N   UNL     1       6.714   0.579   3.683  1.00  0.00    -0.354 N 
ATOM     49  C   UNL     1       8.106   5.086   6.660  1.00  0.00     0.074 A 
ATOM     50  C   UNL     1       8.707   5.850   5.594  1.00  0.00     0.031 C 
ATOM     51  C   UNL     1       5.583   0.637   5.603  1.00  0.00     0.029 A 
ATOM     52  C   UNL     1       6.360  -0.252   4.757  1.00  0.00     0.049 A 
ATOM     53  H   UNL     1       6.781   0.324   2.734  1.00  0.00     0.167 HD
ATOM     54  C   UNL     1       7.519   5.390   7.853  1.00  0.00     0.031 A 
ATOM     55  C   UNL     1       7.115  -1.294   5.220  1.00  0.00     0.031 A 
ATOM     56  C   UNL     1       7.006   4.192   8.522  1.00  0.00     0.049 A 
ATOM     57  C   UNL     1       7.496  -1.161   6.690  1.00  0.00     0.074 A 
ATOM     58  C   UNL     1       5.734   3.669   8.684  1.00  0.00     0.029 A 
ATOM     59  N   UNL     1       7.893   3.184   8.888  1.00  0.00    -0.354 N 
ATOM     60  N   UNL     1       7.406  -0.045   7.361  1.00  0.00    -0.248 NA
ATOM     61  C   UNL     1       8.066  -2.240   7.499  1.00  0.00     0.031 C 
ATOM     62  C   UNL     1       5.864   2.306   9.063  1.00  0.00     0.029 A 
ATOM     63  C   UNL     1       7.213   2.013   9.164  1.00  0.00     0.049 A 
ATOM     64  H   UNL     1       8.870   3.290   8.943  1.00  0.00     0.167 HD
ATOM     65  C   UNL     1       7.890  -0.221   8.630  1.00  0.00     0.074 A 
ATOM     66  C   UNL     1       8.280  -1.618   8.674  1.00  0.00     0.031 C 
ATOM     67  C   UNL     1       7.946   0.807   9.527  1.00  0.00     0.031 A 
BRANCH  54  68
ATOM     68  C   UNL     1       7.137   6.800   8.262  1.00  0.00    -0.014 A 
ATOM     69  C   UNL     1       6.115   6.994   9.211  1.00  0.00     0.009 A 
ATOM     70  C   UNL     1       7.667   7.975   7.700  1.00  0.00     0.009 A 
ATOM     71  C   UNL     1       5.592   8.264   9.500  1.00  0.00     0.001 A 
ATOM     72  C   UNL     1       7.133   9.245   7.961  1.00  0.00     0.001 A 
ATOM     73  C   UNL     1       6.083   9.389   8.852  1.00  0.00     0.000 A 
ENDBRANCH  54  68
BRANCH  55  74
ATOM     74  C   UNL     1       7.968  -1.956   4.198  1.00  0.00    -0.014 A 
ATOM     75  C   UNL     1       7.340  -2.691   3.175  1.00  0.00     0.009 A 
ATOM     76  C   UNL     1       9.310  -1.587   4.032  1.00  0.00     0.009 A 
ATOM     77  C   UNL     1       7.997  -2.938   1.966  1.00  0.00     0.001 A 
ATOM     78  C   UNL     1       9.967  -1.845   2.822  1.00  0.00     0.001 A 
ATOM     79  C   UNL     1       9.299  -2.483   1.778  1.00  0.00     0.000 A 
ENDBRANCH  55  74
BRANCH  67  80
ATOM     80  C   UNL     1       8.648   0.776  10.862  1.00  0.00    -0.014 A 
ATOM     81  C   UNL     1       9.737  -0.053  11.161  1.00  0.00     0.009 A 
ATOM     82  C   UNL     1       8.293   1.737  11.837  1.00  0.00     0.009 A 
ATOM     83  C   UNL     1      10.409   0.045  12.387  1.00  0.00     0.001 A 
ATOM     84  C   UNL     1       8.989   1.867  13.041  1.00  0.00     0.001 A 
ATOM     85  C   UNL     1      10.043   1.010  13.321  1.00  0.00     0.000 A 
ENDBRANCH  67  80
ENDBRANCH  41  42
ENDBRANCH  33  36
ENDBRANCH  31  32
ENDBRANCH  30  31
ENDBRANCH   1  30
TORSDOF 14
