REMARK SMILES O=C(Cn1nc(C(=O)NCCCCNC(=O)c2ccc(-c3c4nc(c(-c5ccccc5)c5ccc([nH]5)c(-c5ccccc5)c5nc(c(-c6ccccc6)c6ccc3[nH]6)C=C5)C=C4)cc2)c2ccccc2c1=O)Nc1ccc2c(c1)C(=O)c1ccccc1C2=O
REMARK SMILES IDX 11 1 10 2 9 3 7 4 8 5 6 7 4 8 5 9 71 10 70 11 72 12 65 13
REMARK SMILES IDX 69 14 66 15 68 16 67 17 3 18 2 19 1 20 73 21 74 23 75 24
REMARK SMILES IDX 79 25 76 26 78 27 77 28 80 29 88 30 81 31 82 32 87 33 89 34
REMARK SMILES IDX 83 35 86 36 84 37 85 38 12 39 13 40 14 41 15 42 16 44 17 45
REMARK SMILES IDX 18 46 64 47 19 48 63 49 20 50 21 51 22 52 57 53 23 54 62 55
REMARK SMILES IDX 56 56 58 57 24 58 61 59 55 60 54 61 25 63 47 64 32 65 46 66
REMARK SMILES IDX 33 67 36 68 45 69 59 70 34 71 35 72 44 74 60 75 37 76 26 77
REMARK SMILES IDX 27 78 31 79 28 80 30 81 29 82 48 83 49 84 53 85 50 86 52 87
REMARK SMILES IDX 51 88 38 89 39 90 43 91 40 92 42 93 41 94
REMARK H PARENT 9 6 73 22 14 43 58 62 36 73
REMARK Flexibility Score: inf
ROOT
ATOM      1  C   UNL     1       5.027  -2.888  -4.441  1.00  0.00     0.023 C 
ENDROOT
BRANCH   1   2
ATOM      2  C   UNL     1       5.982  -2.386  -3.363  1.00  0.00     0.116 C 
BRANCH   2   3
ATOM      3  N   UNL     1       6.804  -1.272  -3.796  1.00  0.00    -0.351 N 
ATOM      4  C   UNL     1       6.665   0.083  -3.594  1.00  0.00     0.272 C 
ATOM      5  O   UNL     1       7.623   0.800  -3.859  1.00  0.00    -0.267 OA
ATOM      6  H   UNL     1       7.595  -1.527  -4.324  1.00  0.00     0.163 HD
BRANCH   4   7
ATOM      7  C   UNL     1       5.350   0.690  -3.065  1.00  0.00     0.156 A 
ATOM      8  N   UNL     1       3.335   0.327  -1.958  1.00  0.00    -0.219 N 
ATOM      9  N   UNL     1       4.558  -0.102  -2.400  1.00  0.00    -0.163 NA
ATOM     10  C   UNL     1       2.842   1.595  -2.251  1.00  0.00     0.275 A 
ATOM     11  C   UNL     1       3.784   2.562  -2.836  1.00  0.00     0.051 A 
ATOM     12  O   UNL     1       1.717   1.960  -1.925  1.00  0.00    -0.267 OA
ATOM     13  C   UNL     1       5.024   2.126  -3.293  1.00  0.00     0.020 A 
ATOM     14  C   UNL     1       3.428   3.922  -2.890  1.00  0.00     0.014 A 
ATOM     15  C   UNL     1       5.883   3.068  -3.879  1.00  0.00     0.011 A 
ATOM     16  C   UNL     1       4.305   4.851  -3.442  1.00  0.00     0.001 A 
ATOM     17  C   UNL     1       5.524   4.421  -3.951  1.00  0.00     0.001 A 
BRANCH   8  18
ATOM     18  C   UNL     1       2.471  -0.707  -1.322  1.00  0.00     0.248 C 
BRANCH  18  19
ATOM     19  C   UNL     1       2.153  -0.535   0.190  1.00  0.00     0.246 C 
ATOM     20  O   UNL     1       1.634  -1.419   0.864  1.00  0.00    -0.273 OA
ATOM     21  N   UNL     1       2.317   0.758   0.595  1.00  0.00    -0.324 N 
ATOM     22  H   UNL     1       2.758   1.327  -0.077  1.00  0.00     0.169 HD
BRANCH  21  23
ATOM     23  C   UNL     1       1.990   1.433   1.761  1.00  0.00     0.042 A 
ATOM     24  C   UNL     1       2.187   0.957   3.054  1.00  0.00     0.027 A 
ATOM     25  C   UNL     1       1.711   2.777   1.524  1.00  0.00     0.039 A 
ATOM     26  C   UNL     1       2.339   1.895   4.091  1.00  0.00     0.015 A 
ATOM     27  C   UNL     1       1.889   3.694   2.535  1.00  0.00     0.036 A 
ATOM     28  C   UNL     1       2.292   3.268   3.794  1.00  0.00     0.034 A 
ATOM     29  C   UNL     1       2.017   5.096   2.127  1.00  0.00     0.194 C 
ATOM     30  C   UNL     1       2.958   4.263   4.666  1.00  0.00     0.194 C 
ATOM     31  O   UNL     1       1.334   5.580   1.232  1.00  0.00    -0.289 OA
ATOM     32  C   UNL     1       3.154   5.805   2.714  1.00  0.00     0.034 A 
ATOM     33  C   UNL     1       3.626   5.395   3.963  1.00  0.00     0.034 A 
ATOM     34  O   UNL     1       3.075   4.091   5.870  1.00  0.00    -0.289 OA
ATOM     35  C   UNL     1       3.849   6.734   1.939  1.00  0.00     0.013 A 
ATOM     36  C   UNL     1       4.811   5.939   4.456  1.00  0.00     0.013 A 
ATOM     37  C   UNL     1       5.052   7.243   2.416  1.00  0.00     0.001 A 
ATOM     38  C   UNL     1       5.529   6.849   3.671  1.00  0.00     0.001 A 
ENDBRANCH  21  23
ENDBRANCH  18  19
ENDBRANCH   8  18
ENDBRANCH   4   7
ENDBRANCH   2   3
ENDBRANCH   1   2
BRANCH   1  39
ATOM     39  C   UNL     1       5.697  -3.575  -5.636  1.00  0.00     0.023 C 
BRANCH  39  40
ATOM     40  C   UNL     1       6.776  -4.604  -5.303  1.00  0.00     0.116 C 
BRANCH  40  41
ATOM     41  N   UNL     1       6.356  -5.625  -4.355  1.00  0.00    -0.352 N 
ATOM     42  C   UNL     1       6.811  -6.917  -4.228  1.00  0.00     0.251 C 
ATOM     43  H   UNL     1       5.653  -5.356  -3.721  1.00  0.00     0.163 HD
ATOM     44  O   UNL     1       6.325  -7.668  -3.389  1.00  0.00    -0.269 OA
BRANCH  42  45
ATOM     45  C   UNL     1       7.846  -7.417  -5.157  1.00  0.00     0.039 A 
ATOM     46  C   UNL     1       9.023  -6.699  -5.377  1.00  0.00     0.014 A 
ATOM     47  C   UNL     1       7.596  -8.599  -5.860  1.00  0.00     0.014 A 
ATOM     48  C   UNL     1       9.872  -7.076  -6.414  1.00  0.00     0.010 A 
ATOM     49  C   UNL     1       8.477  -9.007  -6.864  1.00  0.00     0.010 A 
ATOM     50  C   UNL     1       9.590  -8.216  -7.185  1.00  0.00    -0.014 A 
BRANCH  50  51
ATOM     51  C   UNL     1      10.438  -8.529  -8.359  1.00  0.00     0.031 A 
ATOM     52  C   UNL     1       9.905  -8.335  -9.753  1.00  0.00     0.074 A 
ATOM     53  C   UNL     1      11.714  -8.913  -8.175  1.00  0.00     0.049 A 
ATOM     54  N   UNL     1      10.518  -8.500 -10.899  1.00  0.00    -0.248 NA
ATOM     55  C   UNL     1       8.506  -7.895  -9.880  1.00  0.00     0.031 C 
ATOM     56  C   UNL     1      12.357  -9.109  -6.875  1.00  0.00     0.029 A 
ATOM     57  N   UNL     1      12.707  -9.172  -9.085  1.00  0.00    -0.354 N 
ATOM     58  C   UNL     1       9.579  -8.202 -11.877  1.00  0.00     0.074 A 
ATOM     59  C   UNL     1       8.350  -7.860 -11.196  1.00  0.00     0.031 C 
ATOM     60  C   UNL     1      13.653  -9.400  -7.070  1.00  0.00     0.029 A 
ATOM     61  C   UNL     1      13.919  -9.451  -8.505  1.00  0.00     0.049 A 
ATOM     62  H   UNL     1      12.564  -9.159 -10.059  1.00  0.00     0.167 HD
ATOM     63  C   UNL     1       9.727  -8.205 -13.223  1.00  0.00     0.031 A 
ATOM     64  C   UNL     1      15.114  -9.713  -9.064  1.00  0.00     0.031 A 
ATOM     65  C   UNL     1      10.948  -8.528 -13.909  1.00  0.00     0.049 A 
ATOM     66  C   UNL     1      15.244  -9.744 -10.558  1.00  0.00     0.074 A 
ATOM     67  C   UNL     1      11.190  -8.551 -15.272  1.00  0.00     0.029 A 
ATOM     68  N   UNL     1      12.132  -8.879 -13.284  1.00  0.00    -0.354 N 
ATOM     69  N   UNL     1      14.340  -9.477 -11.467  1.00  0.00    -0.248 NA
ATOM     70  C   UNL     1      16.556 -10.124 -11.101  1.00  0.00     0.031 C 
ATOM     71  C   UNL     1      12.518  -8.942 -15.472  1.00  0.00     0.029 A 
ATOM     72  C   UNL     1      13.106  -9.133 -14.233  1.00  0.00     0.049 A 
ATOM     73  H   UNL     1      12.262  -8.938 -12.310  1.00  0.00     0.167 HD
ATOM     74  C   UNL     1      14.971  -9.659 -12.690  1.00  0.00     0.074 A 
ATOM     75  C   UNL     1      16.339 -10.041 -12.407  1.00  0.00     0.031 C 
ATOM     76  C   UNL     1      14.457  -9.526 -13.936  1.00  0.00     0.031 A 
BRANCH  63  77
ATOM     77  C   UNL     1       8.527  -7.858 -14.052  1.00  0.00    -0.014 A 
ATOM     78  C   UNL     1       7.807  -8.876 -14.696  1.00  0.00     0.009 A 
ATOM     79  C   UNL     1       8.143  -6.522 -14.241  1.00  0.00     0.009 A 
ATOM     80  C   UNL     1       6.722  -8.562 -15.516  1.00  0.00     0.001 A 
ATOM     81  C   UNL     1       7.048  -6.213 -15.050  1.00  0.00     0.001 A 
ATOM     82  C   UNL     1       6.341  -7.232 -15.689  1.00  0.00     0.000 A 
ENDBRANCH  63  77
BRANCH  64  83
ATOM     83  C   UNL     1      16.287  -9.959  -8.192  1.00  0.00    -0.014 A 
ATOM     84  C   UNL     1      16.426 -11.176  -7.510  1.00  0.00     0.009 A 
ATOM     85  C   UNL     1      17.252  -8.957  -8.010  1.00  0.00     0.009 A 
ATOM     86  C   UNL     1      17.504 -11.382  -6.648  1.00  0.00     0.001 A 
ATOM     87  C   UNL     1      18.337  -9.172  -7.159  1.00  0.00     0.001 A 
ATOM     88  C   UNL     1      18.460 -10.381  -6.475  1.00  0.00     0.000 A 
ENDBRANCH  64  83
BRANCH  76  89
ATOM     89  C   UNL     1      15.372  -9.802 -15.089  1.00  0.00    -0.014 A 
ATOM     90  C   UNL     1      15.928  -8.738 -15.815  1.00  0.00     0.009 A 
ATOM     91  C   UNL     1      15.629 -11.120 -15.496  1.00  0.00     0.009 A 
ATOM     92  C   UNL     1      16.728  -8.990 -16.930  1.00  0.00     0.001 A 
ATOM     93  C   UNL     1      16.440 -11.368 -16.604  1.00  0.00     0.001 A 
ATOM     94  C   UNL     1      16.985 -10.303 -17.322  1.00  0.00     0.000 A 
ENDBRANCH  76  89
ENDBRANCH  50  51
ENDBRANCH  42  45
ENDBRANCH  40  41
ENDBRANCH  39  40
ENDBRANCH   1  39
TORSDOF 14
