REMARK SMILES CCCc1nnc(SCC(=O)NCCCCNC(=O)c2ccc(-c3c4nc(c(-c5ccccc5)c5ccc([nH]5)c(-c5ccccc5)c5nc(c(-c6ccccc6)c6ccc3[nH]6)C=C5)C=C4)cc2)n1C[C@H]1CCCO1
REMARK SMILES IDX 13 1 12 2 10 3 11 4 9 6 8 7 7 8 4 9 5 10 68 11 6 12 3 13
REMARK SMILES IDX 2 14 1 15 69 16 70 17 71 18 74 19 72 20 73 21 14 22 15 23
REMARK SMILES IDX 16 24 17 25 18 26 19 28 20 29 21 30 67 31 22 32 66 33 23 34
REMARK SMILES IDX 24 35 25 36 60 37 26 38 65 39 59 40 61 41 27 42 64 43 58 44
REMARK SMILES IDX 57 45 28 47 50 48 35 49 49 50 36 51 39 52 48 53 62 54 37 55
REMARK SMILES IDX 38 56 47 58 63 59 40 60 29 61 30 62 34 63 31 64 33 65 32 66
REMARK SMILES IDX 51 67 52 68 56 69 53 70 55 71 54 72 41 73 42 74 46 75 43 76
REMARK SMILES IDX 45 77 44 78
REMARK H PARENT 12 5 17 27 61 46 39 57
REMARK Flexibility Score: inf
ROOT
ATOM      1  C   UNL     1      -6.176  -0.453   5.152  1.00  0.00     0.116 C 
ENDROOT
BRANCH   1   2
ATOM      2  N   UNL     1      -6.020   0.021   3.797  1.00  0.00    -0.355 N 
ATOM      3  C   UNL     1      -4.891  -0.083   3.044  1.00  0.00     0.230 C 
ATOM      4  O   UNL     1      -4.772   0.625   2.044  1.00  0.00    -0.274 OA
ATOM      5  H   UNL     1      -6.798   0.457   3.381  1.00  0.00     0.163 HD
BRANCH   3   6
ATOM      6  C   UNL     1      -3.906  -1.166   3.376  1.00  0.00     0.178 C 
BRANCH   6   7
ATOM      7  S   UNL     1      -2.671  -0.805   4.599  1.00  0.00    -0.076 SA
BRANCH   7   8
ATOM      8  C   UNL     1      -1.479   0.215   3.894  1.00  0.00     0.191 A 
ATOM      9  C   UNL     1      -0.454   1.664   2.637  1.00  0.00     0.133 A 
ATOM     10  N   UNL     1      -0.074   1.853   3.888  1.00  0.00    -0.134 NA
ATOM     11  N   UNL     1      -1.137   0.444   2.579  1.00  0.00    -0.303 N 
ATOM     12  N   UNL     1      -0.722   0.955   4.670  1.00  0.00    -0.123 NA
BRANCH   9  13
ATOM     13  C   UNL     1      -0.174   2.718   1.603  1.00  0.00     0.077 C 
BRANCH  13  14
ATOM     14  C   UNL     1      -0.957   2.772   0.299  1.00  0.00     0.005 C 
ATOM     15  C   UNL     1      -2.464   2.897   0.459  1.00  0.00     0.004 C 
ENDBRANCH  13  14
ENDBRANCH   9  13
BRANCH  11  16
ATOM     16  C   UNL     1      -1.514  -0.277   1.386  1.00  0.00     0.158 C 
BRANCH  16  17
ATOM     17  C   UNL     1      -1.079  -1.738   1.096  1.00  0.00     0.138 C 
ATOM     18  C   UNL     1      -1.422  -2.925   1.984  1.00  0.00     0.036 C 
ATOM     19  O   UNL     1      -1.664  -2.085  -0.187  1.00  0.00    -0.376 OA
ATOM     20  C   UNL     1      -2.653  -3.576   1.389  1.00  0.00     0.031 C 
ATOM     21  C   UNL     1      -2.750  -3.002  -0.004  1.00  0.00     0.160 C 
ENDBRANCH  16  17
ENDBRANCH  11  16
ENDBRANCH   7   8
ENDBRANCH   6   7
ENDBRANCH   3   6
ENDBRANCH   1   2
BRANCH   1  22
ATOM     22  C   UNL     1      -5.699   0.589   6.158  1.00  0.00     0.023 C 
BRANCH  22  23
ATOM     23  C   UNL     1      -6.314   1.986   6.004  1.00  0.00     0.023 C 
BRANCH  23  24
ATOM     24  C   UNL     1      -7.835   2.018   6.033  1.00  0.00     0.116 C 
BRANCH  24  25
ATOM     25  N   UNL     1      -8.380   1.353   7.211  1.00  0.00    -0.352 N 
ATOM     26  C   UNL     1      -9.671   0.915   7.438  1.00  0.00     0.251 C 
ATOM     27  H   UNL     1      -7.742   1.195   7.944  1.00  0.00     0.163 HD
ATOM     28  O   UNL     1     -10.068   0.663   8.559  1.00  0.00    -0.269 OA
BRANCH  26  29
ATOM     29  C   UNL     1     -10.559   0.742   6.276  1.00  0.00     0.039 A 
ATOM     30  C   UNL     1     -11.855   1.251   6.272  1.00  0.00     0.014 A 
ATOM     31  C   UNL     1     -10.047   0.085   5.162  1.00  0.00     0.014 A 
ATOM     32  C   UNL     1     -12.598   1.161   5.098  1.00  0.00     0.010 A 
ATOM     33  C   UNL     1     -10.714   0.126   3.968  1.00  0.00     0.010 A 
ATOM     34  C   UNL     1     -12.011   0.615   3.944  1.00  0.00    -0.014 A 
BRANCH  34  35
ATOM     35  C   UNL     1     -12.707   0.648   2.668  1.00  0.00     0.031 A 
ATOM     36  C   UNL     1     -13.156   1.998   2.240  1.00  0.00     0.074 A 
ATOM     37  C   UNL     1     -12.763  -0.403   1.825  1.00  0.00     0.049 A 
ATOM     38  N   UNL     1     -14.370   2.424   2.152  1.00  0.00    -0.248 NA
ATOM     39  C   UNL     1     -12.137   3.032   1.997  1.00  0.00     0.031 C 
ATOM     40  C   UNL     1     -12.090  -1.704   1.922  1.00  0.00     0.029 A 
ATOM     41  N   UNL     1     -13.367  -0.472   0.611  1.00  0.00    -0.354 N 
ATOM     42  C   UNL     1     -14.288   3.722   1.661  1.00  0.00     0.074 A 
ATOM     43  C   UNL     1     -12.898   4.098   1.742  1.00  0.00     0.031 C 
ATOM     44  C   UNL     1     -12.124  -2.320   0.719  1.00  0.00     0.029 A 
ATOM     45  C   UNL     1     -12.973  -1.549  -0.169  1.00  0.00     0.049 A 
ATOM     46  H   UNL     1     -14.031   0.190   0.309  1.00  0.00     0.167 HD
ATOM     47  C   UNL     1     -15.334   4.298   1.005  1.00  0.00     0.031 A 
ATOM     48  C   UNL     1     -13.303  -1.766  -1.465  1.00  0.00     0.031 A 
ATOM     49  C   UNL     1     -16.561   3.570   1.211  1.00  0.00     0.049 A 
ATOM     50  C   UNL     1     -14.513  -0.958  -1.751  1.00  0.00     0.074 A 
ATOM     51  C   UNL     1     -17.291   3.202   2.325  1.00  0.00     0.029 A 
ATOM     52  N   UNL     1     -16.981   2.734   0.202  1.00  0.00    -0.354 N 
ATOM     53  N   UNL     1     -15.674  -1.197  -1.211  1.00  0.00    -0.248 NA
ATOM     54  C   UNL     1     -14.330   0.388  -2.269  1.00  0.00     0.031 C 
ATOM     55  C   UNL     1     -17.701   1.860   2.063  1.00  0.00     0.029 A 
ATOM     56  C   UNL     1     -17.273   1.523   0.777  1.00  0.00     0.049 A 
ATOM     57  H   UNL     1     -17.057   2.962  -0.753  1.00  0.00     0.167 HD
ATOM     58  C   UNL     1     -16.189   0.057  -0.915  1.00  0.00     0.074 A 
ATOM     59  C   UNL     1     -15.365   0.994  -1.680  1.00  0.00     0.031 C 
ATOM     60  C   UNL     1     -17.040   0.246   0.138  1.00  0.00     0.031 A 
BRANCH  47  61
ATOM     61  C   UNL     1     -15.163   5.272  -0.133  1.00  0.00    -0.014 A 
ATOM     62  C   UNL     1     -16.306   5.862  -0.700  1.00  0.00     0.009 A 
ATOM     63  C   UNL     1     -13.957   5.419  -0.844  1.00  0.00     0.009 A 
ATOM     64  C   UNL     1     -16.253   6.505  -1.944  1.00  0.00     0.001 A 
ATOM     65  C   UNL     1     -13.891   6.096  -2.064  1.00  0.00     0.001 A 
ATOM     66  C   UNL     1     -15.047   6.615  -2.628  1.00  0.00     0.000 A 
ENDBRANCH  47  61
BRANCH  48  67
ATOM     67  C   UNL     1     -12.498  -2.394  -2.532  1.00  0.00    -0.014 A 
ATOM     68  C   UNL     1     -13.098  -2.805  -3.731  1.00  0.00     0.009 A 
ATOM     69  C   UNL     1     -11.093  -2.329  -2.490  1.00  0.00     0.009 A 
ATOM     70  C   UNL     1     -12.323  -3.093  -4.862  1.00  0.00     0.001 A 
ATOM     71  C   UNL     1     -10.318  -2.620  -3.618  1.00  0.00     0.001 A 
ATOM     72  C   UNL     1     -10.935  -2.984  -4.809  1.00  0.00     0.000 A 
ENDBRANCH  48  67
BRANCH  60  73
ATOM     73  C   UNL     1     -17.572  -0.976   0.853  1.00  0.00    -0.014 A 
ATOM     74  C   UNL     1     -16.745  -1.933   1.470  1.00  0.00     0.009 A 
ATOM     75  C   UNL     1     -18.958  -1.086   1.041  1.00  0.00     0.009 A 
ATOM     76  C   UNL     1     -17.290  -2.983   2.218  1.00  0.00     0.001 A 
ATOM     77  C   UNL     1     -19.502  -2.121   1.805  1.00  0.00     0.001 A 
ATOM     78  C   UNL     1     -18.669  -3.074   2.388  1.00  0.00     0.000 A 
ENDBRANCH  60  73
ENDBRANCH  34  35
ENDBRANCH  26  29
ENDBRANCH  24  25
ENDBRANCH  23  24
ENDBRANCH  22  23
ENDBRANCH   1  22
TORSDOF 17
