REMARK SMILES O=C(NCCCCNC(=O)c1ccc([C@@H]2CC(O)=Nc3c2ncn3-c2cccc(Cl)c2)cc1)c1ccc(-c2c3nc(c(-c4ccccc4)c4ccc([nH]4)c(-c4ccccc4)c4nc(c(-c5ccccc5)c5ccc2[nH]5)C=C4)C=C3)cc1
REMARK SMILES IDX 5 1 4 2 3 3 1 4 2 5 34 7 35 8 81 9 36 10 80 11 37 12 38 13
REMARK SMILES IDX 39 14 74 15 40 16 79 17 73 18 75 19 41 20 78 21 72 22 71 23
REMARK SMILES IDX 42 25 64 26 49 27 63 28 50 29 53 30 62 31 76 32 51 33 52 34
REMARK SMILES IDX 61 36 77 37 54 38 43 39 44 40 48 41 45 42 47 43 46 44 65 45
REMARK SMILES IDX 66 46 70 47 67 48 69 49 68 50 55 51 56 52 60 53 57 54 59 55
REMARK SMILES IDX 58 56 6 57 7 58 8 59 9 60 10 62 11 63 12 64 33 65 13 66
REMARK SMILES IDX 32 67 14 68 15 69 16 70 21 71 17 72 20 73 22 74 19 75 24 76
REMARK SMILES IDX 23 77 18 78 25 80 26 81 31 82 27 83 29 84 28 85 30 86
REMARK H PARENT 3 6 75 24 53 35 8 61 18 79
REMARK Flexibility Score: inf
ROOT
ATOM      1  C   UNL     1       4.952   0.771  -1.972  1.00  0.00     0.023 C 
ENDROOT
BRANCH   1   2
ATOM      2  C   UNL     1       4.672   0.923  -0.476  1.00  0.00     0.116 C 
BRANCH   2   3
ATOM      3  N   UNL     1       3.275   1.117  -0.143  1.00  0.00    -0.352 N 
ATOM      4  O   UNL     1       1.181   0.811   0.487  1.00  0.00    -0.269 OA
ATOM      5  C   UNL     1       2.211   0.282   0.061  1.00  0.00     0.251 C 
ATOM      6  H   UNL     1       3.038   2.066  -0.040  1.00  0.00     0.163 HD
BRANCH   5   7
ATOM      7  C   UNL     1       2.191  -1.178  -0.238  1.00  0.00     0.039 A 
ATOM      8  C   UNL     1       3.281  -1.938  -0.664  1.00  0.00     0.014 A 
ATOM      9  C   UNL     1       0.942  -1.817  -0.114  1.00  0.00     0.014 A 
ATOM     10  C   UNL     1       3.117  -3.267  -1.042  1.00  0.00     0.010 A 
ATOM     11  C   UNL     1       0.776  -3.154  -0.466  1.00  0.00     0.010 A 
ATOM     12  C   UNL     1       1.861  -3.869  -0.966  1.00  0.00    -0.014 A 
BRANCH  12  13
ATOM     13  C   UNL     1       1.760  -5.277  -1.339  1.00  0.00     0.031 A 
ATOM     14  C   UNL     1       2.486  -6.245  -0.467  1.00  0.00     0.074 A 
ATOM     15  C   UNL     1       0.954  -5.731  -2.317  1.00  0.00     0.049 A 
ATOM     16  N   UNL     1       3.376  -7.124  -0.801  1.00  0.00    -0.248 NA
ATOM     17  C   UNL     1       2.203  -6.196   0.976  1.00  0.00     0.031 C 
ATOM     18  C   UNL     1      -0.064  -4.985  -3.060  1.00  0.00     0.029 A 
ATOM     19  N   UNL     1       0.800  -7.010  -2.768  1.00  0.00    -0.354 N 
ATOM     20  C   UNL     1       3.663  -7.846   0.358  1.00  0.00     0.074 A 
ATOM     21  C   UNL     1       2.984  -7.173   1.437  1.00  0.00     0.031 C 
ATOM     22  C   UNL     1      -0.878  -5.862  -3.690  1.00  0.00     0.029 A 
ATOM     23  C   UNL     1      -0.358  -7.206  -3.502  1.00  0.00     0.049 A 
ATOM     24  H   UNL     1       1.451  -7.726  -2.587  1.00  0.00     0.167 HD
ATOM     25  C   UNL     1       4.292  -9.054   0.336  1.00  0.00     0.031 A 
ATOM     26  C   UNL     1      -0.895  -8.393  -3.869  1.00  0.00     0.031 A 
ATOM     27  C   UNL     1       4.996  -9.288  -0.894  1.00  0.00     0.049 A 
ATOM     28  C   UNL     1       0.152  -9.432  -3.769  1.00  0.00     0.074 A 
ATOM     29  C   UNL     1       6.029  -8.668  -1.568  1.00  0.00     0.029 A 
ATOM     30  N   UNL     1       4.444 -10.167  -1.792  1.00  0.00    -0.354 N 
ATOM     31  N   UNL     1       1.177  -9.510  -4.566  1.00  0.00    -0.248 NA
ATOM     32  C   UNL     1       0.260 -10.196  -2.537  1.00  0.00     0.031 C 
ATOM     33  C   UNL     1       5.729  -8.849  -2.950  1.00  0.00     0.029 A 
ATOM     34  C   UNL     1       4.546  -9.585  -3.026  1.00  0.00     0.049 A 
ATOM     35  H   UNL     1       4.050 -11.046  -1.587  1.00  0.00     0.167 HD
ATOM     36  C   UNL     1       2.211  -9.977  -3.769  1.00  0.00     0.074 A 
ATOM     37  C   UNL     1       1.559 -10.500  -2.573  1.00  0.00     0.031 C 
ATOM     38  C   UNL     1       3.509  -9.641  -4.031  1.00  0.00     0.031 A 
BRANCH  25  39
ATOM     39  C   UNL     1       3.969 -10.181   1.290  1.00  0.00    -0.014 A 
ATOM     40  C   UNL     1       4.707 -11.377   1.207  1.00  0.00     0.009 A 
ATOM     41  C   UNL     1       2.791 -10.220   2.059  1.00  0.00     0.009 A 
ATOM     42  C   UNL     1       4.246 -12.564   1.791  1.00  0.00     0.001 A 
ATOM     43  C   UNL     1       2.351 -11.392   2.682  1.00  0.00     0.001 A 
ATOM     44  C   UNL     1       3.063 -12.572   2.521  1.00  0.00     0.000 A 
ENDBRANCH  25  39
BRANCH  26  45
ATOM     45  C   UNL     1      -2.321  -8.727  -4.059  1.00  0.00    -0.014 A 
ATOM     46  C   UNL     1      -2.708  -9.856  -4.795  1.00  0.00     0.009 A 
ATOM     47  C   UNL     1      -3.307  -8.068  -3.300  1.00  0.00     0.009 A 
ATOM     48  C   UNL     1      -4.028 -10.322  -4.753  1.00  0.00     0.001 A 
ATOM     49  C   UNL     1      -4.625  -8.528  -3.263  1.00  0.00     0.001 A 
ATOM     50  C   UNL     1      -4.983  -9.664  -3.979  1.00  0.00     0.000 A 
ENDBRANCH  26  45
BRANCH  38  51
ATOM     51  C   UNL     1       3.818  -8.976  -5.348  1.00  0.00    -0.014 A 
ATOM     52  C   UNL     1       3.258  -7.741  -5.718  1.00  0.00     0.009 A 
ATOM     53  C   UNL     1       4.819  -9.525  -6.162  1.00  0.00     0.009 A 
ATOM     54  C   UNL     1       3.664  -7.092  -6.888  1.00  0.00     0.001 A 
ATOM     55  C   UNL     1       5.240  -8.866  -7.320  1.00  0.00     0.001 A 
ATOM     56  C   UNL     1       4.658  -7.653  -7.685  1.00  0.00     0.000 A 
ENDBRANCH  38  51
ENDBRANCH  12  13
ENDBRANCH   5   7
ENDBRANCH   2   3
ENDBRANCH   1   2
BRANCH   1  57
ATOM     57  C   UNL     1       4.457   1.918  -2.855  1.00  0.00     0.023 C 
BRANCH  57  58
ATOM     58  C   UNL     1       4.860   3.318  -2.407  1.00  0.00     0.116 C 
BRANCH  58  59
ATOM     59  N   UNL     1       6.301   3.490  -2.328  1.00  0.00    -0.352 N 
ATOM     60  C   UNL     1       7.096   4.446  -2.921  1.00  0.00     0.251 C 
ATOM     61  H   UNL     1       6.776   2.831  -1.772  1.00  0.00     0.163 HD
ATOM     62  O   UNL     1       8.307   4.380  -2.841  1.00  0.00    -0.269 OA
BRANCH  60  63
ATOM     63  C   UNL     1       6.459   5.538  -3.688  1.00  0.00     0.039 A 
ATOM     64  C   UNL     1       6.842   5.721  -5.016  1.00  0.00     0.014 A 
ATOM     65  C   UNL     1       5.484   6.355  -3.110  1.00  0.00     0.014 A 
ATOM     66  C   UNL     1       6.181   6.670  -5.796  1.00  0.00     0.005 A 
ATOM     67  C   UNL     1       4.820   7.299  -3.893  1.00  0.00     0.005 A 
ATOM     68  C   UNL     1       5.141   7.449  -5.255  1.00  0.00    -0.038 A 
BRANCH  68  69
ATOM     69  C   UNL     1       4.387   8.407  -6.163  1.00  0.00     0.081 C 
ATOM     70  C   UNL     1       4.412   9.866  -5.661  1.00  0.00     0.111 C 
ATOM     71  C   UNL     1       2.999   7.881  -6.252  1.00  0.00     0.093 A 
ATOM     72  C   UNL     1       3.072  10.415  -5.197  1.00  0.00     0.188 C 
ATOM     73  C   UNL     1       1.914   8.643  -5.882  1.00  0.00     0.164 A 
ATOM     74  N   UNL     1       2.628   6.617  -6.623  1.00  0.00    -0.238 NA
ATOM     75  N   UNL     1       1.901   9.882  -5.335  1.00  0.00    -0.198 NA
ATOM     76  N   UNL     1       0.818   7.814  -6.036  1.00  0.00    -0.283 N 
ATOM     77  C   UNL     1       1.324   6.593  -6.438  1.00  0.00     0.206 A 
BRANCH  72  78
ATOM     78  O   UNL     1       3.153  11.624  -4.607  1.00  0.00    -0.496 OA
ATOM     79  H   UNL     1       3.988  12.034  -4.493  1.00  0.00     0.294 HD
ENDBRANCH  72  78
BRANCH  76  80
ATOM     80  C   UNL     1      -0.544   8.133  -5.822  1.00  0.00     0.050 A 
ATOM     81  C   UNL     1      -1.407   7.187  -5.254  1.00  0.00     0.027 A 
ATOM     82  C   UNL     1      -1.022   9.398  -6.184  1.00  0.00     0.047 A 
ATOM     83  C   UNL     1      -2.741   7.526  -5.016  1.00  0.00     0.004 A 
ATOM     84  C   UNL     1      -2.366   9.705  -5.987  1.00  0.00     0.043 A 
ATOM     85  C   UNL     1      -3.223   8.782  -5.391  1.00  0.00     0.020 A 
ATOM     86  Cl  UNL     1      -2.979  11.229  -6.503  1.00  0.00    -0.084 Cl
ENDBRANCH  76  80
ENDBRANCH  68  69
ENDBRANCH  60  63
ENDBRANCH  58  59
ENDBRANCH  57  58
ENDBRANCH   1  57
TORSDOF 14
