REMARK SMILES CC(C)(O)C#Cc1ccc(C(=O)N[C@@H](CC2=c3ccccc3=NC2)C(=O)NCCCCNC(=O)c2ccc(-c3c4nc(c(-c5ccccc5)c5ccc([nH]5)c(-c5ccccc5)c5nc(c(-c6ccccc6)c6ccc3[nH]6)C=C5)C=C4)cc2)s1
REMARK SMILES IDX 28 1 27 2 25 3 26 4 14 6 13 7 11 8 12 9 10 11 7 12 8 13
REMARK SMILES IDX 83 14 9 15 6 16 5 17 2 18 1 19 3 20 4 21 15 23 16 24 17 25
REMARK SMILES IDX 24 26 18 27 22 28 23 29 19 30 21 31 20 32 29 33 30 34 31 35
REMARK SMILES IDX 32 36 33 37 34 39 35 40 36 41 82 42 37 43 81 44 38 45 39 46
REMARK SMILES IDX 40 47 75 48 41 49 80 50 74 51 76 52 42 53 79 54 73 55 72 56
REMARK SMILES IDX 43 58 65 59 50 60 64 61 51 62 54 63 63 64 77 65 52 66 53 67
REMARK SMILES IDX 62 69 78 70 55 71 44 72 45 73 49 74 46 75 48 76 47 77 66 78
REMARK SMILES IDX 67 79 71 80 68 81 70 82 69 83 56 84 57 85 61 86 58 87 60 88
REMARK SMILES IDX 59 89
REMARK H PARENT 27 5 13 10 4 22 32 38 76 57 54 68
REMARK Flexibility Score: inf
ROOT
ATOM      1  C   UNL     1      -2.139 -10.009   0.980  1.00  0.00     0.116 C 
ENDROOT
BRANCH   1   2
ATOM      2  N   UNL     1      -2.502  -8.725   1.516  1.00  0.00    -0.354 N 
ATOM      3  C   UNL     1      -1.908  -7.525   1.268  1.00  0.00     0.242 C 
ATOM      4  O   UNL     1      -2.618  -6.521   1.386  1.00  0.00    -0.273 OA
ATOM      5  H   UNL     1      -3.268  -8.712   2.134  1.00  0.00     0.163 HD
BRANCH   3   6
ATOM      6  C   UNL     1      -0.450  -7.400   0.765  1.00  0.00     0.175 C 
BRANCH   6   7
ATOM      7  N   UNL     1       0.517  -8.245   1.493  1.00  0.00    -0.339 N 
ATOM      8  C   UNL     1       1.714  -7.986   2.115  1.00  0.00     0.262 C 
ATOM      9  O   UNL     1       2.262  -8.946   2.658  1.00  0.00    -0.268 OA
ATOM     10  H   UNL     1       0.248  -9.190   1.544  1.00  0.00     0.164 HD
BRANCH   8  11
ATOM     11  C   UNL     1       2.223  -6.644   2.224  1.00  0.00     0.093 A 
ATOM     12  C   UNL     1       2.104  -4.261   2.158  1.00  0.00     0.078 A 
ATOM     13  C   UNL     1       2.817  -4.666   3.263  1.00  0.00     0.030 A 
ATOM     14  S   UNL     1       2.117  -5.483   0.976  1.00  0.00    -0.121 S 
ATOM     15  C   UNL     1       2.925  -6.091   3.284  1.00  0.00     0.027 A 
BRANCH  12  16
ATOM     16  C   UNL     1       1.492  -3.010   1.939  1.00  0.00    -0.053 C 
ATOM     17  C   UNL     1       1.057  -1.816   1.644  1.00  0.00    -0.063 C 
BRANCH  17  18
ATOM     18  C   UNL     1       0.550  -0.425   1.300  1.00  0.00     0.120 C 
ATOM     19  C   UNL     1       1.029  -0.032  -0.096  1.00  0.00     0.056 C 
ATOM     20  C   UNL     1       1.027   0.573   2.352  1.00  0.00     0.056 C 
BRANCH  18  21
ATOM     21  O   UNL     1      -0.873  -0.460   1.307  1.00  0.00    -0.378 OA
ATOM     22  H   UNL     1      -1.219   0.419   1.089  1.00  0.00     0.212 HD
ENDBRANCH  18  21
ENDBRANCH  17  18
ENDBRANCH  12  16
ENDBRANCH   8  11
ENDBRANCH   6   7
BRANCH   6  23
ATOM     23  C   UNL     1      -0.291  -7.466  -0.786  1.00  0.00     0.068 C 
BRANCH  23  24
ATOM     24  C   UNL     1      -0.495  -8.789  -1.471  1.00  0.00    -0.037 C 
ATOM     25  C   UNL     1       0.202  -9.919  -1.351  1.00  0.00     0.001 A 
ATOM     26  C   UNL     1      -1.686  -9.009  -2.360  1.00  0.00     0.174 C 
ATOM     27  C   UNL     1       1.379 -10.311  -0.644  1.00  0.00     0.010 A 
ATOM     28  C   UNL     1      -0.711 -10.918  -1.941  1.00  0.00     0.065 A 
ATOM     29  N   UNL     1      -1.786 -10.480  -2.524  1.00  0.00    -0.280 NA
ATOM     30  C   UNL     1       1.599 -11.617  -0.425  1.00  0.00     0.001 A 
ATOM     31  C   UNL     1      -0.385 -12.339  -1.683  1.00  0.00     0.028 A 
ATOM     32  C   UNL     1       0.690 -12.632  -0.930  1.00  0.00     0.002 A 
ENDBRANCH  23  24
ENDBRANCH   6  23
ENDBRANCH   3   6
ENDBRANCH   1   2
BRANCH   1  33
ATOM     33  C   UNL     1      -2.544 -11.188   1.828  1.00  0.00     0.023 C 
BRANCH  33  34
ATOM     34  C   UNL     1      -4.046 -11.429   1.868  1.00  0.00     0.023 C 
BRANCH  34  35
ATOM     35  C   UNL     1      -4.763 -11.385   0.508  1.00  0.00     0.116 C 
BRANCH  35  36
ATOM     36  N   UNL     1      -4.193 -12.222  -0.533  1.00  0.00    -0.352 N 
ATOM     37  C   UNL     1      -4.292 -13.552  -0.843  1.00  0.00     0.251 C 
ATOM     38  H   UNL     1      -3.608 -11.725  -1.150  1.00  0.00     0.163 HD
ATOM     39  O   UNL     1      -3.794 -13.922  -1.908  1.00  0.00    -0.269 OA
BRANCH  37  40
ATOM     40  C   UNL     1      -4.871 -14.581   0.061  1.00  0.00     0.039 A 
ATOM     41  C   UNL     1      -5.528 -14.312   1.258  1.00  0.00     0.014 A 
ATOM     42  C   UNL     1      -4.652 -15.924  -0.294  1.00  0.00     0.014 A 
ATOM     43  C   UNL     1      -5.778 -15.322   2.170  1.00  0.00     0.010 A 
ATOM     44  C   UNL     1      -4.970 -16.953   0.584  1.00  0.00     0.010 A 
ATOM     45  C   UNL     1      -5.463 -16.639   1.848  1.00  0.00    -0.014 A 
BRANCH  45  46
ATOM     46  C   UNL     1      -5.760 -17.647   2.857  1.00  0.00     0.031 A 
ATOM     47  C   UNL     1      -7.191 -17.743   3.275  1.00  0.00     0.074 A 
ATOM     48  C   UNL     1      -4.832 -18.510   3.312  1.00  0.00     0.049 A 
ATOM     49  N   UNL     1      -7.691 -17.738   4.470  1.00  0.00    -0.248 NA
ATOM     50  C   UNL     1      -8.202 -17.774   2.204  1.00  0.00     0.031 C 
ATOM     51  C   UNL     1      -3.482 -18.737   2.792  1.00  0.00     0.029 A 
ATOM     52  N   UNL     1      -4.972 -19.485   4.252  1.00  0.00    -0.354 N 
ATOM     53  C   UNL     1      -9.068 -17.897   4.315  1.00  0.00     0.074 A 
ATOM     54  C   UNL     1      -9.335 -17.816   2.902  1.00  0.00     0.031 C 
ATOM     55  C   UNL     1      -3.053 -19.947   3.212  1.00  0.00     0.029 A 
ATOM     56  C   UNL     1      -4.036 -20.501   4.128  1.00  0.00     0.049 A 
ATOM     57  H   UNL     1      -5.667 -19.471   4.949  1.00  0.00     0.167 HD
ATOM     58  C   UNL     1      -9.897 -18.238   5.340  1.00  0.00     0.031 A 
ATOM     59  C   UNL     1      -4.145 -21.753   4.632  1.00  0.00     0.031 A 
ATOM     60  C   UNL     1      -9.321 -17.966   6.626  1.00  0.00     0.049 A 
ATOM     61  C   UNL     1      -5.164 -21.729   5.708  1.00  0.00     0.074 A 
ATOM     62  C   UNL     1      -8.886 -16.821   7.262  1.00  0.00     0.029 A 
ATOM     63  N   UNL     1      -8.803 -19.013   7.348  1.00  0.00    -0.354 N 
ATOM     64  N   UNL     1      -5.010 -21.112   6.845  1.00  0.00    -0.248 NA
ATOM     65  C   UNL     1      -6.539 -22.045   5.350  1.00  0.00     0.031 C 
ATOM     66  C   UNL     1      -7.735 -17.226   7.994  1.00  0.00     0.029 A 
ATOM     67  C   UNL     1      -7.576 -18.600   7.800  1.00  0.00     0.049 A 
ATOM     68  H   UNL     1      -9.228 -19.887   7.510  1.00  0.00     0.167 HD
ATOM     69  C   UNL     1      -6.262 -20.591   7.139  1.00  0.00     0.074 A 
ATOM     70  C   UNL     1      -7.181 -21.280   6.235  1.00  0.00     0.031 C 
ATOM     71  C   UNL     1      -6.411 -19.453   7.881  1.00  0.00     0.031 A 
BRANCH  58  72
ATOM     72  C   UNL     1     -11.124 -19.094   5.167  1.00  0.00    -0.014 A 
ATOM     73  C   UNL     1     -11.341 -19.892   4.026  1.00  0.00     0.009 A 
ATOM     74  C   UNL     1     -11.968 -19.324   6.268  1.00  0.00     0.009 A 
ATOM     75  C   UNL     1     -12.340 -20.867   3.981  1.00  0.00     0.001 A 
ATOM     76  C   UNL     1     -12.942 -20.331   6.242  1.00  0.00     0.001 A 
ATOM     77  C   UNL     1     -13.126 -21.103   5.099  1.00  0.00     0.000 A 
ENDBRANCH  58  72
BRANCH  59  78
ATOM     78  C   UNL     1      -3.739 -23.007   3.954  1.00  0.00    -0.014 A 
ATOM     79  C   UNL     1      -3.662 -23.070   2.549  1.00  0.00     0.009 A 
ATOM     80  C   UNL     1      -3.684 -24.215   4.663  1.00  0.00     0.009 A 
ATOM     81  C   UNL     1      -3.560 -24.290   1.876  1.00  0.00     0.001 A 
ATOM     82  C   UNL     1      -3.592 -25.440   3.988  1.00  0.00     0.001 A 
ATOM     83  C   UNL     1      -3.541 -25.477   2.596  1.00  0.00     0.000 A 
ENDBRANCH  59  78
BRANCH  71  84
ATOM     84  C   UNL     1      -5.205 -18.858   8.572  1.00  0.00    -0.014 A 
ATOM     85  C   UNL     1      -5.337 -18.445   9.908  1.00  0.00     0.009 A 
ATOM     86  C   UNL     1      -4.029 -18.506   7.885  1.00  0.00     0.009 A 
ATOM     87  C   UNL     1      -4.340 -17.691  10.532  1.00  0.00     0.001 A 
ATOM     88  C   UNL     1      -3.018 -17.776   8.519  1.00  0.00     0.001 A 
ATOM     89  C   UNL     1      -3.179 -17.358   9.838  1.00  0.00     0.000 A 
ENDBRANCH  71  84
ENDBRANCH  45  46
ENDBRANCH  37  40
ENDBRANCH  35  36
ENDBRANCH  34  35
ENDBRANCH  33  34
ENDBRANCH   1  33
TORSDOF 18
