REMARK SMILES COc1ccc(/C=C2\SC(=S)[NH+]=C2NCCCCNC(=O)c2ccc(-c3c4nc(c(-c5ccccc5)c5ccc([nH]5)c(-c5ccccc5)c5nc(c(-c6ccccc6)c6ccc3[nH]6)C=C5)C=C4)cc2)c(C(=O)[O-])c1OC
REMARK SMILES IDX 17 1 16 2 15 3 14 4 7 5 8 6 9 7 13 8 10 9 12 10 11 11 6 14
REMARK SMILES IDX 3 15 4 16 74 17 5 18 70 19 2 20 1 21 75 22 76 23 71 24 72 25
REMARK SMILES IDX 73 26 18 27 19 28 20 29 21 31 22 32 23 33 69 34 24 35 68 36
REMARK SMILES IDX 25 37 26 38 27 39 62 40 28 41 67 42 61 43 63 44 29 45 66 46
REMARK SMILES IDX 60 47 59 48 30 50 52 51 37 52 51 53 38 54 41 55 50 56 64 57
REMARK SMILES IDX 39 58 40 59 49 61 65 62 42 63 31 64 32 65 36 66 33 67 35 68
REMARK SMILES IDX 34 69 53 70 54 71 58 72 55 73 57 74 56 75 43 76 44 77 48 78
REMARK SMILES IDX 45 79 47 80 46 81
REMARK H PARENT 12 12 14 13 19 30 63 49 41 60
REMARK Flexibility Score: inf
ROOT
ATOM      1  C   UNL     1       3.084  -2.617 -10.780  1.00  0.00     0.025 C 
ENDROOT
BRANCH   1   2
ATOM      2  C   UNL     1       1.895  -3.576 -10.842  1.00  0.00     0.048 C 
BRANCH   2   3
ATOM      3  C   UNL     1       1.952  -4.733  -9.847  1.00  0.00     0.234 C 
BRANCH   3   4
ATOM      4  N   UNL     1       1.815  -4.254  -8.476  1.00  0.00    -0.273 N 
ATOM      5  C   UNL     1       1.410  -3.354  -5.527  1.00  0.00     0.033 C 
ATOM      6  C   UNL     1       0.534  -4.089  -6.245  1.00  0.00     0.106 C 
ATOM      7  S   UNL     1      -0.996  -4.722  -5.742  1.00  0.00    -0.027 SA
ATOM      8  C   UNL     1       0.733  -4.557  -7.680  1.00  0.00     0.288 C 
ATOM      9  C   UNL     1      -1.224  -5.557  -7.271  1.00  0.00     0.230 C 
ATOM     10  N   UNL     1      -0.222  -5.311  -8.171  1.00  0.00    -0.225 N 
ATOM     11  S   UNL     1      -2.532  -6.562  -7.543  1.00  0.00    -0.026 S 
ATOM     12  H   UNL     1      -0.218  -5.662  -9.091  1.00  0.00     0.314 HD
ATOM     13  H   UNL     1       2.529  -3.688  -8.103  1.00  0.00     0.305 HD
BRANCH   5  14
ATOM     14  C   UNL     1       1.367  -2.837  -4.112  1.00  0.00    -0.011 A 
ATOM     15  C   UNL     1       1.165  -1.809  -1.451  1.00  0.00     0.161 A 
ATOM     16  C   UNL     1       0.028  -2.178  -2.159  1.00  0.00     0.051 A 
ATOM     17  C   UNL     1       2.430  -1.955  -2.034  1.00  0.00     0.170 A 
ATOM     18  C   UNL     1       0.132  -2.655  -3.467  1.00  0.00     0.013 A 
ATOM     19  C   UNL     1       2.528  -2.447  -3.373  1.00  0.00     0.050 A 
BRANCH  15  20
ATOM     20  O   UNL     1       1.013  -1.402  -0.152  1.00  0.00    -0.493 OA
ATOM     21  C   UNL     1       0.332  -0.147  -0.062  1.00  0.00     0.278 C 
ENDBRANCH  15  20
BRANCH  17  22
ATOM     22  O   UNL     1       3.608  -1.746  -1.352  1.00  0.00    -0.492 OA
ATOM     23  C   UNL     1       3.633  -0.718  -0.368  1.00  0.00     0.278 C 
ENDBRANCH  17  22
BRANCH  19  24
ATOM     24  C   UNL     1       3.883  -2.571  -3.981  1.00  0.00     0.076 C 
ATOM     25  O   UNL     1       4.273  -3.469  -4.711  1.00  0.00    -0.545 OA
ATOM     26  O   UNL     1       4.673  -1.513  -3.720  1.00  0.00    -0.545 OA
ENDBRANCH  19  24
ENDBRANCH   5  14
ENDBRANCH   3   4
ENDBRANCH   2   3
ENDBRANCH   1   2
BRANCH   1  27
ATOM     27  C   UNL     1       4.451  -3.263 -10.981  1.00  0.00     0.116 C 
BRANCH  27  28
ATOM     28  N   UNL     1       4.617  -3.858 -12.298  1.00  0.00    -0.352 N 
ATOM     29  C   UNL     1       5.664  -3.736 -13.181  1.00  0.00     0.251 C 
ATOM     30  H   UNL     1       3.874  -4.429 -12.600  1.00  0.00     0.163 HD
ATOM     31  O   UNL     1       5.574  -4.208 -14.310  1.00  0.00    -0.269 OA
BRANCH  29  32
ATOM     32  C   UNL     1       6.888  -3.004 -12.786  1.00  0.00     0.039 A 
ATOM     33  C   UNL     1       7.456  -2.104 -13.692  1.00  0.00     0.014 A 
ATOM     34  C   UNL     1       7.472  -3.192 -11.531  1.00  0.00     0.014 A 
ATOM     35  C   UNL     1       8.565  -1.344 -13.313  1.00  0.00     0.010 A 
ATOM     36  C   UNL     1       8.524  -2.373 -11.125  1.00  0.00     0.010 A 
ATOM     37  C   UNL     1       9.084  -1.442 -12.012  1.00  0.00    -0.014 A 
BRANCH  37  38
ATOM     38  C   UNL     1      10.205  -0.575 -11.563  1.00  0.00     0.031 A 
ATOM     39  C   UNL     1      11.518  -1.181 -11.146  1.00  0.00     0.074 A 
ATOM     40  C   UNL     1      10.025   0.759 -11.477  1.00  0.00     0.049 A 
ATOM     41  N   UNL     1      12.593  -0.588 -10.690  1.00  0.00    -0.248 NA
ATOM     42  C   UNL     1      11.631  -2.646 -11.230  1.00  0.00     0.031 C 
ATOM     43  C   UNL     1       8.791   1.472 -11.812  1.00  0.00     0.029 A 
ATOM     44  N   UNL     1      10.884   1.753 -11.077  1.00  0.00    -0.354 N 
ATOM     45  C   UNL     1      13.500  -1.605 -10.420  1.00  0.00     0.074 A 
ATOM     46  C   UNL     1      12.832  -2.854 -10.710  1.00  0.00     0.031 C 
ATOM     47  C   UNL     1       8.982   2.789 -11.635  1.00  0.00     0.029 A 
ATOM     48  C   UNL     1      10.333   3.011 -11.131  1.00  0.00     0.049 A 
ATOM     49  H   UNL     1      11.806   1.581 -10.780  1.00  0.00     0.167 HD
ATOM     50  C   UNL     1      14.780  -1.510  -9.989  1.00  0.00     0.031 A 
ATOM     51  C   UNL     1      10.853   4.210 -10.805  1.00  0.00     0.031 A 
ATOM     52  C   UNL     1      15.449  -0.268  -9.702  1.00  0.00     0.049 A 
ATOM     53  C   UNL     1      12.269   4.287 -10.304  1.00  0.00     0.074 A 
ATOM     54  C   UNL     1      16.761  -0.067  -9.312  1.00  0.00     0.029 A 
ATOM     55  N   UNL     1      14.855   0.983  -9.768  1.00  0.00    -0.354 N 
ATOM     56  N   UNL     1      13.136   3.320 -10.123  1.00  0.00    -0.248 NA
ATOM     57  C   UNL     1      12.782   5.625  -9.976  1.00  0.00     0.031 C 
ATOM     58  C   UNL     1      16.943   1.300  -9.078  1.00  0.00     0.029 A 
ATOM     59  C   UNL     1      15.766   1.958  -9.395  1.00  0.00     0.049 A 
ATOM     60  H   UNL     1      13.924   1.153 -10.039  1.00  0.00     0.167 HD
ATOM     61  C   UNL     1      14.305   3.935  -9.692  1.00  0.00     0.074 A 
ATOM     62  C   UNL     1      14.040   5.359  -9.656  1.00  0.00     0.031 C 
ATOM     63  C   UNL     1      15.491   3.371  -9.359  1.00  0.00     0.031 A 
BRANCH  50  64
ATOM     64  C   UNL     1      15.543  -2.792  -9.787  1.00  0.00    -0.014 A 
ATOM     65  C   UNL     1      15.917  -3.599 -10.873  1.00  0.00     0.009 A 
ATOM     66  C   UNL     1      15.927  -3.179  -8.493  1.00  0.00     0.009 A 
ATOM     67  C   UNL     1      16.625  -4.785 -10.665  1.00  0.00     0.001 A 
ATOM     68  C   UNL     1      16.664  -4.347  -8.290  1.00  0.00     0.001 A 
ATOM     69  C   UNL     1      17.003  -5.154  -9.375  1.00  0.00     0.000 A 
ENDBRANCH  50  64
BRANCH  51  70
ATOM     70  C   UNL     1      10.033   5.443 -10.947  1.00  0.00    -0.014 A 
ATOM     71  C   UNL     1      10.351   6.406 -11.918  1.00  0.00     0.009 A 
ATOM     72  C   UNL     1       8.934   5.671 -10.104  1.00  0.00     0.009 A 
ATOM     73  C   UNL     1       9.606   7.584 -12.019  1.00  0.00     0.001 A 
ATOM     74  C   UNL     1       8.171   6.834 -10.229  1.00  0.00     0.001 A 
ATOM     75  C   UNL     1       8.514   7.794 -11.178  1.00  0.00     0.000 A 
ENDBRANCH  51  70
BRANCH  63  76
ATOM     76  C   UNL     1      16.610   4.298  -8.966  1.00  0.00    -0.014 A 
ATOM     77  C   UNL     1      16.584   5.010  -7.757  1.00  0.00     0.009 A 
ATOM     78  C   UNL     1      17.725   4.431  -9.808  1.00  0.00     0.009 A 
ATOM     79  C   UNL     1      17.634   5.868  -7.420  1.00  0.00     0.001 A 
ATOM     80  C   UNL     1      18.789   5.261  -9.452  1.00  0.00     0.001 A 
ATOM     81  C   UNL     1      18.737   5.988  -8.264  1.00  0.00     0.000 A 
ENDBRANCH  63  76
ENDBRANCH  37  38
ENDBRANCH  29  32
ENDBRANCH  27  28
ENDBRANCH   1  27
TORSDOF 14
