REMARK SMILES CC(C)c1ccc(NC(=O)c2nccnc2C(=O)NCCCCNC(=O)c2ccc(-c3c4nc(c(-c5ccccc5)c5ccc([nH]5)c(-c5ccccc5)c5nc(c(-c6ccccc6)c6ccc3[nH]6)C=C5)C=C4)cc2)cc1
REMARK SMILES IDX 21 1 20 2 19 3 17 4 18 5 16 7 11 8 12 9 13 10 15 11 14 12
REMARK SMILES IDX 9 13 8 14 10 16 7 17 4 18 5 19 76 20 6 21 75 22 2 23 1 24
REMARK SMILES IDX 3 25 22 26 23 27 24 28 25 29 26 31 27 32 28 33 74 34 29 35
REMARK SMILES IDX 73 36 30 37 31 38 32 39 67 40 33 41 72 42 66 43 68 44 34 45
REMARK SMILES IDX 71 46 65 47 64 48 35 50 57 51 42 52 56 53 43 54 46 55 55 56
REMARK SMILES IDX 69 57 44 58 45 59 54 61 70 62 47 63 36 64 37 65 41 66 38 67
REMARK SMILES IDX 40 68 39 69 58 70 59 71 63 72 60 73 62 74 61 75 48 76 49 77
REMARK SMILES IDX 53 78 50 79 52 80 51 81
REMARK H PARENT 19 6 8 15 24 30 68 49 46 60
REMARK Flexibility Score: inf
ROOT
ATOM      1  C   UNL     1      -6.766   0.318   4.002  1.00  0.00     0.023 C 
ENDROOT
BRANCH   1   2
ATOM      2  C   UNL     1      -6.547   1.419   2.973  1.00  0.00     0.116 C 
BRANCH   2   3
ATOM      3  N   UNL     1      -7.241   2.659   3.228  1.00  0.00    -0.351 N 
ATOM      4  C   UNL     1      -7.056   3.931   2.731  1.00  0.00     0.272 C 
ATOM      5  O   UNL     1      -7.886   4.775   3.084  1.00  0.00    -0.267 OA
ATOM      6  H   UNL     1      -7.979   2.582   3.875  1.00  0.00     0.163 HD
BRANCH   4   7
ATOM      7  C   UNL     1      -5.907   4.383   1.885  1.00  0.00     0.159 A 
ATOM      8  C   UNL     1      -5.433   3.792   0.724  1.00  0.00     0.159 A 
ATOM      9  N   UNL     1      -4.468   4.368  -0.069  1.00  0.00    -0.247 NA
ATOM     10  C   UNL     1      -3.978   5.550   0.357  1.00  0.00     0.132 A 
ATOM     11  N   UNL     1      -5.365   5.574   2.309  1.00  0.00    -0.247 NA
ATOM     12  C   UNL     1      -4.409   6.134   1.530  1.00  0.00     0.132 A 
BRANCH   8  13
ATOM     13  C   UNL     1      -5.882   2.479   0.251  1.00  0.00     0.276 C 
ATOM     14  N   UNL     1      -5.018   1.395   0.219  1.00  0.00    -0.321 N 
ATOM     15  H   UNL     1      -5.413   0.590  -0.187  1.00  0.00     0.170 HD
ATOM     16  O   UNL     1      -7.049   2.345  -0.113  1.00  0.00    -0.267 OA
BRANCH  14  17
ATOM     17  C   UNL     1      -3.684   1.210   0.651  1.00  0.00     0.041 A 
ATOM     18  C   UNL     1      -0.903   0.787   1.094  1.00  0.00    -0.045 A 
ATOM     19  C   UNL     1      -1.549   1.934   1.564  1.00  0.00     0.006 A 
ATOM     20  C   UNL     1      -1.719  -0.225   0.568  1.00  0.00     0.006 A 
ATOM     21  C   UNL     1      -2.920   2.134   1.357  1.00  0.00     0.026 A 
ATOM     22  C   UNL     1      -3.085  -0.011   0.337  1.00  0.00     0.026 A 
BRANCH  18  23
ATOM     23  C   UNL     1       0.617   0.644   1.153  1.00  0.00     0.013 C 
ATOM     24  C   UNL     1       1.173  -0.171  -0.029  1.00  0.00     0.012 C 
ATOM     25  C   UNL     1       1.360   1.993   1.164  1.00  0.00     0.012 C 
ENDBRANCH  18  23
ENDBRANCH  14  17
ENDBRANCH   8  13
ENDBRANCH   4   7
ENDBRANCH   2   3
ENDBRANCH   1   2
BRANCH   1  26
ATOM     26  C   UNL     1      -8.218  -0.080   4.281  1.00  0.00     0.023 C 
BRANCH  26  27
ATOM     27  C   UNL     1      -9.155  -0.202   3.081  1.00  0.00     0.116 C 
BRANCH  27  28
ATOM     28  N   UNL     1      -8.770  -1.227   2.122  1.00  0.00    -0.352 N 
ATOM     29  C   UNL     1      -9.385  -2.403   1.760  1.00  0.00     0.251 C 
ATOM     30  H   UNL     1      -7.924  -1.048   1.651  1.00  0.00     0.163 HD
ATOM     31  O   UNL     1      -8.832  -3.156   0.961  1.00  0.00    -0.269 OA
BRANCH  29  32
ATOM     32  C   UNL     1     -10.678  -2.802   2.361  1.00  0.00     0.039 A 
ATOM     33  C   UNL     1     -10.830  -4.118   2.812  1.00  0.00     0.014 A 
ATOM     34  C   UNL     1     -11.734  -1.900   2.495  1.00  0.00     0.014 A 
ATOM     35  C   UNL     1     -11.989  -4.491   3.498  1.00  0.00     0.010 A 
ATOM     36  C   UNL     1     -12.850  -2.246   3.255  1.00  0.00     0.010 A 
ATOM     37  C   UNL     1     -12.982  -3.540   3.781  1.00  0.00    -0.014 A 
BRANCH  37  38
ATOM     38  C   UNL     1     -14.144  -3.865   4.652  1.00  0.00     0.031 A 
ATOM     39  C   UNL     1     -15.548  -3.772   4.120  1.00  0.00     0.074 A 
ATOM     40  C   UNL     1     -13.941  -4.156   5.953  1.00  0.00     0.049 A 
ATOM     41  N   UNL     1     -16.683  -3.917   4.758  1.00  0.00    -0.248 NA
ATOM     42  C   UNL     1     -15.697  -3.446   2.693  1.00  0.00     0.031 C 
ATOM     43  C   UNL     1     -12.636  -4.230   6.615  1.00  0.00     0.029 A 
ATOM     44  N   UNL     1     -14.836  -4.433   6.957  1.00  0.00    -0.354 N 
ATOM     45  C   UNL     1     -17.677  -3.669   3.819  1.00  0.00     0.074 A 
ATOM     46  C   UNL     1     -17.012  -3.328   2.580  1.00  0.00     0.031 C 
ATOM     47  C   UNL     1     -12.814  -4.559   7.905  1.00  0.00     0.029 A 
ATOM     48  C   UNL     1     -14.243  -4.679   8.172  1.00  0.00     0.049 A 
ATOM     49  H   UNL     1     -15.810  -4.453   6.819  1.00  0.00     0.167 HD
ATOM     50  C   UNL     1     -19.022  -3.735   3.967  1.00  0.00     0.031 A 
ATOM     51  C   UNL     1     -14.786  -4.964   9.371  1.00  0.00     0.031 A 
ATOM     52  C   UNL     1     -19.690  -4.100   5.187  1.00  0.00     0.049 A 
ATOM     53  C   UNL     1     -16.280  -5.050   9.504  1.00  0.00     0.074 A 
ATOM     54  C   UNL     1     -21.047  -4.255   5.414  1.00  0.00     0.029 A 
ATOM     55  N   UNL     1     -19.049  -4.373   6.385  1.00  0.00    -0.354 N 
ATOM     56  N   UNL     1     -17.202  -4.870   8.591  1.00  0.00    -0.248 NA
ATOM     57  C   UNL     1     -16.806  -5.388  10.835  1.00  0.00     0.031 C 
ATOM     58  C   UNL     1     -21.230  -4.591   6.760  1.00  0.00     0.029 A 
ATOM     59  C   UNL     1     -19.984  -4.685   7.358  1.00  0.00     0.049 A 
ATOM     60  H   UNL     1     -18.075  -4.349   6.524  1.00  0.00     0.167 HD
ATOM     61  C   UNL     1     -18.414  -5.099   9.228  1.00  0.00     0.074 A 
ATOM     62  C   UNL     1     -18.110  -5.442  10.602  1.00  0.00     0.031 C 
ATOM     63  C   UNL     1     -19.667  -5.030   8.719  1.00  0.00     0.031 A 
BRANCH  50  64
ATOM     64  C   UNL     1     -19.863  -3.401   2.768  1.00  0.00    -0.014 A 
ATOM     65  C   UNL     1     -19.942  -4.276   1.673  1.00  0.00     0.009 A 
ATOM     66  C   UNL     1     -20.608  -2.212   2.744  1.00  0.00     0.009 A 
ATOM     67  C   UNL     1     -20.721  -3.949   0.562  1.00  0.00     0.001 A 
ATOM     68  C   UNL     1     -21.407  -1.900   1.643  1.00  0.00     0.001 A 
ATOM     69  C   UNL     1     -21.455  -2.763   0.549  1.00  0.00     0.000 A 
ENDBRANCH  50  64
BRANCH  51  70
ATOM     70  C   UNL     1     -13.911  -5.213  10.545  1.00  0.00    -0.014 A 
ATOM     71  C   UNL     1     -13.755  -6.514  11.046  1.00  0.00     0.009 A 
ATOM     72  C   UNL     1     -13.239  -4.155  11.176  1.00  0.00     0.009 A 
ATOM     73  C   UNL     1     -12.964  -6.748  12.172  1.00  0.00     0.001 A 
ATOM     74  C   UNL     1     -12.429  -4.396  12.288  1.00  0.00     0.001 A 
ATOM     75  C   UNL     1     -12.299  -5.691  12.790  1.00  0.00     0.000 A 
ENDBRANCH  51  70
BRANCH  63  76
ATOM     76  C   UNL     1     -20.801  -5.371   9.641  1.00  0.00    -0.014 A 
ATOM     77  C   UNL     1     -21.219  -4.479  10.640  1.00  0.00     0.009 A 
ATOM     78  C   UNL     1     -21.483  -6.587   9.482  1.00  0.00     0.009 A 
ATOM     79  C   UNL     1     -22.281  -4.812  11.482  1.00  0.00     0.001 A 
ATOM     80  C   UNL     1     -22.560  -6.907  10.310  1.00  0.00     0.001 A 
ATOM     81  C   UNL     1     -22.953  -6.023  11.314  1.00  0.00     0.000 A 
ENDBRANCH  63  76
ENDBRANCH  37  38
ENDBRANCH  29  32
ENDBRANCH  27  28
ENDBRANCH  26  27
ENDBRANCH   1  26
TORSDOF 14
