REMARK SMILES COC(=O)c1ccc([C@H]2CC(=O)Nc3c(C(=O)NCCCCNC(=O)c4ccc(-c5c6nc(c(-c7ccccc7)c7ccc([nH]7)c(-c7ccccc7)c7nc(c(-c8ccccc8)c8ccc5[nH]8)C=C7)C=C6)cc4)cn(-c4ccccc4)c32)cc1
REMARK SMILES IDX 20 1 19 2 18 3 16 4 17 5 15 7 9 8 10 9 82 10 11 11 14 12
REMARK SMILES IDX 75 13 12 14 13 15 74 16 8 18 5 19 6 20 84 21 7 22 83 23 3 24
REMARK SMILES IDX 4 25 2 26 1 27 76 28 77 29 81 30 78 31 80 32 79 33 21 34
REMARK SMILES IDX 22 35 23 36 24 37 25 39 26 40 27 41 73 42 28 43 72 44 29 45
REMARK SMILES IDX 30 46 31 47 66 48 32 49 71 50 65 51 67 52 33 53 70 54 64 55
REMARK SMILES IDX 63 56 34 58 56 59 41 60 55 61 42 62 45 63 54 64 68 65 43 66
REMARK SMILES IDX 44 67 53 69 69 70 46 71 35 72 36 73 40 74 37 75 39 76 38 77
REMARK SMILES IDX 57 78 58 79 62 80 59 81 61 82 60 83 47 84 48 85 52 86 49 87
REMARK SMILES IDX 51 88 50 89
REMARK H PARENT 18 6 13 17 23 38 67 57 45 68
REMARK Flexibility Score: inf
ROOT
ATOM      1  C   UNL     1      -6.625   3.497   8.158  1.00  0.00     0.023 C 
ENDROOT
BRANCH   1   2
ATOM      2  C   UNL     1      -6.311   4.248   6.856  1.00  0.00     0.116 C 
BRANCH   2   3
ATOM      3  N   UNL     1      -5.546   5.446   7.088  1.00  0.00    -0.352 N 
ATOM      4  C   UNL     1      -4.213   5.720   7.236  1.00  0.00     0.254 C 
ATOM      5  O   UNL     1      -3.963   6.927   7.343  1.00  0.00    -0.269 OA
ATOM      6  H   UNL     1      -6.109   6.251   7.157  1.00  0.00     0.163 HD
BRANCH   4   7
ATOM      7  C   UNL     1      -3.117   4.736   7.285  1.00  0.00     0.081 A 
ATOM      8  C   UNL     1      -1.048   1.636   7.725  1.00  0.00     0.078 C 
ATOM      9  C   UNL     1      -2.174   0.631   8.003  1.00  0.00     0.115 C 
ATOM     10  C   UNL     1      -1.607   3.018   7.475  1.00  0.00     0.055 A 
ATOM     11  C   UNL     1      -3.489   0.954   7.352  1.00  0.00     0.225 C 
ATOM     12  C   UNL     1      -2.949   3.315   7.315  1.00  0.00     0.076 A 
ATOM     13  N   UNL     1      -0.893   4.195   7.352  1.00  0.00    -0.317 N 
ATOM     14  O   UNL     1      -4.306   0.079   7.066  1.00  0.00    -0.275 OA
ATOM     15  N   UNL     1      -3.826   2.266   7.210  1.00  0.00    -0.324 N 
ATOM     16  C   UNL     1      -1.807   5.220   7.364  1.00  0.00     0.107 A 
ATOM     17  H   UNL     1      -4.769   2.477   7.018  1.00  0.00     0.170 HD
BRANCH   8  18
ATOM     18  C   UNL     1      -0.046   1.496   8.876  1.00  0.00    -0.038 A 
ATOM     19  C   UNL     1       1.901   1.184  10.897  1.00  0.00     0.060 A 
ATOM     20  C   UNL     1       1.705   0.178   9.945  1.00  0.00     0.016 A 
ATOM     21  C   UNL     1       1.082   2.316  10.875  1.00  0.00     0.016 A 
ATOM     22  C   UNL     1       0.751   0.339   8.938  1.00  0.00     0.005 A 
ATOM     23  C   UNL     1       0.092   2.447   9.899  1.00  0.00     0.005 A 
BRANCH  19  24
ATOM     24  C   UNL     1       3.003   1.018  11.879  1.00  0.00     0.337 C 
ATOM     25  O   UNL     1       3.829   0.124  11.820  1.00  0.00    -0.246 OA
BRANCH  24  26
ATOM     26  O   UNL     1       2.955   1.998  12.816  1.00  0.00    -0.465 OA
ATOM     27  C   UNL     1       4.016   1.941  13.769  1.00  0.00     0.282 C 
ENDBRANCH  24  26
ENDBRANCH  19  24
ENDBRANCH   8  18
BRANCH  13  28
ATOM     28  C   UNL     1       0.516   4.356   7.351  1.00  0.00     0.045 A 
ATOM     29  C   UNL     1       1.321   3.505   6.587  1.00  0.00     0.026 A 
ATOM     30  C   UNL     1       1.097   5.287   8.221  1.00  0.00     0.026 A 
ATOM     31  C   UNL     1       2.705   3.532   6.751  1.00  0.00     0.002 A 
ATOM     32  C   UNL     1       2.481   5.282   8.405  1.00  0.00     0.002 A 
ATOM     33  C   UNL     1       3.281   4.398   7.680  1.00  0.00     0.000 A 
ENDBRANCH  13  28
ENDBRANCH   4   7
ENDBRANCH   2   3
ENDBRANCH   1   2
BRANCH   1  34
ATOM     34  C   UNL     1      -7.957   3.885   8.820  1.00  0.00     0.023 C 
BRANCH  34  35
ATOM     35  C   UNL     1      -9.198   3.370   8.094  1.00  0.00     0.116 C 
BRANCH  35  36
ATOM     36  N   UNL     1      -9.315   1.906   8.087  1.00  0.00    -0.352 N 
ATOM     37  C   UNL     1     -10.111   1.121   7.259  1.00  0.00     0.251 C 
ATOM     38  H   UNL     1      -8.765   1.423   8.745  1.00  0.00     0.163 HD
ATOM     39  O   UNL     1     -10.468   0.001   7.567  1.00  0.00    -0.269 OA
BRANCH  37  40
ATOM     40  C   UNL     1     -10.469   1.691   5.950  1.00  0.00     0.039 A 
ATOM     41  C   UNL     1     -11.762   1.654   5.418  1.00  0.00     0.014 A 
ATOM     42  C   UNL     1      -9.443   2.376   5.314  1.00  0.00     0.014 A 
ATOM     43  C   UNL     1     -12.021   2.384   4.257  1.00  0.00     0.010 A 
ATOM     44  C   UNL     1      -9.763   3.279   4.349  1.00  0.00     0.010 A 
ATOM     45  C   UNL     1     -11.007   3.200   3.737  1.00  0.00    -0.014 A 
BRANCH  45  46
ATOM     46  C   UNL     1     -11.175   4.038   2.561  1.00  0.00     0.031 A 
ATOM     47  C   UNL     1     -12.220   5.089   2.662  1.00  0.00     0.074 A 
ATOM     48  C   UNL     1     -10.237   4.043   1.585  1.00  0.00     0.049 A 
ATOM     49  N   UNL     1     -13.300   5.188   1.964  1.00  0.00    -0.248 NA
ATOM     50  C   UNL     1     -12.107   6.097   3.729  1.00  0.00     0.031 C 
ATOM     51  C   UNL     1      -8.960   3.308   1.527  1.00  0.00     0.029 A 
ATOM     52  N   UNL     1     -10.157   4.838   0.492  1.00  0.00    -0.354 N 
ATOM     53  C   UNL     1     -13.922   6.365   2.370  1.00  0.00     0.074 A 
ATOM     54  C   UNL     1     -13.235   6.792   3.563  1.00  0.00     0.031 C 
ATOM     55  C   UNL     1      -8.142   3.887   0.621  1.00  0.00     0.029 A 
ATOM     56  C   UNL     1      -8.899   4.892  -0.097  1.00  0.00     0.049 A 
ATOM     57  H   UNL     1     -10.929   5.339   0.142  1.00  0.00     0.167 HD
ATOM     58  C   UNL     1     -14.804   7.018   1.563  1.00  0.00     0.031 A 
ATOM     59  C   UNL     1      -8.509   5.729  -1.089  1.00  0.00     0.031 A 
ATOM     60  C   UNL     1     -15.179   6.213   0.429  1.00  0.00     0.049 A 
ATOM     61  C   UNL     1      -9.744   6.229  -1.739  1.00  0.00     0.074 A 
ATOM     62  C   UNL     1     -15.816   4.999   0.267  1.00  0.00     0.029 A 
ATOM     63  N   UNL     1     -14.508   6.450  -0.748  1.00  0.00    -0.354 N 
ATOM     64  N   UNL     1     -10.564   5.457  -2.395  1.00  0.00    -0.248 NA
ATOM     65  C   UNL     1     -10.318   7.469  -1.240  1.00  0.00     0.031 C 
ATOM     66  C   UNL     1     -15.089   4.349  -0.775  1.00  0.00     0.029 A 
ATOM     67  C   UNL     1     -14.114   5.234  -1.243  1.00  0.00     0.049 A 
ATOM     68  H   UNL     1     -14.342   7.329  -1.159  1.00  0.00     0.167 HD
ATOM     69  C   UNL     1     -11.830   5.881  -2.014  1.00  0.00     0.074 A 
ATOM     70  C   UNL     1     -11.617   7.181  -1.375  1.00  0.00     0.031 C 
ATOM     71  C   UNL     1     -12.888   5.016  -1.981  1.00  0.00     0.031 A 
BRANCH  58  72
ATOM     72  C   UNL     1     -15.024   8.508   1.565  1.00  0.00    -0.014 A 
ATOM     73  C   UNL     1     -16.041   9.039   0.750  1.00  0.00     0.009 A 
ATOM     74  C   UNL     1     -14.101   9.421   2.106  1.00  0.00     0.009 A 
ATOM     75  C   UNL     1     -16.083  10.402   0.433  1.00  0.00     0.001 A 
ATOM     76  C   UNL     1     -14.165  10.788   1.823  1.00  0.00     0.001 A 
ATOM     77  C   UNL     1     -15.139  11.274   0.963  1.00  0.00     0.000 A 
ENDBRANCH  58  72
BRANCH  59  78
ATOM     78  C   UNL     1      -7.186   6.358  -1.290  1.00  0.00    -0.014 A 
ATOM     79  C   UNL     1      -6.817   6.889  -2.535  1.00  0.00     0.009 A 
ATOM     80  C   UNL     1      -6.387   6.685  -0.177  1.00  0.00     0.009 A 
ATOM     81  C   UNL     1      -5.712   7.746  -2.654  1.00  0.00     0.001 A 
ATOM     82  C   UNL     1      -5.287   7.542  -0.295  1.00  0.00     0.001 A 
ATOM     83  C   UNL     1      -4.958   8.085  -1.532  1.00  0.00     0.000 A 
ENDBRANCH  59  78
BRANCH  71  84
ATOM     84  C   UNL     1     -12.689   3.627  -2.540  1.00  0.00    -0.014 A 
ATOM     85  C   UNL     1     -11.791   2.694  -1.988  1.00  0.00     0.009 A 
ATOM     86  C   UNL     1     -13.568   3.186  -3.539  1.00  0.00     0.009 A 
ATOM     87  C   UNL     1     -11.764   1.368  -2.438  1.00  0.00     0.001 A 
ATOM     88  C   UNL     1     -13.553   1.859  -3.976  1.00  0.00     0.001 A 
ATOM     89  C   UNL     1     -12.649   0.951  -3.428  1.00  0.00     0.000 A 
ENDBRANCH  71  84
ENDBRANCH  45  46
ENDBRANCH  37  40
ENDBRANCH  35  36
ENDBRANCH  34  35
ENDBRANCH   1  34
TORSDOF 15
