REMARK SMILES O=C(NCCCCNC(=O)c1ccc(-c2c3nc(c(-c4ccccc4)c4ccc([nH]4)c(-c4ccccc4)c4nc(c(-c5ccccc5)c5ccc2[nH]5)C=C4)C=C3)cc1)C1=Cc2c(cc(Cl)c(Cl)c2Cl)O[C@H]1C(F)(F)F
REMARK SMILES IDX 6 1 5 2 4 3 3 4 1 5 2 6 59 8 60 9 71 10 61 11 70 12 62 13
REMARK SMILES IDX 68 14 63 15 66 16 69 17 64 18 67 19 65 20 72 21 73 22 74 23
REMARK SMILES IDX 75 24 7 25 8 26 9 27 10 29 11 30 12 31 58 32 13 33 57 34
REMARK SMILES IDX 14 35 15 36 16 37 51 38 17 39 56 40 50 41 52 42 18 43 55 44
REMARK SMILES IDX 49 45 48 46 19 48 41 49 26 50 40 51 27 52 30 53 39 54 53 55
REMARK SMILES IDX 28 56 29 57 38 59 54 60 31 61 20 62 21 63 25 64 22 65 24 66
REMARK SMILES IDX 23 67 42 68 43 69 47 70 44 71 46 72 45 73 32 74 33 75 37 76
REMARK SMILES IDX 34 77 36 78 35 79
REMARK H PARENT 3 7 8 28 52 47 30 58
REMARK Flexibility Score: inf
ROOT
ATOM      1  C   UNL     1       3.852   2.808   3.284  1.00  0.00     0.023 C 
ENDROOT
BRANCH   1   2
ATOM      2  C   UNL     1       4.192   2.681   1.803  1.00  0.00     0.023 C 
BRANCH   2   3
ATOM      3  C   UNL     1       3.938   1.317   1.174  1.00  0.00     0.116 C 
BRANCH   3   4
ATOM      4  N   UNL     1       2.558   1.020   0.844  1.00  0.00    -0.352 N 
ATOM      5  O   UNL     1       0.868  -0.012  -0.236  1.00  0.00    -0.270 OA
ATOM      6  C   UNL     1       2.073   0.078  -0.027  1.00  0.00     0.251 C 
ATOM      7  H   UNL     1       1.881   1.564   1.306  1.00  0.00     0.163 HD
BRANCH   6   8
ATOM      8  C   UNL     1       3.007  -0.826  -0.750  1.00  0.00     0.067 C 
ATOM      9  C   UNL     1       3.533  -1.835  -0.036  1.00  0.00     0.027 C 
ATOM     10  C   UNL     1       3.741  -0.223  -1.918  1.00  0.00     0.314 C 
ATOM     11  C   UNL     1       4.975  -1.631   0.241  1.00  0.00     0.037 A 
ATOM     12  O   UNL     1       5.194  -0.263  -1.771  1.00  0.00    -0.475 OA
ATOM     13  C   UNL     1       5.707  -0.802  -0.620  1.00  0.00     0.131 A 
ATOM     14  C   UNL     1       5.556  -2.082   1.444  1.00  0.00     0.072 A 
ATOM     15  C   UNL     1       6.987  -0.385  -0.269  1.00  0.00     0.069 A 
ATOM     16  C   UNL     1       6.833  -1.630   1.818  1.00  0.00     0.079 A 
ATOM     17  Cl  UNL     1       4.630  -3.115   2.495  1.00  0.00    -0.082 Cl
ATOM     18  C   UNL     1       7.533  -0.767   0.960  1.00  0.00     0.064 A 
ATOM     19  Cl  UNL     1       7.504  -2.070   3.358  1.00  0.00    -0.081 Cl
ATOM     20  Cl  UNL     1       9.056  -0.068   1.387  1.00  0.00    -0.083 Cl
BRANCH  10  21
ATOM     21  C   UNL     1       3.317  -0.851  -3.263  1.00  0.00     0.429 C 
ATOM     22  F   UNL     1       2.365  -1.802  -3.127  1.00  0.00    -0.167 F 
ATOM     23  F   UNL     1       2.825   0.092  -4.102  1.00  0.00    -0.167 F 
ATOM     24  F   UNL     1       4.362  -1.438  -3.897  1.00  0.00    -0.167 F 
ENDBRANCH  10  21
ENDBRANCH   6   8
ENDBRANCH   3   4
ENDBRANCH   2   3
ENDBRANCH   1   2
BRANCH   1  25
ATOM     25  C   UNL     1       4.478   1.780   4.225  1.00  0.00     0.116 C 
BRANCH  25  26
ATOM     26  N   UNL     1       5.932   1.712   4.178  1.00  0.00    -0.352 N 
ATOM     27  C   UNL     1       6.844   1.652   5.213  1.00  0.00     0.251 C 
ATOM     28  H   UNL     1       6.323   1.708   3.275  1.00  0.00     0.163 HD
ATOM     29  O   UNL     1       8.043   1.638   4.971  1.00  0.00    -0.269 OA
BRANCH  27  30
ATOM     30  C   UNL     1       6.376   1.687   6.620  1.00  0.00     0.039 A 
ATOM     31  C   UNL     1       6.991   2.579   7.503  1.00  0.00     0.014 A 
ATOM     32  C   UNL     1       5.302   0.906   7.052  1.00  0.00     0.014 A 
ATOM     33  C   UNL     1       6.450   2.780   8.775  1.00  0.00     0.010 A 
ATOM     34  C   UNL     1       4.714   1.167   8.288  1.00  0.00     0.010 A 
ATOM     35  C   UNL     1       5.267   2.125   9.152  1.00  0.00    -0.014 A 
BRANCH  35  36
ATOM     36  C   UNL     1       4.566   2.475  10.415  1.00  0.00     0.031 A 
ATOM     37  C   UNL     1       4.388   1.455  11.503  1.00  0.00     0.074 A 
ATOM     38  C   UNL     1       4.019   3.700  10.549  1.00  0.00     0.049 A 
ATOM     39  N   UNL     1       3.777   1.576  12.655  1.00  0.00    -0.248 NA
ATOM     40  C   UNL     1       4.945   0.117  11.255  1.00  0.00     0.031 C 
ATOM     41  C   UNL     1       4.072   4.769   9.548  1.00  0.00     0.029 A 
ATOM     42  N   UNL     1       3.311   4.255  11.586  1.00  0.00    -0.354 N 
ATOM     43  C   UNL     1       3.859   0.328  13.258  1.00  0.00     0.074 A 
ATOM     44  C   UNL     1       4.537  -0.547  12.326  1.00  0.00     0.031 C 
ATOM     45  C   UNL     1       3.463   5.862  10.037  1.00  0.00     0.029 A 
ATOM     46  C   UNL     1       2.945   5.562  11.367  1.00  0.00     0.049 A 
ATOM     47  H   UNL     1       3.087   3.764  12.409  1.00  0.00     0.167 HD
ATOM     48  C   UNL     1       3.427  -0.054  14.484  1.00  0.00     0.031 A 
ATOM     49  C   UNL     1       2.273   6.426  12.151  1.00  0.00     0.031 A 
ATOM     50  C   UNL     1       2.763   0.815  15.418  1.00  0.00     0.049 A 
ATOM     51  C   UNL     1       1.803   5.979  13.505  1.00  0.00     0.074 A 
ATOM     52  C   UNL     1       2.347   0.539  16.709  1.00  0.00     0.029 A 
ATOM     53  N   UNL     1       2.412   2.131  15.158  1.00  0.00    -0.354 N 
ATOM     54  N   UNL     1       1.959   4.817  14.092  1.00  0.00    -0.248 NA
ATOM     55  C   UNL     1       1.071   6.968  14.309  1.00  0.00     0.031 C 
ATOM     56  C   UNL     1       1.705   1.676  17.215  1.00  0.00     0.029 A 
ATOM     57  C   UNL     1       1.764   2.673  16.255  1.00  0.00     0.049 A 
ATOM     58  H   UNL     1       2.597   2.609  14.317  1.00  0.00     0.167 HD
ATOM     59  C   UNL     1       1.371   4.944  15.343  1.00  0.00     0.074 A 
ATOM     60  C   UNL     1       0.866   6.299  15.435  1.00  0.00     0.031 C 
ATOM     61  C   UNL     1       1.263   4.021  16.330  1.00  0.00     0.031 A 
BRANCH  48  62
ATOM     62  C   UNL     1       3.656  -1.488  14.874  1.00  0.00    -0.014 A 
ATOM     63  C   UNL     1       4.947  -1.971  15.145  1.00  0.00     0.009 A 
ATOM     64  C   UNL     1       2.567  -2.366  14.977  1.00  0.00     0.009 A 
ATOM     65  C   UNL     1       5.146  -3.315  15.465  1.00  0.00     0.001 A 
ATOM     66  C   UNL     1       2.767  -3.704  15.325  1.00  0.00     0.001 A 
ATOM     67  C   UNL     1       4.056  -4.180  15.556  1.00  0.00     0.000 A 
ENDBRANCH  48  62
BRANCH  49  68
ATOM     68  C   UNL     1       2.039   7.820  11.693  1.00  0.00    -0.014 A 
ATOM     69  C   UNL     1       2.753   8.880  12.273  1.00  0.00     0.009 A 
ATOM     70  C   UNL     1       1.107   8.101  10.684  1.00  0.00     0.009 A 
ATOM     71  C   UNL     1       2.523  10.196  11.867  1.00  0.00     0.001 A 
ATOM     72  C   UNL     1       0.896   9.416  10.262  1.00  0.00     0.001 A 
ATOM     73  C   UNL     1       1.598  10.463  10.859  1.00  0.00     0.000 A 
ENDBRANCH  49  68
BRANCH  61  74
ATOM     74  C   UNL     1       0.600   4.460  17.604  1.00  0.00    -0.014 A 
ATOM     75  C   UNL     1      -0.789   4.653  17.673  1.00  0.00     0.009 A 
ATOM     76  C   UNL     1       1.374   4.657  18.757  1.00  0.00     0.009 A 
ATOM     77  C   UNL     1      -1.384   5.068  18.866  1.00  0.00     0.001 A 
ATOM     78  C   UNL     1       0.773   5.047  19.955  1.00  0.00     0.001 A 
ATOM     79  C   UNL     1      -0.603   5.261  20.006  1.00  0.00     0.000 A 
ENDBRANCH  61  74
ENDBRANCH  35  36
ENDBRANCH  27  30
ENDBRANCH  25  26
ENDBRANCH   1  25
TORSDOF 12
