REMARK SMILES CC[C@@H](Oc1cc(Cl)ccc1Cl)C(=O)NNC(=O)[C@@H]1[C@@H]2CC[C@@H](C2)[C@@H]1C(=O)NCCCCNC(=O)c1ccc(-c2c3nc(c(-c4ccccc4)c4ccc([nH]4)c(-c4ccccc4)c4nc(c(-c5ccccc5)c5ccc2[nH]5)C=C4)C=C3)cc1
REMARK SMILES IDX 29 1 28 2 26 3 27 4 25 6 19 7 20 8 21 9 24 10 23 11 22 12
REMARK SMILES IDX 17 13 16 14 18 16 15 17 13 18 14 19 3 21 2 22 1 23 4 24 5 25
REMARK SMILES IDX 6 26 11 27 7 28 10 29 12 30 8 31 9 32 30 33 31 34 32 35
REMARK SMILES IDX 33 36 34 37 35 39 36 40 37 41 83 42 38 43 82 44 39 45 40 46
REMARK SMILES IDX 41 47 76 48 42 49 81 50 75 51 77 52 43 53 80 54 74 55 73 56
REMARK SMILES IDX 44 58 66 59 51 60 65 61 52 62 55 63 64 64 78 65 53 66 54 67
REMARK SMILES IDX 63 69 79 70 56 71 45 72 46 73 50 74 47 75 49 76 48 77 67 78
REMARK SMILES IDX 68 79 72 80 69 81 71 82 70 83 57 84 58 85 62 86 59 87 61 88
REMARK SMILES IDX 60 89
REMARK H PARENT 28 5 16 15 15 20 33 38 77 57 55 68
REMARK Flexibility Score: inf
ROOT
ATOM      1  C   UNL     1      -3.682  -2.340  -5.106  1.00  0.00     0.116 C 
ENDROOT
BRANCH   1   2
ATOM      2  N   UNL     1      -4.285  -1.501  -6.142  1.00  0.00    -0.356 N 
ATOM      3  C   UNL     1      -3.958  -0.226  -6.555  1.00  0.00     0.224 C 
ATOM      4  O   UNL     1      -4.354   0.140  -7.657  1.00  0.00    -0.275 OA
ATOM      5  H   UNL     1      -5.043  -1.910  -6.619  1.00  0.00     0.163 HD
BRANCH   3   6
ATOM      6  C   UNL     1      -3.259   0.693  -5.584  1.00  0.00     0.094 C 
ATOM      7  C   UNL     1      -3.995   1.445  -4.441  1.00  0.00     0.096 C 
ATOM      8  C   UNL     1      -3.192   2.814  -4.448  1.00  0.00     0.002 C 
ATOM      9  C   UNL     1      -3.709   3.723  -5.579  1.00  0.00     0.005 C 
ATOM     10  C   UNL     1      -1.821   2.455  -5.029  1.00  0.00     0.009 C 
ATOM     11  C   UNL     1      -2.427   1.804  -6.272  1.00  0.00     0.002 C 
ATOM     12  C   UNL     1      -3.311   2.939  -6.832  1.00  0.00     0.005 C 
BRANCH   7  13
ATOM     13  C   UNL     1      -5.496   1.795  -4.263  1.00  0.00     0.242 C 
ATOM     14  N   UNL     1      -6.574   1.077  -4.678  1.00  0.00    -0.267 N 
ATOM     15  H   UNL     1      -7.456   1.462  -4.472  1.00  0.00     0.191 HD
ATOM     16  O   UNL     1      -5.788   2.785  -3.570  1.00  0.00    -0.273 OA
BRANCH  14  17
ATOM     17  N   UNL     1      -6.580  -0.112  -5.346  1.00  0.00    -0.264 N 
ATOM     18  C   UNL     1      -7.671  -0.800  -5.801  1.00  0.00     0.279 C 
ATOM     19  O   UNL     1      -7.480  -1.786  -6.523  1.00  0.00    -0.269 OA
ATOM     20  H   UNL     1      -5.701  -0.520  -5.520  1.00  0.00     0.191 HD
BRANCH  18  21
ATOM     21  C   UNL     1      -9.066  -0.460  -5.287  1.00  0.00     0.263 C 
BRANCH  21  22
ATOM     22  C   UNL     1      -9.133  -0.635  -3.756  1.00  0.00     0.052 C 
ATOM     23  C   UNL     1     -10.211  -1.635  -3.356  1.00  0.00     0.008 C 
ENDBRANCH  21  22
BRANCH  21  24
ATOM     24  O   UNL     1      -9.430   0.878  -5.657  1.00  0.00    -0.479 OA
BRANCH  24  25
ATOM     25  C   UNL     1     -10.761   0.903  -6.006  1.00  0.00     0.140 A 
ATOM     26  C   UNL     1     -11.676   1.285  -5.024  1.00  0.00     0.068 A 
ATOM     27  C   UNL     1     -11.204   0.516  -7.278  1.00  0.00     0.083 A 
ATOM     28  C   UNL     1     -13.039   1.189  -5.287  1.00  0.00     0.044 A 
ATOM     29  C   UNL     1     -12.573   0.430  -7.535  1.00  0.00     0.026 A 
ATOM     30  Cl  UNL     1     -10.098   0.103  -8.535  1.00  0.00    -0.080 Cl
ATOM     31  Cl  UNL     1     -14.172   1.572  -4.051  1.00  0.00    -0.084 Cl
ATOM     32  C   UNL     1     -13.492   0.752  -6.532  1.00  0.00     0.022 A 
ENDBRANCH  24  25
ENDBRANCH  21  24
ENDBRANCH  18  21
ENDBRANCH  14  17
ENDBRANCH   7  13
ENDBRANCH   3   6
ENDBRANCH   1   2
BRANCH   1  33
ATOM     33  C   UNL     1      -4.533  -2.586  -3.854  1.00  0.00     0.023 C 
BRANCH  33  34
ATOM     34  C   UNL     1      -5.897  -3.269  -4.008  1.00  0.00     0.023 C 
BRANCH  34  35
ATOM     35  C   UNL     1      -5.993  -4.491  -4.916  1.00  0.00     0.116 C 
BRANCH  35  36
ATOM     36  N   UNL     1      -5.618  -5.705  -4.215  1.00  0.00    -0.352 N 
ATOM     37  C   UNL     1      -6.351  -6.842  -3.969  1.00  0.00     0.251 C 
ATOM     38  H   UNL     1      -4.699  -5.717  -3.863  1.00  0.00     0.163 HD
ATOM     39  O   UNL     1      -5.932  -7.649  -3.141  1.00  0.00    -0.269 OA
BRANCH  37  40
ATOM     40  C   UNL     1      -7.632  -7.126  -4.670  1.00  0.00     0.039 A 
ATOM     41  C   UNL     1      -8.646  -7.789  -3.965  1.00  0.00     0.014 A 
ATOM     42  C   UNL     1      -7.818  -6.850  -6.028  1.00  0.00     0.014 A 
ATOM     43  C   UNL     1      -9.836  -8.154  -4.605  1.00  0.00     0.010 A 
ATOM     44  C   UNL     1      -9.030  -7.165  -6.654  1.00  0.00     0.010 A 
ATOM     45  C   UNL     1     -10.045  -7.838  -5.957  1.00  0.00    -0.014 A 
BRANCH  45  46
ATOM     46  C   UNL     1     -11.296  -8.243  -6.656  1.00  0.00     0.031 A 
ATOM     47  C   UNL     1     -11.256  -9.270  -7.759  1.00  0.00     0.074 A 
ATOM     48  C   UNL     1     -12.472  -7.670  -6.331  1.00  0.00     0.049 A 
ATOM     49  N   UNL     1     -12.233  -9.718  -8.509  1.00  0.00    -0.248 NA
ATOM     50  C   UNL     1      -9.944  -9.858  -8.072  1.00  0.00     0.031 C 
ATOM     51  C   UNL     1     -12.661  -6.648  -5.301  1.00  0.00     0.029 A 
ATOM     52  N   UNL     1     -13.733  -7.867  -6.840  1.00  0.00    -0.354 N 
ATOM     53  C   UNL     1     -11.652 -10.619  -9.394  1.00  0.00     0.074 A 
ATOM     54  C   UNL     1     -10.233 -10.630  -9.110  1.00  0.00     0.031 C 
ATOM     55  C   UNL     1     -13.963  -6.321  -5.242  1.00  0.00     0.029 A 
ATOM     56  C   UNL     1     -14.695  -7.086  -6.249  1.00  0.00     0.049 A 
ATOM     57  H   UNL     1     -13.928  -8.508  -7.562  1.00  0.00     0.167 HD
ATOM     58  C   UNL     1     -12.241 -11.380 -10.347  1.00  0.00     0.031 A 
ATOM     59  C   UNL     1     -16.017  -6.989  -6.489  1.00  0.00     0.031 A 
ATOM     60  C   UNL     1     -13.653 -11.397 -10.624  1.00  0.00     0.049 A 
ATOM     61  C   UNL     1     -16.648  -7.844  -7.552  1.00  0.00     0.074 A 
ATOM     62  C   UNL     1     -14.344 -12.181 -11.534  1.00  0.00     0.029 A 
ATOM     63  N   UNL     1     -14.590 -10.595  -9.996  1.00  0.00    -0.354 N 
ATOM     64  N   UNL     1     -16.089  -8.729  -8.340  1.00  0.00    -0.248 NA
ATOM     65  C   UNL     1     -18.097  -7.691  -7.750  1.00  0.00     0.031 C 
ATOM     66  C   UNL     1     -15.696 -11.826 -11.481  1.00  0.00     0.029 A 
ATOM     67  C   UNL     1     -15.851 -10.851 -10.509  1.00  0.00     0.049 A 
ATOM     68  H   UNL     1     -14.390  -9.940  -9.288  1.00  0.00     0.167 HD
ATOM     69  C   UNL     1     -17.119  -9.254  -9.109  1.00  0.00     0.074 A 
ATOM     70  C   UNL     1     -18.339  -8.600  -8.685  1.00  0.00     0.031 C 
ATOM     71  C   UNL     1     -17.057 -10.196 -10.081  1.00  0.00     0.031 A 
BRANCH  58  72
ATOM     72  C   UNL     1     -11.351 -12.264 -11.176  1.00  0.00    -0.014 A 
ATOM     73  C   UNL     1     -10.780 -13.428 -10.638  1.00  0.00     0.009 A 
ATOM     74  C   UNL     1     -11.117 -11.951 -12.524  1.00  0.00     0.009 A 
ATOM     75  C   UNL     1      -9.965 -14.244 -11.425  1.00  0.00     0.001 A 
ATOM     76  C   UNL     1     -10.321 -12.782 -13.315  1.00  0.00     0.001 A 
ATOM     77  C   UNL     1      -9.740 -13.922 -12.764  1.00  0.00     0.000 A 
ENDBRANCH  58  72
BRANCH  59  78
ATOM     78  C   UNL     1     -16.847  -6.047  -5.695  1.00  0.00    -0.014 A 
ATOM     79  C   UNL     1     -17.740  -6.531  -4.726  1.00  0.00     0.009 A 
ATOM     80  C   UNL     1     -16.760  -4.663  -5.910  1.00  0.00     0.009 A 
ATOM     81  C   UNL     1     -18.547  -5.648  -4.005  1.00  0.00     0.001 A 
ATOM     82  C   UNL     1     -17.550  -3.782  -5.169  1.00  0.00     0.001 A 
ATOM     83  C   UNL     1     -18.448  -4.275  -4.224  1.00  0.00     0.000 A 
ENDBRANCH  59  78
BRANCH  71  84
ATOM     84  C   UNL     1     -18.349 -10.597 -10.733  1.00  0.00    -0.014 A 
ATOM     85  C   UNL     1     -18.986  -9.759 -11.661  1.00  0.00     0.009 A 
ATOM     86  C   UNL     1     -18.918 -11.847 -10.441  1.00  0.00     0.009 A 
ATOM     87  C   UNL     1     -20.183 -10.153 -12.262  1.00  0.00     0.001 A 
ATOM     88  C   UNL     1     -20.102 -12.248 -11.062  1.00  0.00     0.001 A 
ATOM     89  C   UNL     1     -20.737 -11.398 -11.965  1.00  0.00     0.000 A 
ENDBRANCH  71  84
ENDBRANCH  45  46
ENDBRANCH  37  40
ENDBRANCH  35  36
ENDBRANCH  34  35
ENDBRANCH  33  34
ENDBRANCH   1  33
TORSDOF 17
