REMARK SMILES CCOc1cc(OCC)cc(-c2ccc([C@@H](C)C(=O)NCCCCNC(=O)c3ccc(-c4c5nc(c(-c6ccccc6)c6ccc([nH]6)c(-c6ccccc6)c6nc(c(-c7ccccc7)c7ccc4[nH]7)C=C6)C=C5)cc3)cc2)c1
REMARK SMILES IDX 21 1 20 2 18 3 19 4 16 6 17 7 15 8 12 9 13 10 77 11 14 12
REMARK SMILES IDX 76 13 11 14 4 15 5 16 78 17 6 18 10 19 3 20 2 21 1 22 7 23
REMARK SMILES IDX 8 24 9 25 22 26 23 27 24 28 25 29 26 30 27 32 28 33 29 34
REMARK SMILES IDX 75 35 30 36 74 37 31 38 32 39 33 40 68 41 34 42 73 43 67 44
REMARK SMILES IDX 69 45 35 46 72 47 66 48 65 49 36 51 58 52 43 53 57 54 44 55
REMARK SMILES IDX 47 56 56 57 70 58 45 59 46 60 55 62 71 63 48 64 37 65 38 66
REMARK SMILES IDX 42 67 39 68 41 69 40 70 59 71 60 72 64 73 61 74 63 75 62 76
REMARK SMILES IDX 49 77 50 78 54 79 51 80 53 81 52 82
REMARK H PARENT 20 5 25 31 69 50 47 61
REMARK Flexibility Score: inf
ROOT
ATOM      1  C   UNL     1       9.490   1.597   1.724  1.00  0.00     0.116 C 
ENDROOT
BRANCH   1   2
ATOM      2  N   UNL     1       8.787   2.089   2.890  1.00  0.00    -0.356 N 
ATOM      3  C   UNL     1       8.109   1.445   3.880  1.00  0.00     0.227 C 
ATOM      4  O   UNL     1       7.554   2.166   4.718  1.00  0.00    -0.274 OA
ATOM      5  H   UNL     1       8.802   3.069   2.984  1.00  0.00     0.163 HD
BRANCH   3   6
ATOM      6  C   UNL     1       8.014  -0.084   4.005  1.00  0.00     0.105 C 
ATOM      7  C   UNL     1       9.360  -0.781   4.207  1.00  0.00     0.023 C 
BRANCH   6   8
ATOM      8  C   UNL     1       7.096  -0.717   2.974  1.00  0.00    -0.036 A 
ATOM      9  C   UNL     1       5.287  -1.734   1.007  1.00  0.00    -0.018 A 
ATOM     10  C   UNL     1       6.668  -1.629   0.767  1.00  0.00     0.009 A 
ATOM     11  C   UNL     1       4.838  -1.337   2.275  1.00  0.00     0.009 A 
ATOM     12  C   UNL     1       7.558  -1.179   1.743  1.00  0.00     0.005 A 
ATOM     13  C   UNL     1       5.721  -0.816   3.232  1.00  0.00     0.005 A 
BRANCH   9  14
ATOM     14  C   UNL     1       4.374  -2.232  -0.050  1.00  0.00    -0.011 A 
ATOM     15  C   UNL     1       2.220  -2.262  -1.187  1.00  0.00     0.123 A 
ATOM     16  C   UNL     1       2.719  -3.130  -2.156  1.00  0.00     0.092 A 
ATOM     17  C   UNL     1       3.036  -1.824  -0.141  1.00  0.00     0.055 A 
ATOM     18  C   UNL     1       4.038  -3.571  -2.084  1.00  0.00     0.123 A 
ATOM     19  C   UNL     1       4.838  -3.136  -1.026  1.00  0.00     0.055 A 
BRANCH  15  20
ATOM     20  O   UNL     1       0.886  -1.961  -1.214  1.00  0.00    -0.494 OA
BRANCH  20  21
ATOM     21  C   UNL     1       0.605  -0.588  -1.510  1.00  0.00     0.226 C 
ATOM     22  C   UNL     1       0.439   0.240  -0.245  1.00  0.00     0.049 C 
ENDBRANCH  20  21
ENDBRANCH  15  20
BRANCH  18  23
ATOM     23  O   UNL     1       4.451  -4.399  -3.094  1.00  0.00    -0.494 OA
BRANCH  23  24
ATOM     24  C   UNL     1       5.707  -5.068  -2.949  1.00  0.00     0.226 C 
ATOM     25  C   UNL     1       6.865  -4.219  -3.457  1.00  0.00     0.049 C 
ENDBRANCH  23  24
ENDBRANCH  18  23
ENDBRANCH   9  14
ENDBRANCH   6   8
ENDBRANCH   3   6
ENDBRANCH   1   2
BRANCH   1  26
ATOM     26  C   UNL     1       8.622   1.632   0.464  1.00  0.00     0.023 C 
BRANCH  26  27
ATOM     27  C   UNL     1       8.627   2.960  -0.290  1.00  0.00     0.023 C 
BRANCH  27  28
ATOM     28  C   UNL     1       9.984   3.395  -0.831  1.00  0.00     0.116 C 
BRANCH  28  29
ATOM     29  N   UNL     1      10.602   2.438  -1.736  1.00  0.00    -0.352 N 
ATOM     30  C   UNL     1      11.459   2.694  -2.784  1.00  0.00     0.251 C 
ATOM     31  H   UNL     1      10.381   1.491  -1.581  1.00  0.00     0.163 HD
ATOM     32  O   UNL     1      11.851   1.792  -3.510  1.00  0.00    -0.269 OA
BRANCH  30  33
ATOM     33  C   UNL     1      11.859   4.093  -3.048  1.00  0.00     0.039 A 
ATOM     34  C   UNL     1      11.684   4.614  -4.332  1.00  0.00     0.014 A 
ATOM     35  C   UNL     1      12.332   4.901  -2.012  1.00  0.00     0.014 A 
ATOM     36  C   UNL     1      11.907   5.973  -4.558  1.00  0.00     0.010 A 
ATOM     37  C   UNL     1      12.479   6.266  -2.221  1.00  0.00     0.010 A 
ATOM     38  C   UNL     1      12.265   6.817  -3.494  1.00  0.00    -0.014 A 
BRANCH  38  39
ATOM     39  C   UNL     1      12.425   8.280  -3.682  1.00  0.00     0.031 A 
ATOM     40  C   UNL     1      13.767   8.919  -3.457  1.00  0.00     0.074 A 
ATOM     41  C   UNL     1      11.352   9.043  -3.966  1.00  0.00     0.049 A 
ATOM     42  N   UNL     1      14.090  10.187  -3.467  1.00  0.00    -0.248 NA
ATOM     43  C   UNL     1      14.887   8.015  -3.149  1.00  0.00     0.031 C 
ATOM     44  C   UNL     1       9.986   8.552  -4.163  1.00  0.00     0.029 A 
ATOM     45  N   UNL     1      11.242  10.401  -4.126  1.00  0.00    -0.354 N 
ATOM     46  C   UNL     1      15.438  10.233  -3.139  1.00  0.00     0.074 A 
ATOM     47  C   UNL     1      15.862   8.872  -2.891  1.00  0.00     0.031 C 
ATOM     48  C   UNL     1       9.181   9.591  -4.442  1.00  0.00     0.029 A 
ATOM     49  C   UNL     1       9.964  10.822  -4.405  1.00  0.00     0.049 A 
ATOM     50  H   UNL     1      12.006  11.017  -4.048  1.00  0.00     0.167 HD
ATOM     51  C   UNL     1      16.258  11.308  -3.068  1.00  0.00     0.031 A 
ATOM     52  C   UNL     1       9.477  12.061  -4.604  1.00  0.00     0.031 A 
ATOM     53  C   UNL     1      15.846  12.658  -3.340  1.00  0.00     0.049 A 
ATOM     54  C   UNL     1      10.409  13.238  -4.532  1.00  0.00     0.074 A 
ATOM     55  C   UNL     1      16.615  13.808  -3.358  1.00  0.00     0.029 A 
ATOM     56  N   UNL     1      14.548  13.037  -3.646  1.00  0.00    -0.354 N 
ATOM     57  N   UNL     1      11.695  13.258  -4.280  1.00  0.00    -0.248 NA
ATOM     58  C   UNL     1       9.822  14.562  -4.781  1.00  0.00     0.031 C 
ATOM     59  C   UNL     1      15.775  14.890  -3.639  1.00  0.00     0.029 A 
ATOM     60  C   UNL     1      14.492  14.406  -3.840  1.00  0.00     0.049 A 
ATOM     61  H   UNL     1      13.781  12.424  -3.715  1.00  0.00     0.167 HD
ATOM     62  C   UNL     1      12.076  14.590  -4.366  1.00  0.00     0.074 A 
ATOM     63  C   UNL     1      10.888  15.346  -4.706  1.00  0.00     0.031 C 
ATOM     64  C   UNL     1      13.301  15.140  -4.180  1.00  0.00     0.031 A 
BRANCH  51  65
ATOM     65  C   UNL     1      17.687  11.058  -2.677  1.00  0.00    -0.014 A 
ATOM     66  C   UNL     1      18.577  10.413  -3.551  1.00  0.00     0.009 A 
ATOM     67  C   UNL     1      18.155  11.487  -1.426  1.00  0.00     0.009 A 
ATOM     68  C   UNL     1      19.895  10.167  -3.164  1.00  0.00     0.001 A 
ATOM     69  C   UNL     1      19.481  11.265  -1.052  1.00  0.00     0.001 A 
ATOM     70  C   UNL     1      20.347  10.596  -1.916  1.00  0.00     0.000 A 
ENDBRANCH  51  65
BRANCH  52  71
ATOM     71  C   UNL     1       8.037  12.255  -4.914  1.00  0.00    -0.014 A 
ATOM     72  C   UNL     1       7.634  12.617  -6.209  1.00  0.00     0.009 A 
ATOM     73  C   UNL     1       7.061  12.090  -3.920  1.00  0.00     0.009 A 
ATOM     74  C   UNL     1       6.285  12.834  -6.495  1.00  0.00     0.001 A 
ATOM     75  C   UNL     1       5.710  12.283  -4.216  1.00  0.00     0.001 A 
ATOM     76  C   UNL     1       5.324  12.664  -5.501  1.00  0.00     0.000 A 
ENDBRANCH  52  71
BRANCH  64  77
ATOM     77  C   UNL     1      13.424  16.623  -4.375  1.00  0.00    -0.014 A 
ATOM     78  C   UNL     1      12.926  17.525  -3.422  1.00  0.00     0.009 A 
ATOM     79  C   UNL     1      14.085  17.122  -5.508  1.00  0.00     0.009 A 
ATOM     80  C   UNL     1      13.064  18.901  -3.615  1.00  0.00     0.001 A 
ATOM     81  C   UNL     1      14.244  18.497  -5.686  1.00  0.00     0.001 A 
ATOM     82  C   UNL     1      13.726  19.384  -4.744  1.00  0.00     0.000 A 
ENDBRANCH  64  77
ENDBRANCH  38  39
ENDBRANCH  30  33
ENDBRANCH  28  29
ENDBRANCH  27  28
ENDBRANCH  26  27
ENDBRANCH   1  26
TORSDOF 17
