REMARK SMILES O=C(NCCCCNC(=O)c1ccc(N2C(=O)[C@@H]3N=NC(c4ccccc4)=C3[C@H]2c2cccc(Br)c2)cc1)c1ccc(-c2c3nc(c(-c4ccccc4)c4ccc([nH]4)c(-c4ccccc4)c4nc(c(-c5ccccc5)c5ccc2[nH]5)C=C4)C=C3)cc1
REMARK SMILES IDX 5 1 4 2 3 3 1 4 2 5 39 7 40 8 86 9 41 10 85 11 42 12 43 13
REMARK SMILES IDX 44 14 79 15 45 16 84 17 78 18 80 19 46 20 83 21 77 22 76 23
REMARK SMILES IDX 47 25 69 26 54 27 68 28 55 29 58 30 67 31 81 32 56 33 57 34
REMARK SMILES IDX 66 36 82 37 59 38 48 39 49 40 53 41 50 42 52 43 51 44 70 45
REMARK SMILES IDX 71 46 75 47 72 48 74 49 73 50 60 51 61 52 65 53 62 54 64 55
REMARK SMILES IDX 63 56 6 57 7 58 8 59 9 60 10 62 11 63 12 64 38 65 13 66
REMARK SMILES IDX 37 67 14 68 15 69 16 70 29 71 18 72 17 73 28 74 19 75 21 76
REMARK SMILES IDX 20 77 30 78 31 79 36 80 32 81 34 82 33 83 35 84 22 85 23 86
REMARK SMILES IDX 27 87 24 88 26 89 25 90
REMARK H PARENT 3 6 80 24 58 35 8 61
REMARK Flexibility Score: inf
ROOT
ATOM      1  C   UNL     1       5.031   0.447  -2.208  1.00  0.00     0.023 C 
ENDROOT
BRANCH   1   2
ATOM      2  C   UNL     1       4.711   0.884  -0.779  1.00  0.00     0.116 C 
BRANCH   2   3
ATOM      3  N   UNL     1       3.303   1.095  -0.514  1.00  0.00    -0.352 N 
ATOM      4  O   UNL     1       1.249   0.910   0.266  1.00  0.00    -0.269 OA
ATOM      5  C   UNL     1       2.280   0.313  -0.055  1.00  0.00     0.251 C 
ATOM      6  H   UNL     1       3.015   2.016  -0.711  1.00  0.00     0.163 HD
BRANCH   5   7
ATOM      7  C   UNL     1       2.289  -1.174   0.014  1.00  0.00     0.039 A 
ATOM      8  C   UNL     1       3.382  -2.003  -0.244  1.00  0.00     0.014 A 
ATOM      9  C   UNL     1       1.047  -1.773   0.303  1.00  0.00     0.014 A 
ATOM     10  C   UNL     1       3.217  -3.385  -0.311  1.00  0.00     0.010 A 
ATOM     11  C   UNL     1       0.877  -3.150   0.245  1.00  0.00     0.010 A 
ATOM     12  C   UNL     1       1.957  -3.953  -0.107  1.00  0.00    -0.014 A 
BRANCH  12  13
ATOM     13  C   UNL     1       1.833  -5.408  -0.125  1.00  0.00     0.031 A 
ATOM     14  C   UNL     1       2.545  -6.106   0.987  1.00  0.00     0.074 A 
ATOM     15  C   UNL     1       1.013  -6.069  -0.968  1.00  0.00     0.049 A 
ATOM     16  N   UNL     1       3.451  -7.025   0.908  1.00  0.00    -0.248 NA
ATOM     17  C   UNL     1       2.274  -5.650   2.361  1.00  0.00     0.031 C 
ATOM     18  C   UNL     1       0.043  -5.498  -1.907  1.00  0.00     0.029 A 
ATOM     19  N   UNL     1       0.786  -7.410  -1.074  1.00  0.00    -0.354 N 
ATOM     20  C   UNL     1       3.748  -7.389   2.221  1.00  0.00     0.074 A 
ATOM     21  C   UNL     1       3.094  -6.426   3.069  1.00  0.00     0.031 C 
ATOM     22  C   UNL     1      -0.822  -6.463  -2.296  1.00  0.00     0.029 A 
ATOM     23  C   UNL     1      -0.388  -7.736  -1.744  1.00  0.00     0.049 A 
ATOM     24  H   UNL     1       1.400  -8.088  -0.709  1.00  0.00     0.167 HD
ATOM     25  C   UNL     1       4.323  -8.586   2.525  1.00  0.00     0.031 A 
ATOM     26  C   UNL     1      -0.999  -8.947  -1.784  1.00  0.00     0.031 A 
ATOM     27  C   UNL     1       4.974  -9.173   1.385  1.00  0.00     0.049 A 
ATOM     28  C   UNL     1      -0.007  -9.969  -1.385  1.00  0.00     0.074 A 
ATOM     29  C   UNL     1       6.011  -8.804   0.552  1.00  0.00     0.029 A 
ATOM     30  N   UNL     1       4.317 -10.189   0.737  1.00  0.00    -0.354 N 
ATOM     31  N   UNL     1       1.023 -10.293  -2.110  1.00  0.00    -0.248 NA
ATOM     32  C   UNL     1       0.080 -10.324   0.022  1.00  0.00     0.031 C 
ATOM     33  C   UNL     1       5.620  -9.263  -0.741  1.00  0.00     0.029 A 
ATOM     34  C   UNL     1       4.404  -9.935  -0.605  1.00  0.00     0.049 A 
ATOM     35  H   UNL     1       3.867 -10.957   1.158  1.00  0.00     0.167 HD
ATOM     36  C   UNL     1       2.051 -10.470  -1.196  1.00  0.00     0.074 A 
ATOM     37  C   UNL     1       1.389 -10.576   0.104  1.00  0.00     0.031 C 
ATOM     38  C   UNL     1       3.349 -10.232  -1.544  1.00  0.00     0.031 A 
BRANCH  25  39
ATOM     39  C   UNL     1       3.909  -9.418   3.720  1.00  0.00    -0.014 A 
ATOM     40  C   UNL     1       4.503 -10.683   3.895  1.00  0.00     0.009 A 
ATOM     41  C   UNL     1       2.754  -9.157   4.481  1.00  0.00     0.009 A 
ATOM     42  C   UNL     1       3.904 -11.668   4.690  1.00  0.00     0.001 A 
ATOM     43  C   UNL     1       2.177 -10.123   5.309  1.00  0.00     0.001 A 
ATOM     44  C   UNL     1       2.732 -11.392   5.383  1.00  0.00     0.000 A 
ENDBRANCH  25  39
BRANCH  26  45
ATOM     45  C   UNL     1      -2.445  -9.256  -1.850  1.00  0.00    -0.014 A 
ATOM     46  C   UNL     1      -2.898 -10.534  -2.216  1.00  0.00     0.009 A 
ATOM     47  C   UNL     1      -3.379  -8.371  -1.282  1.00  0.00     0.009 A 
ATOM     48  C   UNL     1      -4.227 -10.921  -1.988  1.00  0.00     0.001 A 
ATOM     49  C   UNL     1      -4.705  -8.756  -1.056  1.00  0.00     0.001 A 
ATOM     50  C   UNL     1      -5.125 -10.037  -1.396  1.00  0.00     0.000 A 
ENDBRANCH  26  45
BRANCH  38  51
ATOM     51  C   UNL     1       3.660  -9.995  -3.000  1.00  0.00    -0.014 A 
ATOM     52  C   UNL     1       3.117  -8.926  -3.736  1.00  0.00     0.009 A 
ATOM     53  C   UNL     1       4.651 -10.783  -3.602  1.00  0.00     0.009 A 
ATOM     54  C   UNL     1       3.533  -8.678  -5.049  1.00  0.00     0.001 A 
ATOM     55  C   UNL     1       5.082 -10.521  -4.904  1.00  0.00     0.001 A 
ATOM     56  C   UNL     1       4.519  -9.473  -5.629  1.00  0.00     0.000 A 
ENDBRANCH  38  51
ENDBRANCH  12  13
ENDBRANCH   5   7
ENDBRANCH   2   3
ENDBRANCH   1   2
BRANCH   1  57
ATOM     57  C   UNL     1       4.511   1.365  -3.321  1.00  0.00     0.023 C 
BRANCH  57  58
ATOM     58  C   UNL     1       4.862   2.849  -3.202  1.00  0.00     0.116 C 
BRANCH  58  59
ATOM     59  N   UNL     1       6.288   3.104  -3.285  1.00  0.00    -0.352 N 
ATOM     60  C   UNL     1       6.979   3.964  -4.109  1.00  0.00     0.251 C 
ATOM     61  H   UNL     1       6.844   2.586  -2.659  1.00  0.00     0.163 HD
ATOM     62  O   UNL     1       8.199   3.960  -4.108  1.00  0.00    -0.269 OA
BRANCH  60  63
ATOM     63  C   UNL     1       6.251   4.863  -5.040  1.00  0.00     0.039 A 
ATOM     64  C   UNL     1       6.575   4.784  -6.393  1.00  0.00     0.016 A 
ATOM     65  C   UNL     1       5.292   5.791  -4.610  1.00  0.00     0.016 A 
ATOM     66  C   UNL     1       5.880   5.568  -7.317  1.00  0.00     0.027 A 
ATOM     67  C   UNL     1       4.601   6.591  -5.543  1.00  0.00     0.027 A 
ATOM     68  C   UNL     1       4.869   6.462  -6.906  1.00  0.00     0.045 A 
BRANCH  68  69
ATOM     69  N   UNL     1       4.070   7.126  -7.895  1.00  0.00    -0.299 N 
ATOM     70  C   UNL     1       3.665   6.299  -8.999  1.00  0.00     0.259 C 
ATOM     71  C   UNL     1       4.451   8.480  -8.371  1.00  0.00     0.152 C 
ATOM     72  C   UNL     1       3.806   7.099 -10.258  1.00  0.00     0.248 C 
ATOM     73  O   UNL     1       3.321   5.125  -8.939  1.00  0.00    -0.271 OA
ATOM     74  C   UNL     1       4.781   8.092  -9.757  1.00  0.00     0.021 C 
ATOM     75  N   UNL     1       4.555   6.472 -11.356  1.00  0.00    -0.170 NA
ATOM     76  C   UNL     1       5.772   8.134 -10.639  1.00  0.00     0.097 C 
ATOM     77  N   UNL     1       5.579   7.176 -11.616  1.00  0.00    -0.154 NA
BRANCH  71  78
ATOM     78  C   UNL     1       3.336   9.550  -8.377  1.00  0.00    -0.020 A 
ATOM     79  C   UNL     1       2.920  10.176  -9.584  1.00  0.00     0.006 A 
ATOM     80  C   UNL     1       2.776  10.045  -7.189  1.00  0.00     0.022 A 
ATOM     81  C   UNL     1       2.004  11.228  -9.616  1.00  0.00     0.002 A 
ATOM     82  C   UNL     1       1.871  11.124  -7.225  1.00  0.00     0.018 A 
ATOM     83  C   UNL     1       1.486  11.715  -8.428  1.00  0.00     0.016 A 
ATOM     84  Br  UNL     1       1.186  11.838  -5.611  1.00  0.00    -0.051 Br
ENDBRANCH  71  78
BRANCH  76  85
ATOM     85  C   UNL     1       7.031   8.869 -10.597  1.00  0.00     0.002 A 
ATOM     86  C   UNL     1       7.112  10.171 -11.109  1.00  0.00     0.010 A 
ATOM     87  C   UNL     1       8.207   8.193 -10.250  1.00  0.00     0.010 A 
ATOM     88  C   UNL     1       8.361  10.748 -11.360  1.00  0.00     0.001 A 
ATOM     89  C   UNL     1       9.451   8.772 -10.500  1.00  0.00     0.001 A 
ATOM     90  C   UNL     1       9.528  10.037 -11.081  1.00  0.00     0.000 A 
ENDBRANCH  76  85
ENDBRANCH  68  69
ENDBRANCH  60  63
ENDBRANCH  58  59
ENDBRANCH  57  58
ENDBRANCH   1  57
TORSDOF 14
