REMARK SMILES CCOc1ccc(CC)cc1[C@@H]([NH3+])CC(=O)NCCCCNC(=O)c1ccc(-c2c3nc(c(-c4ccccc4)c4ccc([nH]4)c(-c4ccccc4)c4nc(c(-c5ccccc5)c5ccc2[nH]5)C=C4)C=C3)cc1
REMARK SMILES IDX 18 1 17 2 15 3 16 4 14 6 12 7 11 8 4 9 5 10 6 11 10 12 7 13
REMARK SMILES IDX 3 14 2 15 1 16 8 17 9 18 13 19 19 23 20 24 21 25 22 26 23 27
REMARK SMILES IDX 24 29 25 30 26 31 72 32 27 33 71 34 28 35 29 36 30 37 65 38
REMARK SMILES IDX 31 39 70 40 64 41 66 42 32 43 69 44 63 45 62 46 33 48 55 49
REMARK SMILES IDX 40 50 54 51 41 52 44 53 53 54 67 55 42 56 43 57 52 59 68 60
REMARK SMILES IDX 45 61 34 62 35 63 39 64 36 65 38 66 37 67 56 68 57 69 61 70
REMARK SMILES IDX 58 71 60 72 59 73 46 74 47 75 51 76 48 77 50 78 49 79
REMARK H PARENT 17 5 13 20 13 21 13 22 22 28 66 47 44 58
REMARK Flexibility Score: inf
ROOT
ATOM      1  C   UNL     1       4.397   0.515   2.643  1.00  0.00     0.116 C 
ENDROOT
BRANCH   1   2
ATOM      2  N   UNL     1       3.468  -0.570   2.387  1.00  0.00    -0.356 N 
ATOM      3  C   UNL     1       3.036  -1.090   1.204  1.00  0.00     0.226 C 
ATOM      4  O   UNL     1       2.066  -1.851   1.235  1.00  0.00    -0.275 OA
ATOM      5  H   UNL     1       3.093  -0.996   3.192  1.00  0.00     0.163 HD
BRANCH   3   6
ATOM      6  C   UNL     1       3.741  -0.788  -0.105  1.00  0.00     0.170 C 
BRANCH   6   7
ATOM      7  C   UNL     1       2.966   0.208  -0.990  1.00  0.00     0.225 C 
BRANCH   7   8
ATOM      8  C   UNL     1       3.166   1.655  -0.577  1.00  0.00     0.052 A 
ATOM      9  C   UNL     1       2.092   2.495  -0.257  1.00  0.00     0.128 A 
ATOM     10  C   UNL     1       2.323   3.819   0.133  1.00  0.00     0.047 A 
ATOM     11  C   UNL     1       3.634   4.313   0.235  1.00  0.00     0.007 A 
ATOM     12  C   UNL     1       4.470   2.191  -0.524  1.00  0.00     0.017 A 
ATOM     13  C   UNL     1       4.727   3.503  -0.097  1.00  0.00    -0.048 A 
BRANCH   9  14
ATOM     14  O   UNL     1       0.803   2.071  -0.443  1.00  0.00    -0.493 OA
BRANCH  14  15
ATOM     15  C   UNL     1       0.213   1.512   0.738  1.00  0.00     0.226 C 
ATOM     16  C   UNL     1      -0.665   0.339   0.333  1.00  0.00     0.049 C 
ENDBRANCH  14  15
ENDBRANCH   9  14
BRANCH  13  17
ATOM     17  C   UNL     1       6.165   3.917   0.124  1.00  0.00     0.032 C 
ATOM     18  C   UNL     1       6.520   5.341  -0.268  1.00  0.00     0.009 C 
ENDBRANCH  13  17
ENDBRANCH   7   8
BRANCH   7  19
ATOM     19  N   UNL     1       3.382   0.058  -2.397  1.00  0.00    -0.351 N 
ATOM     20  H   UNL     1       4.373   0.286  -2.485  1.00  0.00     0.345 HD
ATOM     21  H   UNL     1       2.835   0.690  -2.982  1.00  0.00     0.345 HD
ATOM     22  H   UNL     1       3.227  -0.904  -2.697  1.00  0.00     0.345 HD
ENDBRANCH   7  19
ENDBRANCH   6   7
ENDBRANCH   3   6
ENDBRANCH   1   2
BRANCH   1  23
ATOM     23  C   UNL     1       3.634   1.821   2.845  1.00  0.00     0.023 C 
BRANCH  23  24
ATOM     24  C   UNL     1       3.445   2.273   4.283  1.00  0.00     0.023 C 
BRANCH  24  25
ATOM     25  C   UNL     1       4.711   2.831   4.912  1.00  0.00     0.116 C 
BRANCH  25  26
ATOM     26  N   UNL     1       5.272   3.986   4.213  1.00  0.00    -0.352 N 
ATOM     27  C   UNL     1       5.916   5.085   4.733  1.00  0.00     0.251 C 
ATOM     28  H   UNL     1       5.175   3.976   3.234  1.00  0.00     0.163 HD
ATOM     29  O   UNL     1       6.299   5.991   4.000  1.00  0.00    -0.269 OA
BRANCH  27  30
ATOM     30  C   UNL     1       6.072   5.191   6.197  1.00  0.00     0.039 A 
ATOM     31  C   UNL     1       5.681   6.371   6.834  1.00  0.00     0.014 A 
ATOM     32  C   UNL     1       6.482   4.086   6.943  1.00  0.00     0.014 A 
ATOM     33  C   UNL     1       5.594   6.400   8.226  1.00  0.00     0.010 A 
ATOM     34  C   UNL     1       6.282   4.080   8.315  1.00  0.00     0.010 A 
ATOM     35  C   UNL     1       5.830   5.234   8.972  1.00  0.00    -0.014 A 
BRANCH  35  36
ATOM     36  C   UNL     1       5.610   5.184  10.438  1.00  0.00     0.031 A 
ATOM     37  C   UNL     1       6.749   4.820  11.351  1.00  0.00     0.074 A 
ATOM     38  C   UNL     1       4.371   5.359  10.939  1.00  0.00     0.049 A 
ATOM     39  N   UNL     1       6.736   4.598  12.640  1.00  0.00    -0.248 NA
ATOM     40  C   UNL     1       8.068   4.633  10.722  1.00  0.00     0.031 C 
ATOM     41  C   UNL     1       3.166   5.649  10.156  1.00  0.00     0.029 A 
ATOM     42  N   UNL     1       3.919   5.311  12.233  1.00  0.00    -0.354 N 
ATOM     43  C   UNL     1       8.028   4.206  12.964  1.00  0.00     0.074 A 
ATOM     44  C   UNL     1       8.784   4.166  11.733  1.00  0.00     0.031 C 
ATOM     45  C   UNL     1       2.123   5.792  10.990  1.00  0.00     0.029 A 
ATOM     46  C   UNL     1       2.574   5.565  12.358  1.00  0.00     0.049 A 
ATOM     47  H   UNL     1       4.503   5.113  13.001  1.00  0.00     0.167 HD
ATOM     48  C   UNL     1       8.550   3.928  14.182  1.00  0.00     0.031 A 
ATOM     49  C   UNL     1       1.794   5.611  13.454  1.00  0.00     0.031 A 
ATOM     50  C   UNL     1       7.814   4.019  15.412  1.00  0.00     0.049 A 
ATOM     51  C   UNL     1       2.407   5.353  14.801  1.00  0.00     0.074 A 
ATOM     52  C   UNL     1       8.269   3.838  16.706  1.00  0.00     0.029 A 
ATOM     53  N   UNL     1       6.466   4.331  15.498  1.00  0.00    -0.354 N 
ATOM     54  N   UNL     1       3.647   5.047  15.098  1.00  0.00    -0.248 NA
ATOM     55  C   UNL     1       1.515   5.460  15.964  1.00  0.00     0.031 C 
ATOM     56  C   UNL     1       7.188   4.014  17.575  1.00  0.00     0.029 A 
ATOM     57  C   UNL     1       6.070   4.342  16.824  1.00  0.00     0.049 A 
ATOM     58  H   UNL     1       5.878   4.518  14.731  1.00  0.00     0.167 HD
ATOM     59  C   UNL     1       3.690   4.949  16.482  1.00  0.00     0.074 A 
ATOM     60  C   UNL     1       2.356   5.243  16.966  1.00  0.00     0.031 C 
ATOM     61  C   UNL     1       4.740   4.644  17.282  1.00  0.00     0.031 A 
BRANCH  48  62
ATOM     62  C   UNL     1       9.992   3.511  14.232  1.00  0.00    -0.014 A 
ATOM     63  C   UNL     1      11.023   4.427  13.962  1.00  0.00     0.009 A 
ATOM     64  C   UNL     1      10.326   2.188  14.557  1.00  0.00     0.009 A 
ATOM     65  C   UNL     1      12.356   4.014  13.972  1.00  0.00     0.001 A 
ATOM     66  C   UNL     1      11.663   1.786  14.596  1.00  0.00     0.001 A 
ATOM     67  C   UNL     1      12.675   2.695  14.293  1.00  0.00     0.000 A 
ENDBRANCH  48  62
BRANCH  49  68
ATOM     68  C   UNL     1       0.353   5.952  13.331  1.00  0.00    -0.014 A 
ATOM     69  C   UNL     1      -0.111   7.211  13.745  1.00  0.00     0.009 A 
ATOM     70  C   UNL     1      -0.563   5.029  12.805  1.00  0.00     0.009 A 
ATOM     71  C   UNL     1      -1.468   7.528  13.661  1.00  0.00     0.001 A 
ATOM     72  C   UNL     1      -1.917   5.359  12.700  1.00  0.00     0.001 A 
ATOM     73  C   UNL     1      -2.369   6.604  13.136  1.00  0.00     0.000 A 
ENDBRANCH  49  68
BRANCH  61  74
ATOM     74  C   UNL     1       4.496   4.647  18.762  1.00  0.00    -0.014 A 
ATOM     75  C   UNL     1       3.791   3.605  19.383  1.00  0.00     0.009 A 
ATOM     76  C   UNL     1       5.018   5.685  19.549  1.00  0.00     0.009 A 
ATOM     77  C   UNL     1       3.591   3.618  20.765  1.00  0.00     0.001 A 
ATOM     78  C   UNL     1       4.837   5.682  20.932  1.00  0.00     0.001 A 
ATOM     79  C   UNL     1       4.118   4.653  21.537  1.00  0.00     0.000 A 
ENDBRANCH  61  74
ENDBRANCH  35  36
ENDBRANCH  27  30
ENDBRANCH  25  26
ENDBRANCH  24  25
ENDBRANCH  23  24
ENDBRANCH   1  23
TORSDOF 17
