REMARK SMILES C[NH2+]CCCC(=O)N[C@H]1C=C[C@@H](C(=O)NCCCCNC(=O)c2ccc(-c3c4nc(c(-c5ccccc5)c5ccc([nH]5)c(-c5ccccc5)c5nc(c(-c6ccccc6)c6ccc3[nH]6)C=C5)C=C4)cc2)C1
REMARK SMILES IDX 16 1 15 2 13 3 14 4 12 6 9 7 10 8 71 9 11 10 8 11 6 12 7 13
REMARK SMILES IDX 5 15 4 16 3 17 2 18 1 19 17 22 18 23 19 24 20 25 21 26 22 28
REMARK SMILES IDX 23 29 24 30 70 31 25 32 69 33 26 34 27 35 28 36 63 37 29 38
REMARK SMILES IDX 68 39 62 40 64 41 30 42 67 43 61 44 60 45 31 47 53 48 38 49
REMARK SMILES IDX 52 50 39 51 42 52 51 53 65 54 40 55 41 56 50 58 66 59 43 60
REMARK SMILES IDX 32 61 33 62 37 63 34 64 36 65 35 66 54 67 55 68 59 69 56 70
REMARK SMILES IDX 58 71 57 72 44 73 45 74 49 75 46 76 48 77 47 78
REMARK H PARENT 15 5 8 14 2 20 2 21 20 27 64 46 42 57
REMARK Flexibility Score: inf
ROOT
ATOM      1  C   UNL     1      -0.110   0.679   7.032  1.00  0.00     0.116 C 
ENDROOT
BRANCH   1   2
ATOM      2  N   UNL     1       1.254   1.166   7.067  1.00  0.00    -0.356 N 
ATOM      3  C   UNL     1       2.104   1.485   6.051  1.00  0.00     0.227 C 
ATOM      4  O   UNL     1       3.218   1.920   6.356  1.00  0.00    -0.274 OA
ATOM      5  H   UNL     1       1.627   1.285   7.971  1.00  0.00     0.163 HD
BRANCH   3   6
ATOM      6  C   UNL     1       1.716   1.320   4.583  1.00  0.00     0.103 C 
ATOM      7  C   UNL     1       0.100  -0.001   3.327  1.00  0.00     0.106 C 
ATOM      8  C   UNL     1      -0.383   1.393   3.537  1.00  0.00    -0.006 C 
ATOM      9  C   UNL     1       1.355  -0.117   4.189  1.00  0.00     0.047 C 
ATOM     10  C   UNL     1       0.513   2.131   4.199  1.00  0.00    -0.016 C 
BRANCH   7  11
ATOM     11  N   UNL     1      -0.957  -0.923   3.649  1.00  0.00    -0.350 N 
ATOM     12  C   UNL     1      -1.497  -1.889   2.853  1.00  0.00     0.220 C 
ATOM     13  O   UNL     1      -2.493  -2.494   3.255  1.00  0.00    -0.275 OA
ATOM     14  H   UNL     1      -1.335  -0.847   4.555  1.00  0.00     0.164 HD
BRANCH  12  15
ATOM     15  C   UNL     1      -0.860  -2.226   1.516  1.00  0.00     0.106 C 
BRANCH  15  16
ATOM     16  C   UNL     1      -1.448  -1.469   0.319  1.00  0.00     0.071 C 
BRANCH  16  17
ATOM     17  C   UNL     1      -0.965  -0.030   0.089  1.00  0.00     0.260 C 
BRANCH  17  18
ATOM     18  N   UNL     1       0.483   0.128  -0.068  1.00  0.00    -0.349 N 
ATOM     19  C   UNL     1       0.934   0.038  -1.444  1.00  0.00     0.330 C 
ATOM     20  H   UNL     1       0.749   1.042   0.299  1.00  0.00     0.346 HD
ATOM     21  H   UNL     1       0.924  -0.638   0.441  1.00  0.00     0.346 HD
ENDBRANCH  17  18
ENDBRANCH  16  17
ENDBRANCH  15  16
ENDBRANCH  12  15
ENDBRANCH   7  11
ENDBRANCH   3   6
ENDBRANCH   1   2
BRANCH   1  22
ATOM     22  C   UNL     1      -0.212  -0.790   7.431  1.00  0.00     0.023 C 
BRANCH  22  23
ATOM     23  C   UNL     1       0.020  -1.052   8.913  1.00  0.00     0.023 C 
BRANCH  23  24
ATOM     24  C   UNL     1      -0.875  -0.247   9.841  1.00  0.00     0.116 C 
BRANCH  24  25
ATOM     25  N   UNL     1      -2.295  -0.405   9.557  1.00  0.00    -0.352 N 
ATOM     26  C   UNL     1      -3.335  -0.443  10.456  1.00  0.00     0.251 C 
ATOM     27  H   UNL     1      -2.539  -0.496   8.608  1.00  0.00     0.163 HD
ATOM     28  O   UNL     1      -4.478  -0.679  10.094  1.00  0.00    -0.269 OA
BRANCH  26  29
ATOM     29  C   UNL     1      -3.025  -0.235  11.882  1.00  0.00     0.039 A 
ATOM     30  C   UNL     1      -3.417  -1.204  12.804  1.00  0.00     0.014 A 
ATOM     31  C   UNL     1      -2.262   0.867  12.276  1.00  0.00     0.014 A 
ATOM     32  C   UNL     1      -2.981  -1.103  14.124  1.00  0.00     0.010 A 
ATOM     33  C   UNL     1      -1.760   0.920  13.568  1.00  0.00     0.010 A 
ATOM     34  C   UNL     1      -2.118  -0.061  14.505  1.00  0.00    -0.014 A 
BRANCH  34  35
ATOM     35  C   UNL     1      -1.584   0.028  15.884  1.00  0.00     0.031 A 
ATOM     36  C   UNL     1      -1.945   1.202  16.749  1.00  0.00     0.074 A 
ATOM     37  C   UNL     1      -0.726  -0.909  16.331  1.00  0.00     0.049 A 
ATOM     38  N   UNL     1      -1.539   1.491  17.958  1.00  0.00    -0.248 NA
ATOM     39  C   UNL     1      -2.858   2.200  16.166  1.00  0.00     0.031 C 
ATOM     40  C   UNL     1      -0.260  -2.070  15.568  1.00  0.00     0.029 A 
ATOM     41  N   UNL     1      -0.088  -1.028  17.539  1.00  0.00    -0.354 N 
ATOM     42  C   UNL     1      -2.130   2.708  18.271  1.00  0.00     0.074 A 
ATOM     43  C   UNL     1      -2.876   3.131  17.107  1.00  0.00     0.031 C 
ATOM     44  C   UNL     1       0.564  -2.799  16.338  1.00  0.00     0.029 A 
ATOM     45  C   UNL     1       0.713  -2.140  17.632  1.00  0.00     0.049 A 
ATOM     46  H   UNL     1      -0.193  -0.378  18.270  1.00  0.00     0.167 HD
ATOM     47  C   UNL     1      -2.077   3.402  19.432  1.00  0.00     0.031 A 
ATOM     48  C   UNL     1       1.480  -2.579  18.647  1.00  0.00     0.031 A 
ATOM     49  C   UNL     1      -1.351   2.971  20.595  1.00  0.00     0.049 A 
ATOM     50  C   UNL     1       1.520  -1.792  19.927  1.00  0.00     0.074 A 
ATOM     51  C   UNL     1      -1.284   3.570  21.840  1.00  0.00     0.029 A 
ATOM     52  N   UNL     1      -0.566   1.830  20.654  1.00  0.00    -0.354 N 
ATOM     53  N   UNL     1       0.897  -0.680  20.233  1.00  0.00    -0.248 NA
ATOM     54  C   UNL     1       2.359  -2.331  21.007  1.00  0.00     0.031 C 
ATOM     55  C   UNL     1      -0.420   2.814  22.640  1.00  0.00     0.029 A 
ATOM     56  C   UNL     1       0.007   1.718  21.909  1.00  0.00     0.049 A 
ATOM     57  H   UNL     1      -0.435   1.194  19.913  1.00  0.00     0.167 HD
ATOM     58  C   UNL     1       1.247  -0.400  21.547  1.00  0.00     0.074 A 
ATOM     59  C   UNL     1       2.123  -1.467  21.985  1.00  0.00     0.031 C 
ATOM     60  C   UNL     1       0.875   0.647  22.324  1.00  0.00     0.031 A 
BRANCH  47  61
ATOM     61  C   UNL     1      -2.829   4.701  19.492  1.00  0.00    -0.014 A 
ATOM     62  C   UNL     1      -4.233   4.729  19.500  1.00  0.00     0.009 A 
ATOM     63  C   UNL     1      -2.126   5.913  19.561  1.00  0.00     0.009 A 
ATOM     64  C   UNL     1      -4.917   5.946  19.537  1.00  0.00     0.001 A 
ATOM     65  C   UNL     1      -2.812   7.127  19.628  1.00  0.00     0.001 A 
ATOM     66  C   UNL     1      -4.206   7.143  19.605  1.00  0.00     0.000 A 
ENDBRANCH  47  61
BRANCH  48  67
ATOM     67  C   UNL     1       2.254  -3.839  18.506  1.00  0.00    -0.014 A 
ATOM     68  C   UNL     1       1.873  -4.990  19.214  1.00  0.00     0.009 A 
ATOM     69  C   UNL     1       3.381  -3.899  17.672  1.00  0.00     0.009 A 
ATOM     70  C   UNL     1       2.619  -6.165  19.110  1.00  0.00     0.001 A 
ATOM     71  C   UNL     1       4.109  -5.084  17.548  1.00  0.00     0.001 A 
ATOM     72  C   UNL     1       3.734  -6.213  18.274  1.00  0.00     0.000 A 
ENDBRANCH  48  67
BRANCH  60  73
ATOM     73  C   UNL     1       1.387   0.668  23.736  1.00  0.00    -0.014 A 
ATOM     74  C   UNL     1       2.729   0.964  24.020  1.00  0.00     0.009 A 
ATOM     75  C   UNL     1       0.501   0.429  24.798  1.00  0.00     0.009 A 
ATOM     76  C   UNL     1       3.180   0.987  25.341  1.00  0.00     0.001 A 
ATOM     77  C   UNL     1       0.948   0.481  26.118  1.00  0.00     0.001 A 
ATOM     78  C   UNL     1       2.289   0.750  26.388  1.00  0.00     0.000 A 
ENDBRANCH  60  73
ENDBRANCH  34  35
ENDBRANCH  26  29
ENDBRANCH  24  25
ENDBRANCH  23  24
ENDBRANCH  22  23
ENDBRANCH   1  22
TORSDOF 16
