REMARK SMILES Cc1cccc(C(=O)Nc2ccc(-c3nnc(S[C@H](C(=O)NCCCCNC(=O)c4ccc(-c5c6nc(c(-c7ccccc7)c7ccc([nH]7)c(-c7ccccc7)c7nc(c(-c8ccccc8)c8ccc5[nH]8)C=C7)C=C6)cc4)C(C)C)n3C)cc2)c1
REMARK SMILES IDX 23 1 22 2 20 3 21 4 19 6 18 7 17 8 14 9 15 10 81 11 16 12
REMARK SMILES IDX 82 13 13 14 10 15 11 16 84 17 12 18 83 19 9 20 7 21 8 22
REMARK SMILES IDX 6 24 1 25 2 26 3 27 85 28 4 29 5 30 78 31 79 32 80 33 24 34
REMARK SMILES IDX 25 35 26 36 27 37 28 38 29 40 30 41 31 42 77 43 32 44 76 45
REMARK SMILES IDX 33 46 34 47 35 48 70 49 36 50 75 51 69 52 71 53 37 54 74 55
REMARK SMILES IDX 68 56 67 57 38 59 60 60 45 61 59 62 46 63 49 64 58 65 72 66
REMARK SMILES IDX 47 67 48 68 57 70 73 71 50 72 39 73 40 74 44 75 41 76 43 77
REMARK SMILES IDX 42 78 61 79 62 80 66 81 63 82 65 83 64 84 51 85 52 86 56 87
REMARK SMILES IDX 53 88 55 89 54 90
REMARK H PARENT 22 5 9 23 27 39 71 58 49 69
REMARK Flexibility Score: inf
ROOT
ATOM      1  C   UNL     1       7.056   6.468  -0.983  1.00  0.00     0.116 C 
ENDROOT
BRANCH   1   2
ATOM      2  N   UNL     1       7.591   5.122  -1.122  1.00  0.00    -0.355 N 
ATOM      3  C   UNL     1       8.077   4.415  -2.181  1.00  0.00     0.233 C 
ATOM      4  O   UNL     1       8.961   3.589  -1.909  1.00  0.00    -0.274 OA
ATOM      5  H   UNL     1       7.605   4.618  -0.276  1.00  0.00     0.163 HD
BRANCH   3   6
ATOM      6  C   UNL     1       7.601   4.531  -3.641  1.00  0.00     0.146 C 
BRANCH   6   7
ATOM      7  S   UNL     1       6.433   3.215  -4.150  1.00  0.00    -0.072 SA
BRANCH   7   8
ATOM      8  C   UNL     1       6.107   2.107  -2.878  1.00  0.00     0.192 A 
ATOM      9  C   UNL     1       5.329   0.307  -1.877  1.00  0.00     0.164 A 
ATOM     10  N   UNL     1       5.949   1.061  -0.984  1.00  0.00    -0.129 NA
ATOM     11  N   UNL     1       5.349   0.978  -3.082  1.00  0.00    -0.305 N 
ATOM     12  N   UNL     1       6.431   2.184  -1.613  1.00  0.00    -0.123 NA
ATOM     13  C   UNL     1       4.612   0.606  -4.264  1.00  0.00     0.154 C 
BRANCH   9  14
ATOM     14  C   UNL     1       4.711  -0.990  -1.595  1.00  0.00     0.019 A 
ATOM     15  C   UNL     1       3.811  -3.536  -0.802  1.00  0.00     0.041 A 
ATOM     16  C   UNL     1       3.550  -2.423  -0.003  1.00  0.00     0.027 A 
ATOM     17  C   UNL     1       4.386  -3.357  -2.060  1.00  0.00     0.027 A 
ATOM     18  C   UNL     1       4.024  -1.165  -0.386  1.00  0.00     0.014 A 
ATOM     19  C   UNL     1       4.854  -2.095  -2.446  1.00  0.00     0.014 A 
BRANCH  15  20
ATOM     20  N   UNL     1       3.551  -4.798  -0.249  1.00  0.00    -0.322 N 
ATOM     21  C   UNL     1       4.236  -5.994  -0.348  1.00  0.00     0.255 C 
ATOM     22  O   UNL     1       3.685  -7.015   0.069  1.00  0.00    -0.269 OA
ATOM     23  H   UNL     1       2.738  -4.839   0.306  1.00  0.00     0.170 HD
BRANCH  21  24
ATOM     24  C   UNL     1       5.645  -6.093  -0.842  1.00  0.00     0.040 A 
ATOM     25  C   UNL     1       8.685  -3.919  -1.573  1.00  0.00     0.044 C 
ATOM     26  C   UNL     1       7.813  -5.131  -1.419  1.00  0.00    -0.050 A 
ATOM     27  C   UNL     1       8.239  -6.378  -1.883  1.00  0.00     0.003 A 
ATOM     28  C   UNL     1       6.551  -5.025  -0.821  1.00  0.00     0.017 A 
ATOM     29  C   UNL     1       7.395  -7.484  -1.795  1.00  0.00     0.001 A 
ATOM     30  C   UNL     1       6.097  -7.339  -1.299  1.00  0.00     0.014 A 
ENDBRANCH  21  24
ENDBRANCH  15  20
ENDBRANCH   9  14
ENDBRANCH   7   8
ENDBRANCH   6   7
BRANCH   6  31
ATOM     31  C   UNL     1       7.143   5.911  -4.181  1.00  0.00     0.006 C 
ATOM     32  C   UNL     1       8.304   6.920  -4.152  1.00  0.00     0.009 C 
ATOM     33  C   UNL     1       6.596   5.907  -5.623  1.00  0.00     0.009 C 
ENDBRANCH   6  31
ENDBRANCH   3   6
ENDBRANCH   1   2
BRANCH   1  34
ATOM     34  C   UNL     1       5.615   6.537  -0.472  1.00  0.00     0.023 C 
BRANCH  34  35
ATOM     35  C   UNL     1       5.422   6.175   1.004  1.00  0.00     0.023 C 
BRANCH  35  36
ATOM     36  C   UNL     1       6.128   7.096   1.996  1.00  0.00     0.116 C 
BRANCH  36  37
ATOM     37  N   UNL     1       5.413   8.312   2.367  1.00  0.00    -0.352 N 
ATOM     38  C   UNL     1       5.874   9.417   3.073  1.00  0.00     0.251 C 
ATOM     39  H   UNL     1       4.473   8.357   2.077  1.00  0.00     0.163 HD
ATOM     40  O   UNL     1       5.112  10.330   3.354  1.00  0.00    -0.269 OA
BRANCH  38  41
ATOM     41  C   UNL     1       7.329   9.554   3.365  1.00  0.00     0.039 A 
ATOM     42  C   UNL     1       7.935  10.793   3.119  1.00  0.00     0.014 A 
ATOM     43  C   UNL     1       8.117   8.447   3.658  1.00  0.00     0.014 A 
ATOM     44  C   UNL     1       9.309  10.849   2.888  1.00  0.00     0.010 A 
ATOM     45  C   UNL     1       9.457   8.473   3.321  1.00  0.00     0.010 A 
ATOM     46  C   UNL     1      10.035   9.658   2.862  1.00  0.00    -0.014 A 
BRANCH  46  47
ATOM     47  C   UNL     1      11.352   9.540   2.249  1.00  0.00     0.031 A 
ATOM     48  C   UNL     1      12.567   9.467   3.077  1.00  0.00     0.074 A 
ATOM     49  C   UNL     1      11.478   9.467   0.905  1.00  0.00     0.049 A 
ATOM     50  N   UNL     1      13.710   9.945   2.713  1.00  0.00    -0.248 NA
ATOM     51  C   UNL     1      12.578   8.863   4.403  1.00  0.00     0.031 C 
ATOM     52  C   UNL     1      12.687   9.145   0.149  1.00  0.00     0.029 A 
ATOM     53  N   UNL     1      10.582   9.903  -0.069  1.00  0.00    -0.354 N 
ATOM     54  C   UNL     1      14.646   9.430   3.576  1.00  0.00     0.074 A 
ATOM     55  C   UNL     1      13.888   8.855   4.667  1.00  0.00     0.031 C 
ATOM     56  C   UNL     1      12.579   9.685  -1.075  1.00  0.00     0.029 A 
ATOM     57  C   UNL     1      11.358  10.471  -1.094  1.00  0.00     0.049 A 
ATOM     58  H   UNL     1       9.601   9.828  -0.044  1.00  0.00     0.167 HD
ATOM     59  C   UNL     1      15.959   9.380   3.217  1.00  0.00     0.031 A 
ATOM     60  C   UNL     1      11.244  11.773  -1.488  1.00  0.00     0.031 A 
ATOM     61  C   UNL     1      16.205   9.917   1.881  1.00  0.00     0.049 A 
ATOM     62  C   UNL     1      12.537  12.562  -1.374  1.00  0.00     0.074 A 
ATOM     63  C   UNL     1      16.482   9.341   0.651  1.00  0.00     0.029 A 
ATOM     64  N   UNL     1      15.908  11.244   1.619  1.00  0.00    -0.354 N 
ATOM     65  N   UNL     1      13.658  12.085  -0.911  1.00  0.00    -0.248 NA
ATOM     66  C   UNL     1      12.624  13.997  -1.647  1.00  0.00     0.031 C 
ATOM     67  C   UNL     1      16.376  10.345  -0.350  1.00  0.00     0.029 A 
ATOM     68  C   UNL     1      16.038  11.530   0.273  1.00  0.00     0.049 A 
ATOM     69  H   UNL     1      15.638  11.899   2.303  1.00  0.00     0.167 HD
ATOM     70  C   UNL     1      14.566  13.101  -0.752  1.00  0.00     0.074 A 
ATOM     71  C   UNL     1      13.871  14.281  -1.231  1.00  0.00     0.031 C 
ATOM     72  C   UNL     1      15.791  12.890  -0.184  1.00  0.00     0.031 A 
BRANCH  59  73
ATOM     73  C   UNL     1      16.964   8.569   3.993  1.00  0.00    -0.014 A 
ATOM     74  C   UNL     1      18.003   7.904   3.319  1.00  0.00     0.009 A 
ATOM     75  C   UNL     1      16.915   8.395   5.387  1.00  0.00     0.009 A 
ATOM     76  C   UNL     1      18.870   7.025   3.978  1.00  0.00     0.001 A 
ATOM     77  C   UNL     1      17.750   7.483   6.047  1.00  0.00     0.001 A 
ATOM     78  C   UNL     1      18.720   6.787   5.338  1.00  0.00     0.000 A 
ENDBRANCH  59  73
BRANCH  60  79
ATOM     79  C   UNL     1       9.889  12.345  -1.257  1.00  0.00    -0.014 A 
ATOM     80  C   UNL     1       8.805  11.799  -1.975  1.00  0.00     0.009 A 
ATOM     81  C   UNL     1       9.621  13.094  -0.102  1.00  0.00     0.009 A 
ATOM     82  C   UNL     1       7.503  11.887  -1.476  1.00  0.00     0.001 A 
ATOM     83  C   UNL     1       8.312  13.196   0.381  1.00  0.00     0.001 A 
ATOM     84  C   UNL     1       7.262  12.559  -0.281  1.00  0.00     0.000 A 
ENDBRANCH  60  79
BRANCH  72  85
ATOM     85  C   UNL     1      16.868  13.928   0.049  1.00  0.00    -0.014 A 
ATOM     86  C   UNL     1      17.006  15.107  -0.692  1.00  0.00     0.009 A 
ATOM     87  C   UNL     1      17.876  13.676   1.010  1.00  0.00     0.009 A 
ATOM     88  C   UNL     1      18.039  16.022  -0.427  1.00  0.00     0.001 A 
ATOM     89  C   UNL     1      18.918  14.571   1.266  1.00  0.00     0.001 A 
ATOM     90  C   UNL     1      18.989  15.758   0.555  1.00  0.00     0.000 A 
ENDBRANCH  72  85
ENDBRANCH  46  47
ENDBRANCH  38  41
ENDBRANCH  36  37
ENDBRANCH  35  36
ENDBRANCH  34  35
ENDBRANCH   1  34
TORSDOF 17
