REMARK SMILES CC(C)[NH2+][C@]1(C(=O)NCCCCNC(=O)c2ccc(-c3c4nc(c(-c5ccccc5)c5ccc([nH]5)c(-c5ccccc5)c5nc(c(-c6ccccc6)c6ccc3[nH]6)C=C5)C=C4)cc2)CCC[C@@H]([N@@H+](C)C2CC2)C1
REMARK SMILES IDX 10 1 9 2 8 3 6 4 7 5 5 7 64 8 73 9 65 10 67 11 66 12 4 13
REMARK SMILES IDX 2 16 1 17 3 18 68 19 69 20 70 22 71 23 72 24 11 25 12 26
REMARK SMILES IDX 13 27 14 28 15 30 16 31 17 32 63 33 18 34 62 35 19 36 20 37
REMARK SMILES IDX 21 38 56 39 22 40 61 41 55 42 57 43 23 44 60 45 54 46 53 47
REMARK SMILES IDX 24 49 46 50 31 51 45 52 32 53 35 54 44 55 58 56 33 57 34 58
REMARK SMILES IDX 43 60 59 61 36 62 25 63 26 64 30 65 27 66 29 67 28 68 47 69
REMARK SMILES IDX 48 70 52 71 49 72 51 73 50 74 37 75 38 76 42 77 39 78 41 79
REMARK SMILES IDX 40 80
REMARK H PARENT 8 6 4 14 4 15 68 21 13 29 57 48 35 59
REMARK Flexibility Score: inf
ROOT
ATOM      1  C   UNL     1       2.519  -0.443  -2.324  1.00  0.00     0.023 C 
ENDROOT
BRANCH   1   2
ATOM      2  C   UNL     1       1.447  -1.410  -1.823  1.00  0.00     0.116 C 
BRANCH   2   3
ATOM      3  N   UNL     1       0.348  -0.683  -1.230  1.00  0.00    -0.351 N 
ATOM      4  C   UNL     1      -0.790  -0.166  -1.780  1.00  0.00     0.281 C 
ATOM      5  O   UNL     1      -1.388   0.636  -1.052  1.00  0.00    -0.268 OA
ATOM      6  H   UNL     1       0.434  -0.536  -0.260  1.00  0.00     0.163 HD
BRANCH   4   7
ATOM      7  C   UNL     1      -1.367  -0.639  -3.189  1.00  0.00     0.181 C 
ATOM      8  C   UNL     1      -1.780  -2.118  -2.983  1.00  0.00     0.079 C 
ATOM      9  C   UNL     1      -2.656   0.192  -3.418  1.00  0.00     0.144 C 
ATOM     10  C   UNL     1      -2.658  -2.709  -4.075  1.00  0.00     0.013 C 
ATOM     11  C   UNL     1      -3.641  -0.353  -4.464  1.00  0.00     0.190 C 
ATOM     12  C   UNL     1      -3.889  -1.870  -4.404  1.00  0.00     0.065 C 
BRANCH   7  13
ATOM     13  N   UNL     1      -0.284  -0.487  -4.191  1.00  0.00    -0.331 N 
ATOM     14  H   UNL     1       0.388   0.156  -3.772  1.00  0.00     0.347 HD
ATOM     15  H   UNL     1      -0.050  -1.465  -4.362  1.00  0.00     0.347 HD
BRANCH  13  16
ATOM     16  C   UNL     1      -0.477  -0.015  -5.556  1.00  0.00     0.176 C 
ATOM     17  C   UNL     1       0.844   0.637  -5.992  1.00  0.00     0.075 C 
ATOM     18  C   UNL     1      -0.764  -1.163  -6.530  1.00  0.00     0.075 C 
ENDBRANCH  13  16
ENDBRANCH   7  13
BRANCH  11  19
ATOM     19  N   UNL     1      -4.867   0.480  -4.492  1.00  0.00    -0.332 N 
ATOM     20  C   UNL     1      -5.408   0.587  -5.850  1.00  0.00     0.333 C 
ATOM     21  H   UNL     1      -4.500   1.374  -4.165  1.00  0.00     0.348 HD
BRANCH  19  22
ATOM     22  C   UNL     1      -5.942   0.242  -3.497  1.00  0.00     0.184 C 
ATOM     23  C   UNL     1      -5.807  -0.440  -2.162  1.00  0.00     0.071 C 
ATOM     24  C   UNL     1      -5.902   1.050  -2.219  1.00  0.00     0.071 C 
ENDBRANCH  19  22
ENDBRANCH  11  19
ENDBRANCH   4   7
ENDBRANCH   2   3
ENDBRANCH   1   2
BRANCH   1  25
ATOM     25  C   UNL     1       3.393   0.142  -1.210  1.00  0.00     0.023 C 
BRANCH  25  26
ATOM     26  C   UNL     1       4.167  -0.889  -0.395  1.00  0.00     0.116 C 
BRANCH  26  27
ATOM     27  N   UNL     1       5.004  -1.756  -1.212  1.00  0.00    -0.352 N 
ATOM     28  C   UNL     1       6.197  -2.346  -0.878  1.00  0.00     0.251 C 
ATOM     29  H   UNL     1       4.672  -1.942  -2.120  1.00  0.00     0.163 HD
ATOM     30  O   UNL     1       6.844  -2.969  -1.712  1.00  0.00    -0.269 OA
BRANCH  28  31
ATOM     31  C   UNL     1       6.711  -2.186   0.495  1.00  0.00     0.039 A 
ATOM     32  C   UNL     1       8.011  -1.710   0.675  1.00  0.00     0.014 A 
ATOM     33  C   UNL     1       5.892  -2.459   1.594  1.00  0.00     0.014 A 
ATOM     34  C   UNL     1       8.471  -1.444   1.964  1.00  0.00     0.010 A 
ATOM     35  C   UNL     1       6.329  -2.132   2.872  1.00  0.00     0.010 A 
ATOM     36  C   UNL     1       7.621  -1.620   3.068  1.00  0.00    -0.014 A 
BRANCH  36  37
ATOM     37  C   UNL     1       8.062  -1.274   4.440  1.00  0.00     0.031 A 
ATOM     38  C   UNL     1       8.204  -2.351   5.477  1.00  0.00     0.074 A 
ATOM     39  C   UNL     1       8.263   0.017   4.770  1.00  0.00     0.049 A 
ATOM     40  N   UNL     1       8.502  -2.240   6.747  1.00  0.00    -0.248 NA
ATOM     41  C   UNL     1       7.955  -3.733   5.035  1.00  0.00     0.031 C 
ATOM     42  C   UNL     1       8.121   1.158   3.862  1.00  0.00     0.029 A 
ATOM     43  N   UNL     1       8.622   0.586   5.965  1.00  0.00    -0.354 N 
ATOM     44  C   UNL     1       8.457  -3.531   7.257  1.00  0.00     0.074 A 
ATOM     45  C   UNL     1       8.058  -4.402   6.173  1.00  0.00     0.031 C 
ATOM     46  C   UNL     1       8.413   2.287   4.528  1.00  0.00     0.029 A 
ATOM     47  C   UNL     1       8.722   1.955   5.915  1.00  0.00     0.049 A 
ATOM     48  H   UNL     1       8.791   0.062   6.782  1.00  0.00     0.167 HD
ATOM     49  C   UNL     1       8.742  -3.956   8.510  1.00  0.00     0.031 A 
ATOM     50  C   UNL     1       9.021   2.843   6.881  1.00  0.00     0.031 A 
ATOM     51  C   UNL     1       9.149  -3.091   9.584  1.00  0.00     0.049 A 
ATOM     52  C   UNL     1       9.317   2.347   8.268  1.00  0.00     0.074 A 
ATOM     53  C   UNL     1       9.509  -3.432  10.876  1.00  0.00     0.029 A 
ATOM     54  N   UNL     1       9.248  -1.712   9.489  1.00  0.00    -0.354 N 
ATOM     55  N   UNL     1       9.333   1.116   8.720  1.00  0.00    -0.248 NA
ATOM     56  C   UNL     1       9.647   3.364   9.277  1.00  0.00     0.031 C 
ATOM     57  C   UNL     1       9.783  -2.253  11.577  1.00  0.00     0.029 A 
ATOM     58  C   UNL     1       9.644  -1.184  10.706  1.00  0.00     0.049 A 
ATOM     59  H   UNL     1       9.063  -1.186   8.678  1.00  0.00     0.167 HD
ATOM     60  C   UNL     1       9.701   1.208  10.055  1.00  0.00     0.074 A 
ATOM     61  C   UNL     1       9.912   2.613  10.337  1.00  0.00     0.031 C 
ATOM     62  C   UNL     1       9.853   0.217  10.967  1.00  0.00     0.031 A 
BRANCH  49  63
ATOM     63  C   UNL     1       8.616  -5.429   8.783  1.00  0.00    -0.014 A 
ATOM     64  C   UNL     1       9.526  -6.349   8.238  1.00  0.00     0.009 A 
ATOM     65  C   UNL     1       7.592  -5.901   9.618  1.00  0.00     0.009 A 
ATOM     66  C   UNL     1       9.389  -7.715   8.492  1.00  0.00     0.001 A 
ATOM     67  C   UNL     1       7.474  -7.264   9.893  1.00  0.00     0.001 A 
ATOM     68  C   UNL     1       8.367  -8.171   9.323  1.00  0.00     0.000 A 
ENDBRANCH  49  63
BRANCH  50  69
ATOM     69  C   UNL     1       9.073   4.295   6.569  1.00  0.00    -0.014 A 
ATOM     70  C   UNL     1      10.302   4.971   6.537  1.00  0.00     0.009 A 
ATOM     71  C   UNL     1       7.896   5.014   6.309  1.00  0.00     0.009 A 
ATOM     72  C   UNL     1      10.349   6.343   6.279  1.00  0.00     0.001 A 
ATOM     73  C   UNL     1       7.949   6.380   6.025  1.00  0.00     0.001 A 
ATOM     74  C   UNL     1       9.174   7.045   6.019  1.00  0.00     0.000 A 
ENDBRANCH  50  69
BRANCH  62  75
ATOM     75  C   UNL     1      10.305   0.612  12.343  1.00  0.00    -0.014 A 
ATOM     76  C   UNL     1       9.438   1.256  13.239  1.00  0.00     0.009 A 
ATOM     77  C   UNL     1      11.606   0.293  12.764  1.00  0.00     0.009 A 
ATOM     78  C   UNL     1       9.876   1.599  14.519  1.00  0.00     0.001 A 
ATOM     79  C   UNL     1      12.031   0.612  14.053  1.00  0.00     0.001 A 
ATOM     80  C   UNL     1      11.169   1.272  14.927  1.00  0.00     0.000 A 
ENDBRANCH  62  75
ENDBRANCH  36  37
ENDBRANCH  28  31
ENDBRANCH  26  27
ENDBRANCH  25  26
ENDBRANCH   1  25
TORSDOF 15
