REMARK SMILES O=C(CCCN1C(=O)/C(=C\c2ccc(O)c(O)c2)SC1=S)NCCCCNC(=O)c1ccc(-c2c3nc(c(-c4ccccc4)c4ccc([nH]4)c(-c4ccccc4)c4nc(c(-c5ccccc5)c5ccc2[nH]5)C=C4)C=C3)cc1
REMARK SMILES IDX 23 1 22 2 1 3 2 4 3 6 4 7 5 8 6 9 7 10 20 11 8 12 9 13 19 14
REMARK SMILES IDX 21 15 10 16 11 17 12 18 18 19 13 20 16 21 14 22 17 23 15 25
REMARK SMILES IDX 24 27 25 28 26 29 27 30 28 31 29 33 30 34 31 35 77 36 32 37
REMARK SMILES IDX 76 38 33 39 34 40 35 41 70 42 36 43 75 44 69 45 71 46 37 47
REMARK SMILES IDX 74 48 68 49 67 50 38 52 60 53 45 54 59 55 46 56 49 57 58 58
REMARK SMILES IDX 72 59 47 60 48 61 57 63 73 64 50 65 39 66 40 67 44 68 41 69
REMARK SMILES IDX 43 70 42 71 61 72 62 73 66 74 63 75 65 76 64 77 51 78 52 79
REMARK SMILES IDX 56 80 53 81 55 82 54 83
REMARK H PARENT 22 5 17 24 15 26 27 32 71 51 49 62
REMARK Flexibility Score: inf
ROOT
ATOM      1  C   UNL     1       1.874  -1.970  -1.699  1.00  0.00     0.116 C 
ENDROOT
BRANCH   1   2
ATOM      2  N   UNL     1       2.508  -0.945  -0.896  1.00  0.00    -0.356 N 
ATOM      3  O   UNL     1       0.755  -0.723   0.571  1.00  0.00    -0.275 OA
ATOM      4  C   UNL     1       1.878  -0.402   0.200  1.00  0.00     0.220 C 
ATOM      5  H   UNL     1       3.409  -0.630  -1.139  1.00  0.00     0.163 HD
BRANCH   4   6
ATOM      6  C   UNL     1       2.705   0.622   0.941  1.00  0.00     0.102 C 
BRANCH   6   7
ATOM      7  C   UNL     1       3.663  -0.029   1.940  1.00  0.00     0.032 C 
BRANCH   7   8
ATOM      8  C   UNL     1       4.968  -0.601   1.357  1.00  0.00     0.128 C 
BRANCH   8   9
ATOM      9  N   UNL     1       5.743   0.261   0.451  1.00  0.00    -0.293 N 
ATOM     10  C   UNL     1       5.812   1.626   0.667  1.00  0.00     0.266 C 
ATOM     11  C   UNL     1       6.624  -0.221  -0.497  1.00  0.00     0.148 C 
ATOM     12  O   UNL     1       5.419   2.196   1.672  1.00  0.00    -0.268 OA
ATOM     13  C   UNL     1       6.501   2.300  -0.470  1.00  0.00     0.081 C 
ATOM     14  S   UNL     1       7.324   1.112  -1.408  1.00  0.00    -0.054 SA
ATOM     15  S   UNL     1       7.030  -1.808  -0.810  1.00  0.00    -0.052 S 
ATOM     16  C   UNL     1       6.447   3.596  -0.815  1.00  0.00     0.029 C 
BRANCH  16  17
ATOM     17  C   UNL     1       5.638   4.620  -0.143  1.00  0.00    -0.020 A 
ATOM     18  C   UNL     1       5.851   4.961   1.202  1.00  0.00     0.012 A 
ATOM     19  C   UNL     1       4.612   5.253  -0.856  1.00  0.00     0.058 A 
ATOM     20  C   UNL     1       4.998   5.853   1.859  1.00  0.00     0.051 A 
ATOM     21  C   UNL     1       3.784   6.156  -0.202  1.00  0.00     0.157 A 
ATOM     22  C   UNL     1       3.958   6.438   1.150  1.00  0.00     0.157 A 
BRANCH  21  23
ATOM     23  O   UNL     1       2.772   6.755  -0.896  1.00  0.00    -0.504 OA
ATOM     24  H   UNL     1       2.206   7.366  -0.467  1.00  0.00     0.293 HD
ENDBRANCH  21  23
BRANCH  22  25
ATOM     25  O   UNL     1       3.071   7.291   1.744  1.00  0.00    -0.504 OA
ATOM     26  H   UNL     1       3.159   7.501   2.653  1.00  0.00     0.293 HD
ENDBRANCH  22  25
ENDBRANCH  16  17
ENDBRANCH   8   9
ENDBRANCH   7   8
ENDBRANCH   6   7
ENDBRANCH   4   6
ENDBRANCH   1   2
BRANCH   1  27
ATOM     27  C   UNL     1       2.255  -1.877  -3.175  1.00  0.00     0.023 C 
BRANCH  27  28
ATOM     28  C   UNL     1       3.743  -2.058  -3.483  1.00  0.00     0.023 C 
BRANCH  28  29
ATOM     29  C   UNL     1       4.366  -3.359  -2.987  1.00  0.00     0.116 C 
BRANCH  29  30
ATOM     30  N   UNL     1       3.796  -4.542  -3.605  1.00  0.00    -0.352 N 
ATOM     31  C   UNL     1       4.433  -5.603  -4.205  1.00  0.00     0.251 C 
ATOM     32  H   UNL     1       2.813  -4.591  -3.594  1.00  0.00     0.163 HD
ATOM     33  O   UNL     1       3.773  -6.458  -4.789  1.00  0.00    -0.269 OA
BRANCH  31  34
ATOM     34  C   UNL     1       5.911  -5.707  -4.184  1.00  0.00     0.039 A 
ATOM     35  C   UNL     1       6.572  -6.055  -5.365  1.00  0.00     0.014 A 
ATOM     36  C   UNL     1       6.646  -5.484  -3.016  1.00  0.00     0.014 A 
ATOM     37  C   UNL     1       7.969  -6.114  -5.394  1.00  0.00     0.010 A 
ATOM     38  C   UNL     1       8.041  -5.479  -3.061  1.00  0.00     0.010 A 
ATOM     39  C   UNL     1       8.718  -5.793  -4.250  1.00  0.00    -0.014 A 
BRANCH  39  40
ATOM     40  C   UNL     1      10.204  -5.768  -4.287  1.00  0.00     0.031 A 
ATOM     41  C   UNL     1      11.007  -6.745  -3.473  1.00  0.00     0.074 A 
ATOM     42  C   UNL     1      10.837  -4.826  -5.014  1.00  0.00     0.049 A 
ATOM     43  N   UNL     1      12.307  -6.843  -3.347  1.00  0.00    -0.248 NA
ATOM     44  C   UNL     1      10.251  -7.730  -2.684  1.00  0.00     0.031 C 
ATOM     45  C   UNL     1      10.183  -3.797  -5.825  1.00  0.00     0.029 A 
ATOM     46  N   UNL     1      12.178  -4.579  -5.184  1.00  0.00    -0.354 N 
ATOM     47  C   UNL     1      12.523  -7.883  -2.452  1.00  0.00     0.074 A 
ATOM     48  C   UNL     1      11.221  -8.360  -2.037  1.00  0.00     0.031 C 
ATOM     49  C   UNL     1      11.122  -3.048  -6.426  1.00  0.00     0.029 A 
ATOM     50  C   UNL     1      12.441  -3.515  -6.012  1.00  0.00     0.049 A 
ATOM     51  H   UNL     1      12.883  -5.114  -4.752  1.00  0.00     0.167 HD
ATOM     52  C   UNL     1      13.698  -8.405  -2.024  1.00  0.00     0.031 A 
ATOM     53  C   UNL     1      13.612  -2.971  -6.393  1.00  0.00     0.031 A 
ATOM     54  C   UNL     1      14.995  -7.943  -2.441  1.00  0.00     0.049 A 
ATOM     55  C   UNL     1      14.901  -3.556  -5.887  1.00  0.00     0.074 A 
ATOM     56  C   UNL     1      16.239  -8.452  -2.107  1.00  0.00     0.029 A 
ATOM     57  N   UNL     1      15.217  -6.862  -3.278  1.00  0.00    -0.354 N 
ATOM     58  N   UNL     1      15.088  -4.583  -5.095  1.00  0.00    -0.248 NA
ATOM     59  C   UNL     1      16.142  -2.910  -6.338  1.00  0.00     0.031 C 
ATOM     60  C   UNL     1      17.216  -7.647  -2.703  1.00  0.00     0.029 A 
ATOM     61  C   UNL     1      16.579  -6.670  -3.450  1.00  0.00     0.049 A 
ATOM     62  H   UNL     1      14.512  -6.311  -3.690  1.00  0.00     0.167 HD
ATOM     63  C   UNL     1      16.464  -4.724  -4.975  1.00  0.00     0.074 A 
ATOM     64  C   UNL     1      17.065  -3.686  -5.787  1.00  0.00     0.031 C 
ATOM     65  C   UNL     1      17.166  -5.634  -4.259  1.00  0.00     0.031 A 
BRANCH  52  66
ATOM     66  C   UNL     1      13.633  -9.538  -1.037  1.00  0.00    -0.014 A 
ATOM     67  C   UNL     1      13.197 -10.816  -1.422  1.00  0.00     0.009 A 
ATOM     68  C   UNL     1      14.051  -9.333   0.287  1.00  0.00     0.009 A 
ATOM     69  C   UNL     1      13.148 -11.856  -0.491  1.00  0.00     0.001 A 
ATOM     70  C   UNL     1      14.027 -10.382   1.208  1.00  0.00     0.001 A 
ATOM     71  C   UNL     1      13.567 -11.640   0.821  1.00  0.00     0.000 A 
ENDBRANCH  52  66
BRANCH  53  72
ATOM     72  C   UNL     1      13.626  -1.808  -7.318  1.00  0.00    -0.014 A 
ATOM     73  C   UNL     1      14.066  -1.960  -8.642  1.00  0.00     0.009 A 
ATOM     74  C   UNL     1      13.212  -0.540  -6.881  1.00  0.00     0.009 A 
ATOM     75  C   UNL     1      14.115  -0.861  -9.502  1.00  0.00     0.001 A 
ATOM     76  C   UNL     1      13.236   0.551  -7.752  1.00  0.00     0.001 A 
ATOM     77  C   UNL     1      13.696   0.392  -9.058  1.00  0.00     0.000 A 
ENDBRANCH  53  72
BRANCH  65  78
ATOM     78  C   UNL     1      18.665  -5.572  -4.348  1.00  0.00    -0.014 A 
ATOM     79  C   UNL     1      19.392  -4.552  -3.715  1.00  0.00     0.009 A 
ATOM     80  C   UNL     1      19.361  -6.572  -5.045  1.00  0.00     0.009 A 
ATOM     81  C   UNL     1      20.785  -4.518  -3.807  1.00  0.00     0.001 A 
ATOM     82  C   UNL     1      20.755  -6.551  -5.111  1.00  0.00     0.001 A 
ATOM     83  C   UNL     1      21.465  -5.519  -4.500  1.00  0.00     0.000 A 
ENDBRANCH  65  78
ENDBRANCH  39  40
ENDBRANCH  31  34
ENDBRANCH  29  30
ENDBRANCH  28  29
ENDBRANCH  27  28
ENDBRANCH   1  27
TORSDOF 17
