REMARK SMILES O=C(COc1cccc(Br)c1)Nc1ccsc1C(=O)NCCCCNC(=O)c1ccc(-c2c3nc(c(-c4ccccc4)c4ccc([nH]4)c(-c4ccccc4)c4nc(c(-c5ccccc5)c5ccc2[nH]5)C=C4)C=C3)cc1
REMARK SMILES IDX 21 1 20 2 18 3 19 4 17 6 13 7 14 8 15 9 16 10 12 11 1 12
REMARK SMILES IDX 2 13 3 15 4 16 5 17 6 18 11 19 7 20 9 21 8 22 10 23 22 24
REMARK SMILES IDX 23 25 24 26 25 27 26 28 27 30 28 31 29 32 75 33 30 34 74 35
REMARK SMILES IDX 31 36 32 37 33 38 68 39 34 40 73 41 67 42 69 43 35 44 72 45
REMARK SMILES IDX 66 46 65 47 36 49 58 50 43 51 57 52 44 53 47 54 56 55 70 56
REMARK SMILES IDX 45 57 46 58 55 60 71 61 48 62 37 63 38 64 42 65 39 66 41 67
REMARK SMILES IDX 40 68 59 69 60 70 64 71 61 72 63 73 62 74 49 75 50 76 54 77
REMARK SMILES IDX 51 78 53 79 52 80
REMARK H PARENT 20 5 12 14 25 29 69 48 47 59
REMARK Flexibility Score: inf
ROOT
ATOM      1  C   UNL     1       5.144  -0.593   2.175  1.00  0.00     0.116 C 
ENDROOT
BRANCH   1   2
ATOM      2  N   UNL     1       4.575  -0.768   3.486  1.00  0.00    -0.351 N 
ATOM      3  C   UNL     1       3.377  -1.268   3.928  1.00  0.00     0.263 C 
ATOM      4  O   UNL     1       3.232  -1.163   5.152  1.00  0.00    -0.268 OA
ATOM      5  H   UNL     1       5.167  -0.469   4.213  1.00  0.00     0.163 HD
BRANCH   3   6
ATOM      6  C   UNL     1       2.378  -1.921   3.079  1.00  0.00     0.115 A 
ATOM      7  C   UNL     1       1.743  -1.667   1.857  1.00  0.00     0.065 A 
ATOM      8  C   UNL     1       0.697  -2.623   1.612  1.00  0.00     0.038 A 
ATOM      9  C   UNL     1       0.538  -3.544   2.615  1.00  0.00     0.068 A 
ATOM     10  S   UNL     1       1.681  -3.327   3.841  1.00  0.00    -0.137 S 
BRANCH   7  11
ATOM     11  N   UNL     1       2.026  -0.615   0.982  1.00  0.00    -0.322 N 
ATOM     12  O   UNL     1       0.145  -0.661  -0.394  1.00  0.00    -0.271 OA
ATOM     13  C   UNL     1       1.252  -0.216  -0.098  1.00  0.00     0.262 C 
ATOM     14  H   UNL     1       2.854  -0.109   1.147  1.00  0.00     0.170 HD
BRANCH  13  15
ATOM     15  C   UNL     1       1.894   0.871  -0.986  1.00  0.00     0.329 C 
BRANCH  15  16
ATOM     16  O   UNL     1       2.795   1.844  -0.505  1.00  0.00    -0.484 OA
BRANCH  16  17
ATOM     17  C   UNL     1       2.388   2.783   0.399  1.00  0.00     0.121 A 
ATOM     18  C   UNL     1       1.385   2.615   1.350  1.00  0.00     0.046 A 
ATOM     19  C   UNL     1       3.191   3.929   0.444  1.00  0.00     0.062 A 
ATOM     20  C   UNL     1       1.242   3.541   2.389  1.00  0.00     0.005 A 
ATOM     21  C   UNL     1       3.029   4.861   1.469  1.00  0.00     0.021 A 
ATOM     22  C   UNL     1       2.071   4.659   2.457  1.00  0.00     0.016 A 
ATOM     23  Br  UNL     1       4.161   6.372   1.554  1.00  0.00    -0.051 Br
ENDBRANCH  16  17
ENDBRANCH  15  16
ENDBRANCH  13  15
ENDBRANCH   7  11
ENDBRANCH   3   6
ENDBRANCH   1   2
BRANCH   1  24
ATOM     24  C   UNL     1       4.824   0.816   1.689  1.00  0.00     0.023 C 
BRANCH  24  25
ATOM     25  C   UNL     1       5.866   1.889   1.946  1.00  0.00     0.023 C 
BRANCH  25  26
ATOM     26  C   UNL     1       7.048   1.826   1.001  1.00  0.00     0.116 C 
BRANCH  26  27
ATOM     27  N   UNL     1       6.702   1.889  -0.417  1.00  0.00    -0.352 N 
ATOM     28  C   UNL     1       7.442   2.397  -1.459  1.00  0.00     0.251 C 
ATOM     29  H   UNL     1       5.822   1.519  -0.659  1.00  0.00     0.163 HD
ATOM     30  O   UNL     1       7.003   2.383  -2.604  1.00  0.00    -0.269 OA
BRANCH  28  31
ATOM     31  C   UNL     1       8.739   3.035  -1.162  1.00  0.00     0.039 A 
ATOM     32  C   UNL     1       8.991   4.309  -1.674  1.00  0.00     0.014 A 
ATOM     33  C   UNL     1       9.636   2.434  -0.280  1.00  0.00     0.014 A 
ATOM     34  C   UNL     1      10.097   5.023  -1.215  1.00  0.00     0.010 A 
ATOM     35  C   UNL     1      10.661   3.189   0.265  1.00  0.00     0.010 A 
ATOM     36  C   UNL     1      10.906   4.490  -0.199  1.00  0.00    -0.014 A 
BRANCH  36  37
ATOM     37  C   UNL     1      12.031   5.255   0.388  1.00  0.00     0.031 A 
ATOM     38  C   UNL     1      13.425   4.697   0.307  1.00  0.00     0.074 A 
ATOM     39  C   UNL     1      11.792   6.395   1.066  1.00  0.00     0.049 A 
ATOM     40  N   UNL     1      14.525   5.136   0.862  1.00  0.00    -0.248 NA
ATOM     41  C   UNL     1      13.596   3.452  -0.462  1.00  0.00     0.031 C 
ATOM     42  C   UNL     1      10.479   7.013   1.266  1.00  0.00     0.029 A 
ATOM     43  N   UNL     1      12.656   7.236   1.721  1.00  0.00    -0.354 N 
ATOM     44  C   UNL     1      15.502   4.201   0.544  1.00  0.00     0.074 A 
ATOM     45  C   UNL     1      14.856   3.144  -0.201  1.00  0.00     0.031 C 
ATOM     46  C   UNL     1      10.631   8.157   1.955  1.00  0.00     0.029 A 
ATOM     47  C   UNL     1      12.042   8.330   2.281  1.00  0.00     0.049 A 
ATOM     48  H   UNL     1      13.625   7.072   1.783  1.00  0.00     0.167 HD
ATOM     49  C   UNL     1      16.826   4.232   0.818  1.00  0.00     0.031 A 
ATOM     50  C   UNL     1      12.562   9.358   2.976  1.00  0.00     0.031 A 
ATOM     51  C   UNL     1      17.477   5.307   1.512  1.00  0.00     0.049 A 
ATOM     52  C   UNL     1      14.043   9.392   3.231  1.00  0.00     0.074 A 
ATOM     53  C   UNL     1      18.823   5.467   1.790  1.00  0.00     0.029 A 
ATOM     54  N   UNL     1      16.825   6.419   2.022  1.00  0.00    -0.354 N 
ATOM     55  N   UNL     1      14.962   8.524   2.883  1.00  0.00    -0.248 NA
ATOM     56  C   UNL     1      14.559  10.556   3.965  1.00  0.00     0.031 C 
ATOM     57  C   UNL     1      18.982   6.668   2.489  1.00  0.00     0.029 A 
ATOM     58  C   UNL     1      17.740   7.271   2.612  1.00  0.00     0.049 A 
ATOM     59  H   UNL     1      15.854   6.578   1.972  1.00  0.00     0.167 HD
ATOM     60  C   UNL     1      16.167   9.051   3.327  1.00  0.00     0.074 A 
ATOM     61  C   UNL     1      15.864  10.318   3.960  1.00  0.00     0.031 C 
ATOM     62  C   UNL     1      17.414   8.533   3.221  1.00  0.00     0.031 A 
BRANCH  49  63
ATOM     63  C   UNL     1      17.650   3.068   0.348  1.00  0.00    -0.014 A 
ATOM     64  C   UNL     1      17.904   2.865  -1.018  1.00  0.00     0.009 A 
ATOM     65  C   UNL     1      18.180   2.163   1.280  1.00  0.00     0.009 A 
ATOM     66  C   UNL     1      18.635   1.755  -1.445  1.00  0.00     0.001 A 
ATOM     67  C   UNL     1      18.937   1.070   0.852  1.00  0.00     0.001 A 
ATOM     68  C   UNL     1      19.154   0.861  -0.510  1.00  0.00     0.000 A 
ENDBRANCH  49  63
BRANCH  50  69
ATOM     69  C   UNL     1      11.689  10.464   3.446  1.00  0.00    -0.014 A 
ATOM     70  C   UNL     1      11.747  11.720   2.822  1.00  0.00     0.009 A 
ATOM     71  C   UNL     1      10.806  10.278   4.520  1.00  0.00     0.009 A 
ATOM     72  C   UNL     1      10.961  12.778   3.285  1.00  0.00     0.001 A 
ATOM     73  C   UNL     1      10.003  11.331   4.964  1.00  0.00     0.001 A 
ATOM     74  C   UNL     1      10.088  12.582   4.353  1.00  0.00     0.000 A 
ENDBRANCH  50  69
BRANCH  62  75
ATOM     75  C   UNL     1      18.545   9.360   3.757  1.00  0.00    -0.014 A 
ATOM     76  C   UNL     1      18.774   9.472   5.137  1.00  0.00     0.009 A 
ATOM     77  C   UNL     1      19.419   9.998   2.864  1.00  0.00     0.009 A 
ATOM     78  C   UNL     1      19.843  10.233   5.612  1.00  0.00     0.001 A 
ATOM     79  C   UNL     1      20.500  10.739   3.341  1.00  0.00     0.001 A 
ATOM     80  C   UNL     1      20.706  10.862   4.715  1.00  0.00     0.000 A 
ENDBRANCH  62  75
ENDBRANCH  36  37
ENDBRANCH  28  31
ENDBRANCH  26  27
ENDBRANCH  25  26
ENDBRANCH  24  25
ENDBRANCH   1  24
TORSDOF 15
