REMARK SMILES O=C(NCCCCNC(=O)[C@H](c1c[nH]c2cc(F)ccc12)[NH+]1CCN(c2ccccc2)CC1)c1ccc(-c2c3nc(c(-c4ccccc4)c4ccc([nH]4)c(-c4ccccc4)c4nc(c(-c5ccccc5)c5ccc2[nH]5)C=C4)C=C3)cc1
REMARK SMILES IDX 5 1 4 2 3 3 1 4 2 5 34 7 35 8 81 9 36 10 80 11 37 12 38 13
REMARK SMILES IDX 39 14 74 15 40 16 79 17 73 18 75 19 41 20 78 21 72 22 71 23
REMARK SMILES IDX 42 25 64 26 49 27 63 28 50 29 53 30 62 31 76 32 51 33 52 34
REMARK SMILES IDX 61 36 77 37 54 38 43 39 44 40 48 41 45 42 47 43 46 44 65 45
REMARK SMILES IDX 66 46 70 47 67 48 69 49 68 50 55 51 56 52 60 53 57 54 59 55
REMARK SMILES IDX 58 56 6 57 7 58 8 59 9 60 10 62 11 63 22 64 23 65 33 66
REMARK SMILES IDX 24 68 32 69 25 70 26 71 27 72 31 73 28 74 30 75 29 76 12 77
REMARK SMILES IDX 13 78 21 79 14 80 15 81 20 82 16 84 19 85 17 86 18 87
REMARK H PARENT 3 6 75 24 53 35 8 61 22 67 14 83
REMARK Flexibility Score: inf
ROOT
ATOM      1  C   UNL     1       5.455 -10.123   5.042  1.00  0.00     0.023 C 
ENDROOT
BRANCH   1   2
ATOM      2  C   UNL     1       4.101 -10.464   4.428  1.00  0.00     0.116 C 
BRANCH   2   3
ATOM      3  N   UNL     1       4.031 -11.813   3.890  1.00  0.00    -0.352 N 
ATOM      4  O   UNL     1       3.557 -14.012   3.809  1.00  0.00    -0.269 OA
ATOM      5  C   UNL     1       3.373 -12.927   4.357  1.00  0.00     0.251 C 
ATOM      6  H   UNL     1       4.536 -11.951   3.057  1.00  0.00     0.163 HD
BRANCH   5   7
ATOM      7  C   UNL     1       2.476 -12.850   5.533  1.00  0.00     0.039 A 
ATOM      8  C   UNL     1       1.523 -11.838   5.658  1.00  0.00     0.014 A 
ATOM      9  C   UNL     1       2.569 -13.839   6.519  1.00  0.00     0.014 A 
ATOM     10  C   UNL     1       0.780 -11.723   6.832  1.00  0.00     0.010 A 
ATOM     11  C   UNL     1       1.765 -13.768   7.662  1.00  0.00     0.010 A 
ATOM     12  C   UNL     1       0.892 -12.685   7.849  1.00  0.00    -0.014 A 
BRANCH  12  13
ATOM     13  C   UNL     1       0.066 -12.565   9.080  1.00  0.00     0.031 A 
ATOM     14  C   UNL     1       0.703 -12.339  10.426  1.00  0.00     0.074 A 
ATOM     15  C   UNL     1      -1.276 -12.641   8.982  1.00  0.00     0.049 A 
ATOM     16  N   UNL     1       0.130 -12.200  11.597  1.00  0.00    -0.248 NA
ATOM     17  C   UNL     1       2.171 -12.266  10.467  1.00  0.00     0.031 C 
ATOM     18  C   UNL     1      -2.020 -12.860   7.740  1.00  0.00     0.029 A 
ATOM     19  N   UNL     1      -2.252 -12.532   9.940  1.00  0.00    -0.354 N 
ATOM     20  C   UNL     1       1.163 -12.039  12.512  1.00  0.00     0.074 A 
ATOM     21  C   UNL     1       2.401 -12.126  11.766  1.00  0.00     0.031 C 
ATOM     22  C   UNL     1      -3.334 -12.829   8.004  1.00  0.00     0.029 A 
ATOM     23  C   UNL     1      -3.526 -12.650   9.439  1.00  0.00     0.049 A 
ATOM     24  H   UNL     1      -2.059 -12.384  10.894  1.00  0.00     0.167 HD
ATOM     25  C   UNL     1       1.090 -11.833  13.850  1.00  0.00     0.031 A 
ATOM     26  C   UNL     1      -4.719 -12.633  10.062  1.00  0.00     0.031 A 
ATOM     27  C   UNL     1      -0.139 -11.750  14.596  1.00  0.00     0.049 A 
ATOM     28  C   UNL     1      -4.769 -12.448  11.551  1.00  0.00     0.074 A 
ATOM     29  C   UNL     1      -0.312 -11.510  15.949  1.00  0.00     0.029 A 
ATOM     30  N   UNL     1      -1.405 -11.913  14.055  1.00  0.00    -0.354 N 
ATOM     31  N   UNL     1      -3.783 -12.259  12.393  1.00  0.00    -0.248 NA
ATOM     32  C   UNL     1      -6.100 -12.472  12.174  1.00  0.00     0.031 C 
ATOM     33  C   UNL     1      -1.679 -11.584  16.236  1.00  0.00     0.029 A 
ATOM     34  C   UNL     1      -2.362 -11.808  15.052  1.00  0.00     0.049 A 
ATOM     35  H   UNL     1      -1.597 -12.078  13.104  1.00  0.00     0.167 HD
ATOM     36  C   UNL     1      -4.374 -12.121  13.642  1.00  0.00     0.074 A 
ATOM     37  C   UNL     1      -5.805 -12.228  13.443  1.00  0.00     0.031 C 
ATOM     38  C   UNL     1      -3.783 -11.923  14.845  1.00  0.00     0.031 A 
BRANCH  25  39
ATOM     39  C   UNL     1       2.385 -11.709  14.607  1.00  0.00    -0.014 A 
ATOM     40  C   UNL     1       3.199 -10.572  14.484  1.00  0.00     0.009 A 
ATOM     41  C   UNL     1       2.771 -12.724  15.497  1.00  0.00     0.009 A 
ATOM     42  C   UNL     1       4.388 -10.470  15.211  1.00  0.00     0.001 A 
ATOM     43  C   UNL     1       3.945 -12.607  16.243  1.00  0.00     0.001 A 
ATOM     44  C   UNL     1       4.758 -11.485  16.093  1.00  0.00     0.000 A 
ENDBRANCH  25  39
BRANCH  26  45
ATOM     45  C   UNL     1      -5.965 -12.812   9.274  1.00  0.00    -0.014 A 
ATOM     46  C   UNL     1      -6.860 -11.746   9.098  1.00  0.00     0.009 A 
ATOM     47  C   UNL     1      -6.261 -14.052   8.685  1.00  0.00     0.009 A 
ATOM     48  C   UNL     1      -8.035 -11.925   8.365  1.00  0.00     0.001 A 
ATOM     49  C   UNL     1      -7.420 -14.218   7.926  1.00  0.00     0.001 A 
ATOM     50  C   UNL     1      -8.311 -13.157   7.774  1.00  0.00     0.000 A 
ENDBRANCH  26  45
BRANCH  38  51
ATOM     51  C   UNL     1      -4.687 -11.778  16.037  1.00  0.00    -0.014 A 
ATOM     52  C   UNL     1      -5.378 -12.878  16.567  1.00  0.00     0.009 A 
ATOM     53  C   UNL     1      -4.828 -10.524  16.653  1.00  0.00     0.009 A 
ATOM     54  C   UNL     1      -6.219 -12.718  17.671  1.00  0.00     0.001 A 
ATOM     55  C   UNL     1      -5.646 -10.373  17.773  1.00  0.00     0.001 A 
ATOM     56  C   UNL     1      -6.349 -11.468  18.275  1.00  0.00     0.000 A 
ENDBRANCH  38  51
ENDBRANCH  12  13
ENDBRANCH   5   7
ENDBRANCH   2   3
ENDBRANCH   1   2
BRANCH   1  57
ATOM     57  C   UNL     1       6.627  -9.963   4.067  1.00  0.00     0.023 C 
BRANCH  57  58
ATOM     58  C   UNL     1       6.425  -9.012   2.884  1.00  0.00     0.116 C 
BRANCH  58  59
ATOM     59  N   UNL     1       5.939  -7.691   3.248  1.00  0.00    -0.351 N 
ATOM     60  C   UNL     1       5.819  -6.553   2.480  1.00  0.00     0.283 C 
ATOM     61  H   UNL     1       5.652  -7.595   4.185  1.00  0.00     0.163 HD
ATOM     62  O   UNL     1       5.261  -5.589   3.016  1.00  0.00    -0.268 OA
BRANCH  60  63
ATOM     63  C   UNL     1       6.351  -6.529   1.025  1.00  0.00     0.307 C 
BRANCH  63  64
ATOM     64  N   UNL     1       5.314  -6.719  -0.018  1.00  0.00    -0.318 N 
ATOM     65  C   UNL     1       4.846  -8.097  -0.211  1.00  0.00     0.284 C 
ATOM     66  C   UNL     1       4.179  -5.775  -0.067  1.00  0.00     0.284 C 
ATOM     67  H   UNL     1       5.891  -6.463  -0.820  1.00  0.00     0.349 HD
ATOM     68  C   UNL     1       3.611  -8.513   0.617  1.00  0.00     0.178 C 
ATOM     69  C   UNL     1       2.909  -6.146   0.736  1.00  0.00     0.178 C 
ATOM     70  N   UNL     1       2.533  -7.539   0.467  1.00  0.00    -0.360 N 
BRANCH  70  71
ATOM     71  C   UNL     1       1.253  -7.930   0.835  1.00  0.00     0.037 A 
ATOM     72  C   UNL     1       0.987  -8.639   2.013  1.00  0.00     0.026 A 
ATOM     73  C   UNL     1       0.183  -7.650  -0.022  1.00  0.00     0.026 A 
ATOM     74  C   UNL     1      -0.299  -9.100   2.303  1.00  0.00     0.002 A 
ATOM     75  C   UNL     1      -1.104  -8.116   0.257  1.00  0.00     0.002 A 
ATOM     76  C   UNL     1      -1.342  -8.851   1.416  1.00  0.00     0.000 A 
ENDBRANCH  70  71
ENDBRANCH  63  64
BRANCH  63  77
ATOM     77  C   UNL     1       7.150  -5.274   0.676  1.00  0.00     0.044 A 
ATOM     78  C   UNL     1       6.781  -3.947   0.845  1.00  0.00     0.094 A 
ATOM     79  C   UNL     1       8.439  -5.237   0.031  1.00  0.00     0.009 A 
ATOM     80  N   UNL     1       7.674  -3.149   0.188  1.00  0.00    -0.361 N 
ATOM     81  C   UNL     1       8.699  -3.908  -0.319  1.00  0.00     0.049 A 
ATOM     82  C   UNL     1       9.392  -6.217  -0.328  1.00  0.00     0.014 A 
ATOM     83  H   UNL     1       7.595  -2.173   0.091  1.00  0.00     0.166 HD
ATOM     84  C   UNL     1       9.820  -3.520  -1.063  1.00  0.00     0.065 A 
ATOM     85  C   UNL     1      10.542  -5.840  -1.034  1.00  0.00     0.040 A 
ATOM     86  C   UNL     1      10.730  -4.516  -1.407  1.00  0.00     0.125 A 
ATOM     87  F   UNL     1      11.819  -4.185  -2.115  1.00  0.00    -0.207 F 
ENDBRANCH  63  77
ENDBRANCH  60  63
ENDBRANCH  58  59
ENDBRANCH  57  58
ENDBRANCH   1  57
TORSDOF 14
