REMARK SMILES COc1cc(OC(F)(F)F)cc2c1O[C@@H](C(F)(F)F)C(C(=O)NCCCCNC(=O)c1ccc(-c3c4nc(c(-c5ccccc5)c5ccc([nH]5)c(-c5ccccc5)c5nc(c(-c6ccccc6)c6ccc3[nH]6)C=C5)C=C4)cc1)=C2
REMARK SMILES IDX 25 1 24 2 23 3 21 4 22 5 20 7 3 8 4 9 13 10 5 11 12 12 14 13
REMARK SMILES IDX 11 14 79 15 15 16 2 17 1 18 6 19 7 20 8 21 9 22 10 23 16 24
REMARK SMILES IDX 17 25 18 26 19 27 26 28 27 29 28 30 29 31 30 33 31 34 32 35
REMARK SMILES IDX 78 36 33 37 77 38 34 39 35 40 36 41 71 42 37 43 76 44 70 45
REMARK SMILES IDX 72 46 38 47 75 48 69 49 68 50 39 52 61 53 46 54 60 55 47 56
REMARK SMILES IDX 50 57 59 58 73 59 48 60 49 61 58 63 74 64 51 65 40 66 41 67
REMARK SMILES IDX 45 68 42 69 44 70 43 71 62 72 63 73 67 74 64 75 66 76 65 77
REMARK SMILES IDX 52 78 53 79 57 80 54 81 56 82 55 83
REMARK H PARENT 23 6 28 32 72 51 50 62
REMARK Flexibility Score: inf
ROOT
ATOM      1  C   UNL     1       5.965   6.806  -1.416  1.00  0.00     0.023 C 
ENDROOT
BRANCH   1   2
ATOM      2  C   UNL     1       6.304   5.491  -2.127  1.00  0.00     0.116 C 
BRANCH   2   3
ATOM      3  N   UNL     1       6.783   4.516  -1.163  1.00  0.00    -0.352 N 
ATOM      4  C   UNL     1       6.141   3.597  -0.396  1.00  0.00     0.251 C 
ATOM      5  O   UNL     1       6.789   3.025   0.477  1.00  0.00    -0.270 OA
ATOM      6  H   UNL     1       7.760   4.521  -1.044  1.00  0.00     0.163 HD
BRANCH   4   7
ATOM      7  C   UNL     1       4.720   3.210  -0.609  1.00  0.00     0.067 C 
ATOM      8  C   UNL     1       0.819   1.815  -1.359  1.00  0.00     0.165 A 
ATOM      9  C   UNL     1      -0.159   2.715  -1.805  1.00  0.00     0.097 A 
ATOM     10  C   UNL     1       2.118   2.259  -1.083  1.00  0.00     0.170 A 
ATOM     11  C   UNL     1       0.137   4.070  -1.934  1.00  0.00     0.134 A 
ATOM     12  C   UNL     1       2.413   3.615  -1.197  1.00  0.00     0.025 A 
ATOM     13  O   UNL     1       3.084   1.336  -0.809  1.00  0.00    -0.471 OA
ATOM     14  C   UNL     1       1.422   4.514  -1.613  1.00  0.00     0.059 A 
ATOM     15  C   UNL     1       3.771   4.083  -0.975  1.00  0.00     0.026 C 
ATOM     16  C   UNL     1       4.343   1.782  -0.230  1.00  0.00     0.314 C 
BRANCH   8  17
ATOM     17  O   UNL     1       0.416   0.505  -1.295  1.00  0.00    -0.493 OA
ATOM     18  C   UNL     1       0.741  -0.131  -0.060  1.00  0.00     0.278 C 
ENDBRANCH   8  17
BRANCH  11  19
ATOM     19  O   UNL     1      -0.703   5.054  -2.368  1.00  0.00    -0.406 OA
BRANCH  19  20
ATOM     20  C   UNL     1      -2.023   4.687  -2.734  1.00  0.00     0.573 C 
ATOM     21  F   UNL     1      -2.020   3.795  -3.746  1.00  0.00    -0.132 F 
ATOM     22  F   UNL     1      -2.691   4.176  -1.678  1.00  0.00    -0.132 F 
ATOM     23  F   UNL     1      -2.677   5.793  -3.150  1.00  0.00    -0.132 F 
ENDBRANCH  19  20
ENDBRANCH  11  19
BRANCH  16  24
ATOM     24  C   UNL     1       5.390   0.683  -0.531  1.00  0.00     0.429 C 
ATOM     25  F   UNL     1       6.315   0.559   0.446  1.00  0.00    -0.167 F 
ATOM     26  F   UNL     1       4.796  -0.538  -0.620  1.00  0.00    -0.167 F 
ATOM     27  F   UNL     1       6.034   0.891  -1.703  1.00  0.00    -0.167 F 
ENDBRANCH  16  24
ENDBRANCH   4   7
ENDBRANCH   2   3
ENDBRANCH   1   2
BRANCH   1  28
ATOM     28  C   UNL     1       7.186   7.651  -1.038  1.00  0.00     0.023 C 
BRANCH  28  29
ATOM     29  C   UNL     1       7.984   8.179  -2.223  1.00  0.00     0.116 C 
BRANCH  29  30
ATOM     30  N   UNL     1       7.192   8.999  -3.126  1.00  0.00    -0.352 N 
ATOM     31  C   UNL     1       7.606  10.051  -3.909  1.00  0.00     0.251 C 
ATOM     32  H   UNL     1       6.236   8.771  -3.184  1.00  0.00     0.163 HD
ATOM     33  O   UNL     1       6.795  10.712  -4.541  1.00  0.00    -0.269 OA
BRANCH  31  34
ATOM     34  C   UNL     1       9.040  10.400  -3.939  1.00  0.00     0.039 A 
ATOM     35  C   UNL     1       9.410  11.728  -3.712  1.00  0.00     0.014 A 
ATOM     36  C   UNL     1      10.011   9.418  -4.152  1.00  0.00     0.014 A 
ATOM     37  C   UNL     1      10.762  12.060  -3.633  1.00  0.00     0.010 A 
ATOM     38  C   UNL     1      11.356   9.739  -4.009  1.00  0.00     0.010 A 
ATOM     39  C   UNL     1      11.744  11.062  -3.746  1.00  0.00    -0.014 A 
BRANCH  39  40
ATOM     40  C   UNL     1      13.183  11.381  -3.588  1.00  0.00     0.031 A 
ATOM     41  C   UNL     1      14.120  11.226  -4.752  1.00  0.00     0.074 A 
ATOM     42  C   UNL     1      13.655  11.747  -2.380  1.00  0.00     0.049 A 
ATOM     43  N   UNL     1      15.418  11.392  -4.793  1.00  0.00    -0.248 NA
ATOM     44  C   UNL     1      13.526  10.807  -6.032  1.00  0.00     0.031 C 
ATOM     45  C   UNL     1      12.853  11.893  -1.163  1.00  0.00     0.029 A 
ATOM     46  N   UNL     1      14.929  12.055  -1.977  1.00  0.00    -0.354 N 
ATOM     47  C   UNL     1      15.795  11.084  -6.093  1.00  0.00     0.074 A 
ATOM     48  C   UNL     1      14.599  10.676  -6.798  1.00  0.00     0.031 C 
ATOM     49  C   UNL     1      13.651  12.284  -0.156  1.00  0.00     0.029 A 
ATOM     50  C   UNL     1      15.022  12.380  -0.646  1.00  0.00     0.049 A 
ATOM     51  H   UNL     1      15.704  12.044  -2.584  1.00  0.00     0.167 HD
ATOM     52  C   UNL     1      17.024  11.154  -6.657  1.00  0.00     0.031 A 
ATOM     53  C   UNL     1      16.093  12.714   0.098  1.00  0.00     0.031 A 
ATOM     54  C   UNL     1      18.211  11.573  -5.963  1.00  0.00     0.049 A 
ATOM     55  C   UNL     1      17.447  12.778  -0.553  1.00  0.00     0.074 A 
ATOM     56  C   UNL     1      19.493  11.722  -6.460  1.00  0.00     0.029 A 
ATOM     57  N   UNL     1      18.259  11.912  -4.620  1.00  0.00    -0.354 N 
ATOM     58  N   UNL     1      17.776  12.544  -1.800  1.00  0.00    -0.248 NA
ATOM     59  C   UNL     1      18.575  13.166   0.306  1.00  0.00     0.031 C 
ATOM     60  C   UNL     1      20.326  12.115  -5.408  1.00  0.00     0.029 A 
ATOM     61  C   UNL     1      19.552  12.256  -4.268  1.00  0.00     0.049 A 
ATOM     62  H   UNL     1      17.488  11.909  -4.008  1.00  0.00     0.167 HD
ATOM     63  C   UNL     1      19.141  12.783  -1.881  1.00  0.00     0.074 A 
ATOM     64  C   UNL     1      19.576  13.196  -0.563  1.00  0.00     0.031 C 
ATOM     65  C   UNL     1      19.963  12.671  -2.953  1.00  0.00     0.031 A 
BRANCH  52  66
ATOM     66  C   UNL     1      17.143  10.769  -8.105  1.00  0.00    -0.014 A 
ATOM     67  C   UNL     1      16.628  11.595  -9.117  1.00  0.00     0.009 A 
ATOM     68  C   UNL     1      17.812   9.590  -8.464  1.00  0.00     0.009 A 
ATOM     69  C   UNL     1      16.755  11.231 -10.459  1.00  0.00     0.001 A 
ATOM     70  C   UNL     1      17.960   9.241  -9.807  1.00  0.00     0.001 A 
ATOM     71  C   UNL     1      17.425  10.057 -10.803  1.00  0.00     0.000 A 
ENDBRANCH  52  66
BRANCH  53  72
ATOM     72  C   UNL     1      15.935  13.026   1.542  1.00  0.00    -0.014 A 
ATOM     73  C   UNL     1      16.089  14.342   2.005  1.00  0.00     0.009 A 
ATOM     74  C   UNL     1      15.651  12.009   2.466  1.00  0.00     0.009 A 
ATOM     75  C   UNL     1      15.994  14.627   3.369  1.00  0.00     0.001 A 
ATOM     76  C   UNL     1      15.529  12.303   3.826  1.00  0.00     0.001 A 
ATOM     77  C   UNL     1      15.712  13.609   4.278  1.00  0.00     0.000 A 
ENDBRANCH  53  72
BRANCH  65  78
ATOM     78  C   UNL     1      21.406  13.036  -2.751  1.00  0.00    -0.014 A 
ATOM     79  C   UNL     1      22.276  12.198  -2.039  1.00  0.00     0.009 A 
ATOM     80  C   UNL     1      21.907  14.218  -3.318  1.00  0.00     0.009 A 
ATOM     81  C   UNL     1      23.616  12.553  -1.872  1.00  0.00     0.001 A 
ATOM     82  C   UNL     1      23.252  14.558  -3.172  1.00  0.00     0.001 A 
ATOM     83  C   UNL     1      24.103  13.730  -2.442  1.00  0.00     0.000 A 
ENDBRANCH  65  78
ENDBRANCH  39  40
ENDBRANCH  31  34
ENDBRANCH  29  30
ENDBRANCH  28  29
ENDBRANCH   1  28
TORSDOF 15
