REMARK SMILES C[C@@]12CC[C@@H]3c4ccc(O)cc4/C(=N/OCC(=O)NCCCCNC(=O)c4ccc(-c5c6nc(c(-c7ccccc7)c7ccc([nH]7)c(-c7ccccc7)c7nc(c(-c8ccccc8)c8ccc5[nH]8)C=C7)C=C6)cc4)C[C@H]3[C@@H]1C[C@@H](O)[C@@H]2O
REMARK SMILES IDX 21 1 20 2 19 3 17 4 18 5 16 7 15 8 14 9 1 10 2 11 3 12 77 13
REMARK SMILES IDX 81 14 4 15 76 16 78 17 79 18 5 19 75 20 6 21 13 22 7 23
REMARK SMILES IDX 12 24 8 25 11 26 9 27 82 28 80 30 10 32 22 34 23 35 24 36
REMARK SMILES IDX 25 37 26 39 27 40 28 41 74 42 29 43 73 44 30 45 31 46 32 47
REMARK SMILES IDX 67 48 33 49 72 50 66 51 68 52 34 53 71 54 65 55 64 56 35 58
REMARK SMILES IDX 57 59 42 60 56 61 43 62 46 63 55 64 69 65 44 66 45 67 54 69
REMARK SMILES IDX 70 70 47 71 36 72 37 73 41 74 38 75 40 76 39 77 58 78 59 79
REMARK SMILES IDX 63 80 60 81 62 82 61 83 48 84 49 85 53 86 50 87 52 88 51 89
REMARK H PARENT 19 6 82 29 80 31 10 33 24 38 68 57 46 68
REMARK Flexibility Score: inf
ROOT
ATOM      1  C   UNL     1      -1.897   5.641  -0.904  1.00  0.00     0.023 C 
ENDROOT
BRANCH   1   2
ATOM      2  C   UNL     1      -3.385   5.892  -0.645  1.00  0.00     0.116 C 
BRANCH   2   3
ATOM      3  N   UNL     1      -3.977   6.769  -1.635  1.00  0.00    -0.353 N 
ATOM      4  C   UNL     1      -4.584   6.392  -2.803  1.00  0.00     0.260 C 
ATOM      5  O   UNL     1      -5.061   7.262  -3.533  1.00  0.00    -0.271 OA
ATOM      6  H   UNL     1      -3.939   7.735  -1.448  1.00  0.00     0.163 HD
BRANCH   4   7
ATOM      7  C   UNL     1      -4.716   4.909  -3.108  1.00  0.00     0.363 C 
BRANCH   7   8
ATOM      8  O   UNL     1      -3.456   4.255  -2.960  1.00  0.00    -0.385 OA
BRANCH   8   9
ATOM      9  N   UNL     1      -3.191   3.566  -4.121  1.00  0.00    -0.090 NA
ATOM     10  C   UNL     1       0.626  -1.182   0.106  1.00  0.00     0.014 C 
ATOM     11  C   UNL     1       0.342  -0.888  -1.395  1.00  0.00    -0.001 C 
ATOM     12  C   UNL     1      -0.921  -1.683  -1.726  1.00  0.00     0.010 C 
ATOM     13  C   UNL     1       0.188   0.638  -1.625  1.00  0.00     0.004 C 
ATOM     14  C   UNL     1       1.586  -1.238  -2.262  1.00  0.00     0.149 C 
ATOM     15  C   UNL     1      -1.477  -1.431  -3.103  1.00  0.00     0.009 C 
ATOM     16  C   UNL     1      -0.609   1.030  -2.924  1.00  0.00     0.006 C 
ATOM     17  C   UNL     1       1.684   1.115  -1.629  1.00  0.00     0.039 C 
ATOM     18  C   UNL     1       2.578  -0.116  -1.935  1.00  0.00     0.144 C 
ATOM     19  C   UNL     1      -1.751   0.047  -3.332  1.00  0.00     0.024 C 
ATOM     20  C   UNL     1      -1.293   2.437  -2.842  1.00  0.00     0.065 C 
ATOM     21  C   UNL     1      -2.150   0.361  -4.768  1.00  0.00    -0.035 A 
ATOM     22  C   UNL     1      -2.245   2.685  -4.027  1.00  0.00     0.088 C 
ATOM     23  C   UNL     1      -2.527  -0.598  -5.714  1.00  0.00     0.008 A 
ATOM     24  C   UNL     1      -2.249   1.708  -5.135  1.00  0.00     0.006 A 
ATOM     25  C   UNL     1      -2.990  -0.216  -6.978  1.00  0.00     0.046 A 
ATOM     26  C   UNL     1      -2.677   2.102  -6.407  1.00  0.00     0.056 A 
ATOM     27  C   UNL     1      -3.057   1.131  -7.315  1.00  0.00     0.116 A 
BRANCH  14  28
ATOM     28  O   UNL     1       1.334  -1.236  -3.666  1.00  0.00    -0.390 OA
ATOM     29  H   UNL     1       1.019  -0.360  -3.937  1.00  0.00     0.211 HD
ENDBRANCH  14  28
BRANCH  18  30
ATOM     30  O   UNL     1       3.384  -0.460  -0.811  1.00  0.00    -0.390 OA
ATOM     31  H   UNL     1       2.814  -0.641  -0.048  1.00  0.00     0.211 HD
ENDBRANCH  18  30
BRANCH  27  32
ATOM     32  O   UNL     1      -3.554   1.540  -8.515  1.00  0.00    -0.508 OA
ATOM     33  H   UNL     1      -3.821   0.907  -9.152  1.00  0.00     0.293 HD
ENDBRANCH  27  32
ENDBRANCH   8   9
ENDBRANCH   7   8
ENDBRANCH   4   7
ENDBRANCH   2   3
ENDBRANCH   1   2
BRANCH   1  34
ATOM     34  C   UNL     1      -1.012   6.869  -0.766  1.00  0.00     0.023 C 
BRANCH  34  35
ATOM     35  C   UNL     1      -1.154   7.588   0.559  1.00  0.00     0.116 C 
BRANCH  35  36
ATOM     36  N   UNL     1      -0.857   6.749   1.712  1.00  0.00    -0.352 N 
ATOM     37  C   UNL     1      -0.216   7.117   2.877  1.00  0.00     0.251 C 
ATOM     38  H   UNL     1      -1.148   5.810   1.653  1.00  0.00     0.163 HD
ATOM     39  O   UNL     1       0.058   6.303   3.739  1.00  0.00    -0.269 OA
BRANCH  37  40
ATOM     40  C   UNL     1       0.180   8.534   3.012  1.00  0.00     0.039 A 
ATOM     41  C   UNL     1      -0.756   9.538   2.757  1.00  0.00     0.014 A 
ATOM     42  C   UNL     1       1.524   8.843   3.221  1.00  0.00     0.014 A 
ATOM     43  C   UNL     1      -0.310  10.825   2.498  1.00  0.00     0.010 A 
ATOM     44  C   UNL     1       1.951  10.163   3.069  1.00  0.00     0.010 A 
ATOM     45  C   UNL     1       1.050  11.152   2.642  1.00  0.00    -0.014 A 
BRANCH  45  46
ATOM     46  C   UNL     1       1.502  12.529   2.323  1.00  0.00     0.031 A 
ATOM     47  C   UNL     1       2.477  12.787   1.205  1.00  0.00     0.074 A 
ATOM     48  C   UNL     1       0.979  13.562   3.013  1.00  0.00     0.049 A 
ATOM     49  N   UNL     1       2.972  13.929   0.796  1.00  0.00    -0.248 NA
ATOM     50  C   UNL     1       2.963  11.623   0.446  1.00  0.00     0.031 C 
ATOM     51  C   UNL     1       0.001  13.439   4.096  1.00  0.00     0.029 A 
ATOM     52  N   UNL     1       1.169  14.914   2.887  1.00  0.00    -0.354 N 
ATOM     53  C   UNL     1       3.839  13.620  -0.245  1.00  0.00     0.074 A 
ATOM     54  C   UNL     1       3.826  12.181  -0.392  1.00  0.00     0.031 C 
ATOM     55  C   UNL     1      -0.369  14.663   4.494  1.00  0.00     0.029 A 
ATOM     56  C   UNL     1       0.406  15.655   3.756  1.00  0.00     0.049 A 
ATOM     57  H   UNL     1       1.791  15.314   2.238  1.00  0.00     0.167 HD
ATOM     58  C   UNL     1       4.571  14.461  -1.012  1.00  0.00     0.031 A 
ATOM     59  C   UNL     1       0.345  16.984   3.959  1.00  0.00     0.031 A 
ATOM     60  C   UNL     1       4.564  15.895  -0.875  1.00  0.00     0.049 A 
ATOM     61  C   UNL     1       1.207  17.890   3.131  1.00  0.00     0.074 A 
ATOM     62  C   UNL     1       5.258  16.829  -1.624  1.00  0.00     0.029 A 
ATOM     63  N   UNL     1       3.826  16.599   0.063  1.00  0.00    -0.354 N 
ATOM     64  N   UNL     1       2.023  17.579   2.154  1.00  0.00    -0.248 NA
ATOM     65  C   UNL     1       1.144  19.327   3.432  1.00  0.00     0.031 C 
ATOM     66  C   UNL     1       4.992  18.094  -1.097  1.00  0.00     0.029 A 
ATOM     67  C   UNL     1       4.074  17.955  -0.069  1.00  0.00     0.049 A 
ATOM     68  H   UNL     1       3.218  16.196   0.724  1.00  0.00     0.167 HD
ATOM     69  C   UNL     1       2.563  18.780   1.715  1.00  0.00     0.074 A 
ATOM     70  C   UNL     1       1.965  19.827   2.517  1.00  0.00     0.031 C 
ATOM     71  C   UNL     1       3.476  18.990   0.736  1.00  0.00     0.031 A 
BRANCH  58  72
ATOM     72  C   UNL     1       5.461  13.873  -2.074  1.00  0.00    -0.014 A 
ATOM     73  C   UNL     1       6.856  13.974  -1.945  1.00  0.00     0.009 A 
ATOM     74  C   UNL     1       4.928  13.328  -3.252  1.00  0.00     0.009 A 
ATOM     75  C   UNL     1       7.698  13.564  -2.980  1.00  0.00     0.001 A 
ATOM     76  C   UNL     1       5.774  12.891  -4.275  1.00  0.00     0.001 A 
ATOM     77  C   UNL     1       7.157  13.020  -4.143  1.00  0.00     0.000 A 
ENDBRANCH  58  72
BRANCH  59  78
ATOM     78  C   UNL     1      -0.570  17.515   5.004  1.00  0.00    -0.014 A 
ATOM     79  C   UNL     1      -0.338  17.233   6.361  1.00  0.00     0.009 A 
ATOM     80  C   UNL     1      -1.716  18.240   4.649  1.00  0.00     0.009 A 
ATOM     81  C   UNL     1      -1.252  17.633   7.337  1.00  0.00     0.001 A 
ATOM     82  C   UNL     1      -2.611  18.669   5.632  1.00  0.00     0.001 A 
ATOM     83  C   UNL     1      -2.386  18.354   6.972  1.00  0.00     0.000 A 
ENDBRANCH  59  78
BRANCH  71  84
ATOM     84  C   UNL     1       3.894  20.406   0.455  1.00  0.00    -0.014 A 
ATOM     85  C   UNL     1       3.536  21.009  -0.762  1.00  0.00     0.009 A 
ATOM     86  C   UNL     1       4.735  21.100   1.337  1.00  0.00     0.009 A 
ATOM     87  C   UNL     1       4.030  22.268  -1.101  1.00  0.00     0.001 A 
ATOM     88  C   UNL     1       5.204  22.374   1.008  1.00  0.00     0.001 A 
ATOM     89  C   UNL     1       4.861  22.951  -0.215  1.00  0.00     0.000 A 
ENDBRANCH  71  84
ENDBRANCH  45  46
ENDBRANCH  37  40
ENDBRANCH  35  36
ENDBRANCH  34  35
ENDBRANCH   1  34
TORSDOF 16
