REMARK SMILES CC[C@](C)(NC(=O)CNC(=O)c1cccc(Cl)c1)C(=O)NCCCCNC(=O)c1ccc(-c2c3nc(c(-c4ccccc4)c4ccc([nH]4)c(-c4ccccc4)c4nc(c(-c5ccccc5)c5ccc2[nH]5)C=C4)C=C3)cc1
REMARK SMILES IDX 22 1 21 2 19 3 20 4 3 6 4 7 2 8 1 9 5 10 6 11 7 13 8 14 9 15
REMARK SMILES IDX 10 16 11 18 12 19 13 20 18 21 14 22 16 23 15 24 17 25 23 26
REMARK SMILES IDX 24 27 25 28 26 29 27 30 28 32 29 33 30 34 76 35 31 36 75 37
REMARK SMILES IDX 32 38 33 39 34 40 69 41 35 42 74 43 68 44 70 45 36 46 73 47
REMARK SMILES IDX 67 48 66 49 37 51 59 52 44 53 58 54 45 55 48 56 57 57 71 58
REMARK SMILES IDX 46 59 47 60 56 62 72 63 49 64 38 65 39 66 43 67 40 68 42 69
REMARK SMILES IDX 41 70 60 71 61 72 65 73 62 74 64 75 63 76 50 77 51 78 55 79
REMARK SMILES IDX 52 80 54 81 53 82
REMARK H PARENT 21 5 5 12 9 17 26 31 70 50 48 61
REMARK Flexibility Score: inf
ROOT
ATOM      1  C   UNL     1       1.793   3.319   4.117  1.00  0.00     0.116 C 
ENDROOT
BRANCH   1   2
ATOM      2  N   UNL     1       2.359   2.655   2.948  1.00  0.00    -0.354 N 
ATOM      3  C   UNL     1       1.801   1.759   2.066  1.00  0.00     0.245 C 
ATOM      4  O   UNL     1       2.235   1.753   0.913  1.00  0.00    -0.272 OA
ATOM      5  H   UNL     1       3.297   2.888   2.759  1.00  0.00     0.163 HD
BRANCH   3   6
ATOM      6  C   UNL     1       0.558   0.923   2.416  1.00  0.00     0.116 C 
ATOM      7  C   UNL     1       0.396  -0.351   1.562  1.00  0.00     0.045 C 
BRANCH   6   8
ATOM      8  C   UNL     1      -0.642   1.886   2.121  1.00  0.00     0.035 C 
ATOM      9  C   UNL     1      -0.976   2.056   0.633  1.00  0.00     0.007 C 
ENDBRANCH   6   8
BRANCH   6  10
ATOM     10  N   UNL     1       0.605   0.497   3.825  1.00  0.00    -0.340 N 
ATOM     11  C   UNL     1       1.557  -0.272   4.450  1.00  0.00     0.240 C 
ATOM     12  H   UNL     1      -0.139   0.803   4.392  1.00  0.00     0.164 HD
ATOM     13  O   UNL     1       1.194  -0.888   5.458  1.00  0.00    -0.273 OA
BRANCH  11  14
ATOM     14  C   UNL     1       3.063  -0.253   4.050  1.00  0.00     0.216 C 
BRANCH  14  15
ATOM     15  N   UNL     1       3.563  -0.960   2.884  1.00  0.00    -0.343 N 
ATOM     16  C   UNL     1       4.573  -0.642   1.998  1.00  0.00     0.251 C 
ATOM     17  H   UNL     1       3.104  -1.810   2.693  1.00  0.00     0.164 HD
ATOM     18  O   UNL     1       5.049  -1.534   1.297  1.00  0.00    -0.269 OA
BRANCH  16  19
ATOM     19  C   UNL     1       5.037   0.747   1.758  1.00  0.00     0.041 A 
ATOM     20  C   UNL     1       5.645   1.557   2.720  1.00  0.00     0.014 A 
ATOM     21  C   UNL     1       4.855   1.244   0.458  1.00  0.00     0.034 A 
ATOM     22  C   UNL     1       5.958   2.891   2.412  1.00  0.00     0.002 A 
ATOM     23  C   UNL     1       5.117   2.583   0.174  1.00  0.00     0.041 A 
ATOM     24  C   UNL     1       5.653   3.416   1.153  1.00  0.00     0.020 A 
ATOM     25  Cl  UNL     1       4.709   3.232  -1.367  1.00  0.00    -0.084 Cl
ENDBRANCH  16  19
ENDBRANCH  14  15
ENDBRANCH  11  14
ENDBRANCH   6  10
ENDBRANCH   3   6
ENDBRANCH   1   2
BRANCH   1  26
ATOM     26  C   UNL     1       2.331   2.930   5.499  1.00  0.00     0.023 C 
BRANCH  26  27
ATOM     27  C   UNL     1       3.834   3.022   5.746  1.00  0.00     0.023 C 
BRANCH  27  28
ATOM     28  C   UNL     1       4.491   4.336   5.364  1.00  0.00     0.116 C 
BRANCH  28  29
ATOM     29  N   UNL     1       4.011   5.452   6.154  1.00  0.00    -0.352 N 
ATOM     30  C   UNL     1       4.716   6.367   6.894  1.00  0.00     0.251 C 
ATOM     31  H   UNL     1       3.034   5.572   6.159  1.00  0.00     0.163 HD
ATOM     32  O   UNL     1       4.106   7.155   7.619  1.00  0.00    -0.269 OA
BRANCH  30  33
ATOM     33  C   UNL     1       6.195   6.400   6.859  1.00  0.00     0.039 A 
ATOM     34  C   UNL     1       6.885   6.603   8.058  1.00  0.00     0.014 A 
ATOM     35  C   UNL     1       6.908   6.261   5.664  1.00  0.00     0.014 A 
ATOM     36  C   UNL     1       8.281   6.616   8.067  1.00  0.00     0.010 A 
ATOM     37  C   UNL     1       8.301   6.192   5.686  1.00  0.00     0.010 A 
ATOM     38  C   UNL     1       9.003   6.378   6.886  1.00  0.00    -0.014 A 
BRANCH  38  39
ATOM     39  C   UNL     1      10.489   6.330   6.896  1.00  0.00     0.031 A 
ATOM     40  C   UNL     1      11.290   7.348   6.128  1.00  0.00     0.074 A 
ATOM     41  C   UNL     1      11.121   5.348   7.568  1.00  0.00     0.049 A 
ATOM     42  N   UNL     1      12.589   7.450   6.002  1.00  0.00    -0.248 NA
ATOM     43  C   UNL     1      10.534   8.371   5.389  1.00  0.00     0.031 C 
ATOM     44  C   UNL     1      10.465   4.284   8.331  1.00  0.00     0.029 A 
ATOM     45  N   UNL     1      12.460   5.085   7.720  1.00  0.00    -0.354 N 
ATOM     46  C   UNL     1      12.803   8.535   5.160  1.00  0.00     0.074 A 
ATOM     47  C   UNL     1      11.502   9.026   4.765  1.00  0.00     0.031 C 
ATOM     48  C   UNL     1      11.401   3.507   8.898  1.00  0.00     0.029 A 
ATOM     49  C   UNL     1      12.722   3.986   8.502  1.00  0.00     0.049 A 
ATOM     50  H   UNL     1      13.167   5.633   7.306  1.00  0.00     0.167 HD
ATOM     51  C   UNL     1      13.976   9.086   4.764  1.00  0.00     0.031 A 
ATOM     52  C   UNL     1      13.892   3.422   8.857  1.00  0.00     0.031 A 
ATOM     53  C   UNL     1      15.273   8.602   5.160  1.00  0.00     0.049 A 
ATOM     54  C   UNL     1      15.179   4.033   8.376  1.00  0.00     0.074 A 
ATOM     55  C   UNL     1      16.517   9.127   4.856  1.00  0.00     0.029 A 
ATOM     56  N   UNL     1      15.492   7.477   5.940  1.00  0.00    -0.354 N 
ATOM     57  N   UNL     1      15.363   5.101   7.639  1.00  0.00    -0.248 NA
ATOM     58  C   UNL     1      16.421   3.362   8.785  1.00  0.00     0.031 C 
ATOM     59  C   UNL     1      17.491   8.282   5.397  1.00  0.00     0.029 A 
ATOM     60  C   UNL     1      16.853   7.272   6.098  1.00  0.00     0.049 A 
ATOM     61  H   UNL     1      14.786   6.909   6.324  1.00  0.00     0.167 HD
ATOM     62  C   UNL     1      16.739   5.250   7.524  1.00  0.00     0.074 A 
ATOM     63  C   UNL     1      17.342   4.172   8.281  1.00  0.00     0.031 C 
ATOM     64  C   UNL     1      17.441   6.196   6.854  1.00  0.00     0.031 A 
BRANCH  51  65
ATOM     65  C   UNL     1      13.912  10.270   3.837  1.00  0.00    -0.014 A 
ATOM     66  C   UNL     1      13.432  11.515   4.272  1.00  0.00     0.009 A 
ATOM     67  C   UNL     1      14.380  10.148   2.519  1.00  0.00     0.009 A 
ATOM     68  C   UNL     1      13.387  12.603   3.397  1.00  0.00     0.001 A 
ATOM     69  C   UNL     1      14.364  11.245   1.655  1.00  0.00     0.001 A 
ATOM     70  C   UNL     1      13.858  12.468   2.091  1.00  0.00     0.000 A 
ENDBRANCH  51  65
BRANCH  52  71
ATOM     71  C   UNL     1      13.907   2.213   9.724  1.00  0.00    -0.014 A 
ATOM     72  C   UNL     1      14.405   2.281  11.035  1.00  0.00     0.009 A 
ATOM     73  C   UNL     1      13.442   0.980   9.241  1.00  0.00     0.009 A 
ATOM     74  C   UNL     1      14.466   1.135  11.831  1.00  0.00     0.001 A 
ATOM     75  C   UNL     1      13.473  -0.158  10.050  1.00  0.00     0.001 A 
ATOM     76  C   UNL     1      13.996  -0.082  11.340  1.00  0.00     0.000 A 
ENDBRANCH  52  71
BRANCH  64  77
ATOM     77  C   UNL     1      18.941   6.134   6.941  1.00  0.00    -0.014 A 
ATOM     78  C   UNL     1      19.673   5.121   6.303  1.00  0.00     0.009 A 
ATOM     79  C   UNL     1      19.635   7.132   7.645  1.00  0.00     0.009 A 
ATOM     80  C   UNL     1      21.066   5.088   6.398  1.00  0.00     0.001 A 
ATOM     81  C   UNL     1      21.029   7.117   7.710  1.00  0.00     0.001 A 
ATOM     82  C   UNL     1      21.742   6.089   7.096  1.00  0.00     0.000 A 
ENDBRANCH  64  77
ENDBRANCH  38  39
ENDBRANCH  30  33
ENDBRANCH  28  29
ENDBRANCH  27  28
ENDBRANCH  26  27
ENDBRANCH   1  26
TORSDOF 16
