REMARK SMILES CCCC1(CCC)C[NH+]([C@H]2C=C[C@@H](C(=O)NCCCCNC(=O)c3ccc(-c4c5nc(c(-c6ccccc6)c6ccc([nH]6)c(-c6ccccc6)c6nc(c(-c7ccccc7)c7ccc4[nH]7)C=C6)C=C5)cc3)C2)C1
REMARK SMILES IDX 18 1 17 2 16 3 14 4 15 5 13 7 10 8 11 9 72 10 12 11 9 12
REMARK SMILES IDX 4 13 8 14 73 15 3 17 2 18 1 19 5 20 6 21 7 22 19 23 20 24
REMARK SMILES IDX 21 25 22 26 23 28 24 29 25 30 71 31 26 32 70 33 27 34 28 35
REMARK SMILES IDX 29 36 64 37 30 38 69 39 63 40 65 41 31 42 68 43 62 44 61 45
REMARK SMILES IDX 32 47 54 48 39 49 53 50 40 51 43 52 52 53 66 54 41 55 42 56
REMARK SMILES IDX 51 58 67 59 44 60 33 61 34 62 38 63 35 64 37 65 36 66 55 67
REMARK SMILES IDX 56 68 60 69 57 70 59 71 58 72 45 73 46 74 50 75 47 76 49 77
REMARK SMILES IDX 48 78
REMARK H PARENT 16 6 9 16 21 27 65 46 43 57
REMARK Flexibility Score: inf
ROOT
ATOM      1  C   UNL     1       0.548  -1.192   1.643  1.00  0.00     0.023 C 
ENDROOT
BRANCH   1   2
ATOM      2  C   UNL     1      -0.184  -2.103   2.622  1.00  0.00     0.116 C 
BRANCH   2   3
ATOM      3  N   UNL     1      -1.616  -2.134   2.385  1.00  0.00    -0.356 N 
ATOM      4  C   UNL     1      -2.460  -3.085   1.904  1.00  0.00     0.227 C 
ATOM      5  O   UNL     1      -3.661  -2.782   1.903  1.00  0.00    -0.274 OA
ATOM      6  H   UNL     1      -2.070  -1.294   2.623  1.00  0.00     0.163 HD
BRANCH   4   7
ATOM      7  C   UNL     1      -2.037  -4.431   1.277  1.00  0.00     0.107 C 
ATOM      8  C   UNL     1      -0.541  -5.065  -0.623  1.00  0.00     0.208 C 
ATOM      9  C   UNL     1       0.001  -5.465   0.726  1.00  0.00     0.033 C 
ATOM     10  C   UNL     1      -1.817  -4.281  -0.238  1.00  0.00     0.087 C 
ATOM     11  C   UNL     1      -0.803  -5.126   1.742  1.00  0.00    -0.012 C 
BRANCH   8  12
ATOM     12  N   UNL     1       0.489  -4.428  -1.464  1.00  0.00    -0.328 N 
ATOM     13  C   UNL     1       0.260  -2.413  -2.292  1.00  0.00     0.068 C 
ATOM     14  C   UNL     1       0.004  -3.915  -2.744  1.00  0.00     0.275 C 
ATOM     15  C   UNL     1       0.848  -3.098  -1.006  1.00  0.00     0.275 C 
ATOM     16  H   UNL     1       1.187  -5.172  -1.474  1.00  0.00     0.348 HD
BRANCH  13  17
ATOM     17  C   UNL     1       1.397  -1.792  -3.160  1.00  0.00     0.018 C 
BRANCH  17  18
ATOM     18  C   UNL     1       1.811  -0.362  -2.805  1.00  0.00    -0.002 C 
ATOM     19  C   UNL     1       2.658  -0.214  -1.550  1.00  0.00     0.004 C 
ENDBRANCH  17  18
ENDBRANCH  13  17
BRANCH  13  20
ATOM     20  C   UNL     1      -1.099  -1.657  -2.471  1.00  0.00     0.018 C 
BRANCH  20  21
ATOM     21  C   UNL     1      -1.631  -0.701  -1.395  1.00  0.00    -0.002 C 
ATOM     22  C   UNL     1      -1.213   0.757  -1.484  1.00  0.00     0.004 C 
ENDBRANCH  20  21
ENDBRANCH  13  20
ENDBRANCH   8  12
ENDBRANCH   4   7
ENDBRANCH   2   3
ENDBRANCH   1   2
BRANCH   1  23
ATOM     23  C   UNL     1       0.519   0.288   1.946  1.00  0.00     0.023 C 
BRANCH  23  24
ATOM     24  C   UNL     1       1.563   0.668   2.969  1.00  0.00     0.116 C 
BRANCH  24  25
ATOM     25  N   UNL     1       2.922   0.511   2.449  1.00  0.00    -0.352 N 
ATOM     26  C   UNL     1       3.849   1.428   2.017  1.00  0.00     0.251 C 
ATOM     27  H   UNL     1       3.228  -0.424   2.400  1.00  0.00     0.163 HD
ATOM     28  O   UNL     1       4.839   1.042   1.405  1.00  0.00    -0.269 OA
BRANCH  26  29
ATOM     29  C   UNL     1       3.660   2.872   2.272  1.00  0.00     0.039 A 
ATOM     30  C   UNL     1       4.197   3.811   1.385  1.00  0.00     0.014 A 
ATOM     31  C   UNL     1       2.987   3.312   3.408  1.00  0.00     0.014 A 
ATOM     32  C   UNL     1       4.007   5.176   1.624  1.00  0.00     0.010 A 
ATOM     33  C   UNL     1       2.639   4.643   3.541  1.00  0.00     0.010 A 
ATOM     34  C   UNL     1       3.196   5.600   2.689  1.00  0.00    -0.014 A 
BRANCH  34  35
ATOM     35  C   UNL     1       2.975   7.030   3.009  1.00  0.00     0.031 A 
ATOM     36  C   UNL     1       3.324   7.544   4.386  1.00  0.00     0.074 A 
ATOM     37  C   UNL     1       2.383   7.838   2.110  1.00  0.00     0.049 A 
ATOM     38  N   UNL     1       3.083   8.715   4.919  1.00  0.00    -0.248 NA
ATOM     39  C   UNL     1       3.975   6.596   5.308  1.00  0.00     0.031 C 
ATOM     40  C   UNL     1       1.941   7.445   0.770  1.00  0.00     0.029 A 
ATOM     41  N   UNL     1       2.048   9.164   2.195  1.00  0.00    -0.354 N 
ATOM     42  C   UNL     1       3.499   8.616   6.242  1.00  0.00     0.074 A 
ATOM     43  C   UNL     1       3.937   7.257   6.453  1.00  0.00     0.031 C 
ATOM     44  C   UNL     1       1.442   8.520   0.140  1.00  0.00     0.029 A 
ATOM     45  C   UNL     1       1.486   9.662   1.046  1.00  0.00     0.049 A 
ATOM     46  H   UNL     1       2.197   9.708   3.002  1.00  0.00     0.167 HD
ATOM     47  C   UNL     1       3.549   9.580   7.192  1.00  0.00     0.031 A 
ATOM     48  C   UNL     1       1.058  10.904   0.757  1.00  0.00     0.031 A 
ATOM     49  C   UNL     1       3.177  10.947   6.955  1.00  0.00     0.049 A 
ATOM     50  C   UNL     1       1.182  11.975   1.802  1.00  0.00     0.074 A 
ATOM     51  C   UNL     1       3.267  12.028   7.812  1.00  0.00     0.029 A 
ATOM     52  N   UNL     1       2.660  11.421   5.759  1.00  0.00    -0.354 N 
ATOM     53  N   UNL     1       1.632  11.883   3.031  1.00  0.00    -0.248 NA
ATOM     54  C   UNL     1       0.754  13.325   1.415  1.00  0.00     0.031 C 
ATOM     55  C   UNL     1       2.770  13.152   7.145  1.00  0.00     0.029 A 
ATOM     56  C   UNL     1       2.418  12.779   5.857  1.00  0.00     0.049 A 
ATOM     57  H   UNL     1       2.491  10.872   4.960  1.00  0.00     0.167 HD
ATOM     58  C   UNL     1       1.567  13.166   3.555  1.00  0.00     0.074 A 
ATOM     59  C   UNL     1       1.051  14.021   2.504  1.00  0.00     0.031 C 
ATOM     60  C   UNL     1       1.905  13.603   4.794  1.00  0.00     0.031 A 
BRANCH  47  61
ATOM     61  C   UNL     1       4.034   9.181   8.560  1.00  0.00    -0.014 A 
ATOM     62  C   UNL     1       5.366   8.792   8.782  1.00  0.00     0.009 A 
ATOM     63  C   UNL     1       3.146   9.198   9.648  1.00  0.00     0.009 A 
ATOM     64  C   UNL     1       5.784   8.379  10.049  1.00  0.00     0.001 A 
ATOM     65  C   UNL     1       3.576   8.819  10.921  1.00  0.00     0.001 A 
ATOM     66  C   UNL     1       4.890   8.397  11.118  1.00  0.00     0.000 A 
ENDBRANCH  47  61
BRANCH  48  67
ATOM     67  C   UNL     1       0.531  11.208  -0.598  1.00  0.00    -0.014 A 
ATOM     68  C   UNL     1       1.294  11.968  -1.498  1.00  0.00     0.009 A 
ATOM     69  C   UNL     1      -0.719  10.721  -1.010  1.00  0.00     0.009 A 
ATOM     70  C   UNL     1       0.807  12.253  -2.775  1.00  0.00     0.001 A 
ATOM     71  C   UNL     1      -1.192  10.986  -2.298  1.00  0.00     0.001 A 
ATOM     72  C   UNL     1      -0.433  11.758  -3.176  1.00  0.00     0.000 A 
ENDBRANCH  48  67
BRANCH  60  73
ATOM     73  C   UNL     1       1.760  15.073   5.060  1.00  0.00    -0.014 A 
ATOM     74  C   UNL     1       0.498  15.664   5.215  1.00  0.00     0.009 A 
ATOM     75  C   UNL     1       2.910  15.867   5.194  1.00  0.00     0.009 A 
ATOM     76  C   UNL     1       0.389  17.034   5.462  1.00  0.00     0.001 A 
ATOM     77  C   UNL     1       2.798  17.230   5.469  1.00  0.00     0.001 A 
ATOM     78  C   UNL     1       1.538  17.813   5.593  1.00  0.00     0.000 A 
ENDBRANCH  60  73
ENDBRANCH  34  35
ENDBRANCH  26  29
ENDBRANCH  24  25
ENDBRANCH  23  24
ENDBRANCH   1  23
TORSDOF 16
