REMARK SMILES CCCCCCNC(=O)Nc1cccc(-c2ccc([C@@H](C)C(=O)NCCCCNC(=O)c3ccc(-c4c5nc(c(-c6ccccc6)c6ccc([nH]6)c(-c6ccccc6)c6nc(c(-c7ccccc7)c7ccc4[nH]7)C=C6)C=C5)cc3)cc2F)c1
REMARK SMILES IDX 20 1 21 2 19 3 16 4 17 5 81 6 18 7 80 8 82 9 15 10 11 11
REMARK SMILES IDX 12 12 83 13 13 14 14 15 10 16 7 17 8 18 9 20 6 22 5 23 4 24
REMARK SMILES IDX 3 25 2 26 1 27 22 28 23 29 24 30 25 32 26 33 27 34 28 35
REMARK SMILES IDX 29 36 30 37 31 39 32 40 33 41 79 42 34 43 78 44 35 45 36 46
REMARK SMILES IDX 37 47 72 48 38 49 77 50 71 51 73 52 39 53 76 54 70 55 69 56
REMARK SMILES IDX 40 58 62 59 47 60 61 61 48 62 51 63 60 64 74 65 49 66 50 67
REMARK SMILES IDX 59 69 75 70 52 71 41 72 42 73 46 74 43 75 45 76 44 77 63 78
REMARK SMILES IDX 64 79 68 80 65 81 67 82 66 83 53 84 54 85 58 86 55 87 57 88
REMARK SMILES IDX 56 89
REMARK H PARENT 7 19 10 21 24 31 29 38 73 57 51 68
REMARK Flexibility Score: inf
ROOT
ATOM      1  C   UNL     1      -1.734  -5.713   3.184  1.00  0.00     0.105 C 
ATOM      2  C   UNL     1      -2.427  -6.753   2.303  1.00  0.00     0.023 C 
ENDROOT
BRANCH   1   3
ATOM      3  C   UNL     1      -2.421  -4.357   3.249  1.00  0.00    -0.033 A 
ATOM      4  C   UNL     1      -3.676  -1.791   3.470  1.00  0.00     0.018 A 
ATOM      5  C   UNL     1      -3.423  -2.382   2.222  1.00  0.00     0.012 A 
ATOM      6  C   UNL     1      -3.297  -2.527   4.601  1.00  0.00     0.131 A 
ATOM      7  C   UNL     1      -2.831  -3.648   2.115  1.00  0.00     0.005 A 
ATOM      8  C   UNL     1      -2.669  -3.772   4.500  1.00  0.00     0.044 A 
ATOM      9  F   UNL     1      -3.532  -2.047   5.832  1.00  0.00    -0.206 F 
BRANCH   4  10
ATOM     10  C   UNL     1      -4.268  -0.440   3.559  1.00  0.00    -0.013 A 
ATOM     11  C   UNL     1      -4.176   1.850   4.417  1.00  0.00     0.043 A 
ATOM     12  C   UNL     1      -5.263   2.211   3.624  1.00  0.00     0.026 A 
ATOM     13  C   UNL     1      -3.733   0.521   4.433  1.00  0.00     0.035 A 
ATOM     14  C   UNL     1      -5.820   1.273   2.758  1.00  0.00     0.003 A 
ATOM     15  C   UNL     1      -5.317  -0.033   2.716  1.00  0.00     0.009 A 
BRANCH  11  16
ATOM     16  N   UNL     1      -3.502   2.863   5.116  1.00  0.00    -0.308 N 
ATOM     17  N   UNL     1      -1.227   2.439   4.629  1.00  0.00    -0.338 N 
ATOM     18  C   UNL     1      -2.185   2.976   5.424  1.00  0.00     0.319 C 
ATOM     19  H   UNL     1      -0.330   2.394   5.032  1.00  0.00     0.165 HD
ATOM     20  O   UNL     1      -1.836   3.665   6.383  1.00  0.00    -0.249 OA
ATOM     21  H   UNL     1      -4.070   3.603   5.430  1.00  0.00     0.171 HD
BRANCH  17  22
ATOM     22  C   UNL     1      -1.317   1.919   3.275  1.00  0.00     0.117 C 
BRANCH  22  23
ATOM     23  C   UNL     1      -0.415   2.639   2.280  1.00  0.00     0.021 C 
BRANCH  23  24
ATOM     24  C   UNL     1       1.079   2.365   2.424  1.00  0.00     0.002 C 
BRANCH  24  25
ATOM     25  C   UNL     1       1.491   0.892   2.435  1.00  0.00    -0.000 C 
BRANCH  25  26
ATOM     26  C   UNL     1       0.879   0.013   1.345  1.00  0.00    -0.003 C 
ATOM     27  C   UNL     1       1.165   0.483  -0.074  1.00  0.00     0.004 C 
ENDBRANCH  25  26
ENDBRANCH  24  25
ENDBRANCH  23  24
ENDBRANCH  22  23
ENDBRANCH  17  22
ENDBRANCH  11  16
ENDBRANCH   4  10
ENDBRANCH   1   3
BRANCH   1  28
ATOM     28  C   UNL     1      -0.210  -5.645   3.014  1.00  0.00     0.227 C 
ATOM     29  O   UNL     1       0.529  -5.755   4.000  1.00  0.00    -0.274 OA
ATOM     30  N   UNL     1       0.409  -5.484   1.815  1.00  0.00    -0.356 N 
ATOM     31  H   UNL     1       1.381  -5.638   1.835  1.00  0.00     0.163 HD
BRANCH  30  32
ATOM     32  C   UNL     1      -0.112  -5.127   0.514  1.00  0.00     0.116 C 
BRANCH  32  33
ATOM     33  C   UNL     1       0.053  -3.631   0.258  1.00  0.00     0.023 C 
BRANCH  33  34
ATOM     34  C   UNL     1       1.438  -3.272  -0.267  1.00  0.00     0.023 C 
BRANCH  34  35
ATOM     35  C   UNL     1       1.734  -3.752  -1.677  1.00  0.00     0.116 C 
BRANCH  35  36
ATOM     36  N   UNL     1       0.805  -3.237  -2.675  1.00  0.00    -0.352 N 
ATOM     37  C   UNL     1       1.057  -2.626  -3.884  1.00  0.00     0.251 C 
ATOM     38  H   UNL     1      -0.148  -3.342  -2.451  1.00  0.00     0.163 HD
ATOM     39  O   UNL     1       0.138  -2.166  -4.544  1.00  0.00    -0.269 OA
BRANCH  37  40
ATOM     40  C   UNL     1       2.454  -2.492  -4.354  1.00  0.00     0.039 A 
ATOM     41  C   UNL     1       2.870  -1.280  -4.911  1.00  0.00     0.014 A 
ATOM     42  C   UNL     1       3.361  -3.539  -4.197  1.00  0.00     0.014 A 
ATOM     43  C   UNL     1       4.219  -1.090  -5.218  1.00  0.00     0.010 A 
ATOM     44  C   UNL     1       4.716  -3.308  -4.386  1.00  0.00     0.010 A 
ATOM     45  C   UNL     1       5.161  -2.084  -4.907  1.00  0.00    -0.014 A 
BRANCH  45  46
ATOM     46  C   UNL     1       6.616  -1.886  -5.126  1.00  0.00     0.031 A 
ATOM     47  C   UNL     1       7.370  -2.829  -6.026  1.00  0.00     0.074 A 
ATOM     48  C   UNL     1       7.276  -0.928  -4.446  1.00  0.00     0.049 A 
ATOM     49  N   UNL     1       8.656  -2.904  -6.253  1.00  0.00    -0.248 NA
ATOM     50  C   UNL     1       6.577  -3.852  -6.730  1.00  0.00     0.031 C 
ATOM     51  C   UNL     1       6.675   0.014  -3.498  1.00  0.00     0.029 A 
ATOM     52  N   UNL     1       8.607  -0.595  -4.443  1.00  0.00    -0.354 N 
ATOM     53  C   UNL     1       8.826  -4.002  -7.088  1.00  0.00     0.074 A 
ATOM     54  C   UNL     1       7.523  -4.595  -7.283  1.00  0.00     0.031 C 
ATOM     55  C   UNL     1       7.627   0.842  -3.036  1.00  0.00     0.029 A 
ATOM     56  C   UNL     1       8.909   0.463  -3.619  1.00  0.00     0.049 A 
ATOM     57  H   UNL     1       9.282  -1.069  -4.980  1.00  0.00     0.167 HD
ATOM     58  C   UNL     1       9.961  -4.462  -7.665  1.00  0.00     0.031 A 
ATOM     59  C   UNL     1      10.088   1.058  -3.361  1.00  0.00     0.031 A 
ATOM     60  C   UNL     1      11.249  -3.844  -7.510  1.00  0.00     0.049 A 
ATOM     61  C   UNL     1      11.330   0.549  -4.037  1.00  0.00     0.074 A 
ATOM     62  C   UNL     1      12.445  -4.182  -8.116  1.00  0.00     0.029 A 
ATOM     63  N   UNL     1      11.503  -2.753  -6.695  1.00  0.00    -0.354 N 
ATOM     64  N   UNL     1      11.462  -0.448  -4.878  1.00  0.00    -0.248 NA
ATOM     65  C   UNL     1      12.583   1.255  -3.736  1.00  0.00     0.031 C 
ATOM     66  C   UNL     1      13.434  -3.317  -7.638  1.00  0.00     0.029 A 
ATOM     67  C   UNL     1      12.842  -2.413  -6.771  1.00  0.00     0.049 A 
ATOM     68  H   UNL     1      10.832  -2.288  -6.145  1.00  0.00     0.167 HD
ATOM     69  C   UNL     1      12.806  -0.472  -5.228  1.00  0.00     0.074 A 
ATOM     70  C   UNL     1      13.443   0.619  -4.519  1.00  0.00     0.031 C 
ATOM     71  C   UNL     1      13.454  -1.320  -6.061  1.00  0.00     0.031 A 
BRANCH  58  72
ATOM     72  C   UNL     1       9.850  -5.692  -8.522  1.00  0.00    -0.014 A 
ATOM     73  C   UNL     1       9.191  -5.659  -9.761  1.00  0.00     0.009 A 
ATOM     74  C   UNL     1      10.429  -6.896  -8.092  1.00  0.00     0.009 A 
ATOM     75  C   UNL     1       9.076  -6.817 -10.533  1.00  0.00     0.001 A 
ATOM     76  C   UNL     1      10.339  -8.045  -8.880  1.00  0.00     0.001 A 
ATOM     77  C   UNL     1       9.654  -8.008 -10.094  1.00  0.00     0.000 A 
ENDBRANCH  58  72
BRANCH  59  78
ATOM     78  C   UNL     1      10.150   2.225  -2.442  1.00  0.00    -0.014 A 
ATOM     79  C   UNL     1      10.384   3.513  -2.951  1.00  0.00     0.009 A 
ATOM     80  C   UNL     1       9.984   2.062  -1.059  1.00  0.00     0.009 A 
ATOM     81  C   UNL     1      10.477   4.609  -2.091  1.00  0.00     0.001 A 
ATOM     82  C   UNL     1      10.051   3.165  -0.203  1.00  0.00     0.001 A 
ATOM     83  C   UNL     1      10.306   4.434  -0.718  1.00  0.00     0.000 A 
ENDBRANCH  59  78
BRANCH  71  84
ATOM     84  C   UNL     1      14.920  -1.079  -6.281  1.00  0.00    -0.014 A 
ATOM     85  C   UNL     1      15.864  -1.390  -5.291  1.00  0.00     0.009 A 
ATOM     86  C   UNL     1      15.362  -0.576  -7.514  1.00  0.00     0.009 A 
ATOM     87  C   UNL     1      17.224  -1.172  -5.524  1.00  0.00     0.001 A 
ATOM     88  C   UNL     1      16.723  -0.385  -7.753  1.00  0.00     0.001 A 
ATOM     89  C   UNL     1      17.651  -0.676  -6.755  1.00  0.00     0.000 A 
ENDBRANCH  71  84
ENDBRANCH  45  46
ENDBRANCH  37  40
ENDBRANCH  35  36
ENDBRANCH  34  35
ENDBRANCH  33  34
ENDBRANCH  32  33
ENDBRANCH  30  32
ENDBRANCH   1  28
TORSDOF 19
