REMARK SMILES [NH3+][C@H](C(=O)NCCCCNC(=O)c1ccc(-c2c3nc(c(-c4ccccc4)c4ccc([nH]4)c(-c4ccccc4)c4nc(c(-c5ccccc5)c5ccc2[nH]5)C=C4)C=C3)cc1)c1cc2c(cc1Br)OCO2
REMARK SMILES IDX 8 1 7 2 6 3 5 4 3 5 4 6 2 8 1 9 61 13 62 14 66 15 63 16
REMARK SMILES IDX 65 17 67 18 64 19 70 20 68 21 69 22 9 23 10 24 11 25 12 27
REMARK SMILES IDX 13 28 14 29 60 30 15 31 59 32 16 33 17 34 18 35 53 36 19 37
REMARK SMILES IDX 58 38 52 39 54 40 20 41 57 42 51 43 50 44 21 46 43 47 28 48
REMARK SMILES IDX 42 49 29 50 32 51 41 52 55 53 30 54 31 55 40 57 56 58 33 59
REMARK SMILES IDX 22 60 23 61 27 62 24 63 26 64 25 65 44 66 45 67 49 68 46 69
REMARK SMILES IDX 48 70 47 71 34 72 35 73 39 74 36 75 38 76 37 77
REMARK H PARENT 5 7 1 10 1 11 1 12 10 26 54 45 32 56
REMARK Flexibility Score: inf
ROOT
ATOM      1  C   UNL     1      -0.231   4.079   1.098  1.00  0.00     0.023 C 
ENDROOT
BRANCH   1   2
ATOM      2  C   UNL     1      -0.517   3.345  -0.210  1.00  0.00     0.023 C 
BRANCH   2   3
ATOM      3  C   UNL     1       0.641   2.502  -0.746  1.00  0.00     0.116 C 
BRANCH   3   4
ATOM      4  N   UNL     1       0.911   1.352   0.098  1.00  0.00    -0.351 N 
ATOM      5  C   UNL     1       0.777   0.013  -0.155  1.00  0.00     0.283 C 
ATOM      6  O   UNL     1       1.072  -0.770   0.754  1.00  0.00    -0.268 OA
ATOM      7  H   UNL     1       1.246   1.570   0.998  1.00  0.00     0.163 HD
BRANCH   5   8
ATOM      8  C   UNL     1       0.326  -0.494  -1.556  1.00  0.00     0.303 C 
BRANCH   8   9
ATOM      9  N   UNL     1       1.315  -1.476  -2.033  1.00  0.00    -0.343 N 
ATOM     10  H   UNL     1       1.036  -1.821  -2.951  1.00  0.00     0.345 HD
ATOM     11  H   UNL     1       1.363  -2.256  -1.377  1.00  0.00     0.345 HD
ATOM     12  H   UNL     1       2.230  -1.031  -2.100  1.00  0.00     0.345 HD
ENDBRANCH   8   9
BRANCH   8  13
ATOM     13  C   UNL     1      -1.134  -0.947  -1.528  1.00  0.00     0.037 A 
ATOM     14  C   UNL     1      -2.082   0.106  -1.475  1.00  0.00     0.062 A 
ATOM     15  C   UNL     1      -1.635  -2.274  -1.489  1.00  0.00     0.031 A 
ATOM     16  C   UNL     1      -3.421  -0.176  -1.333  1.00  0.00     0.166 A 
ATOM     17  C   UNL     1      -3.019  -2.529  -1.413  1.00  0.00     0.066 A 
ATOM     18  Br  UNL     1      -0.553  -3.840  -1.480  1.00  0.00    -0.050 Br
ATOM     19  C   UNL     1      -3.881  -1.462  -1.310  1.00  0.00     0.166 A 
ATOM     20  O   UNL     1      -4.413   0.740  -1.179  1.00  0.00    -0.454 OA
ATOM     21  O   UNL     1      -5.229  -1.526  -1.154  1.00  0.00    -0.454 OA
ATOM     22  C   UNL     1      -5.537  -0.133  -0.935  1.00  0.00     0.468 C 
ENDBRANCH   8  13
ENDBRANCH   5   8
ENDBRANCH   3   4
ENDBRANCH   2   3
ENDBRANCH   1   2
BRANCH   1  23
ATOM     23  C   UNL     1       0.956   5.033   1.061  1.00  0.00     0.116 C 
BRANCH  23  24
ATOM     24  N   UNL     1       0.819   6.076   0.055  1.00  0.00    -0.352 N 
ATOM     25  C   UNL     1       0.940   7.440   0.186  1.00  0.00     0.251 C 
ATOM     26  H   UNL     1       0.609   5.758  -0.853  1.00  0.00     0.163 HD
ATOM     27  O   UNL     1       0.659   8.175  -0.750  1.00  0.00    -0.269 OA
BRANCH  25  28
ATOM     28  C   UNL     1       1.377   8.017   1.476  1.00  0.00     0.039 A 
ATOM     29  C   UNL     1       0.667   9.099   2.003  1.00  0.00     0.014 A 
ATOM     30  C   UNL     1       2.461   7.479   2.174  1.00  0.00     0.014 A 
ATOM     31  C   UNL     1       0.992   9.586   3.271  1.00  0.00     0.010 A 
ATOM     32  C   UNL     1       2.732   7.912   3.468  1.00  0.00     0.010 A 
ATOM     33  C   UNL     1       1.995   8.965   4.033  1.00  0.00    -0.014 A 
BRANCH  33  34
ATOM     34  C   UNL     1       2.271   9.383   5.431  1.00  0.00     0.031 A 
ATOM     35  C   UNL     1       3.613   9.951   5.803  1.00  0.00     0.074 A 
ATOM     36  C   UNL     1       1.337   9.182   6.381  1.00  0.00     0.049 A 
ATOM     37  N   UNL     1       4.059  10.306   6.981  1.00  0.00    -0.248 NA
ATOM     38  C   UNL     1       4.590  10.118   4.715  1.00  0.00     0.031 C 
ATOM     39  C   UNL     1       0.012   8.597   6.161  1.00  0.00     0.029 A 
ATOM     40  N   UNL     1       1.363   9.441   7.729  1.00  0.00    -0.354 N 
ATOM     41  C   UNL     1       5.370  10.720   6.779  1.00  0.00     0.074 A 
ATOM     42  C   UNL     1       5.663  10.529   5.376  1.00  0.00     0.031 C 
ATOM     43  C   UNL     1      -0.655   8.565   7.326  1.00  0.00     0.029 A 
ATOM     44  C   UNL     1       0.206   9.088   8.381  1.00  0.00     0.049 A 
ATOM     45  H   UNL     1       2.138   9.841   8.186  1.00  0.00     0.167 HD
ATOM     46  C   UNL     1       6.245  11.229   7.678  1.00  0.00     0.031 A 
ATOM     47  C   UNL     1      -0.123   9.167   9.684  1.00  0.00     0.031 A 
ATOM     48  C   UNL     1       5.950  11.436   9.070  1.00  0.00     0.049 A 
ATOM     49  C   UNL     1       0.871   9.730  10.660  1.00  0.00     0.074 A 
ATOM     50  C   UNL     1       6.752  12.006  10.044  1.00  0.00     0.029 A 
ATOM     51  N   UNL     1       4.763  11.078   9.687  1.00  0.00    -0.354 N 
ATOM     52  N   UNL     1       2.080  10.185  10.438  1.00  0.00    -0.248 NA
ATOM     53  C   UNL     1       0.450   9.799  12.067  1.00  0.00     0.031 C 
ATOM     54  C   UNL     1       6.066  11.949  11.262  1.00  0.00     0.029 A 
ATOM     55  C   UNL     1       4.818  11.392  11.034  1.00  0.00     0.049 A 
ATOM     56  H   UNL     1       3.993  10.662   9.235  1.00  0.00     0.167 HD
ATOM     57  C   UNL     1       2.553  10.619  11.669  1.00  0.00     0.074 A 
ATOM     58  C   UNL     1       1.494  10.389  12.631  1.00  0.00     0.031 C 
ATOM     59  C   UNL     1       3.757  11.159  11.977  1.00  0.00     0.031 A 
BRANCH  46  60
ATOM     60  C   UNL     1       7.614  11.602   7.181  1.00  0.00    -0.014 A 
ATOM     61  C   UNL     1       7.807  12.719   6.353  1.00  0.00     0.009 A 
ATOM     62  C   UNL     1       8.732  10.857   7.588  1.00  0.00     0.009 A 
ATOM     63  C   UNL     1       9.088  13.065   5.920  1.00  0.00     0.001 A 
ATOM     64  C   UNL     1      10.014  11.222   7.176  1.00  0.00     0.001 A 
ATOM     65  C   UNL     1      10.191  12.320   6.336  1.00  0.00     0.000 A 
ENDBRANCH  46  60
BRANCH  47  66
ATOM     66  C   UNL     1      -1.459   8.709  10.149  1.00  0.00    -0.014 A 
ATOM     67  C   UNL     1      -2.413   9.636  10.596  1.00  0.00     0.009 A 
ATOM     68  C   UNL     1      -1.779   7.342  10.169  1.00  0.00     0.009 A 
ATOM     69  C   UNL     1      -3.648   9.201  11.085  1.00  0.00     0.001 A 
ATOM     70  C   UNL     1      -3.025   6.913  10.630  1.00  0.00     0.001 A 
ATOM     71  C   UNL     1      -3.954   7.841  11.098  1.00  0.00     0.000 A 
ENDBRANCH  47  66
BRANCH  59  72
ATOM     72  C   UNL     1       3.980  11.571  13.405  1.00  0.00    -0.014 A 
ATOM     73  C   UNL     1       4.169  10.617  14.417  1.00  0.00     0.009 A 
ATOM     74  C   UNL     1       4.038  12.934  13.733  1.00  0.00     0.009 A 
ATOM     75  C   UNL     1       4.379  11.023  15.736  1.00  0.00     0.001 A 
ATOM     76  C   UNL     1       4.277  13.336  15.047  1.00  0.00     0.001 A 
ATOM     77  C   UNL     1       4.438  12.380  16.049  1.00  0.00     0.000 A 
ENDBRANCH  59  72
ENDBRANCH  33  34
ENDBRANCH  25  28
ENDBRANCH  23  24
ENDBRANCH   1  23
TORSDOF 13
