REMARK SMILES CC(C)n1ccc(C[C@@H](C(=O)NCCCCNC(=O)c2ccc(-c3c4nc(c(-c5ccccc5)c5ccc([nH]5)c(-c5ccccc5)c5nc(c(-c6ccccc6)c6ccc3[nH]6)C=C5)C=C4)cc2)c2cccc(Cl)c2)n1
REMARK SMILES IDX 14 1 13 2 12 3 10 4 11 5 9 7 8 8 7 9 4 10 5 11 75 12 6 13
REMARK SMILES IDX 2 14 1 15 3 16 68 17 69 18 74 19 70 20 72 21 71 22 73 23
REMARK SMILES IDX 15 24 16 25 17 26 18 27 19 29 20 30 21 31 67 32 22 33 66 34
REMARK SMILES IDX 23 35 24 36 25 37 60 38 26 39 65 40 59 41 61 42 27 43 64 44
REMARK SMILES IDX 58 45 57 46 28 48 50 49 35 50 49 51 36 52 39 53 48 54 62 55
REMARK SMILES IDX 37 56 38 57 47 59 63 60 40 61 29 62 30 63 34 64 31 65 33 66
REMARK SMILES IDX 32 67 51 68 52 69 56 70 53 71 55 72 54 73 41 74 42 75 46 76
REMARK SMILES IDX 43 77 45 78 44 79
REMARK H PARENT 12 6 17 28 61 47 39 58
REMARK Flexibility Score: inf
ROOT
ATOM      1  C   UNL     1      -2.820  -3.298  -0.746  1.00  0.00     0.023 C 
ENDROOT
BRANCH   1   2
ATOM      2  C   UNL     1      -3.493  -2.751  -2.014  1.00  0.00     0.116 C 
BRANCH   2   3
ATOM      3  N   UNL     1      -4.916  -2.561  -1.790  1.00  0.00    -0.356 N 
ATOM      4  C   UNL     1      -5.488  -1.544  -1.068  1.00  0.00     0.227 C 
ATOM      5  O   UNL     1      -6.357  -1.883  -0.258  1.00  0.00    -0.274 OA
ATOM      6  H   UNL     1      -5.525  -3.222  -2.192  1.00  0.00     0.163 HD
BRANCH   4   7
ATOM      7  C   UNL     1      -5.098  -0.067  -1.307  1.00  0.00     0.114 C 
BRANCH   7   8
ATOM      8  C   UNL     1      -4.412   0.515  -0.050  1.00  0.00     0.076 C 
BRANCH   8   9
ATOM      9  C   UNL     1      -3.143  -0.112   0.415  1.00  0.00     0.064 A 
ATOM     10  N   UNL     1      -1.096  -0.687   0.461  1.00  0.00    -0.270 N 
ATOM     11  C   UNL     1      -1.589  -1.042   1.685  1.00  0.00     0.109 A 
ATOM     12  N   UNL     1      -2.033  -0.114  -0.336  1.00  0.00    -0.178 NA
ATOM     13  C   UNL     1      -2.913  -0.681   1.688  1.00  0.00     0.045 A 
BRANCH  10  14
ATOM     14  C   UNL     1       0.259  -0.891  -0.052  1.00  0.00     0.101 C 
ATOM     15  C   UNL     1       1.080   0.389   0.077  1.00  0.00     0.033 C 
ATOM     16  C   UNL     1       0.993  -2.068   0.600  1.00  0.00     0.033 C 
ENDBRANCH  10  14
ENDBRANCH   8   9
ENDBRANCH   7   8
BRANCH   7  17
ATOM     17  C   UNL     1      -6.320   0.862  -1.590  1.00  0.00    -0.034 A 
ATOM     18  C   UNL     1      -6.093   2.231  -1.855  1.00  0.00     0.004 A 
ATOM     19  C   UNL     1      -7.660   0.453  -1.454  1.00  0.00     0.025 A 
ATOM     20  C   UNL     1      -7.142   3.158  -1.867  1.00  0.00     0.002 A 
ATOM     21  C   UNL     1      -8.707   1.382  -1.476  1.00  0.00     0.041 A 
ATOM     22  C   UNL     1      -8.451   2.736  -1.657  1.00  0.00     0.020 A 
ATOM     23  Cl  UNL     1     -10.327   0.850  -1.228  1.00  0.00    -0.084 Cl
ENDBRANCH   7  17
ENDBRANCH   4   7
ENDBRANCH   2   3
ENDBRANCH   1   2
BRANCH   1  24
ATOM     24  C   UNL     1      -3.080  -4.755  -0.355  1.00  0.00     0.023 C 
BRANCH  24  25
ATOM     25  C   UNL     1      -2.184  -5.764  -1.054  1.00  0.00     0.116 C 
BRANCH  25  26
ATOM     26  N   UNL     1      -0.757  -5.554  -0.793  1.00  0.00    -0.352 N 
ATOM     27  C   UNL     1       0.317  -5.950  -1.573  1.00  0.00     0.251 C 
ATOM     28  H   UNL     1      -0.534  -5.073   0.037  1.00  0.00     0.163 HD
ATOM     29  O   UNL     1       1.462  -5.946  -1.160  1.00  0.00    -0.269 OA
BRANCH  27  30
ATOM     30  C   UNL     1       0.002  -6.390  -2.942  1.00  0.00     0.039 A 
ATOM     31  C   UNL     1       0.164  -7.727  -3.307  1.00  0.00     0.014 A 
ATOM     32  C   UNL     1      -0.720  -5.500  -3.728  1.00  0.00     0.014 A 
ATOM     33  C   UNL     1      -0.538  -8.207  -4.413  1.00  0.00     0.010 A 
ATOM     34  C   UNL     1      -1.514  -6.016  -4.731  1.00  0.00     0.010 A 
ATOM     35  C   UNL     1      -1.434  -7.366  -5.094  1.00  0.00    -0.014 A 
BRANCH  35  36
ATOM     36  C   UNL     1      -2.366  -7.928  -6.087  1.00  0.00     0.031 A 
ATOM     37  C   UNL     1      -3.069  -9.212  -5.753  1.00  0.00     0.074 A 
ATOM     38  C   UNL     1      -2.801  -7.263  -7.179  1.00  0.00     0.049 A 
ATOM     39  N   UNL     1      -3.015 -10.335  -6.396  1.00  0.00    -0.248 NA
ATOM     40  C   UNL     1      -3.936  -9.255  -4.565  1.00  0.00     0.031 C 
ATOM     41  C   UNL     1      -2.526  -5.882  -7.593  1.00  0.00     0.029 A 
ATOM     42  N   UNL     1      -3.711  -7.678  -8.107  1.00  0.00    -0.354 N 
ATOM     43  C   UNL     1      -3.933 -11.195  -5.790  1.00  0.00     0.074 A 
ATOM     44  C   UNL     1      -4.414 -10.503  -4.619  1.00  0.00     0.031 C 
ATOM     45  C   UNL     1      -3.441  -5.495  -8.506  1.00  0.00     0.029 A 
ATOM     46  C   UNL     1      -4.211  -6.658  -8.896  1.00  0.00     0.049 A 
ATOM     47  H   UNL     1      -3.986  -8.618  -8.206  1.00  0.00     0.167 HD
ATOM     48  C   UNL     1      -4.348 -12.357  -6.375  1.00  0.00     0.031 A 
ATOM     49  C   UNL     1      -5.182  -6.743  -9.829  1.00  0.00     0.031 A 
ATOM     50  C   UNL     1      -3.519 -12.731  -7.489  1.00  0.00     0.049 A 
ATOM     51  C   UNL     1      -5.265  -8.151 -10.264  1.00  0.00     0.074 A 
ATOM     52  C   UNL     1      -2.188 -13.049  -7.665  1.00  0.00     0.029 A 
ATOM     53  N   UNL     1      -4.013 -12.505  -8.750  1.00  0.00    -0.354 N 
ATOM     54  N   UNL     1      -4.312  -8.758 -10.912  1.00  0.00    -0.248 NA
ATOM     55  C   UNL     1      -6.260  -9.022  -9.662  1.00  0.00     0.031 C 
ATOM     56  C   UNL     1      -1.848 -12.499  -8.938  1.00  0.00     0.029 A 
ATOM     57  C   UNL     1      -3.004 -11.916  -9.465  1.00  0.00     0.049 A 
ATOM     58  H   UNL     1      -4.916 -12.723  -9.077  1.00  0.00     0.167 HD
ATOM     59  C   UNL     1      -4.338 -10.062 -10.445  1.00  0.00     0.074 A 
ATOM     60  C   UNL     1      -5.640 -10.198  -9.797  1.00  0.00     0.031 C 
ATOM     61  C   UNL     1      -3.199 -10.814 -10.382  1.00  0.00     0.031 A 
BRANCH  48  62
ATOM     62  C   UNL     1      -5.689 -13.019  -6.156  1.00  0.00    -0.014 A 
ATOM     63  C   UNL     1      -5.933 -14.281  -6.739  1.00  0.00     0.009 A 
ATOM     64  C   UNL     1      -6.805 -12.342  -5.636  1.00  0.00     0.009 A 
ATOM     65  C   UNL     1      -7.228 -14.805  -6.849  1.00  0.00     0.001 A 
ATOM     66  C   UNL     1      -8.096 -12.882  -5.706  1.00  0.00     0.001 A 
ATOM     67  C   UNL     1      -8.311 -14.101  -6.336  1.00  0.00     0.000 A 
ENDBRANCH  48  62
BRANCH  49  68
ATOM     68  C   UNL     1      -6.133  -5.698 -10.239  1.00  0.00    -0.014 A 
ATOM     69  C   UNL     1      -6.749  -5.728 -11.496  1.00  0.00     0.009 A 
ATOM     70  C   UNL     1      -6.614  -4.780  -9.285  1.00  0.00     0.009 A 
ATOM     71  C   UNL     1      -7.830  -4.884 -11.779  1.00  0.00     0.001 A 
ATOM     72  C   UNL     1      -7.691  -3.938  -9.568  1.00  0.00     0.001 A 
ATOM     73  C   UNL     1      -8.308  -4.000 -10.812  1.00  0.00     0.000 A 
ENDBRANCH  49  68
BRANCH  61  74
ATOM     74  C   UNL     1      -1.958 -10.282 -11.060  1.00  0.00    -0.014 A 
ATOM     75  C   UNL     1      -1.361  -9.062 -10.696  1.00  0.00     0.009 A 
ATOM     76  C   UNL     1      -1.281 -11.102 -11.975  1.00  0.00     0.009 A 
ATOM     77  C   UNL     1      -0.144  -8.659 -11.255  1.00  0.00     0.001 A 
ATOM     78  C   UNL     1      -0.054 -10.710 -12.518  1.00  0.00     0.001 A 
ATOM     79  C   UNL     1       0.511  -9.486 -12.163  1.00  0.00     0.000 A 
ENDBRANCH  61  74
ENDBRANCH  35  36
ENDBRANCH  27  30
ENDBRANCH  25  26
ENDBRANCH  24  25
ENDBRANCH   1  24
TORSDOF 15
