REMARK SMILES CC[NH2+][C@@]1(C(=O)NCCCCNC(=O)c2ccc(-c3c4nc(c(-c5ccccc5)c5ccc([nH]5)c(-c5ccccc5)c5nc(c(-c6ccccc6)c6ccc3[nH]6)C=C5)C=C4)cc2)CCC[C@@H](Sc2ncc(C)cn2)C1
REMARK SMILES IDX 9 1 8 2 7 3 5 4 6 5 4 7 63 8 75 9 64 10 66 11 65 12 3 13
REMARK SMILES IDX 2 16 1 17 67 18 68 19 69 20 74 21 70 22 73 23 71 24 72 25
REMARK SMILES IDX 10 26 11 27 12 28 13 29 14 31 15 32 16 33 62 34 17 35 61 36
REMARK SMILES IDX 18 37 19 38 20 39 55 40 21 41 60 42 54 43 56 44 22 45 59 46
REMARK SMILES IDX 53 47 52 48 23 50 45 51 30 52 44 53 31 54 34 55 43 56 57 57
REMARK SMILES IDX 32 58 33 59 42 61 58 62 35 63 24 64 25 65 29 66 26 67 28 68
REMARK SMILES IDX 27 69 46 70 47 71 51 72 48 73 50 74 49 75 36 76 37 77 41 78
REMARK SMILES IDX 38 79 40 80 39 81
REMARK H PARENT 7 6 3 14 3 15 12 30 56 49 34 60
REMARK Flexibility Score: inf
ROOT
ATOM      1  C   UNL     1       0.940   4.522  -6.290  1.00  0.00     0.023 C 
ENDROOT
BRANCH   1   2
ATOM      2  C   UNL     1       0.120   3.254  -6.034  1.00  0.00     0.116 C 
BRANCH   2   3
ATOM      3  N   UNL     1       0.943   2.184  -5.525  1.00  0.00    -0.351 N 
ATOM      4  C   UNL     1       1.172   1.653  -4.303  1.00  0.00     0.281 C 
ATOM      5  O   UNL     1       2.088   0.810  -4.304  1.00  0.00    -0.268 OA
ATOM      6  H   UNL     1       1.459   1.736  -6.234  1.00  0.00     0.163 HD
BRANCH   4   7
ATOM      7  C   UNL     1       0.474   2.045  -2.911  1.00  0.00     0.176 C 
ATOM      8  C   UNL     1      -1.071   2.163  -2.970  1.00  0.00     0.079 C 
ATOM      9  C   UNL     1       1.209   3.287  -2.355  1.00  0.00     0.094 C 
ATOM     10  C   UNL     1      -1.716   3.558  -2.969  1.00  0.00     0.008 C 
ATOM     11  C   UNL     1       0.573   4.602  -2.787  1.00  0.00     0.061 C 
ATOM     12  C   UNL     1      -0.886   4.675  -2.351  1.00  0.00     0.015 C 
BRANCH   7  13
ATOM     13  N   UNL     1       0.778   0.820  -2.083  1.00  0.00    -0.334 N 
ATOM     14  H   UNL     1       0.181   0.072  -2.435  1.00  0.00     0.347 HD
ATOM     15  H   UNL     1       1.786   0.709  -2.192  1.00  0.00     0.347 HD
BRANCH  13  16
ATOM     16  C   UNL     1       0.601   0.854  -0.639  1.00  0.00     0.257 C 
ATOM     17  C   UNL     1       1.144  -0.441  -0.042  1.00  0.00     0.071 C 
ENDBRANCH  13  16
ENDBRANCH   7  13
BRANCH  11  18
ATOM     18  S   UNL     1       1.589   6.056  -2.319  1.00  0.00    -0.083 SA
BRANCH  18  19
ATOM     19  C   UNL     1       1.092   6.271  -0.638  1.00  0.00     0.187 A 
ATOM     20  N   UNL     1       1.456   5.334   0.250  1.00  0.00    -0.231 NA
ATOM     21  N   UNL     1       0.322   7.336  -0.367  1.00  0.00    -0.231 NA
ATOM     22  C   UNL     1       0.995   5.493   1.504  1.00  0.00     0.119 A 
ATOM     23  C   UNL     1      -0.109   7.449   0.901  1.00  0.00     0.119 A 
ATOM     24  C   UNL     1       0.187   6.539   1.894  1.00  0.00    -0.014 A 
ATOM     25  C   UNL     1      -0.318   6.696   3.285  1.00  0.00     0.048 C 
ENDBRANCH  18  19
ENDBRANCH  11  18
ENDBRANCH   4   7
ENDBRANCH   2   3
ENDBRANCH   1   2
BRANCH   1  26
ATOM     26  C   UNL     1       1.255   4.800  -7.755  1.00  0.00     0.023 C 
BRANCH  26  27
ATOM     27  C   UNL     1       0.035   5.021  -8.640  1.00  0.00     0.116 C 
BRANCH  27  28
ATOM     28  N   UNL     1      -0.844   6.100  -8.206  1.00  0.00    -0.352 N 
ATOM     29  C   UNL     1      -1.616   6.923  -8.998  1.00  0.00     0.251 C 
ATOM     30  H   UNL     1      -0.892   6.259  -7.235  1.00  0.00     0.163 HD
ATOM     31  O   UNL     1      -2.296   7.819  -8.520  1.00  0.00    -0.269 OA
BRANCH  29  32
ATOM     32  C   UNL     1      -1.547   6.729 -10.459  1.00  0.00     0.039 A 
ATOM     33  C   UNL     1      -1.071   7.774 -11.252  1.00  0.00     0.014 A 
ATOM     34  C   UNL     1      -1.791   5.466 -11.003  1.00  0.00     0.014 A 
ATOM     35  C   UNL     1      -0.731   7.520 -12.581  1.00  0.00     0.010 A 
ATOM     36  C   UNL     1      -1.380   5.198 -12.302  1.00  0.00     0.010 A 
ATOM     37  C   UNL     1      -0.824   6.216 -13.094  1.00  0.00    -0.014 A 
BRANCH  37  38
ATOM     38  C   UNL     1      -0.311   5.875 -14.443  1.00  0.00     0.031 A 
ATOM     39  C   UNL     1      -1.251   5.357 -15.492  1.00  0.00     0.074 A 
ATOM     40  C   UNL     1       1.014   5.925 -14.687  1.00  0.00     0.049 A 
ATOM     41  N   UNL     1      -0.980   4.880 -16.679  1.00  0.00    -0.248 NA
ATOM     42  C   UNL     1      -2.682   5.341 -15.145  1.00  0.00     0.031 C 
ATOM     43  C   UNL     1       2.042   6.357 -13.735  1.00  0.00     0.029 A 
ATOM     44  N   UNL     1       1.725   5.593 -15.813  1.00  0.00    -0.354 N 
ATOM     45  C   UNL     1      -2.198   4.473 -17.205  1.00  0.00     0.074 A 
ATOM     46  C   UNL     1      -3.204   4.727 -16.196  1.00  0.00     0.031 C 
ATOM     47  C   UNL     1       3.246   6.287 -14.326  1.00  0.00     0.029 A 
ATOM     48  C   UNL     1       3.081   5.771 -15.681  1.00  0.00     0.049 A 
ATOM     49  H   UNL     1       1.303   5.260 -16.637  1.00  0.00     0.167 HD
ATOM     50  C   UNL     1      -2.461   3.949 -18.424  1.00  0.00     0.031 A 
ATOM     51  C   UNL     1       4.081   5.535 -16.551  1.00  0.00     0.031 A 
ATOM     52  C   UNL     1      -1.471   3.733 -19.443  1.00  0.00     0.049 A 
ATOM     53  C   UNL     1       3.760   4.982 -17.909  1.00  0.00     0.074 A 
ATOM     54  C   UNL     1      -1.652   3.283 -20.739  1.00  0.00     0.029 A 
ATOM     55  N   UNL     1      -0.114   3.959 -19.281  1.00  0.00    -0.354 N 
ATOM     56  N   UNL     1       2.595   4.659 -18.413  1.00  0.00    -0.248 NA
ATOM     57  C   UNL     1       4.894   4.763 -18.819  1.00  0.00     0.031 C 
ATOM     58  C   UNL     1      -0.397   3.210 -21.354  1.00  0.00     0.029 A 
ATOM     59  C   UNL     1       0.558   3.645 -20.449  1.00  0.00     0.049 A 
ATOM     60  H   UNL     1       0.309   4.294 -18.457  1.00  0.00     0.167 HD
ATOM     61  C   UNL     1       2.851   4.216 -19.703  1.00  0.00     0.074 A 
ATOM     62  C   UNL     1       4.281   4.323 -19.910  1.00  0.00     0.031 C 
ATOM     63  C   UNL     1       1.979   3.761 -20.634  1.00  0.00     0.031 A 
BRANCH  50  64
ATOM     64  C   UNL     1      -3.884   3.574 -18.715  1.00  0.00    -0.014 A 
ATOM     65  C   UNL     1      -4.859   4.558 -18.945  1.00  0.00     0.009 A 
ATOM     66  C   UNL     1      -4.252   2.222 -18.772  1.00  0.00     0.009 A 
ATOM     67  C   UNL     1      -6.184   4.194 -19.188  1.00  0.00     0.001 A 
ATOM     68  C   UNL     1      -5.574   1.860 -19.040  1.00  0.00     0.001 A 
ATOM     69  C   UNL     1      -6.540   2.846 -19.237  1.00  0.00     0.000 A 
ENDBRANCH  50  64
BRANCH  51  70
ATOM     70  C   UNL     1       5.484   5.839 -16.172  1.00  0.00    -0.014 A 
ATOM     71  C   UNL     1       6.128   6.967 -16.703  1.00  0.00     0.009 A 
ATOM     72  C   UNL     1       6.185   5.006 -15.288  1.00  0.00     0.009 A 
ATOM     73  C   UNL     1       7.457   7.243 -16.372  1.00  0.00     0.001 A 
ATOM     74  C   UNL     1       7.507   5.297 -14.943  1.00  0.00     0.001 A 
ATOM     75  C   UNL     1       8.144   6.410 -15.490  1.00  0.00     0.000 A 
ENDBRANCH  51  70
BRANCH  63  76
ATOM     76  C   UNL     1       2.544   3.368 -21.967  1.00  0.00    -0.014 A 
ATOM     77  C   UNL     1       3.208   2.144 -22.135  1.00  0.00     0.009 A 
ATOM     78  C   UNL     1       2.364   4.209 -23.075  1.00  0.00     0.009 A 
ATOM     79  C   UNL     1       3.700   1.779 -23.390  1.00  0.00     0.001 A 
ATOM     80  C   UNL     1       2.840   3.832 -24.331  1.00  0.00     0.001 A 
ATOM     81  C   UNL     1       3.511   2.620 -24.486  1.00  0.00     0.000 A 
ENDBRANCH  63  76
ENDBRANCH  37  38
ENDBRANCH  29  32
ENDBRANCH  27  28
ENDBRANCH  26  27
ENDBRANCH   1  26
TORSDOF 15
