REMARK SMILES Cc1cc(C)cc(Oc2nc3ccccn3c(=O)c2/C=C2\SC(=S)N(CCC(=O)NCCCCNC(=O)c3ccc(-c4c5nc(c(-c6ccccc6)c6ccc([nH]6)c(-c6ccccc6)c6nc(c(-c7ccccc7)c7ccc4[nH]7)C=C6)C=C5)cc3)C2=O)c1
REMARK SMILES IDX 31 1 30 2 28 3 29 4 27 6 26 7 25 8 20 9 21 10 22 11 86 12
REMARK SMILES IDX 23 13 87 14 24 15 19 16 9 17 10 18 11 19 17 20 12 21 16 22
REMARK SMILES IDX 18 23 13 24 15 25 14 26 8 27 7 28 1 29 2 30 3 31 88 32 4 33
REMARK SMILES IDX 5 34 6 35 32 36 33 37 34 38 35 39 36 40 37 42 38 43 39 44
REMARK SMILES IDX 85 45 40 46 84 47 41 48 42 49 43 50 78 51 44 52 83 53 77 54
REMARK SMILES IDX 79 55 45 56 82 57 76 58 75 59 46 61 68 62 53 63 67 64 54 65
REMARK SMILES IDX 57 66 66 67 80 68 55 69 56 70 65 72 81 73 58 74 47 75 48 76
REMARK SMILES IDX 52 77 49 78 51 79 50 80 69 81 70 82 74 83 71 84 73 85 72 86
REMARK SMILES IDX 59 87 60 88 64 89 61 90 63 91 62 92
REMARK H PARENT 30 5 35 41 79 60 57 71
REMARK Flexibility Score: inf
ROOT
ATOM      1  C   UNL     1       0.744   0.998   3.216  1.00  0.00     0.116 C 
ENDROOT
BRANCH   1   2
ATOM      2  N   UNL     1       0.917   1.513   4.570  1.00  0.00    -0.356 N 
ATOM      3  C   UNL     1       2.038   1.929   5.221  1.00  0.00     0.221 C 
ATOM      4  O   UNL     1       1.942   2.309   6.388  1.00  0.00    -0.275 OA
ATOM      5  H   UNL     1       0.088   1.569   5.099  1.00  0.00     0.163 HD
BRANCH   3   6
ATOM      6  C   UNL     1       3.373   1.946   4.509  1.00  0.00     0.122 C 
BRANCH   6   7
ATOM      7  C   UNL     1       4.355   0.893   5.063  1.00  0.00     0.137 C 
BRANCH   7   8
ATOM      8  N   UNL     1       4.438  -0.383   4.312  1.00  0.00    -0.292 N 
ATOM      9  C   UNL     1       2.555  -3.277   3.489  1.00  0.00     0.041 C 
ATOM     10  C   UNL     1       3.675  -2.530   3.687  1.00  0.00     0.081 C 
ATOM     11  S   UNL     1       5.022  -2.249   2.637  1.00  0.00    -0.054 SA
ATOM     12  C   UNL     1       3.758  -1.508   4.796  1.00  0.00     0.266 C 
ATOM     13  C   UNL     1       5.142  -0.556   3.136  1.00  0.00     0.148 C 
ATOM     14  O   UNL     1       3.215  -1.633   5.851  1.00  0.00    -0.268 OA
ATOM     15  S   UNL     1       5.913   0.596   2.208  1.00  0.00    -0.052 S 
BRANCH   9  16
ATOM     16  C   UNL     1       2.291  -4.186   2.360  1.00  0.00     0.104 A 
ATOM     17  C   UNL     1       1.251  -4.337   1.449  1.00  0.00     0.234 A 
ATOM     18  N   UNL     1       1.394  -5.413   0.543  1.00  0.00    -0.194 NA
ATOM     19  C   UNL     1       2.571  -5.898   0.230  1.00  0.00     0.143 A 
ATOM     20  C   UNL     1       3.469  -5.149   2.213  1.00  0.00     0.269 A 
ATOM     21  C   UNL     1       2.837  -6.772  -0.980  1.00  0.00     0.048 A 
ATOM     22  N   UNL     1       3.695  -5.662   0.974  1.00  0.00    -0.267 N 
ATOM     23  O   UNL     1       4.189  -5.414   3.181  1.00  0.00    -0.268 OA
ATOM     24  C   UNL     1       4.077  -7.113  -1.355  1.00  0.00     0.005 A 
ATOM     25  C   UNL     1       4.965  -6.115   0.616  1.00  0.00     0.096 A 
ATOM     26  C   UNL     1       5.191  -6.777  -0.525  1.00  0.00     0.019 A 
BRANCH  17  27
ATOM     27  O   UNL     1      -0.125  -3.553   1.428  1.00  0.00    -0.438 OA
BRANCH  27  28
ATOM     28  C   UNL     1      -0.708  -2.350   0.711  1.00  0.00     0.130 A 
ATOM     29  C   UNL     1       0.394   0.676  -1.503  1.00  0.00     0.044 C 
ATOM     30  C   UNL     1      -0.559  -0.183  -0.697  1.00  0.00    -0.047 A 
ATOM     31  C   UNL     1      -1.648   0.339  -0.069  1.00  0.00     0.007 A 
ATOM     32  C   UNL     1      -0.255  -1.539  -0.409  1.00  0.00     0.050 A 
ATOM     33  C   UNL     1      -2.382  -0.494   0.797  1.00  0.00    -0.047 A 
ATOM     34  C   UNL     1      -3.689   0.093   1.248  1.00  0.00     0.044 C 
ATOM     35  C   UNL     1      -1.885  -1.786   1.246  1.00  0.00     0.050 A 
ENDBRANCH  27  28
ENDBRANCH  17  27
ENDBRANCH   9  16
ENDBRANCH   7   8
ENDBRANCH   6   7
ENDBRANCH   3   6
ENDBRANCH   1   2
BRANCH   1  36
ATOM     36  C   UNL     1       1.716  -0.153   2.899  1.00  0.00     0.023 C 
BRANCH  36  37
ATOM     37  C   UNL     1       1.275  -1.128   1.817  1.00  0.00     0.023 C 
BRANCH  37  38
ATOM     38  C   UNL     1       2.194  -1.622   0.543  1.00  0.00     0.116 C 
BRANCH  38  39
ATOM     39  N   UNL     1       2.013  -2.858  -0.631  1.00  0.00    -0.352 N 
ATOM     40  C   UNL     1       1.184  -3.768  -1.505  1.00  0.00     0.251 C 
ATOM     41  H   UNL     1       2.940  -3.106  -0.852  1.00  0.00     0.163 HD
ATOM     42  O   UNL     1       1.824  -4.166  -2.494  1.00  0.00    -0.269 OA
BRANCH  40  43
ATOM     43  C   UNL     1      -0.299  -4.458  -1.379  1.00  0.00     0.039 A 
ATOM     44  C   UNL     1      -0.405  -5.861  -1.395  1.00  0.00     0.014 A 
ATOM     45  C   UNL     1      -1.574  -3.902  -1.311  1.00  0.00     0.014 A 
ATOM     46  C   UNL     1      -1.502  -6.613  -0.878  1.00  0.00     0.010 A 
ATOM     47  C   UNL     1      -2.682  -4.604  -0.725  1.00  0.00     0.010 A 
ATOM     48  C   UNL     1      -2.643  -5.976  -0.419  1.00  0.00    -0.014 A 
BRANCH  48  49
ATOM     49  C   UNL     1      -3.832  -6.728   0.148  1.00  0.00     0.031 A 
ATOM     50  C   UNL     1      -5.161  -6.646  -0.573  1.00  0.00     0.074 A 
ATOM     51  C   UNL     1      -3.812  -7.485   1.276  1.00  0.00     0.049 A 
ATOM     52  N   UNL     1      -6.349  -7.069  -0.208  1.00  0.00    -0.248 NA
ATOM     53  C   UNL     1      -5.143  -5.967  -1.875  1.00  0.00     0.031 C 
ATOM     54  C   UNL     1      -2.651  -7.751   2.124  1.00  0.00     0.029 A 
ATOM     55  N   UNL     1      -4.834  -8.180   1.910  1.00  0.00    -0.354 N 
ATOM     56  C   UNL     1      -7.222  -6.640  -1.201  1.00  0.00     0.074 A 
ATOM     57  C   UNL     1      -6.432  -5.888  -2.153  1.00  0.00     0.031 C 
ATOM     58  C   UNL     1      -3.016  -8.560   3.140  1.00  0.00     0.029 A 
ATOM     59  C   UNL     1      -4.449  -8.850   3.053  1.00  0.00     0.049 A 
ATOM     60  H   UNL     1      -5.759  -8.194   1.571  1.00  0.00     0.167 HD
ATOM     61  C   UNL     1      -8.551  -6.860  -1.351  1.00  0.00     0.031 A 
ATOM     62  C   UNL     1      -5.152  -9.603   3.933  1.00  0.00     0.031 A 
ATOM     63  C   UNL     1      -9.371  -7.663  -0.490  1.00  0.00     0.049 A 
ATOM     64  C   UNL     1      -6.644  -9.819   3.771  1.00  0.00     0.074 A 
ATOM     65  C   UNL     1     -10.717  -7.967  -0.624  1.00  0.00     0.029 A 
ATOM     66  N   UNL     1      -8.927  -8.309   0.648  1.00  0.00    -0.354 N 
ATOM     67  N   UNL     1      -7.443  -9.408   2.819  1.00  0.00    -0.248 NA
ATOM     68  C   UNL     1      -7.328 -10.613   4.813  1.00  0.00     0.031 C 
ATOM     69  C   UNL     1     -11.095  -8.777   0.452  1.00  0.00     0.029 A 
ATOM     70  C   UNL     1      -9.974  -9.007   1.230  1.00  0.00     0.049 A 
ATOM     71  H   UNL     1      -8.006  -8.279   0.994  1.00  0.00     0.167 HD
ATOM     72  C   UNL     1      -8.700  -9.930   3.121  1.00  0.00     0.074 A 
ATOM     73  C   UNL     1      -8.568 -10.682   4.347  1.00  0.00     0.031 C 
ATOM     74  C   UNL     1      -9.855  -9.795   2.427  1.00  0.00     0.031 A 
BRANCH  61  75
ATOM     75  C   UNL     1      -9.206  -6.183  -2.521  1.00  0.00    -0.014 A 
ATOM     76  C   UNL     1      -8.959  -6.604  -3.837  1.00  0.00     0.009 A 
ATOM     77  C   UNL     1     -10.044  -5.081  -2.299  1.00  0.00     0.009 A 
ATOM     78  C   UNL     1      -9.479  -5.885  -4.913  1.00  0.00     0.001 A 
ATOM     79  C   UNL     1     -10.593  -4.387  -3.376  1.00  0.00     0.001 A 
ATOM     80  C   UNL     1     -10.294  -4.777  -4.681  1.00  0.00     0.000 A 
ENDBRANCH  61  75
BRANCH  62  81
ATOM     81  C   UNL     1      -4.478 -10.262   5.092  1.00  0.00    -0.014 A 
ATOM     82  C   UNL     1      -4.308 -11.658   5.108  1.00  0.00     0.009 A 
ATOM     83  C   UNL     1      -4.105  -9.526   6.227  1.00  0.00     0.009 A 
ATOM     84  C   UNL     1      -3.803 -12.303   6.242  1.00  0.00     0.001 A 
ATOM     85  C   UNL     1      -3.580 -10.173   7.351  1.00  0.00     0.001 A 
ATOM     86  C   UNL     1      -3.438 -11.560   7.362  1.00  0.00     0.000 A 
ENDBRANCH  62  81
BRANCH  74  87
ATOM     87  C   UNL     1     -11.078 -10.530   2.905  1.00  0.00    -0.014 A 
ATOM     88  C   UNL     1     -11.827 -10.080   4.002  1.00  0.00     0.009 A 
ATOM     89  C   UNL     1     -11.548 -11.634   2.173  1.00  0.00     0.009 A 
ATOM     90  C   UNL     1     -13.016 -10.725   4.360  1.00  0.00     0.001 A 
ATOM     91  C   UNL     1     -12.745 -12.264   2.520  1.00  0.00     0.001 A 
ATOM     92  C   UNL     1     -13.478 -11.810   3.614  1.00  0.00     0.000 A 
ENDBRANCH  74  87
ENDBRANCH  48  49
ENDBRANCH  40  43
ENDBRANCH  38  39
ENDBRANCH  37  38
ENDBRANCH  36  37
ENDBRANCH   1  36
TORSDOF 16
