REMARK SMILES Cc1ccc(C)c([C@@H](C)[C@](C)(O)C(=O)NCCCCNC(=O)c2ccc(-c3c4nc(c(-c5ccccc5)c5ccc([nH]5)c(-c5ccccc5)c5nc(c(-c6ccccc6)c6ccc3[nH]6)C=C5)C=C4)cc2)c1
REMARK SMILES IDX 17 1 16 2 15 3 13 4 14 5 10 7 11 8 8 9 9 10 7 11 1 12 2 13
REMARK SMILES IDX 3 14 71 15 4 16 5 17 6 18 12 19 18 21 19 22 20 23 21 24
REMARK SMILES IDX 22 26 23 27 24 28 70 29 25 30 69 31 26 32 27 33 28 34 63 35
REMARK SMILES IDX 29 36 68 37 62 38 64 39 30 40 67 41 61 42 60 43 31 45 53 46
REMARK SMILES IDX 38 47 52 48 39 49 42 50 51 51 65 52 40 53 41 54 50 56 66 57
REMARK SMILES IDX 43 58 32 59 33 60 37 61 34 62 36 63 35 64 54 65 55 66 59 67
REMARK SMILES IDX 56 68 58 69 57 70 44 71 45 72 49 73 46 74 48 75 47 76
REMARK H PARENT 15 6 12 20 20 25 64 44 42 55
REMARK Flexibility Score: inf
ROOT
ATOM      1  C   UNL     1      -6.093   3.742   3.185  1.00  0.00     0.023 C 
ENDROOT
BRANCH   1   2
ATOM      2  C   UNL     1      -4.695   3.162   2.960  1.00  0.00     0.116 C 
BRANCH   2   3
ATOM      3  N   UNL     1      -4.563   2.338   1.773  1.00  0.00    -0.354 N 
ATOM      4  C   UNL     1      -3.546   2.212   0.864  1.00  0.00     0.252 C 
ATOM      5  O   UNL     1      -3.704   1.318   0.018  1.00  0.00    -0.272 OA
ATOM      6  H   UNL     1      -5.343   1.768   1.587  1.00  0.00     0.163 HD
BRANCH   4   7
ATOM      7  C   UNL     1      -2.237   3.107   0.863  1.00  0.00     0.146 C 
ATOM      8  C   UNL     1      -1.632   3.020  -0.552  1.00  0.00     0.053 C 
BRANCH   7   9
ATOM      9  C   UNL     1      -1.182   2.797   2.001  1.00  0.00     0.057 C 
ATOM     10  C   UNL     1       0.312   2.882   1.676  1.00  0.00     0.016 C 
BRANCH   9  11
ATOM     11  C   UNL     1      -1.501   1.563   2.823  1.00  0.00    -0.039 A 
ATOM     12  C   UNL     1      -3.466   1.511   6.010  1.00  0.00     0.044 C 
ATOM     13  C   UNL     1      -2.830   1.008   4.755  1.00  0.00    -0.051 A 
ATOM     14  C   UNL     1      -3.161  -0.205   4.146  1.00  0.00     0.004 A 
ATOM     15  C   UNL     1      -1.935   1.847   4.121  1.00  0.00     0.007 A 
ATOM     16  C   UNL     1      -2.519  -0.606   2.975  1.00  0.00     0.004 A 
ATOM     17  C   UNL     1      -1.660   0.268   2.302  1.00  0.00    -0.048 A 
ATOM     18  C   UNL     1      -0.942  -0.238   1.088  1.00  0.00     0.044 C 
ENDBRANCH   9  11
ENDBRANCH   7   9
BRANCH   7  19
ATOM     19  O   UNL     1      -2.643   4.487   1.016  1.00  0.00    -0.380 OA
ATOM     20  H   UNL     1      -3.292   4.710   0.331  1.00  0.00     0.212 HD
ENDBRANCH   7  19
ENDBRANCH   4   7
ENDBRANCH   2   3
ENDBRANCH   1   2
BRANCH   1  21
ATOM     21  C   UNL     1      -7.229   2.732   3.416  1.00  0.00     0.023 C 
BRANCH  21  22
ATOM     22  C   UNL     1      -7.126   1.807   4.635  1.00  0.00     0.116 C 
BRANCH  22  23
ATOM     23  N   UNL     1      -7.380   2.430   5.932  1.00  0.00    -0.352 N 
ATOM     24  C   UNL     1      -7.202   1.953   7.232  1.00  0.00     0.251 C 
ATOM     25  H   UNL     1      -7.740   3.346   5.881  1.00  0.00     0.163 HD
ATOM     26  O   UNL     1      -7.541   2.636   8.176  1.00  0.00    -0.269 OA
BRANCH  24  27
ATOM     27  C   UNL     1      -6.498   0.659   7.477  1.00  0.00     0.039 A 
ATOM     28  C   UNL     1      -5.534   0.580   8.500  1.00  0.00     0.014 A 
ATOM     29  C   UNL     1      -6.643  -0.405   6.605  1.00  0.00     0.014 A 
ATOM     30  C   UNL     1      -4.574  -0.451   8.497  1.00  0.00     0.010 A 
ATOM     31  C   UNL     1      -5.647  -1.369   6.553  1.00  0.00     0.010 A 
ATOM     32  C   UNL     1      -4.563  -1.373   7.450  1.00  0.00    -0.014 A 
BRANCH  32  33
ATOM     33  C   UNL     1      -3.555  -2.437   7.280  1.00  0.00     0.031 A 
ATOM     34  C   UNL     1      -4.080  -3.791   7.543  1.00  0.00     0.074 A 
ATOM     35  C   UNL     1      -2.293  -2.378   6.792  1.00  0.00     0.049 A 
ATOM     36  N   UNL     1      -3.917  -4.418   8.660  1.00  0.00    -0.248 NA
ATOM     37  C   UNL     1      -4.950  -4.478   6.581  1.00  0.00     0.031 C 
ATOM     38  C   UNL     1      -1.479  -1.234   6.409  1.00  0.00     0.029 A 
ATOM     39  N   UNL     1      -1.500  -3.424   6.387  1.00  0.00    -0.354 N 
ATOM     40  C   UNL     1      -4.481  -5.661   8.464  1.00  0.00     0.074 A 
ATOM     41  C   UNL     1      -5.330  -5.531   7.306  1.00  0.00     0.031 C 
ATOM     42  C   UNL     1      -0.503  -1.610   5.549  1.00  0.00     0.029 A 
ATOM     43  C   UNL     1      -0.476  -3.055   5.520  1.00  0.00     0.049 A 
ATOM     44  H   UNL     1      -1.642  -4.351   6.685  1.00  0.00     0.167 HD
ATOM     45  C   UNL     1      -3.969  -6.770   9.063  1.00  0.00     0.031 A 
ATOM     46  C   UNL     1       0.447  -3.850   4.931  1.00  0.00     0.031 A 
ATOM     47  C   UNL     1      -2.923  -6.439  10.007  1.00  0.00     0.049 A 
ATOM     48  C   UNL     1       0.696  -4.957   5.869  1.00  0.00     0.074 A 
ATOM     49  C   UNL     1      -2.811  -5.611  11.109  1.00  0.00     0.029 A 
ATOM     50  N   UNL     1      -1.631  -6.719   9.622  1.00  0.00    -0.354 N 
ATOM     51  N   UNL     1       1.261  -4.777   7.029  1.00  0.00    -0.248 NA
ATOM     52  C   UNL     1      -0.044  -6.197   5.721  1.00  0.00     0.031 C 
ATOM     53  C   UNL     1      -1.485  -5.084  11.056  1.00  0.00     0.029 A 
ATOM     54  C   UNL     1      -0.840  -5.650   9.956  1.00  0.00     0.049 A 
ATOM     55  H   UNL     1      -1.327  -7.545   9.181  1.00  0.00     0.167 HD
ATOM     56  C   UNL     1       0.534  -5.588   7.884  1.00  0.00     0.074 A 
ATOM     57  C   UNL     1      -0.124  -6.553   7.007  1.00  0.00     0.031 C 
ATOM     58  C   UNL     1       0.300  -5.211   9.177  1.00  0.00     0.031 A 
BRANCH  45  59
ATOM     59  C   UNL     1      -4.122  -8.164   8.513  1.00  0.00    -0.014 A 
ATOM     60  C   UNL     1      -3.700  -9.243   9.306  1.00  0.00     0.009 A 
ATOM     61  C   UNL     1      -4.459  -8.456   7.177  1.00  0.00     0.009 A 
ATOM     62  C   UNL     1      -3.583 -10.533   8.778  1.00  0.00     0.001 A 
ATOM     63  C   UNL     1      -4.397  -9.751   6.661  1.00  0.00     0.001 A 
ATOM     64  C   UNL     1      -3.936 -10.787   7.456  1.00  0.00     0.000 A 
ENDBRANCH  45  59
BRANCH  46  65
ATOM     65  C   UNL     1       1.010  -3.796   3.569  1.00  0.00    -0.014 A 
ATOM     66  C   UNL     1       2.235  -4.399   3.249  1.00  0.00     0.009 A 
ATOM     67  C   UNL     1       0.189  -3.387   2.504  1.00  0.00     0.009 A 
ATOM     68  C   UNL     1       2.610  -4.603   1.912  1.00  0.00     0.001 A 
ATOM     69  C   UNL     1       0.560  -3.593   1.170  1.00  0.00     0.001 A 
ATOM     70  C   UNL     1       1.769  -4.210   0.874  1.00  0.00     0.000 A 
ENDBRANCH  46  65
BRANCH  58  71
ATOM     71  C   UNL     1       1.101  -4.050   9.729  1.00  0.00    -0.014 A 
ATOM     72  C   UNL     1       1.051  -2.756   9.182  1.00  0.00     0.009 A 
ATOM     73  C   UNL     1       1.832  -4.234  10.911  1.00  0.00     0.009 A 
ATOM     74  C   UNL     1       1.738  -1.689   9.773  1.00  0.00     0.001 A 
ATOM     75  C   UNL     1       2.503  -3.166  11.516  1.00  0.00     0.001 A 
ATOM     76  C   UNL     1       2.462  -1.895  10.944  1.00  0.00     0.000 A 
ENDBRANCH  58  71
ENDBRANCH  32  33
ENDBRANCH  24  27
ENDBRANCH  22  23
ENDBRANCH  21  22
ENDBRANCH   1  21
TORSDOF 14
