REMARK SMILES Cc1cc(C(=O)NCCCCNC(=O)c2ccc(-c3c4nc(c(-c5ccccc5)c5ccc([nH]5)c(-c5ccccc5)c5nc(c(-c6ccccc6)c6ccc3[nH]6)C=C5)C=C4)cc2)ccc1NC(=O)CCl
REMARK SMILES IDX 9 1 8 2 7 3 5 4 6 5 4 7 1 8 2 9 3 10 65 11 64 12 63 13 66 14
REMARK SMILES IDX 67 15 68 17 69 18 70 19 10 20 11 21 12 22 13 23 14 25 15 26
REMARK SMILES IDX 16 27 62 28 17 29 61 30 18 31 19 32 20 33 55 34 21 35 60 36
REMARK SMILES IDX 54 37 56 38 22 39 59 40 53 41 52 42 23 44 45 45 30 46 44 47
REMARK SMILES IDX 31 48 34 49 43 50 57 51 32 52 33 53 42 55 58 56 35 57 24 58
REMARK SMILES IDX 25 59 29 60 26 61 28 62 27 63 46 64 47 65 51 66 48 67 50 68
REMARK SMILES IDX 49 69 36 70 37 71 41 72 38 73 40 74 39 75
REMARK H PARENT 7 6 66 16 12 24 56 43 34 54
REMARK Flexibility Score: inf
ROOT
ATOM      1  C   UNL     1      -4.783  -1.127  -1.166  1.00  0.00     0.023 C 
ENDROOT
BRANCH   1   2
ATOM      2  C   UNL     1      -4.221  -1.720   0.139  1.00  0.00     0.116 C 
BRANCH   2   3
ATOM      3  N   UNL     1      -3.082  -2.594  -0.091  1.00  0.00    -0.352 N 
ATOM      4  C   UNL     1      -1.727  -2.384  -0.160  1.00  0.00     0.251 C 
ATOM      5  O   UNL     1      -1.020  -3.387  -0.277  1.00  0.00    -0.269 OA
ATOM      6  H   UNL     1      -3.337  -3.535  -0.227  1.00  0.00     0.163 HD
BRANCH   4   7
ATOM      7  C   UNL     1      -1.065  -1.044  -0.103  1.00  0.00     0.040 A 
ATOM      8  C   UNL     1       2.563   0.057   0.133  1.00  0.00     0.046 C 
ATOM      9  C   UNL     1       1.064   0.209   0.041  1.00  0.00    -0.027 A 
ATOM     10  C   UNL     1       0.331  -1.007   0.022  1.00  0.00     0.019 A 
ATOM     11  C   UNL     1       0.376   1.439  -0.060  1.00  0.00     0.044 A 
ATOM     12  C   UNL     1      -1.008   1.387  -0.196  1.00  0.00     0.027 A 
ATOM     13  C   UNL     1      -1.711   0.176  -0.223  1.00  0.00     0.016 A 
BRANCH  11  14
ATOM     14  N   UNL     1       1.101   2.648  -0.036  1.00  0.00    -0.325 N 
ATOM     15  C   UNL     1       0.796   3.976  -0.080  1.00  0.00     0.239 C 
ATOM     16  H   UNL     1       2.071   2.495   0.028  1.00  0.00     0.169 HD
ATOM     17  O   UNL     1       1.757   4.758  -0.039  1.00  0.00    -0.273 OA
BRANCH  15  18
ATOM     18  C   UNL     1      -0.604   4.535  -0.142  1.00  0.00     0.209 C 
ATOM     19  Cl  UNL     1      -1.194   4.499  -1.816  1.00  0.00    -0.116 Cl
ENDBRANCH  15  18
ENDBRANCH  11  14
ENDBRANCH   4   7
ENDBRANCH   2   3
ENDBRANCH   1   2
BRANCH   1  20
ATOM     20  C   UNL     1      -5.565  -2.118  -2.032  1.00  0.00     0.023 C 
BRANCH  20  21
ATOM     21  C   UNL     1      -6.931  -2.468  -1.460  1.00  0.00     0.116 C 
BRANCH  21  22
ATOM     22  N   UNL     1      -8.023  -1.602  -1.887  1.00  0.00    -0.352 N 
ATOM     23  C   UNL     1      -9.320  -1.499  -1.395  1.00  0.00     0.251 C 
ATOM     24  H   UNL     1      -7.810  -0.999  -2.635  1.00  0.00     0.163 HD
ATOM     25  O   UNL     1     -10.124  -0.772  -1.940  1.00  0.00    -0.269 OA
BRANCH  23  26
ATOM     26  C   UNL     1      -9.671  -2.161  -0.106  1.00  0.00     0.039 A 
ATOM     27  C   UNL     1     -10.377  -1.398   0.832  1.00  0.00     0.014 A 
ATOM     28  C   UNL     1      -9.094  -3.367   0.274  1.00  0.00     0.014 A 
ATOM     29  C   UNL     1     -10.232  -1.682   2.186  1.00  0.00     0.010 A 
ATOM     30  C   UNL     1      -8.839  -3.576   1.615  1.00  0.00     0.010 A 
ATOM     31  C   UNL     1      -9.331  -2.675   2.563  1.00  0.00    -0.014 A 
BRANCH  31  32
ATOM     32  C   UNL     1      -8.701  -2.713   3.880  1.00  0.00     0.031 A 
ATOM     33  C   UNL     1      -9.006  -3.800   4.833  1.00  0.00     0.074 A 
ATOM     34  C   UNL     1      -7.755  -1.794   4.186  1.00  0.00     0.049 A 
ATOM     35  N   UNL     1      -8.861  -3.710   6.114  1.00  0.00    -0.248 NA
ATOM     36  C   UNL     1      -9.567  -5.077   4.408  1.00  0.00     0.031 C 
ATOM     37  C   UNL     1      -6.826  -1.825   5.313  1.00  0.00     0.029 A 
ATOM     38  N   UNL     1      -7.582  -0.511   3.652  1.00  0.00    -0.354 N 
ATOM     39  C   UNL     1      -8.970  -4.985   6.625  1.00  0.00     0.074 A 
ATOM     40  C   UNL     1      -9.532  -5.768   5.551  1.00  0.00     0.031 C 
ATOM     41  C   UNL     1      -6.433  -0.569   5.580  1.00  0.00     0.029 A 
ATOM     42  C   UNL     1      -7.218   0.311   4.730  1.00  0.00     0.049 A 
ATOM     43  H   UNL     1      -7.693  -0.241   2.712  1.00  0.00     0.167 HD
ATOM     44  C   UNL     1      -8.413  -5.273   7.837  1.00  0.00     0.031 A 
ATOM     45  C   UNL     1      -7.973   1.360   5.170  1.00  0.00     0.031 A 
ATOM     46  C   UNL     1      -7.910  -4.070   8.503  1.00  0.00     0.049 A 
ATOM     47  C   UNL     1      -8.367   1.240   6.630  1.00  0.00     0.074 A 
ATOM     48  C   UNL     1      -6.637  -3.554   8.688  1.00  0.00     0.029 A 
ATOM     49  N   UNL     1      -8.798  -3.059   8.849  1.00  0.00    -0.354 N 
ATOM     50  N   UNL     1      -8.295   0.130   7.311  1.00  0.00    -0.248 NA
ATOM     51  C   UNL     1      -8.935   2.334   7.415  1.00  0.00     0.031 C 
ATOM     52  C   UNL     1      -6.768  -2.192   9.067  1.00  0.00     0.029 A 
ATOM     53  C   UNL     1      -8.117  -1.893   9.141  1.00  0.00     0.049 A 
ATOM     54  H   UNL     1      -9.777  -3.159   8.882  1.00  0.00     0.167 HD
ATOM     55  C   UNL     1      -8.785   0.330   8.573  1.00  0.00     0.074 A 
ATOM     56  C   UNL     1      -9.168   1.729   8.595  1.00  0.00     0.031 C 
ATOM     57  C   UNL     1      -8.848  -0.682   9.486  1.00  0.00     0.031 A 
BRANCH  44  58
ATOM     58  C   UNL     1      -8.041  -6.677   8.275  1.00  0.00    -0.014 A 
ATOM     59  C   UNL     1      -7.025  -6.859   9.234  1.00  0.00     0.009 A 
ATOM     60  C   UNL     1      -8.578  -7.859   7.738  1.00  0.00     0.009 A 
ATOM     61  C   UNL     1      -6.509  -8.124   9.551  1.00  0.00     0.001 A 
ATOM     62  C   UNL     1      -8.051  -9.127   8.026  1.00  0.00     0.001 A 
ATOM     63  C   UNL     1      -7.004  -9.258   8.923  1.00  0.00     0.000 A 
ENDBRANCH  44  58
BRANCH  45  64
ATOM     64  C   UNL     1      -8.824   1.999   4.132  1.00  0.00    -0.014 A 
ATOM     65  C   UNL     1      -8.197   2.719   3.097  1.00  0.00     0.009 A 
ATOM     66  C   UNL     1     -10.163   1.617   3.966  1.00  0.00     0.009 A 
ATOM     67  C   UNL     1      -8.859   2.961   1.890  1.00  0.00     0.001 A 
ATOM     68  C   UNL     1     -10.824   1.867   2.756  1.00  0.00     0.001 A 
ATOM     69  C   UNL     1     -10.162   2.508   1.710  1.00  0.00     0.000 A 
ENDBRANCH  45  64
BRANCH  57  70
ATOM     70  C   UNL     1      -9.550  -0.631  10.819  1.00  0.00    -0.014 A 
ATOM     71  C   UNL     1     -10.637   0.205  11.104  1.00  0.00     0.009 A 
ATOM     72  C   UNL     1      -9.197  -1.577  11.808  1.00  0.00     0.009 A 
ATOM     73  C   UNL     1     -11.312   0.125  12.331  1.00  0.00     0.001 A 
ATOM     74  C   UNL     1      -9.894  -1.688  13.013  1.00  0.00     0.001 A 
ATOM     75  C   UNL     1     -10.948  -0.827  13.279  1.00  0.00     0.000 A 
ENDBRANCH  57  70
ENDBRANCH  31  32
ENDBRANCH  23  26
ENDBRANCH  21  22
ENDBRANCH  20  21
ENDBRANCH   1  20
TORSDOF 13
