REMARK SMILES Nc1ncc(C(=O)NCCCCNC(=O)c2ccc(-c3c4nc(c(-c5ccccc5)c5ccc([nH]5)c(-c5ccccc5)c5nc(c(-c6ccccc6)c6ccc3[nH]6)C=C5)C=C4)cc2)c(-c2ccccc2)n1
REMARK SMILES IDX 11 1 10 2 9 3 8 4 6 5 7 6 5 8 2 9 3 10 71 11 4 12 64 13 1 14
REMARK SMILES IDX 65 17 66 18 70 19 67 20 69 21 68 22 12 23 13 24 14 25 15 27
REMARK SMILES IDX 16 28 17 29 63 30 18 31 62 32 19 33 20 34 21 35 56 36 22 37
REMARK SMILES IDX 61 38 55 39 57 40 23 41 60 42 54 43 53 44 24 46 46 47 31 48
REMARK SMILES IDX 45 49 32 50 35 51 44 52 58 53 33 54 34 55 43 57 59 58 36 59
REMARK SMILES IDX 25 60 26 61 30 62 27 63 29 64 28 65 47 66 48 67 52 68 49 69
REMARK SMILES IDX 51 70 50 71 37 72 38 73 42 74 39 75 41 76 40 77
REMARK H PARENT 8 7 1 15 1 16 13 26 57 45 35 56
REMARK Flexibility Score: inf
ROOT
ATOM      1  C   UNL     1       6.024  -3.332  -1.536  1.00  0.00     0.023 C 
ENDROOT
BRANCH   1   2
ATOM      2  C   UNL     1       4.665  -2.924  -2.103  1.00  0.00     0.023 C 
BRANCH   2   3
ATOM      3  C   UNL     1       3.648  -2.356  -1.125  1.00  0.00     0.116 C 
BRANCH   3   4
ATOM      4  N   UNL     1       3.992  -1.120  -0.470  1.00  0.00    -0.352 N 
ATOM      5  C   UNL     1       3.180  -0.202   0.156  1.00  0.00     0.255 C 
ATOM      6  O   UNL     1       3.741   0.744   0.714  1.00  0.00    -0.269 OA
ATOM      7  H   UNL     1       4.951  -0.898  -0.471  1.00  0.00     0.163 HD
BRANCH   5   8
ATOM      8  C   UNL     1       1.694  -0.203   0.137  1.00  0.00     0.084 A 
ATOM      9  C   UNL     1      -1.014   0.235   0.082  1.00  0.00     0.220 A 
ATOM     10  N   UNL     1      -0.221   1.295  -0.016  1.00  0.00    -0.221 NA
ATOM     11  N   UNL     1      -0.574  -1.014   0.216  1.00  0.00    -0.212 NA
ATOM     12  C   UNL     1       1.110   1.051   0.021  1.00  0.00     0.131 A 
ATOM     13  C   UNL     1       0.772  -1.232   0.261  1.00  0.00     0.089 A 
BRANCH   9  14
ATOM     14  N   UNL     1      -2.361   0.426   0.039  1.00  0.00    -0.368 N 
ATOM     15  H   UNL     1      -2.726   1.335  -0.059  1.00  0.00     0.159 HD
ATOM     16  H   UNL     1      -2.971  -0.344   0.107  1.00  0.00     0.159 HD
ENDBRANCH   9  14
BRANCH  13  17
ATOM     17  C   UNL     1       1.057  -2.662   0.429  1.00  0.00     0.001 A 
ATOM     18  C   UNL     1       1.692  -3.178   1.568  1.00  0.00     0.010 A 
ATOM     19  C   UNL     1       0.675  -3.563  -0.589  1.00  0.00     0.010 A 
ATOM     20  C   UNL     1       1.997  -4.543   1.650  1.00  0.00     0.001 A 
ATOM     21  C   UNL     1       0.998  -4.918  -0.516  1.00  0.00     0.001 A 
ATOM     22  C   UNL     1       1.667  -5.405   0.602  1.00  0.00     0.000 A 
ENDBRANCH  13  17
ENDBRANCH   5   8
ENDBRANCH   3   4
ENDBRANCH   2   3
ENDBRANCH   1   2
BRANCH   1  23
ATOM     23  C   UNL     1       6.042  -4.073  -0.200  1.00  0.00     0.116 C 
BRANCH  23  24
ATOM     24  N   UNL     1       5.276  -5.312  -0.176  1.00  0.00    -0.352 N 
ATOM     25  C   UNL     1       5.668  -6.616   0.043  1.00  0.00     0.251 C 
ATOM     26  H   UNL     1       4.313  -5.198  -0.345  1.00  0.00     0.163 HD
ATOM     27  O   UNL     1       4.845  -7.518   0.004  1.00  0.00    -0.269 OA
BRANCH  25  28
ATOM     28  C   UNL     1       7.096  -6.935   0.269  1.00  0.00     0.039 A 
ATOM     29  C   UNL     1       7.683  -7.961  -0.479  1.00  0.00     0.014 A 
ATOM     30  C   UNL     1       7.866  -6.203   1.172  1.00  0.00     0.014 A 
ATOM     31  C   UNL     1       9.065  -8.162  -0.416  1.00  0.00     0.010 A 
ATOM     32  C   UNL     1       9.251  -6.340   1.163  1.00  0.00     0.010 A 
ATOM     33  C   UNL     1       9.869  -7.305   0.352  1.00  0.00    -0.014 A 
BRANCH  33  34
ATOM     34  C   UNL     1      11.354  -7.362   0.294  1.00  0.00     0.031 A 
ATOM     35  C   UNL     1      12.151  -7.630   1.541  1.00  0.00     0.074 A 
ATOM     36  C   UNL     1      11.989  -7.058  -0.857  1.00  0.00     0.049 A 
ATOM     37  N   UNL     1      13.447  -7.587   1.718  1.00  0.00    -0.248 NA
ATOM     38  C   UNL     1      11.388  -7.954   2.757  1.00  0.00     0.031 C 
ATOM     39  C   UNL     1      11.338  -6.723  -2.126  1.00  0.00     0.029 A 
ATOM     40  N   UNL     1      13.329  -6.966  -1.141  1.00  0.00    -0.354 N 
ATOM     41  C   UNL     1      13.651  -7.841   3.069  1.00  0.00     0.074 A 
ATOM     42  C   UNL     1      12.345  -7.993   3.672  1.00  0.00     0.031 C 
ATOM     43  C   UNL     1      12.277  -6.492  -3.057  1.00  0.00     0.029 A 
ATOM     44  C   UNL     1      13.595  -6.616  -2.443  1.00  0.00     0.049 A 
ATOM     45  H   UNL     1      14.034  -7.134  -0.474  1.00  0.00     0.167 HD
ATOM     46  C   UNL     1      14.819  -7.954   3.746  1.00  0.00     0.031 A 
ATOM     47  C   UNL     1      14.766  -6.410  -3.074  1.00  0.00     0.031 A 
ATOM     48  C   UNL     1      16.118  -7.832   3.142  1.00  0.00     0.049 A 
ATOM     49  C   UNL     1      16.049  -6.563  -2.307  1.00  0.00     0.074 A 
ATOM     50  C   UNL     1      17.361  -8.002   3.727  1.00  0.00     0.029 A 
ATOM     51  N   UNL     1      16.342  -7.514   1.811  1.00  0.00    -0.354 N 
ATOM     52  N   UNL     1      16.225  -6.867  -1.044  1.00  0.00    -0.248 NA
ATOM     53  C   UNL     1      17.297  -6.352  -3.056  1.00  0.00     0.031 C 
ATOM     54  C   UNL     1      18.338  -7.748   2.759  1.00  0.00     0.029 A 
ATOM     55  C   UNL     1      17.702  -7.467   1.560  1.00  0.00     0.049 A 
ATOM     56  H   UNL     1      15.637  -7.347   1.144  1.00  0.00     0.167 HD
ATOM     57  C   UNL     1      17.599  -6.912  -0.854  1.00  0.00     0.074 A 
ATOM     58  C   UNL     1      18.211  -6.618  -2.133  1.00  0.00     0.031 C 
ATOM     59  C   UNL     1      18.293  -7.176   0.280  1.00  0.00     0.031 A 
BRANCH  46  60
ATOM     60  C   UNL     1      14.737  -8.222   5.223  1.00  0.00    -0.014 A 
ATOM     61  C   UNL     1      14.294  -9.460   5.715  1.00  0.00     0.009 A 
ATOM     62  C   UNL     1      15.127  -7.229   6.136  1.00  0.00     0.009 A 
ATOM     63  C   UNL     1      14.201  -9.683   7.090  1.00  0.00     0.001 A 
ATOM     64  C   UNL     1      15.062  -7.466   7.511  1.00  0.00     0.001 A 
ATOM     65  C   UNL     1      14.588  -8.688   7.987  1.00  0.00     0.000 A 
ENDBRANCH  46  60
BRANCH  47  66
ATOM     66  C   UNL     1      14.786  -6.062  -4.519  1.00  0.00    -0.014 A 
ATOM     67  C   UNL     1      15.215  -7.005  -5.467  1.00  0.00     0.009 A 
ATOM     68  C   UNL     1      14.380  -4.793  -4.960  1.00  0.00     0.009 A 
ATOM     69  C   UNL     1      15.261  -6.676  -6.823  1.00  0.00     0.001 A 
ATOM     70  C   UNL     1      14.402  -4.476  -6.321  1.00  0.00     0.001 A 
ATOM     71  C   UNL     1      14.851  -5.414  -7.250  1.00  0.00     0.000 A 
ENDBRANCH  47  66
BRANCH  59  72
ATOM     72  C   UNL     1      19.791  -7.194   0.178  1.00  0.00    -0.014 A 
ATOM     73  C   UNL     1      20.527  -6.007   0.050  1.00  0.00     0.009 A 
ATOM     74  C   UNL     1      20.475  -8.418   0.253  1.00  0.00     0.009 A 
ATOM     75  C   UNL     1      21.920  -6.048  -0.030  1.00  0.00     0.001 A 
ATOM     76  C   UNL     1      21.869  -8.453   0.199  1.00  0.00     0.001 A 
ATOM     77  C   UNL     1      22.590  -7.269   0.049  1.00  0.00     0.000 A 
ENDBRANCH  59  72
ENDBRANCH  33  34
ENDBRANCH  25  28
ENDBRANCH  23  24
ENDBRANCH   1  23
TORSDOF 13
