REMARK SMILES CCc1cc(S(F)(F)(F)(F)F)cc2c1O[C@@H](C(F)(F)F)C(C(=O)NCCCCNC(=O)c1ccc(-c3c4nc(c(-c5ccccc5)c5ccc([nH]5)c(-c5ccccc5)c5nc(c(-c6ccccc6)c6ccc3[nH]6)C=C5)C=C4)cc1)=C2
REMARK SMILES IDX 27 1 26 2 25 3 24 4 22 5 23 6 21 8 3 9 4 10 14 11 5 12 13 13
REMARK SMILES IDX 15 14 12 15 80 16 16 17 2 18 1 19 6 20 7 21 8 22 9 23 10 24
REMARK SMILES IDX 11 25 17 26 18 27 19 28 20 29 28 30 29 31 30 32 31 34 32 35
REMARK SMILES IDX 33 36 79 37 34 38 78 39 35 40 36 41 37 42 72 43 38 44 77 45
REMARK SMILES IDX 71 46 73 47 39 48 76 49 70 50 69 51 40 53 62 54 47 55 61 56
REMARK SMILES IDX 48 57 51 58 60 59 74 60 49 61 50 62 59 64 75 65 52 66 41 67
REMARK SMILES IDX 42 68 46 69 43 70 45 71 44 72 63 73 64 74 68 75 65 76 67 77
REMARK SMILES IDX 66 78 53 79 54 80 58 81 55 82 57 83 56 84
REMARK H PARENT 24 7 29 33 73 52 51 63
REMARK Flexibility Score: inf
ROOT
ATOM      1  C   UNL     1       4.153  -2.073   8.955  1.00  0.00     0.023 C 
ENDROOT
BRANCH   1   2
ATOM      2  C   UNL     1       3.776  -2.569   7.568  1.00  0.00     0.023 C 
BRANCH   2   3
ATOM      3  C   UNL     1       2.613  -1.747   7.035  1.00  0.00     0.116 C 
BRANCH   3   4
ATOM      4  N   UNL     1       3.008  -0.333   6.959  1.00  0.00    -0.352 N 
ATOM      5  C   UNL     1       2.990   0.366   5.666  1.00  0.00     0.251 C 
ATOM      6  O   UNL     1       3.331   1.589   5.601  1.00  0.00    -0.270 OA
ATOM      7  H   UNL     1       3.284   0.146   7.774  1.00  0.00     0.163 HD
BRANCH   5   8
ATOM      8  C   UNL     1       2.564  -0.372   4.408  1.00  0.00     0.067 C 
ATOM      9  C   UNL     1       0.937  -2.181   1.013  1.00  0.00    -0.004 A 
ATOM     10  C   UNL     1       0.740  -3.550   0.988  1.00  0.00     0.032 A 
ATOM     11  C   UNL     1       1.423  -1.606   2.162  1.00  0.00     0.131 A 
ATOM     12  C   UNL     1       1.018  -4.322   2.085  1.00  0.00     0.108 A 
ATOM     13  C   UNL     1       1.733  -2.356   3.282  1.00  0.00     0.019 A 
ATOM     14  O   UNL     1       1.507  -0.236   2.211  1.00  0.00    -0.475 OA
ATOM     15  C   UNL     1       1.519  -3.728   3.224  1.00  0.00     0.036 A 
ATOM     16  C   UNL     1       2.205  -1.649   4.460  1.00  0.00     0.025 C 
ATOM     17  C   UNL     1       2.540   0.336   3.061  1.00  0.00     0.314 C 
BRANCH   9  18
ATOM     18  C   UNL     1       0.430  -1.361  -0.162  1.00  0.00     0.036 C 
ATOM     19  C   UNL     1       0.937   0.067  -0.039  1.00  0.00     0.009 C 
ENDBRANCH   9  18
BRANCH  12  20
ATOM     20  S   UNL     1       0.731  -6.109   2.039  1.00  0.00     0.310 S 
ATOM     21  F   UNL     1       0.189  -6.122   3.529  1.00  0.00    -0.094 F 
ATOM     22  F   UNL     1       2.173  -6.329   2.634  1.00  0.00    -0.094 F 
ATOM     23  F   UNL     1       0.483  -7.643   2.000  1.00  0.00    -0.094 F 
ATOM     24  F   UNL     1      -0.759  -5.864   1.576  1.00  0.00    -0.094 F 
ATOM     25  F   UNL     1       0.928  -4.547   2.179  1.00  0.00    -0.094 F 
ENDBRANCH  12  20
BRANCH  17  26
ATOM     26  C   UNL     1       2.242   1.810   3.280  1.00  0.00     0.429 C 
ATOM     27  F   UNL     1       3.184   2.343   4.053  1.00  0.00    -0.167 F 
ATOM     28  F   UNL     1       2.223   2.438   2.108  1.00  0.00    -0.167 F 
ATOM     29  F   UNL     1       1.058   1.940   3.872  1.00  0.00    -0.167 F 
ENDBRANCH  17  26
ENDBRANCH   5   8
ENDBRANCH   3   4
ENDBRANCH   2   3
ENDBRANCH   1   2
BRANCH   1  30
ATOM     30  C   UNL     1       2.961  -2.217   9.886  1.00  0.00     0.116 C 
BRANCH  30  31
ATOM     31  N   UNL     1       2.567  -3.632   9.962  1.00  0.00    -0.352 N 
ATOM     32  C   UNL     1       2.584  -4.331  11.255  1.00  0.00     0.251 C 
ATOM     33  H   UNL     1       2.291  -4.110   9.148  1.00  0.00     0.163 HD
ATOM     34  O   UNL     1       2.243  -5.554  11.321  1.00  0.00    -0.269 OA
BRANCH  32  35
ATOM     35  C   UNL     1       3.010  -3.592  12.513  1.00  0.00     0.039 A 
ATOM     36  C   UNL     1       3.753  -4.246  13.482  1.00  0.00     0.014 A 
ATOM     37  C   UNL     1       2.525  -2.374  12.723  1.00  0.00     0.014 A 
ATOM     38  C   UNL     1       3.685  -3.643  14.761  1.00  0.00     0.010 A 
ATOM     39  C   UNL     1       2.614  -1.789  13.963  1.00  0.00     0.010 A 
ATOM     40  C   UNL     1       3.283  -2.405  14.984  1.00  0.00    -0.014 A 
BRANCH  40  41
ATOM     41  C   UNL     1       3.548  -1.703  16.306  1.00  0.00     0.031 A 
ATOM     42  C   UNL     1       2.433  -1.277  17.030  1.00  0.00     0.074 A 
ATOM     43  C   UNL     1       4.848  -1.644  16.779  1.00  0.00     0.049 A 
ATOM     44  N   UNL     1       2.408  -0.787  18.271  1.00  0.00    -0.248 NA
ATOM     45  C   UNL     1       1.056  -1.307  16.517  1.00  0.00     0.031 C 
ATOM     46  C   UNL     1       5.976  -2.080  16.058  1.00  0.00     0.029 A 
ATOM     47  N   UNL     1       5.283  -1.168  17.996  1.00  0.00    -0.354 N 
ATOM     48  C   UNL     1       1.153  -0.508  18.631  1.00  0.00     0.074 A 
ATOM     49  C   UNL     1       0.267  -0.832  17.505  1.00  0.00     0.031 C 
ATOM     50  C   UNL     1       7.077  -1.859  16.824  1.00  0.00     0.029 A 
ATOM     51  C   UNL     1       6.655  -1.282  18.037  1.00  0.00     0.049 A 
ATOM     52  H   UNL     1       4.712  -0.808  18.713  1.00  0.00     0.167 HD
ATOM     53  C   UNL     1       0.714   0.002  19.853  1.00  0.00     0.031 A 
ATOM     54  C   UNL     1       7.508  -0.909  19.063  1.00  0.00     0.031 A 
ATOM     55  C   UNL     1       1.564   0.335  20.897  1.00  0.00     0.049 A 
ATOM     56  C   UNL     1       7.074  -0.344  20.265  1.00  0.00     0.074 A 
ATOM     57  C   UNL     1       1.137   0.844  22.138  1.00  0.00     0.029 A 
ATOM     58  N   UNL     1       2.938   0.244  20.928  1.00  0.00    -0.354 N 
ATOM     59  N   UNL     1       5.816  -0.102  20.639  1.00  0.00    -0.248 NA
ATOM     60  C   UNL     1       7.970   0.085  21.346  1.00  0.00     0.031 C 
ATOM     61  C   UNL     1       2.238   1.065  22.905  1.00  0.00     0.029 A 
ATOM     62  C   UNL     1       3.371   0.699  22.153  1.00  0.00     0.049 A 
ATOM     63  H   UNL     1       3.510  -0.089  20.200  1.00  0.00     0.167 HD
ATOM     64  C   UNL     1       5.795   0.427  21.864  1.00  0.00     0.074 A 
ATOM     65  C   UNL     1       7.181   0.562  22.334  1.00  0.00     0.031 C 
ATOM     66  C   UNL     1       4.676   0.798  22.611  1.00  0.00     0.031 A 
BRANCH  53  67
ATOM     67  C   UNL     1      -0.779   0.204  20.052  1.00  0.00    -0.014 A 
ATOM     68  C   UNL     1      -1.630  -0.885  19.959  1.00  0.00     0.009 A 
ATOM     69  C   UNL     1      -1.244   1.421  20.310  1.00  0.00     0.009 A 
ATOM     70  C   UNL     1      -2.998  -0.537  19.869  1.00  0.00     0.001 A 
ATOM     71  C   UNL     1      -2.596   1.662  20.341  1.00  0.00     0.001 A 
ATOM     72  C   UNL     1      -3.495   0.642  20.198  1.00  0.00     0.000 A 
ENDBRANCH  53  67
BRANCH  54  73
ATOM     73  C   UNL     1       9.000  -1.127  18.871  1.00  0.00    -0.014 A 
ATOM     74  C   UNL     1       9.685  -1.948  19.751  1.00  0.00     0.009 A 
ATOM     75  C   UNL     1       9.621  -0.526  17.863  1.00  0.00     0.009 A 
ATOM     76  C   UNL     1      11.093  -1.843  19.654  1.00  0.00     0.001 A 
ATOM     77  C   UNL     1      10.990  -0.579  17.754  1.00  0.00     0.001 A 
ATOM     78  C   UNL     1      11.736  -1.324  18.625  1.00  0.00     0.000 A 
ENDBRANCH  54  73
BRANCH  66  79
ATOM     79  C   UNL     1       4.902   1.346  24.011  1.00  0.00    -0.014 A 
ATOM     80  C   UNL     1       5.756   2.424  24.177  1.00  0.00     0.009 A 
ATOM     81  C   UNL     1       4.370   0.721  25.055  1.00  0.00     0.009 A 
ATOM     82  C   UNL     1       6.220   2.588  25.503  1.00  0.00     0.001 A 
ATOM     83  C   UNL     1       4.773   1.027  26.332  1.00  0.00     0.001 A 
ATOM     84  C   UNL     1       5.659   2.041  26.567  1.00  0.00     0.000 A 
ENDBRANCH  66  79
ENDBRANCH  40  41
ENDBRANCH  32  35
ENDBRANCH  30  31
ENDBRANCH   1  30
TORSDOF 14
