REMARK SMILES CC1(C)O[C@](C)([C@H](O)C2CCCCC2)CC[C@H]1C(=O)NCCCCNC(=O)c1ccc(-c2c3nc(c(-c4ccccc4)c4ccc([nH]4)c(-c4ccccc4)c4nc(c(-c5ccccc5)c5ccc2[nH]5)C=C4)C=C3)cc1
REMARK SMILES IDX 22 1 21 2 20 3 18 4 19 5 17 7 1 8 2 9 3 10 4 11 5 12 16 13
REMARK SMILES IDX 6 14 15 15 7 16 9 17 10 18 14 19 11 20 13 21 12 22 8 23
REMARK SMILES IDX 23 25 24 26 25 27 26 28 27 30 28 31 29 32 75 33 30 34 74 35
REMARK SMILES IDX 31 36 32 37 33 38 68 39 34 40 73 41 67 42 69 43 35 44 72 45
REMARK SMILES IDX 66 46 65 47 36 49 58 50 43 51 57 52 44 53 47 54 56 55 70 56
REMARK SMILES IDX 45 57 46 58 55 60 71 61 48 62 37 63 38 64 42 65 39 66 41 67
REMARK SMILES IDX 40 68 59 69 60 70 64 71 61 72 63 73 62 74 49 75 50 76 54 77
REMARK SMILES IDX 51 78 53 79 52 80
REMARK H PARENT 20 6 8 24 25 29 69 48 47 59
REMARK Flexibility Score: inf
ROOT
ATOM      1  C   UNL     1       1.208   6.248   6.886  1.00  0.00     0.023 C 
ENDROOT
BRANCH   1   2
ATOM      2  C   UNL     1      -0.082   6.166   6.068  1.00  0.00     0.116 C 
BRANCH   2   3
ATOM      3  N   UNL     1      -0.512   7.464   5.594  1.00  0.00    -0.356 N 
ATOM      4  C   UNL     1      -0.583   8.000   4.347  1.00  0.00     0.226 C 
ATOM      5  O   UNL     1      -0.944   9.180   4.283  1.00  0.00    -0.275 OA
ATOM      6  H   UNL     1      -0.810   8.073   6.309  1.00  0.00     0.163 HD
BRANCH   4   7
ATOM      7  C   UNL     1      -0.259   7.236   3.056  1.00  0.00     0.110 C 
ATOM      8  C   UNL     1       2.235   6.857   3.864  1.00  0.00     0.043 C 
ATOM      9  C   UNL     1       1.255   7.081   2.718  1.00  0.00     0.075 C 
ATOM     10  C   UNL     1       1.725   8.405   2.063  1.00  0.00     0.043 C 
ATOM     11  O   UNL     1       1.536   6.072   1.738  1.00  0.00    -0.366 OA
ATOM     12  C   UNL     1       0.811   4.837   1.728  1.00  0.00     0.092 C 
ATOM     13  C   UNL     1      -1.163   6.022   2.818  1.00  0.00     0.019 C 
ATOM     14  C   UNL     1       1.048   3.939   2.955  1.00  0.00     0.045 C 
ATOM     15  C   UNL     1      -0.690   5.180   1.632  1.00  0.00     0.039 C 
BRANCH  12  16
ATOM     16  C   UNL     1       1.279   4.097   0.419  1.00  0.00     0.149 C 
BRANCH  16  17
ATOM     17  C   UNL     1       2.823   3.854   0.256  1.00  0.00     0.021 C 
ATOM     18  C   UNL     1       3.538   2.940   1.267  1.00  0.00     0.006 C 
ATOM     19  C   UNL     1       3.166   3.316  -1.153  1.00  0.00     0.006 C 
ATOM     20  C   UNL     1       3.136   1.476   1.155  1.00  0.00     0.000 C 
ATOM     21  C   UNL     1       2.865   1.827  -1.352  1.00  0.00     0.000 C 
ATOM     22  C   UNL     1       3.428   0.942  -0.241  1.00  0.00     0.000 C 
ENDBRANCH  16  17
BRANCH  16  23
ATOM     23  O   UNL     1       0.538   2.892   0.237  1.00  0.00    -0.390 OA
ATOM     24  H   UNL     1       0.745   2.274   0.956  1.00  0.00     0.211 HD
ENDBRANCH  16  23
ENDBRANCH  12  16
ENDBRANCH   4   7
ENDBRANCH   2   3
ENDBRANCH   1   2
BRANCH   1  25
ATOM     25  C   UNL     1       1.031   6.679   8.330  1.00  0.00     0.023 C 
BRANCH  25  26
ATOM     26  C   UNL     1       0.212   5.718   9.168  1.00  0.00     0.116 C 
BRANCH  26  27
ATOM     27  N   UNL     1       0.760   4.368   9.210  1.00  0.00    -0.352 N 
ATOM     28  C   UNL     1       0.936   3.554  10.308  1.00  0.00     0.251 C 
ATOM     29  H   UNL     1       1.039   3.990   8.345  1.00  0.00     0.163 HD
ATOM     30  O   UNL     1       1.500   2.478  10.218  1.00  0.00    -0.269 OA
BRANCH  28  31
ATOM     31  C   UNL     1       0.455   4.049  11.612  1.00  0.00     0.039 A 
ATOM     32  C   UNL     1       1.343   4.109  12.686  1.00  0.00     0.014 A 
ATOM     33  C   UNL     1      -0.837   4.568  11.716  1.00  0.00     0.014 A 
ATOM     34  C   UNL     1       0.957   4.772  13.850  1.00  0.00     0.010 A 
ATOM     35  C   UNL     1      -1.177   5.318  12.830  1.00  0.00     0.010 A 
ATOM     36  C   UNL     1      -0.288   5.420  13.912  1.00  0.00    -0.014 A 
BRANCH  36  37
ATOM     37  C   UNL     1      -0.715   6.180  15.111  1.00  0.00     0.031 A 
ATOM     38  C   UNL     1      -1.946   5.739  15.855  1.00  0.00     0.074 A 
ATOM     39  C   UNL     1      -0.059   7.298  15.476  1.00  0.00     0.049 A 
ATOM     40  N   UNL     1      -2.567   6.326  16.845  1.00  0.00    -0.248 NA
ATOM     41  C   UNL     1      -2.587   4.494  15.397  1.00  0.00     0.031 C 
ATOM     42  C   UNL     1       1.119   7.856  14.808  1.00  0.00     0.029 A 
ATOM     43  N   UNL     1      -0.301   8.173  16.504  1.00  0.00    -0.354 N 
ATOM     44  C   UNL     1      -3.685   5.543  17.099  1.00  0.00     0.074 A 
ATOM     45  C   UNL     1      -3.690   4.474  16.127  1.00  0.00     0.031 C 
ATOM     46  C   UNL     1       1.517   8.959  15.465  1.00  0.00     0.029 A 
ATOM     47  C   UNL     1       0.601   9.208  16.573  1.00  0.00     0.049 A 
ATOM     48  H   UNL     1      -1.051   8.070  17.134  1.00  0.00     0.167 HD
ATOM     49  C   UNL     1      -4.612   5.681  18.075  1.00  0.00     0.031 A 
ATOM     50  C   UNL     1       0.676  10.239  17.434  1.00  0.00     0.031 A 
ATOM     51  C   UNL     1      -4.581   6.715  19.070  1.00  0.00     0.049 A 
ATOM     52  C   UNL     1      -0.350  10.355  18.527  1.00  0.00     0.074 A 
ATOM     53  C   UNL     1      -5.439   6.912  20.137  1.00  0.00     0.029 A 
ATOM     54  N   UNL     1      -3.627   7.719  19.127  1.00  0.00    -0.354 N 
ATOM     55  N   UNL     1      -1.375   9.578  18.784  1.00  0.00    -0.248 NA
ATOM     56  C   UNL     1      -0.203  11.485  19.455  1.00  0.00     0.031 C 
ATOM     57  C   UNL     1      -5.018   8.054  20.826  1.00  0.00     0.029 A 
ATOM     58  C   UNL     1      -3.876   8.541  20.210  1.00  0.00     0.049 A 
ATOM     59  H   UNL     1      -2.884   7.830  18.491  1.00  0.00     0.167 HD
ATOM     60  C   UNL     1      -1.973  10.106  19.920  1.00  0.00     0.074 A 
ATOM     61  C   UNL     1      -1.192  11.261  20.309  1.00  0.00     0.031 C 
ATOM     62  C   UNL     1      -3.073   9.674  20.584  1.00  0.00     0.031 A 
BRANCH  49  63
ATOM     63  C   UNL     1      -5.725   4.673  18.113  1.00  0.00    -0.014 A 
ATOM     64  C   UNL     1      -5.484   3.343  18.494  1.00  0.00     0.009 A 
ATOM     65  C   UNL     1      -7.031   5.059  17.777  1.00  0.00     0.009 A 
ATOM     66  C   UNL     1      -6.522   2.410  18.500  1.00  0.00     0.001 A 
ATOM     67  C   UNL     1      -8.073   4.130  17.812  1.00  0.00     0.001 A 
ATOM     68  C   UNL     1      -7.816   2.806  18.163  1.00  0.00     0.000 A 
ENDBRANCH  49  63
BRANCH  50  69
ATOM     69  C   UNL     1       1.778  11.230  17.326  1.00  0.00    -0.014 A 
ATOM     70  C   UNL     1       2.807  11.251  18.282  1.00  0.00     0.009 A 
ATOM     71  C   UNL     1       1.799  12.173  16.288  1.00  0.00     0.009 A 
ATOM     72  C   UNL     1       3.815  12.215  18.218  1.00  0.00     0.001 A 
ATOM     73  C   UNL     1       2.823  13.120  16.212  1.00  0.00     0.001 A 
ATOM     74  C   UNL     1       3.824  13.147  17.182  1.00  0.00     0.000 A 
ENDBRANCH  50  69
BRANCH  62  75
ATOM     75  C   UNL     1      -3.463  10.424  21.824  1.00  0.00    -0.014 A 
ATOM     76  C   UNL     1      -4.075  11.683  21.749  1.00  0.00     0.009 A 
ATOM     77  C   UNL     1      -3.260   9.833  23.081  1.00  0.00     0.009 A 
ATOM     78  C   UNL     1      -4.451  12.351  22.916  1.00  0.00     0.001 A 
ATOM     79  C   UNL     1      -3.660  10.492  24.243  1.00  0.00     0.001 A 
ATOM     80  C   UNL     1      -4.248  11.754  24.160  1.00  0.00     0.000 A 
ENDBRANCH  62  75
ENDBRANCH  36  37
ENDBRANCH  28  31
ENDBRANCH  26  27
ENDBRANCH  25  26
ENDBRANCH   1  25
TORSDOF 14
