REMARK SMILES Cc1c(NS(=O)(=O)c2ncn(C)c2Cl)cccc1C(=O)NCCCCNC(=O)c1ccc(-c2c3nc(c(-c4ccccc4)c4ccc([nH]4)c(-c4ccccc4)c4nc(c(-c5ccccc5)c5ccc2[nH]5)C=C4)C=C3)cc1
REMARK SMILES IDX 23 1 22 2 21 3 19 4 20 5 18 7 1 8 2 9 3 10 15 11 17 12 16 13
REMARK SMILES IDX 4 14 5 16 6 17 7 18 8 19 9 20 13 21 10 22 11 23 14 24 12 25
REMARK SMILES IDX 24 26 25 27 26 28 27 29 28 31 29 32 30 33 76 34 31 35 75 36
REMARK SMILES IDX 32 37 33 38 34 39 69 40 35 41 74 42 68 43 70 44 36 45 73 46
REMARK SMILES IDX 67 47 66 48 37 50 59 51 44 52 58 53 45 54 48 55 57 56 71 57
REMARK SMILES IDX 46 58 47 59 56 61 72 62 49 63 38 64 39 65 43 66 40 67 42 68
REMARK SMILES IDX 41 69 60 70 61 71 65 72 62 73 64 74 63 75 50 76 51 77 55 78
REMARK SMILES IDX 52 79 54 80 53 81
REMARK H PARENT 21 6 4 15 26 30 70 49 48 60
REMARK Flexibility Score: inf
ROOT
ATOM      1  C   UNL     1       4.321   1.442  -1.358  1.00  0.00     0.023 C 
ENDROOT
BRANCH   1   2
ATOM      2  C   UNL     1       3.719   1.714   0.029  1.00  0.00     0.116 C 
BRANCH   2   3
ATOM      3  N   UNL     1       2.486   2.458  -0.080  1.00  0.00    -0.352 N 
ATOM      4  C   UNL     1       1.154   2.205  -0.232  1.00  0.00     0.251 C 
ATOM      5  O   UNL     1       0.502   3.259  -0.316  1.00  0.00    -0.269 OA
ATOM      6  H   UNL     1       2.655   3.426  -0.029  1.00  0.00     0.163 HD
BRANCH   4   7
ATOM      7  C   UNL     1       0.380   0.898  -0.302  1.00  0.00     0.044 A 
ATOM      8  C   UNL     1       2.164  -0.841  -0.928  1.00  0.00     0.047 C 
ATOM      9  C   UNL     1       0.765  -0.449  -0.585  1.00  0.00    -0.014 A 
ATOM     10  C   UNL     1      -0.234  -1.461  -0.680  1.00  0.00     0.053 A 
ATOM     11  C   UNL     1      -1.576  -1.092  -0.726  1.00  0.00     0.027 A 
ATOM     12  C   UNL     1      -1.011   1.151  -0.165  1.00  0.00     0.014 A 
ATOM     13  C   UNL     1      -1.978   0.191  -0.420  1.00  0.00     0.003 A 
BRANCH  10  14
ATOM     14  N   UNL     1       0.073  -2.857  -0.905  1.00  0.00    -0.278 N 
ATOM     15  H   UNL     1       0.594  -3.130  -1.694  1.00  0.00     0.180 HD
BRANCH  14  16
ATOM     16  S   UNL     1      -0.481  -4.032   0.216  1.00  0.00     0.282 S 
ATOM     17  O   UNL     1      -0.138  -5.313  -0.350  1.00  0.00    -0.199 OA
ATOM     18  O   UNL     1       0.009  -3.655   1.531  1.00  0.00    -0.199 OA
BRANCH  16  19
ATOM     19  C   UNL     1      -2.217  -4.007   0.302  1.00  0.00     0.213 A 
ATOM     20  N   UNL     1      -3.021  -4.549  -0.699  1.00  0.00    -0.222 NA
ATOM     21  C   UNL     1      -2.991  -3.257   1.160  1.00  0.00     0.149 A 
ATOM     22  C   UNL     1      -4.225  -4.074  -0.474  1.00  0.00     0.202 A 
ATOM     23  N   UNL     1      -4.232  -3.203   0.586  1.00  0.00    -0.324 N 
ATOM     24  Cl  UNL     1      -2.620  -2.308   2.523  1.00  0.00    -0.061 Cl
ATOM     25  C   UNL     1      -5.283  -2.240   0.807  1.00  0.00     0.152 C 
ENDBRANCH  16  19
ENDBRANCH  14  16
ENDBRANCH  10  14
ENDBRANCH   4   7
ENDBRANCH   2   3
ENDBRANCH   1   2
BRANCH   1  26
ATOM     26  C   UNL     1       5.113   2.585  -1.981  1.00  0.00     0.023 C 
BRANCH  26  27
ATOM     27  C   UNL     1       6.480   2.778  -1.362  1.00  0.00     0.116 C 
BRANCH  27  28
ATOM     28  N   UNL     1       7.510   1.856  -1.826  1.00  0.00    -0.352 N 
ATOM     29  C   UNL     1       8.780   1.643  -1.311  1.00  0.00     0.251 C 
ATOM     30  H   UNL     1       7.272   1.311  -2.611  1.00  0.00     0.163 HD
ATOM     31  O   UNL     1       9.548   0.859  -1.859  1.00  0.00    -0.269 OA
BRANCH  29  32
ATOM     32  C   UNL     1       9.145   2.246  -0.002  1.00  0.00     0.039 A 
ATOM     33  C   UNL     1       9.697   1.401   0.965  1.00  0.00     0.014 A 
ATOM     34  C   UNL     1       8.664   3.498   0.362  1.00  0.00     0.014 A 
ATOM     35  C   UNL     1       9.474   1.678   2.310  1.00  0.00     0.010 A 
ATOM     36  C   UNL     1       8.300   3.693   1.680  1.00  0.00     0.010 A 
ATOM     37  C   UNL     1       8.630   2.737   2.644  1.00  0.00    -0.014 A 
BRANCH  37  38
ATOM     38  C   UNL     1       7.917   2.805   3.918  1.00  0.00     0.031 A 
ATOM     39  C   UNL     1       8.190   3.901   4.877  1.00  0.00     0.074 A 
ATOM     40  C   UNL     1       6.953   1.896   4.203  1.00  0.00     0.049 A 
ATOM     41  N   UNL     1       8.002   3.818   6.153  1.00  0.00    -0.248 NA
ATOM     42  C   UNL     1       8.765   5.178   4.469  1.00  0.00     0.031 C 
ATOM     43  C   UNL     1       5.991   1.953   5.304  1.00  0.00     0.029 A 
ATOM     44  N   UNL     1       6.778   0.608   3.684  1.00  0.00    -0.354 N 
ATOM     45  C   UNL     1       8.099   5.093   6.665  1.00  0.00     0.074 A 
ATOM     46  C   UNL     1       8.691   5.873   5.605  1.00  0.00     0.031 C 
ATOM     47  C   UNL     1       5.582   0.705   5.581  1.00  0.00     0.029 A 
ATOM     48  C   UNL     1       6.376  -0.196   4.762  1.00  0.00     0.049 A 
ATOM     49  H   UNL     1       6.909   0.324   2.751  1.00  0.00     0.167 HD
ATOM     50  C   UNL     1       7.516   5.386   7.863  1.00  0.00     0.031 A 
ATOM     51  C   UNL     1       7.098  -1.256   5.231  1.00  0.00     0.031 A 
ATOM     52  C   UNL     1       7.004   4.187   8.528  1.00  0.00     0.049 A 
ATOM     53  C   UNL     1       7.467  -1.132   6.698  1.00  0.00     0.074 A 
ATOM     54  C   UNL     1       5.731   3.672   8.708  1.00  0.00     0.029 A 
ATOM     55  N   UNL     1       7.889   3.177   8.890  1.00  0.00    -0.354 N 
ATOM     56  N   UNL     1       7.364  -0.026   7.381  1.00  0.00    -0.248 NA
ATOM     57  C   UNL     1       8.059  -2.213   7.484  1.00  0.00     0.031 C 
ATOM     58  C   UNL     1       5.857   2.315   9.104  1.00  0.00     0.029 A 
ATOM     59  C   UNL     1       7.205   2.016   9.190  1.00  0.00     0.049 A 
ATOM     60  H   UNL     1       8.868   3.276   8.926  1.00  0.00     0.167 HD
ATOM     61  C   UNL     1       7.871  -0.212   8.640  1.00  0.00     0.074 A 
ATOM     62  C   UNL     1       8.279  -1.604   8.664  1.00  0.00     0.031 C 
ATOM     63  C   UNL     1       7.936   0.807   9.544  1.00  0.00     0.031 A 
BRANCH  50  64
ATOM     64  C   UNL     1       7.138   6.794   8.288  1.00  0.00    -0.014 A 
ATOM     65  C   UNL     1       6.105   6.981   9.227  1.00  0.00     0.009 A 
ATOM     66  C   UNL     1       7.684   7.973   7.753  1.00  0.00     0.009 A 
ATOM     67  C   UNL     1       5.583   8.249   9.527  1.00  0.00     0.001 A 
ATOM     68  C   UNL     1       7.151   9.243   8.022  1.00  0.00     0.001 A 
ATOM     69  C   UNL     1       6.088   9.380   8.899  1.00  0.00     0.000 A 
ENDBRANCH  50  64
BRANCH  51  70
ATOM     70  C   UNL     1       7.948  -1.937   4.220  1.00  0.00    -0.014 A 
ATOM     71  C   UNL     1       7.320  -2.669   3.195  1.00  0.00     0.009 A 
ATOM     72  C   UNL     1       9.301  -1.601   4.071  1.00  0.00     0.009 A 
ATOM     73  C   UNL     1       7.999  -2.968   2.010  1.00  0.00     0.001 A 
ATOM     74  C   UNL     1       9.978  -1.905   2.882  1.00  0.00     0.001 A 
ATOM     75  C   UNL     1       9.319  -2.559   1.843  1.00  0.00     0.000 A 
ENDBRANCH  51  70
BRANCH  63  76
ATOM     76  C   UNL     1       8.647   0.767  10.872  1.00  0.00    -0.014 A 
ATOM     77  C   UNL     1       9.754  -0.047  11.148  1.00  0.00     0.009 A 
ATOM     78  C   UNL     1       8.280   1.701  11.867  1.00  0.00     0.009 A 
ATOM     79  C   UNL     1      10.432   0.041  12.373  1.00  0.00     0.001 A 
ATOM     80  C   UNL     1       8.978   1.820  13.070  1.00  0.00     0.001 A 
ATOM     81  C   UNL     1      10.051   0.980  13.328  1.00  0.00     0.000 A 
ENDBRANCH  63  76
ENDBRANCH  37  38
ENDBRANCH  29  32
ENDBRANCH  27  28
ENDBRANCH  26  27
ENDBRANCH   1  26
TORSDOF 14
