REMARK SMILES Cc1ccc2cc(C[N@H+]3CC[NH2+][C@H](C(=O)NCCCCNC(=O)c4ccc(-c5c6nc(c(-c7ccccc7)c7ccc([nH]7)c(-c7ccccc7)c7nc(c(-c8ccccc8)c8ccc5[nH]8)C=C7)C=C6)cc4)C3)c(N3CCOCC3)nc2c1
REMARK SMILES IDX 18 1 17 2 16 3 14 4 15 5 13 7 9 8 10 9 72 10 11 12 12 13
REMARK SMILES IDX 8 16 7 17 1 18 2 19 3 20 82 21 4 22 81 23 5 24 80 25 6 26
REMARK SMILES IDX 73 27 74 28 75 29 79 30 76 31 78 32 77 33 19 34 20 35 21 36
REMARK SMILES IDX 22 37 23 39 24 40 25 41 71 42 26 43 70 44 27 45 28 46 29 47
REMARK SMILES IDX 64 48 30 49 69 50 63 51 65 52 31 53 68 54 62 55 61 56 32 58
REMARK SMILES IDX 54 59 39 60 53 61 40 62 43 63 52 64 66 65 41 66 42 67 51 69
REMARK SMILES IDX 67 70 44 71 33 72 34 73 38 74 35 75 37 76 36 77 55 78 56 79
REMARK SMILES IDX 60 80 57 81 59 82 58 83 45 84 46 85 50 86 47 87 49 88 48 89
REMARK H PARENT 16 6 9 11 12 14 12 15 21 38 65 57 43 68
REMARK Flexibility Score: inf
ROOT
ATOM      1  C   UNL     1      -2.156   1.877   0.108  1.00  0.00     0.023 C 
ENDROOT
BRANCH   1   2
ATOM      2  C   UNL     1      -3.422   2.695  -0.114  1.00  0.00     0.116 C 
BRANCH   2   3
ATOM      3  N   UNL     1      -3.972   3.222   1.122  1.00  0.00    -0.351 N 
ATOM      4  C   UNL     1      -3.788   4.464   1.674  1.00  0.00     0.284 C 
ATOM      5  O   UNL     1      -4.374   4.721   2.727  1.00  0.00    -0.268 OA
ATOM      6  H   UNL     1      -4.552   2.610   1.629  1.00  0.00     0.163 HD
BRANCH   4   7
ATOM      7  C   UNL     1      -2.816   5.450   1.001  1.00  0.00     0.328 C 
ATOM      8  N   UNL     1      -1.731   7.744   1.303  1.00  0.00    -0.321 N 
ATOM      9  C   UNL     1      -1.935   7.934  -0.142  1.00  0.00     0.324 C 
ATOM     10  C   UNL     1      -2.620   6.718   1.875  1.00  0.00     0.339 C 
ATOM     11  H   UNL     1      -2.036   8.617   1.732  1.00  0.00     0.348 HD
ATOM     12  C   UNL     1      -2.259   6.668  -0.969  1.00  0.00     0.323 C 
ATOM     13  N   UNL     1      -3.305   5.835  -0.352  1.00  0.00    -0.327 N 
ATOM     14  H   UNL     1      -3.466   5.000  -0.916  1.00  0.00     0.347 HD
ATOM     15  H   UNL     1      -4.186   6.345  -0.289  1.00  0.00     0.347 HD
BRANCH   8  16
ATOM     16  C   UNL     1      -0.327   7.688   1.740  1.00  0.00     0.303 C 
BRANCH  16  17
ATOM     17  C   UNL     1       0.467   6.450   1.382  1.00  0.00     0.049 A 
ATOM     18  C   UNL     1       1.728   0.241   0.127  1.00  0.00     0.044 C 
ATOM     19  C   UNL     1       1.495   1.585   0.753  1.00  0.00    -0.049 A 
ATOM     20  C   UNL     1       1.005   1.689   2.055  1.00  0.00     0.004 A 
ATOM     21  C   UNL     1       1.734   2.759   0.015  1.00  0.00     0.032 A 
ATOM     22  C   UNL     1       0.684   2.940   2.574  1.00  0.00     0.010 A 
ATOM     23  C   UNL     1       1.421   4.023   0.509  1.00  0.00     0.073 A 
ATOM     24  C   UNL     1       0.854   4.094   1.792  1.00  0.00     0.001 A 
ATOM     25  N   UNL     1       1.622   5.121  -0.249  1.00  0.00    -0.230 NA
ATOM     26  C   UNL     1       0.389   5.333   2.225  1.00  0.00     0.023 A 
ATOM     27  C   UNL     1       1.194   6.328   0.192  1.00  0.00     0.138 A 
BRANCH  27  28
ATOM     28  N   UNL     1       1.469   7.449  -0.577  1.00  0.00    -0.352 N 
ATOM     29  C   UNL     1       2.433   8.410  -0.011  1.00  0.00     0.146 C 
ATOM     30  C   UNL     1       1.626   7.291  -2.026  1.00  0.00     0.146 C 
ATOM     31  C   UNL     1       2.223   9.763  -0.708  1.00  0.00     0.181 C 
ATOM     32  C   UNL     1       1.472   8.681  -2.678  1.00  0.00     0.181 C 
ATOM     33  O   UNL     1       2.394   9.645  -2.132  1.00  0.00    -0.378 OA
ENDBRANCH  27  28
ENDBRANCH  16  17
ENDBRANCH   8  16
ENDBRANCH   4   7
ENDBRANCH   2   3
ENDBRANCH   1   2
BRANCH   1  34
ATOM     34  C   UNL     1      -2.346   0.585   0.899  1.00  0.00     0.023 C 
BRANCH  34  35
ATOM     35  C   UNL     1      -3.420  -0.346   0.359  1.00  0.00     0.116 C 
BRANCH  35  36
ATOM     36  N   UNL     1      -3.199  -0.770  -1.017  1.00  0.00    -0.352 N 
ATOM     37  C   UNL     1      -3.511  -1.982  -1.596  1.00  0.00     0.251 C 
ATOM     38  H   UNL     1      -2.772  -0.108  -1.608  1.00  0.00     0.163 HD
ATOM     39  O   UNL     1      -3.190  -2.233  -2.748  1.00  0.00    -0.269 OA
BRANCH  37  40
ATOM     40  C   UNL     1      -4.196  -3.000  -0.770  1.00  0.00     0.039 A 
ATOM     41  C   UNL     1      -5.298  -2.644   0.007  1.00  0.00     0.014 A 
ATOM     42  C   UNL     1      -3.666  -4.291  -0.701  1.00  0.00     0.014 A 
ATOM     43  C   UNL     1      -5.738  -3.509   0.999  1.00  0.00     0.010 A 
ATOM     44  C   UNL     1      -4.183  -5.198   0.228  1.00  0.00     0.010 A 
ATOM     45  C   UNL     1      -5.183  -4.794   1.125  1.00  0.00    -0.014 A 
BRANCH  45  46
ATOM     46  C   UNL     1      -5.669  -5.686   2.207  1.00  0.00     0.031 A 
ATOM     47  C   UNL     1      -4.755  -6.132   3.316  1.00  0.00     0.074 A 
ATOM     48  C   UNL     1      -6.971  -6.030   2.230  1.00  0.00     0.049 A 
ATOM     49  N   UNL     1      -5.029  -6.880   4.356  1.00  0.00    -0.248 NA
ATOM     50  C   UNL     1      -3.354  -5.686   3.253  1.00  0.00     0.031 C 
ATOM     51  C   UNL     1      -7.961  -5.629   1.227  1.00  0.00     0.029 A 
ATOM     52  N   UNL     1      -7.695  -6.750   3.144  1.00  0.00    -0.354 N 
ATOM     53  C   UNL     1      -3.837  -7.010   5.056  1.00  0.00     0.074 A 
ATOM     54  C   UNL     1      -2.829  -6.289   4.311  1.00  0.00     0.031 C 
ATOM     55  C   UNL     1      -9.174  -6.036   1.624  1.00  0.00     0.029 A 
ATOM     56  C   UNL     1      -9.037  -6.798   2.860  1.00  0.00     0.049 A 
ATOM     57  H   UNL     1      -7.292  -7.189   3.928  1.00  0.00     0.167 HD
ATOM     58  C   UNL     1      -3.606  -7.664   6.220  1.00  0.00     0.031 A 
ATOM     59  C   UNL     1     -10.053  -7.396   3.510  1.00  0.00     0.031 A 
ATOM     60  C   UNL     1      -4.614  -8.380   6.959  1.00  0.00     0.049 A 
ATOM     61  C   UNL     1      -9.765  -8.163   4.764  1.00  0.00     0.074 A 
ATOM     62  C   UNL     1      -4.477  -9.080   8.145  1.00  0.00     0.029 A 
ATOM     63  N   UNL     1      -5.946  -8.482   6.586  1.00  0.00    -0.354 N 
ATOM     64  N   UNL     1      -8.625  -8.303   5.397  1.00  0.00    -0.248 NA
ATOM     65  C   UNL     1     -10.894  -8.865   5.388  1.00  0.00     0.031 C 
ATOM     66  C   UNL     1      -5.712  -9.653   8.459  1.00  0.00     0.029 A 
ATOM     67  C   UNL     1      -6.636  -9.254   7.506  1.00  0.00     0.049 A 
ATOM     68  H   UNL     1      -6.342  -8.068   5.785  1.00  0.00     0.167 HD
ATOM     69  C   UNL     1      -8.897  -9.108   6.493  1.00  0.00     0.074 A 
ATOM     70  C   UNL     1     -10.315  -9.407   6.452  1.00  0.00     0.031 C 
ATOM     71  C   UNL     1      -8.043  -9.561   7.443  1.00  0.00     0.031 A 
BRANCH  58  72
ATOM     72  C   UNL     1      -2.201  -7.660   6.760  1.00  0.00    -0.014 A 
ATOM     73  C   UNL     1      -1.457  -8.851   6.778  1.00  0.00     0.009 A 
ATOM     74  C   UNL     1      -1.631  -6.498   7.303  1.00  0.00     0.009 A 
ATOM     75  C   UNL     1      -0.174  -8.879   7.330  1.00  0.00     0.001 A 
ATOM     76  C   UNL     1      -0.336  -6.522   7.827  1.00  0.00     0.001 A 
ATOM     77  C   UNL     1       0.389  -7.713   7.846  1.00  0.00     0.000 A 
ENDBRANCH  58  72
BRANCH  59  78
ATOM     78  C   UNL     1     -11.427  -7.267   2.961  1.00  0.00    -0.014 A 
ATOM     79  C   UNL     1     -11.768  -7.885   1.746  1.00  0.00     0.009 A 
ATOM     80  C   UNL     1     -12.365  -6.435   3.587  1.00  0.00     0.009 A 
ATOM     81  C   UNL     1     -13.003  -7.636   1.146  1.00  0.00     0.001 A 
ATOM     82  C   UNL     1     -13.612  -6.211   2.998  1.00  0.00     0.001 A 
ATOM     83  C   UNL     1     -13.924  -6.798   1.772  1.00  0.00     0.000 A 
ENDBRANCH  59  78
BRANCH  71  84
ATOM     84  C   UNL     1      -8.607 -10.438   8.524  1.00  0.00    -0.014 A 
ATOM     85  C   UNL     1      -8.708  -9.950   9.837  1.00  0.00     0.009 A 
ATOM     86  C   UNL     1      -8.949 -11.774   8.264  1.00  0.00     0.009 A 
ATOM     87  C   UNL     1      -9.125 -10.788  10.872  1.00  0.00     0.001 A 
ATOM     88  C   UNL     1      -9.392 -12.601   9.298  1.00  0.00     0.001 A 
ATOM     89  C   UNL     1      -9.470 -12.111  10.601  1.00  0.00     0.000 A 
ENDBRANCH  71  84
ENDBRANCH  45  46
ENDBRANCH  37  40
ENDBRANCH  35  36
ENDBRANCH  34  35
ENDBRANCH   1  34
TORSDOF 14
