REMARK SMILES C[C@](NC(=O)[C@](C)([NH3+])C(F)(F)F)(C(=O)NCCCCNC(=O)c1ccc(-c2c3nc(c(-c4ccccc4)c4ccc([nH]4)c(-c4ccccc4)c4nc(c(-c5ccccc5)c5ccc2[nH]5)C=C4)C=C3)cc1)c1ccccc1
REMARK SMILES IDX 17 1 16 2 15 3 13 4 14 5 2 7 1 8 71 9 72 10 76 11 73 12
REMARK SMILES IDX 75 13 74 14 3 15 4 16 5 18 6 19 7 20 8 21 9 25 10 26 11 27
REMARK SMILES IDX 12 28 18 29 19 30 20 31 21 32 22 34 23 35 24 36 70 37 25 38
REMARK SMILES IDX 69 39 26 40 27 41 28 42 63 43 29 44 68 45 62 46 64 47 30 48
REMARK SMILES IDX 67 49 61 50 60 51 31 53 53 54 38 55 52 56 39 57 42 58 51 59
REMARK SMILES IDX 65 60 40 61 41 62 50 64 66 65 43 66 32 67 33 68 37 69 34 70
REMARK SMILES IDX 36 71 35 72 54 73 55 74 59 75 56 76 58 77 57 78 44 79 45 80
REMARK SMILES IDX 49 81 46 82 48 83 47 84
REMARK H PARENT 15 6 3 17 8 22 8 23 8 24 20 33 64 52 42 63
REMARK Flexibility Score: inf
ROOT
ATOM      1  C   UNL     1      -5.274  -4.084   1.807  1.00  0.00     0.023 C 
ENDROOT
BRANCH   1   2
ATOM      2  C   UNL     1      -3.978  -3.303   1.621  1.00  0.00     0.116 C 
BRANCH   2   3
ATOM      3  N   UNL     1      -3.289  -3.691   0.399  1.00  0.00    -0.354 N 
ATOM      4  C   UNL     1      -2.711  -2.932  -0.589  1.00  0.00     0.250 C 
ATOM      5  O   UNL     1      -2.008  -3.544  -1.397  1.00  0.00    -0.272 OA
ATOM      6  H   UNL     1      -3.226  -4.663   0.256  1.00  0.00     0.163 HD
BRANCH   4   7
ATOM      7  C   UNL     1      -2.826  -1.353  -0.562  1.00  0.00     0.142 C 
ATOM      8  C   UNL     1      -1.936  -0.929   0.628  1.00  0.00     0.051 C 
BRANCH   7   9
ATOM      9  C   UNL     1      -2.359  -0.780  -1.915  1.00  0.00    -0.013 A 
ATOM     10  C   UNL     1      -1.004  -0.492  -2.162  1.00  0.00     0.007 A 
ATOM     11  C   UNL     1      -3.273  -0.537  -2.962  1.00  0.00     0.007 A 
ATOM     12  C   UNL     1      -0.595   0.082  -3.369  1.00  0.00     0.000 A 
ATOM     13  C   UNL     1      -2.864   0.041  -4.166  1.00  0.00     0.000 A 
ATOM     14  C   UNL     1      -1.526   0.362  -4.364  1.00  0.00     0.000 A 
ENDBRANCH   7   9
BRANCH   7  15
ATOM     15  N   UNL     1      -4.275  -1.072  -0.367  1.00  0.00    -0.332 N 
ATOM     16  C   UNL     1      -5.102  -0.032  -0.116  1.00  0.00     0.291 C 
ATOM     17  H   UNL     1      -4.794  -1.904  -0.447  1.00  0.00     0.165 HD
ATOM     18  O   UNL     1      -6.301  -0.324  -0.238  1.00  0.00    -0.267 OA
BRANCH  16  19
ATOM     19  C   UNL     1      -4.704   1.376   0.349  1.00  0.00     0.267 C 
ATOM     20  C   UNL     1      -5.689   2.395  -0.250  1.00  0.00     0.100 C 
BRANCH  19  21
ATOM     21  N   UNL     1      -3.376   1.821  -0.154  1.00  0.00    -0.337 N 
ATOM     22  H   UNL     1      -3.178   2.759   0.193  1.00  0.00     0.345 HD
ATOM     23  H   UNL     1      -3.385   1.830  -1.174  1.00  0.00     0.345 HD
ATOM     24  H   UNL     1      -2.655   1.178   0.174  1.00  0.00     0.345 HD
ENDBRANCH  19  21
BRANCH  19  25
ATOM     25  C   UNL     1      -4.888   1.349   1.888  1.00  0.00     0.453 C 
ATOM     26  F   UNL     1      -4.510   2.524   2.449  1.00  0.00    -0.164 F 
ATOM     27  F   UNL     1      -6.165   1.124   2.267  1.00  0.00    -0.164 F 
ATOM     28  F   UNL     1      -4.126   0.387   2.464  1.00  0.00    -0.164 F 
ENDBRANCH  19  25
ENDBRANCH  16  19
ENDBRANCH   7  15
ENDBRANCH   4   7
ENDBRANCH   2   3
ENDBRANCH   1   2
BRANCH   1  29
ATOM     29  C   UNL     1      -5.074  -5.563   2.135  1.00  0.00     0.023 C 
BRANCH  29  30
ATOM     30  C   UNL     1      -4.235  -5.838   3.379  1.00  0.00     0.116 C 
BRANCH  30  31
ATOM     31  N   UNL     1      -4.799  -5.252   4.585  1.00  0.00    -0.352 N 
ATOM     32  C   UNL     1      -4.980  -5.831   5.820  1.00  0.00     0.251 C 
ATOM     33  H   UNL     1      -5.091  -4.315   4.507  1.00  0.00     0.163 HD
ATOM     34  O   UNL     1      -5.596  -5.248   6.699  1.00  0.00    -0.269 OA
BRANCH  32  35
ATOM     35  C   UNL     1      -4.447  -7.188   6.060  1.00  0.00     0.039 A 
ATOM     36  C   UNL     1      -5.292  -8.158   6.602  1.00  0.00     0.014 A 
ATOM     37  C   UNL     1      -3.130  -7.504   5.715  1.00  0.00     0.014 A 
ATOM     38  C   UNL     1      -4.835  -9.470   6.734  1.00  0.00     0.010 A 
ATOM     39  C   UNL     1      -2.701  -8.825   5.781  1.00  0.00     0.010 A 
ATOM     40  C   UNL     1      -3.549  -9.821   6.290  1.00  0.00    -0.014 A 
BRANCH  40  41
ATOM     41  C   UNL     1      -3.073 -11.225   6.344  1.00  0.00     0.031 A 
ATOM     42  C   UNL     1      -1.909 -11.593   7.220  1.00  0.00     0.074 A 
ATOM     43  C   UNL     1      -3.644 -12.154   5.554  1.00  0.00     0.049 A 
ATOM     44  N   UNL     1      -1.309 -12.749   7.353  1.00  0.00    -0.248 NA
ATOM     45  C   UNL     1      -1.324 -10.514   8.034  1.00  0.00     0.031 C 
ATOM     46  C   UNL     1      -4.753 -11.916   4.627  1.00  0.00     0.029 A 
ATOM     47  N   UNL     1      -3.363 -13.489   5.400  1.00  0.00    -0.354 N 
ATOM     48  C   UNL     1      -0.271 -12.533   8.250  1.00  0.00     0.074 A 
ATOM     49  C   UNL     1      -0.289 -11.126   8.588  1.00  0.00     0.031 C 
ATOM     50  C   UNL     1      -5.072 -13.070   4.019  1.00  0.00     0.029 A 
ATOM     51  C   UNL     1      -4.170 -14.119   4.484  1.00  0.00     0.049 A 
ATOM     52  H   UNL     1      -2.651 -13.950   5.898  1.00  0.00     0.167 HD
ATOM     53  C   UNL     1       0.607 -13.427   8.762  1.00  0.00     0.031 A 
ATOM     54  C   UNL     1      -4.179 -15.397   4.061  1.00  0.00     0.031 A 
ATOM     55  C   UNL     1       0.620 -14.827   8.434  1.00  0.00     0.049 A 
ATOM     56  C   UNL     1      -3.190 -16.369   4.640  1.00  0.00     0.074 A 
ATOM     57  C   UNL     1       1.436 -15.824   8.940  1.00  0.00     0.029 A 
ATOM     58  N   UNL     1      -0.223 -15.428   7.513  1.00  0.00    -0.354 N 
ATOM     59  N   UNL     1      -2.256 -16.163   5.536  1.00  0.00    -0.248 NA
ATOM     60  C   UNL     1      -3.265 -17.755   4.155  1.00  0.00     0.031 C 
ATOM     61  C   UNL     1       1.117 -17.021   8.291  1.00  0.00     0.029 A 
ATOM     62  C   UNL     1       0.067 -16.779   7.420  1.00  0.00     0.049 A 
ATOM     63  H   UNL     1      -0.924 -14.964   7.000  1.00  0.00     0.167 HD
ATOM     64  C   UNL     1      -1.650 -17.395   5.742  1.00  0.00     0.074 A 
ATOM     65  C   UNL     1      -2.333 -18.347   4.889  1.00  0.00     0.031 C 
ATOM     66  C   UNL     1      -0.621 -17.712   6.565  1.00  0.00     0.031 A 
BRANCH  53  67
ATOM     67  C   UNL     1       1.630 -12.908   9.734  1.00  0.00    -0.014 A 
ATOM     68  C   UNL     1       1.260 -12.487  11.022  1.00  0.00     0.009 A 
ATOM     69  C   UNL     1       2.984 -12.863   9.368  1.00  0.00     0.009 A 
ATOM     70  C   UNL     1       2.220 -11.994  11.908  1.00  0.00     0.001 A 
ATOM     71  C   UNL     1       3.945 -12.397  10.266  1.00  0.00     0.001 A 
ATOM     72  C   UNL     1       3.562 -11.953  11.531  1.00  0.00     0.000 A 
ENDBRANCH  53  67
BRANCH  54  73
ATOM     73  C   UNL     1      -5.170 -15.837   3.046  1.00  0.00    -0.014 A 
ATOM     74  C   UNL     1      -6.235 -16.675   3.408  1.00  0.00     0.009 A 
ATOM     75  C   UNL     1      -5.056 -15.423   1.710  1.00  0.00     0.009 A 
ATOM     76  C   UNL     1      -7.151 -17.112   2.447  1.00  0.00     0.001 A 
ATOM     77  C   UNL     1      -5.988 -15.838   0.757  1.00  0.00     0.001 A 
ATOM     78  C   UNL     1      -7.029 -16.689   1.124  1.00  0.00     0.000 A 
ENDBRANCH  54  73
BRANCH  66  79
ATOM     79  C   UNL     1      -0.193 -19.151   6.607  1.00  0.00    -0.014 A 
ATOM     80  C   UNL     1       0.512 -19.732   5.542  1.00  0.00     0.009 A 
ATOM     81  C   UNL     1      -0.464 -19.923   7.747  1.00  0.00     0.009 A 
ATOM     82  C   UNL     1       0.909 -21.070   5.607  1.00  0.00     0.001 A 
ATOM     83  C   UNL     1      -0.042 -21.250   7.821  1.00  0.00     0.001 A 
ATOM     84  C   UNL     1       0.636 -21.825   6.747  1.00  0.00     0.000 A 
ENDBRANCH  66  79
ENDBRANCH  40  41
ENDBRANCH  32  35
ENDBRANCH  30  31
ENDBRANCH  29  30
ENDBRANCH   1  29
TORSDOF 16
