REMARK SMILES O=C(COc1cc(-c2ccccc2)nc(NCc2ccc(Cl)cc2)n1)NCCCNC(=O)c1ccc(-c2c3nc(c(-c4ccccc4)c4ccc([nH]4)c(-c4ccccc4)c4nc(c(-c5ccccc5)c5ccc2[nH]5)C=C4)C=C3)cc1
REMARK SMILES IDX 1 1 2 2 26 3 3 5 4 6 5 7 6 8 25 9 7 10 15 11 14 12 8 13 9 14
REMARK SMILES IDX 13 15 10 16 12 17 11 18 16 19 17 21 18 22 19 23 24 24 20 25
REMARK SMILES IDX 23 26 21 27 22 28 27 29 28 30 29 31 30 32 31 33 32 35 33 36
REMARK SMILES IDX 34 37 80 38 35 39 79 40 36 41 37 42 38 43 73 44 39 45 78 46
REMARK SMILES IDX 72 47 74 48 40 49 77 50 71 51 70 52 41 54 63 55 48 56 62 57
REMARK SMILES IDX 49 58 52 59 61 60 75 61 50 62 51 63 60 65 76 66 53 67 42 68
REMARK SMILES IDX 43 69 47 70 44 71 46 72 45 73 64 74 65 75 69 76 66 77 68 78
REMARK SMILES IDX 67 79 54 80 55 81 59 82 56 83 58 84 57 85
REMARK H PARENT 26 4 16 20 30 34 74 53 52 64
REMARK Flexibility Score: inf
ROOT
ATOM      1  O   UNL     1       1.219   0.758   0.484  1.00  0.00    -0.271 OA
ATOM      2  C   UNL     1       2.335   0.292   0.280  1.00  0.00     0.258 C 
ATOM      3  N   UNL     1       2.976   0.357  -0.944  1.00  0.00    -0.353 N 
ATOM      4  H   UNL     1       3.946   0.193  -0.984  1.00  0.00     0.163 HD
ENDROOT
BRANCH   2   5
ATOM      5  C   UNL     1       3.119  -0.482   1.348  1.00  0.00     0.331 C 
BRANCH   5   6
ATOM      6  O   UNL     1       3.921  -1.551   0.839  1.00  0.00    -0.467 OA
BRANCH   6   7
ATOM      7  C   UNL     1       3.192  -2.691   0.582  1.00  0.00     0.219 A 
ATOM      8  C   UNL     1       2.256  -2.719  -0.415  1.00  0.00     0.097 A 
ATOM      9  N   UNL     1       3.561  -3.782   1.260  1.00  0.00    -0.177 NA
ATOM     10  C   UNL     1       1.653  -3.926  -0.667  1.00  0.00     0.080 A 
ATOM     11  C   UNL     1       2.918  -4.923   0.963  1.00  0.00     0.226 A 
ATOM     12  N   UNL     1       1.957  -5.031   0.034  1.00  0.00    -0.213 NA
BRANCH  10  13
ATOM     13  C   UNL     1       0.643  -4.023  -1.729  1.00  0.00     0.000 A 
ATOM     14  C   UNL     1      -0.642  -4.514  -1.463  1.00  0.00     0.010 A 
ATOM     15  C   UNL     1       0.908  -3.522  -3.020  1.00  0.00     0.010 A 
ATOM     16  C   UNL     1      -1.640  -4.468  -2.442  1.00  0.00     0.001 A 
ATOM     17  C   UNL     1      -0.086  -3.478  -3.998  1.00  0.00     0.001 A 
ATOM     18  C   UNL     1      -1.364  -3.943  -3.704  1.00  0.00     0.000 A 
ENDBRANCH  10  13
BRANCH  11  19
ATOM     19  N   UNL     1       3.227  -6.080   1.614  1.00  0.00    -0.350 N 
ATOM     20  H   UNL     1       2.635  -6.857   1.491  1.00  0.00     0.164 HD
BRANCH  19  21
ATOM     21  C   UNL     1       4.370  -6.226   2.468  1.00  0.00     0.152 C 
BRANCH  21  22
ATOM     22  C   UNL     1       3.938  -6.866   3.766  1.00  0.00    -0.029 A 
ATOM     23  C   UNL     1       3.460  -6.064   4.814  1.00  0.00     0.007 A 
ATOM     24  C   UNL     1       3.969  -8.258   3.932  1.00  0.00     0.007 A 
ATOM     25  C   UNL     1       3.047  -6.640   6.017  1.00  0.00     0.021 A 
ATOM     26  C   UNL     1       3.554  -8.835   5.135  1.00  0.00     0.021 A 
ATOM     27  C   UNL     1       3.099  -8.023   6.173  1.00  0.00     0.041 A 
ATOM     28  Cl  UNL     1       2.596  -8.733   7.657  1.00  0.00    -0.084 Cl
ENDBRANCH  21  22
ENDBRANCH  19  21
ENDBRANCH  11  19
ENDBRANCH   6   7
ENDBRANCH   5   6
ENDBRANCH   2   5
BRANCH   3  29
ATOM     29  C   UNL     1       2.263   0.660  -2.170  1.00  0.00     0.117 C 
BRANCH  29  30
ATOM     30  C   UNL     1       2.568   2.038  -2.724  1.00  0.00     0.042 C 
BRANCH  30  31
ATOM     31  C   UNL     1       4.037   2.257  -3.056  1.00  0.00     0.118 C 
BRANCH  31  32
ATOM     32  N   UNL     1       4.525   1.405  -4.134  1.00  0.00    -0.352 N 
ATOM     33  C   UNL     1       5.182   1.742  -5.293  1.00  0.00     0.251 C 
ATOM     34  H   UNL     1       4.359   0.442  -4.013  1.00  0.00     0.163 HD
ATOM     35  O   UNL     1       5.404   0.881  -6.140  1.00  0.00    -0.269 OA
BRANCH  33  36
ATOM     36  C   UNL     1       5.593   3.141  -5.541  1.00  0.00     0.039 A 
ATOM     37  C   UNL     1       5.386   3.690  -6.809  1.00  0.00     0.014 A 
ATOM     38  C   UNL     1       6.172   3.914  -4.532  1.00  0.00     0.014 A 
ATOM     39  C   UNL     1       5.688   5.034  -7.042  1.00  0.00     0.010 A 
ATOM     40  C   UNL     1       6.390   5.273  -4.739  1.00  0.00     0.010 A 
ATOM     41  C   UNL     1       6.152   5.849  -5.996  1.00  0.00    -0.014 A 
BRANCH  41  42
ATOM     42  C   UNL     1       6.396   7.301  -6.193  1.00  0.00     0.031 A 
ATOM     43  C   UNL     1       7.778   7.867  -6.016  1.00  0.00     0.074 A 
ATOM     44  C   UNL     1       5.362   8.123  -6.461  1.00  0.00     0.049 A 
ATOM     45  N   UNL     1       8.173   9.115  -6.068  1.00  0.00    -0.248 NA
ATOM     46  C   UNL     1       8.855   6.909  -5.718  1.00  0.00     0.031 C 
ATOM     47  C   UNL     1       3.967   7.710  -6.625  1.00  0.00     0.029 A 
ATOM     48  N   UNL     1       5.326   9.485  -6.635  1.00  0.00    -0.354 N 
ATOM     49  C   UNL     1       9.534   9.091  -5.791  1.00  0.00     0.074 A 
ATOM     50  C   UNL     1       9.887   7.715  -5.520  1.00  0.00     0.031 C 
ATOM     51  C   UNL     1       3.218   8.789  -6.901  1.00  0.00     0.029 A 
ATOM     52  C   UNL     1       4.067   9.975  -6.887  1.00  0.00     0.049 A 
ATOM     53  H   UNL     1       6.126  10.056  -6.584  1.00  0.00     0.167 HD
ATOM     54  C   UNL     1      10.417  10.118  -5.781  1.00  0.00     0.031 A 
ATOM     55  C   UNL     1       3.641  11.239  -7.073  1.00  0.00     0.031 A 
ATOM     56  C   UNL     1      10.069  11.487  -6.056  1.00  0.00     0.049 A 
ATOM     57  C   UNL     1       4.636  12.366  -7.025  1.00  0.00     0.074 A 
ATOM     58  C   UNL     1      10.902  12.591  -6.121  1.00  0.00     0.029 A 
ATOM     59  N   UNL     1       8.784  11.941  -6.305  1.00  0.00    -0.354 N 
ATOM     60  N   UNL     1       5.931  12.319  -6.827  1.00  0.00    -0.248 NA
ATOM     61  C   UNL     1       4.109  13.722  -7.237  1.00  0.00     0.031 C 
ATOM     62  C   UNL     1      10.112  13.721  -6.350  1.00  0.00     0.029 A 
ATOM     63  C   UNL     1       8.796  13.313  -6.495  1.00  0.00     0.049 A 
ATOM     64  H   UNL     1       7.981  11.372  -6.341  1.00  0.00     0.167 HD
ATOM     65  C   UNL     1       6.377  13.631  -6.922  1.00  0.00     0.074 A 
ATOM     66  C   UNL     1       5.217  14.448  -7.212  1.00  0.00     0.031 C 
ATOM     67  C   UNL     1       7.635  14.115  -6.783  1.00  0.00     0.031 A 
BRANCH  54  68
ATOM     68  C   UNL     1      11.849   9.798  -5.449  1.00  0.00    -0.014 A 
ATOM     69  C   UNL     1      12.654   9.054  -6.328  1.00  0.00     0.009 A 
ATOM     70  C   UNL     1      12.413  10.275  -4.256  1.00  0.00     0.009 A 
ATOM     71  C   UNL     1      13.979   8.761  -6.000  1.00  0.00     0.001 A 
ATOM     72  C   UNL     1      13.748  10.009  -3.945  1.00  0.00     0.001 A 
ATOM     73  C   UNL     1      14.526   9.243  -4.812  1.00  0.00     0.000 A 
ENDBRANCH  54  68
BRANCH  55  74
ATOM     74  C   UNL     1       2.202  11.512  -7.329  1.00  0.00    -0.014 A 
ATOM     75  C   UNL     1       1.776  11.968  -8.587  1.00  0.00     0.009 A 
ATOM     76  C   UNL     1       1.248  11.334  -6.315  1.00  0.00     0.009 A 
ATOM     77  C   UNL     1       0.430  12.268  -8.813  1.00  0.00     0.001 A 
ATOM     78  C   UNL     1      -0.102  11.604  -6.554  1.00  0.00     0.001 A 
ATOM     79  C   UNL     1      -0.507  12.082  -7.799  1.00  0.00     0.000 A 
ENDBRANCH  55  74
BRANCH  67  80
ATOM     80  C   UNL     1       7.833  15.592  -6.984  1.00  0.00    -0.014 A 
ATOM     81  C   UNL     1       7.363  16.529  -6.050  1.00  0.00     0.009 A 
ATOM     82  C   UNL     1       8.537  16.050  -8.110  1.00  0.00     0.009 A 
ATOM     83  C   UNL     1       7.564  17.895  -6.258  1.00  0.00     0.001 A 
ATOM     84  C   UNL     1       8.766  17.413  -8.298  1.00  0.00     0.001 A 
ATOM     85  C   UNL     1       8.270  18.335  -7.378  1.00  0.00     0.000 A 
ENDBRANCH  67  80
ENDBRANCH  41  42
ENDBRANCH  33  36
ENDBRANCH  31  32
ENDBRANCH  30  31
ENDBRANCH  29  30
ENDBRANCH   3  29
TORSDOF 16
