REMARK SMILES O=C(NCCCNC(=O)c1ccc(C[NH2+]Cc2cc(F)ccc2F)nc1)c1ccc(-c2c3nc(c(-c4ccccc4)c4ccc([nH]4)c(-c4ccccc4)c4nc(c(-c5ccccc5)c5ccc2[nH]5)C=C4)C=C3)cc1
REMARK SMILES IDX 6 1 5 2 4 3 3 4 1 5 2 6 27 8 28 9 74 10 29 11 73 12 30 13
REMARK SMILES IDX 31 14 32 15 67 16 33 17 72 18 66 19 68 20 34 21 71 22 65 23
REMARK SMILES IDX 64 24 35 26 57 27 42 28 56 29 43 30 46 31 55 32 69 33 44 34
REMARK SMILES IDX 45 35 54 37 70 38 47 39 36 40 37 41 41 42 38 43 40 44 39 45
REMARK SMILES IDX 58 46 59 47 63 48 60 49 62 50 61 51 48 52 49 53 53 54 50 55
REMARK SMILES IDX 52 56 51 57 7 58 8 59 9 61 10 62 11 63 26 64 12 65 25 66
REMARK SMILES IDX 13 67 14 68 15 69 16 72 17 73 18 74 23 75 19 76 22 77 24 78
REMARK SMILES IDX 20 79 21 80
REMARK H PARENT 3 7 68 25 46 36 7 60 15 70 15 71
REMARK Flexibility Score: inf
ROOT
ATOM      1  C   UNL     1       4.190   3.087   2.093  1.00  0.00     0.118 C 
ENDROOT
BRANCH   1   2
ATOM      2  C   UNL     1       4.803   2.237   0.990  1.00  0.00     0.042 C 
BRANCH   2   3
ATOM      3  C   UNL     1       4.456   0.762   1.108  1.00  0.00     0.118 C 
BRANCH   3   4
ATOM      4  N   UNL     1       3.027   0.521   0.965  1.00  0.00    -0.352 N 
ATOM      5  O   UNL     1       1.114  -0.025  -0.085  1.00  0.00    -0.269 OA
ATOM      6  C   UNL     1       2.336  -0.125  -0.028  1.00  0.00     0.251 C 
ATOM      7  H   UNL     1       2.470   0.877   1.695  1.00  0.00     0.163 HD
BRANCH   6   8
ATOM      8  C   UNL     1       3.056  -0.940  -1.028  1.00  0.00     0.039 A 
ATOM      9  C   UNL     1       4.115  -1.767  -0.647  1.00  0.00     0.014 A 
ATOM     10  C   UNL     1       2.620  -0.928  -2.357  1.00  0.00     0.014 A 
ATOM     11  C   UNL     1       4.813  -2.489  -1.605  1.00  0.00     0.010 A 
ATOM     12  C   UNL     1       3.263  -1.726  -3.305  1.00  0.00     0.010 A 
ATOM     13  C   UNL     1       4.369  -2.506  -2.936  1.00  0.00    -0.014 A 
BRANCH  13  14
ATOM     14  C   UNL     1       4.992  -3.453  -3.891  1.00  0.00     0.031 A 
ATOM     15  C   UNL     1       5.767  -2.969  -5.079  1.00  0.00     0.074 A 
ATOM     16  C   UNL     1       4.833  -4.772  -3.666  1.00  0.00     0.049 A 
ATOM     17  N   UNL     1       6.353  -3.674  -6.013  1.00  0.00    -0.248 NA
ATOM     18  C   UNL     1       5.900  -1.514  -5.251  1.00  0.00     0.031 C 
ATOM     19  C   UNL     1       4.082  -5.353  -2.547  1.00  0.00     0.029 A 
ATOM     20  N   UNL     1       5.293  -5.862  -4.356  1.00  0.00    -0.354 N 
ATOM     21  C   UNL     1       6.903  -2.753  -6.895  1.00  0.00     0.074 A 
ATOM     22  C   UNL     1       6.574  -1.437  -6.392  1.00  0.00     0.031 C 
ATOM     23  C   UNL     1       4.158  -6.689  -2.612  1.00  0.00     0.029 A 
ATOM     24  C   UNL     1       4.902  -7.060  -3.808  1.00  0.00     0.049 A 
ATOM     25  H   UNL     1       5.849  -5.794  -5.165  1.00  0.00     0.167 HD
ATOM     26  C   UNL     1       7.615  -2.993  -8.022  1.00  0.00     0.031 A 
ATOM     27  C   UNL     1       5.090  -8.320  -4.237  1.00  0.00     0.031 A 
ATOM     28  C   UNL     1       7.948  -4.307  -8.506  1.00  0.00     0.049 A 
ATOM     29  C   UNL     1       5.849  -8.546  -5.509  1.00  0.00     0.074 A 
ATOM     30  C   UNL     1       8.732  -4.648  -9.595  1.00  0.00     0.029 A 
ATOM     31  N   UNL     1       7.505  -5.493  -7.943  1.00  0.00    -0.354 N 
ATOM     32  N   UNL     1       6.423  -7.665  -6.292  1.00  0.00    -0.248 NA
ATOM     33  C   UNL     1       5.976  -9.937  -5.964  1.00  0.00     0.031 C 
ATOM     34  C   UNL     1       8.714  -6.040  -9.726  1.00  0.00     0.029 A 
ATOM     35  C   UNL     1       7.959  -6.566  -8.690  1.00  0.00     0.049 A 
ATOM     36  H   UNL     1       6.951  -5.562  -7.133  1.00  0.00     0.167 HD
ATOM     37  C   UNL     1       6.982  -8.394  -7.330  1.00  0.00     0.074 A 
ATOM     38  C   UNL     1       6.704  -9.791  -7.062  1.00  0.00     0.031 C 
ATOM     39  C   UNL     1       7.658  -7.946  -8.415  1.00  0.00     0.031 A 
BRANCH  26  40
ATOM     40  C   UNL     1       8.066  -1.815  -8.836  1.00  0.00    -0.014 A 
ATOM     41  C   UNL     1       9.147  -1.017  -8.431  1.00  0.00     0.009 A 
ATOM     42  C   UNL     1       7.457  -1.558 -10.075  1.00  0.00     0.009 A 
ATOM     43  C   UNL     1       9.600   0.024  -9.247  1.00  0.00     0.001 A 
ATOM     44  C   UNL     1       7.923  -0.530 -10.896  1.00  0.00     0.001 A 
ATOM     45  C   UNL     1       8.992   0.262 -10.480  1.00  0.00     0.000 A 
ENDBRANCH  26  40
BRANCH  27  46
ATOM     46  C   UNL     1       4.497  -9.455  -3.484  1.00  0.00    -0.014 A 
ATOM     47  C   UNL     1       5.312 -10.363  -2.794  1.00  0.00     0.009 A 
ATOM     48  C   UNL     1       3.104  -9.630  -3.453  1.00  0.00     0.009 A 
ATOM     49  C   UNL     1       4.744 -11.438  -2.106  1.00  0.00     0.001 A 
ATOM     50  C   UNL     1       2.538 -10.687  -2.740  1.00  0.00     0.001 A 
ATOM     51  C   UNL     1       3.358 -11.596  -2.076  1.00  0.00     0.000 A 
ENDBRANCH  27  46
BRANCH  39  52
ATOM     52  C   UNL     1       8.137  -8.981  -9.389  1.00  0.00    -0.014 A 
ATOM     53  C   UNL     1       7.240  -9.614 -10.262  1.00  0.00     0.009 A 
ATOM     54  C   UNL     1       9.501  -9.302  -9.456  1.00  0.00     0.009 A 
ATOM     55  C   UNL     1       7.698 -10.571 -11.169  1.00  0.00     0.001 A 
ATOM     56  C   UNL     1       9.959 -10.240 -10.381  1.00  0.00     0.001 A 
ATOM     57  C   UNL     1       9.057 -10.879 -11.231  1.00  0.00     0.000 A 
ENDBRANCH  39  52
ENDBRANCH  13  14
ENDBRANCH   6   8
ENDBRANCH   3   4
ENDBRANCH   2   3
ENDBRANCH   1   2
BRANCH   1  58
ATOM     58  N   UNL     1       4.719   2.739   3.406  1.00  0.00    -0.352 N 
ATOM     59  C   UNL     1       5.704   3.358   4.139  1.00  0.00     0.252 C 
ATOM     60  H   UNL     1       4.313   1.948   3.828  1.00  0.00     0.163 HD
ATOM     61  O   UNL     1       6.209   2.794   5.099  1.00  0.00    -0.269 OA
BRANCH  59  62
ATOM     62  C   UNL     1       6.149   4.704   3.756  1.00  0.00     0.058 A 
ATOM     63  C   UNL     1       5.233   5.715   3.494  1.00  0.00     0.017 A 
ATOM     64  C   UNL     1       7.500   4.989   3.654  1.00  0.00     0.125 A 
ATOM     65  C   UNL     1       5.697   6.937   3.034  1.00  0.00     0.030 A 
ATOM     66  N   UNL     1       7.980   6.186   3.229  1.00  0.00    -0.255 NA
ATOM     67  C   UNL     1       7.071   7.146   2.913  1.00  0.00     0.094 A 
BRANCH  67  68
ATOM     68  C   UNL     1       7.577   8.506   2.455  1.00  0.00     0.318 C 
BRANCH  68  69
ATOM     69  N   UNL     1       7.473   9.512   3.518  1.00  0.00    -0.337 N 
ATOM     70  H   UNL     1       8.172   9.304   4.232  1.00  0.00     0.346 HD
ATOM     71  H   UNL     1       6.524   9.467   3.889  1.00  0.00     0.346 HD
BRANCH  69  72
ATOM     72  C   UNL     1       7.689  10.873   3.040  1.00  0.00     0.300 C 
BRANCH  72  73
ATOM     73  C   UNL     1       6.482  11.641   2.540  1.00  0.00     0.045 A 
ATOM     74  C   UNL     1       6.662  12.996   2.210  1.00  0.00     0.051 A 
ATOM     75  C   UNL     1       5.193  11.116   2.389  1.00  0.00     0.132 A 
ATOM     76  C   UNL     1       5.594  13.765   1.745  1.00  0.00     0.123 A 
ATOM     77  C   UNL     1       4.129  11.880   1.906  1.00  0.00     0.043 A 
ATOM     78  F   UNL     1       4.924   9.853   2.729  1.00  0.00    -0.206 F 
ATOM     79  F   UNL     1       5.792  15.057   1.455  1.00  0.00    -0.207 F 
ATOM     80  C   UNL     1       4.330  13.216   1.582  1.00  0.00     0.042 A 
ENDBRANCH  72  73
ENDBRANCH  69  72
ENDBRANCH  68  69
ENDBRANCH  67  68
ENDBRANCH  59  62
ENDBRANCH   1  58
TORSDOF 14
