REMARK SMILES O=C(Cc1cncnc1N1CCC2(CC1)OCCC[C@@H]2O)NCCCNC(=O)c1ccc(-c2c3nc(c(-c4ccccc4)c4ccc([nH]4)c(-c4ccccc4)c4nc(c(-c5ccccc5)c5ccc2[nH]5)C=C4)C=C3)cc1
REMARK SMILES IDX 23 1 22 2 1 3 2 4 3 6 4 7 5 8 9 9 6 10 8 11 7 12 10 13 11 14
REMARK SMILES IDX 15 15 12 16 14 17 13 18 16 19 20 20 17 21 19 22 18 23 21 24
REMARK SMILES IDX 24 26 25 27 26 28 27 29 28 31 29 32 30 33 76 34 31 35 75 36
REMARK SMILES IDX 32 37 33 38 34 39 69 40 35 41 74 42 68 43 70 44 36 45 73 46
REMARK SMILES IDX 67 47 66 48 37 50 59 51 44 52 58 53 45 54 48 55 57 56 71 57
REMARK SMILES IDX 46 58 47 59 56 61 72 62 49 63 38 64 39 65 43 66 40 67 42 68
REMARK SMILES IDX 41 69 60 70 61 71 65 72 62 73 64 74 63 75 50 76 51 77 55 78
REMARK SMILES IDX 52 79 54 80 53 81
REMARK H PARENT 22 5 21 25 26 30 70 49 48 60
REMARK Flexibility Score: inf
ROOT
ATOM      1  C   UNL     1       1.597   1.849  -0.151  1.00  0.00     0.117 C 
ENDROOT
BRANCH   1   2
ATOM      2  N   UNL     1       2.209   0.529  -0.288  1.00  0.00    -0.356 N 
ATOM      3  O   UNL     1       0.889  -0.644   1.151  1.00  0.00    -0.275 OA
ATOM      4  C   UNL     1       1.913  -0.571   0.472  1.00  0.00     0.224 C 
ATOM      5  H   UNL     1       2.893   0.421  -0.988  1.00  0.00     0.163 HD
BRANCH   4   6
ATOM      6  C   UNL     1       3.034  -1.590   0.644  1.00  0.00     0.141 C 
BRANCH   6   7
ATOM      7  C   UNL     1       3.748  -2.232  -0.524  1.00  0.00     0.022 A 
ATOM      8  C   UNL     1       3.719  -3.618  -0.619  1.00  0.00     0.121 A 
ATOM      9  C   UNL     1       4.567  -1.608  -1.468  1.00  0.00     0.135 A 
ATOM     10  N   UNL     1       4.421  -4.346  -1.505  1.00  0.00    -0.244 NA
ATOM     11  N   UNL     1       5.269  -2.308  -2.381  1.00  0.00    -0.219 NA
ATOM     12  C   UNL     1       5.179  -3.640  -2.344  1.00  0.00     0.224 A 
BRANCH   9  13
ATOM     13  N   UNL     1       4.698  -0.236  -1.524  1.00  0.00    -0.356 N 
ATOM     14  C   UNL     1       4.972   0.411  -2.803  1.00  0.00     0.121 C 
ATOM     15  C   UNL     1       5.439   0.399  -0.463  1.00  0.00     0.121 C 
ATOM     16  C   UNL     1       4.225   1.732  -2.790  1.00  0.00     0.060 C 
ATOM     17  C   UNL     1       4.662   1.660  -0.139  1.00  0.00     0.060 C 
ATOM     18  C   UNL     1       4.269   2.577  -1.476  1.00  0.00     0.097 C 
ATOM     19  O   UNL     1       5.912   3.244  -1.188  1.00  0.00    -0.372 OA
ATOM     20  C   UNL     1       2.906   3.988  -1.950  1.00  0.00     0.146 C 
ATOM     21  C   UNL     1       6.094   4.704  -0.192  1.00  0.00     0.161 C 
ATOM     22  C   UNL     1       3.141   5.816  -1.273  1.00  0.00     0.037 C 
ATOM     23  C   UNL     1       4.783   6.121  -0.265  1.00  0.00     0.031 C 
BRANCH  20  24
ATOM     24  O   UNL     1       1.506   3.754  -1.923  1.00  0.00    -0.390 OA
ATOM     25  H   UNL     1       1.179   3.851  -1.015  1.00  0.00     0.211 HD
ENDBRANCH  20  24
ENDBRANCH   9  13
ENDBRANCH   6   7
ENDBRANCH   4   6
ENDBRANCH   1   2
BRANCH   1  26
ATOM     26  C   UNL     1       2.434   3.135   0.401  1.00  0.00     0.042 C 
BRANCH  26  27
ATOM     27  C   UNL     1       3.875   4.143  -0.068  1.00  0.00     0.118 C 
BRANCH  27  28
ATOM     28  N   UNL     1       4.730   4.690  -1.793  1.00  0.00    -0.352 N 
ATOM     29  C   UNL     1       5.357   5.521  -2.836  1.00  0.00     0.251 C 
ATOM     30  H   UNL     1       4.736   3.821  -2.254  1.00  0.00     0.163 HD
ATOM     31  O   UNL     1       5.438   5.033  -3.958  1.00  0.00    -0.269 OA
BRANCH  29  32
ATOM     32  C   UNL     1       6.123   6.795  -2.651  1.00  0.00     0.039 A 
ATOM     33  C   UNL     1       5.650   8.072  -2.937  1.00  0.00     0.014 A 
ATOM     34  C   UNL     1       7.314   6.704  -1.974  1.00  0.00     0.014 A 
ATOM     35  C   UNL     1       6.155   9.168  -2.198  1.00  0.00     0.010 A 
ATOM     36  C   UNL     1       7.506   7.660  -0.988  1.00  0.00     0.010 A 
ATOM     37  C   UNL     1       6.965   8.944  -1.068  1.00  0.00    -0.014 A 
BRANCH  37  38
ATOM     38  C   UNL     1       7.223   9.959   0.023  1.00  0.00     0.031 A 
ATOM     39  C   UNL     1       8.586  10.045   0.721  1.00  0.00     0.074 A 
ATOM     40  C   UNL     1       6.236  10.771   0.486  1.00  0.00     0.049 A 
ATOM     41  N   UNL     1       9.032  10.961   1.552  1.00  0.00    -0.248 NA
ATOM     42  C   UNL     1       9.556   8.948   0.532  1.00  0.00     0.031 C 
ATOM     43  C   UNL     1       4.812  10.704   0.130  1.00  0.00     0.029 A 
ATOM     44  N   UNL     1       6.283  11.844   1.356  1.00  0.00    -0.354 N 
ATOM     45  C   UNL     1      10.303  10.536   1.934  1.00  0.00     0.074 A 
ATOM     46  C   UNL     1      10.480   9.206   1.435  1.00  0.00     0.031 C 
ATOM     47  C   UNL     1       4.156  11.742   0.681  1.00  0.00     0.029 A 
ATOM     48  C   UNL     1       5.098  12.548   1.446  1.00  0.00     0.049 A 
ATOM     49  H   UNL     1       7.090  12.084   1.867  1.00  0.00     0.167 HD
ATOM     50  C   UNL     1      11.309  11.212   2.533  1.00  0.00     0.031 A 
ATOM     51  C   UNL     1       4.816  13.735   2.027  1.00  0.00     0.031 A 
ATOM     52  C   UNL     1      11.165  12.537   3.042  1.00  0.00     0.049 A 
ATOM     53  C   UNL     1       5.935  14.507   2.686  1.00  0.00     0.074 A 
ATOM     54  C   UNL     1      12.115  13.355   3.618  1.00  0.00     0.029 A 
ATOM     55  N   UNL     1       9.966  13.226   3.046  1.00  0.00    -0.354 N 
ATOM     56  N   UNL     1       7.196  14.177   2.834  1.00  0.00    -0.248 NA
ATOM     57  C   UNL     1       5.599  15.838   3.217  1.00  0.00     0.031 C 
ATOM     58  C   UNL     1      11.470  14.523   4.036  1.00  0.00     0.029 A 
ATOM     59  C   UNL     1      10.141  14.456   3.643  1.00  0.00     0.049 A 
ATOM     60  H   UNL     1       9.117  12.890   2.678  1.00  0.00     0.167 HD
ATOM     61  C   UNL     1       7.811  15.275   3.426  1.00  0.00     0.074 A 
ATOM     62  C   UNL     1       6.787  16.284   3.598  1.00  0.00     0.031 C 
ATOM     63  C   UNL     1       9.106  15.442   3.791  1.00  0.00     0.031 A 
BRANCH  50  64
ATOM     64  C   UNL     1      12.648  10.521   2.609  1.00  0.00    -0.014 A 
ATOM     65  C   UNL     1      13.369  10.216   1.437  1.00  0.00     0.009 A 
ATOM     66  C   UNL     1      13.175  10.130   3.845  1.00  0.00     0.009 A 
ATOM     67  C   UNL     1      14.554   9.480   1.500  1.00  0.00     0.001 A 
ATOM     68  C   UNL     1      14.382   9.427   3.908  1.00  0.00     0.001 A 
ATOM     69  C   UNL     1      15.061   9.089   2.737  1.00  0.00     0.000 A 
ENDBRANCH  50  64
BRANCH  51  70
ATOM     70  C   UNL     1       3.450  14.341   1.927  1.00  0.00    -0.014 A 
ATOM     71  C   UNL     1       3.232  15.492   1.148  1.00  0.00     0.009 A 
ATOM     72  C   UNL     1       2.368  13.810   2.645  1.00  0.00     0.009 A 
ATOM     73  C   UNL     1       1.980  16.118   1.123  1.00  0.00     0.001 A 
ATOM     74  C   UNL     1       1.107  14.420   2.593  1.00  0.00     0.001 A 
ATOM     75  C   UNL     1       0.918  15.579   1.844  1.00  0.00     0.000 A 
ENDBRANCH  51  70
BRANCH  63  76
ATOM     76  C   UNL     1       9.509  16.773   4.354  1.00  0.00    -0.014 A 
ATOM     77  C   UNL     1       9.081  17.198   5.620  1.00  0.00     0.009 A 
ATOM     78  C   UNL     1      10.392  17.584   3.623  1.00  0.00     0.009 A 
ATOM     79  C   UNL     1       9.495  18.432   6.122  1.00  0.00     0.001 A 
ATOM     80  C   UNL     1      10.835  18.798   4.144  1.00  0.00     0.001 A 
ATOM     81  C   UNL     1      10.375  19.227   5.388  1.00  0.00     0.000 A 
ENDBRANCH  63  76
ENDBRANCH  37  38
ENDBRANCH  29  32
ENDBRANCH  27  28
ENDBRANCH  26  27
ENDBRANCH   1  26
TORSDOF 13
