REMARK SMILES Cc1cc(OCC(=O)NCCCNC(=O)c2ccc(-c3c4nc(c(-c5ccccc5)c5ccc([nH]5)c(-c5ccccc5)c5nc(c(-c6ccccc6)c6ccc3[nH]6)C=C5)C=C4)cc2)ccc1NC(=O)c1ccc(N2C(=O)[C@@H]3[C@H](C2=O)[C@H]2C=C[C@@H]3C2)cc1
REMARK SMILES IDX 7 1 8 2 9 3 6 5 5 6 4 7 1 8 2 9 3 10 66 11 65 12 64 13 67 14
REMARK SMILES IDX 68 15 69 17 70 18 71 19 87 20 72 21 86 22 73 23 74 24 75 25
REMARK SMILES IDX 79 26 76 27 77 28 78 29 80 30 84 31 81 32 83 33 85 34 82 35
REMARK SMILES IDX 10 36 11 37 12 38 13 39 14 40 15 42 16 43 17 44 63 45 18 46
REMARK SMILES IDX 62 47 19 48 20 49 21 50 56 51 22 52 61 53 55 54 57 55 23 56
REMARK SMILES IDX 60 57 54 58 53 59 24 61 46 62 31 63 45 64 32 65 35 66 44 67
REMARK SMILES IDX 58 68 33 69 34 70 43 72 59 73 36 74 25 75 26 76 30 77 27 78
REMARK SMILES IDX 29 79 28 80 47 81 48 82 52 83 49 84 51 85 50 86 37 87 38 88
REMARK SMILES IDX 42 89 39 90 41 91 40 92
REMARK H PARENT 9 4 67 16 13 41 57 60 35 71
REMARK Flexibility Score: inf
ROOT
ATOM      1  C   UNL     1      -3.841  -1.983   1.141  1.00  0.00     0.257 C 
ATOM      2  O   UNL     1      -4.577  -0.998   1.223  1.00  0.00    -0.271 OA
ATOM      3  N   UNL     1      -3.583  -2.707   2.274  1.00  0.00    -0.353 N 
ATOM      4  H   UNL     1      -3.972  -2.356   3.107  1.00  0.00     0.163 HD
ENDROOT
BRANCH   1   5
ATOM      5  C   UNL     1      -3.238  -2.425  -0.200  1.00  0.00     0.329 C 
BRANCH   5   6
ATOM      6  O   UNL     1      -1.821  -2.364  -0.291  1.00  0.00    -0.484 OA
BRANCH   6   7
ATOM      7  C   UNL     1      -1.240  -1.126  -0.310  1.00  0.00     0.120 A 
ATOM      8  C   UNL     1       2.384  -0.043   0.014  1.00  0.00     0.047 C 
ATOM      9  C   UNL     1       0.891   0.081  -0.143  1.00  0.00    -0.024 A 
ATOM     10  C   UNL     1       0.152  -1.120  -0.191  1.00  0.00     0.052 A 
ATOM     11  C   UNL     1       0.200   1.304  -0.211  1.00  0.00     0.044 A 
ATOM     12  C   UNL     1      -1.187   1.286  -0.397  1.00  0.00     0.030 A 
ATOM     13  C   UNL     1      -1.903   0.087  -0.439  1.00  0.00     0.048 A 
BRANCH  11  14
ATOM     14  N   UNL     1       0.906   2.522  -0.151  1.00  0.00    -0.322 N 
ATOM     15  C   UNL     1       0.484   3.789   0.186  1.00  0.00     0.255 C 
ATOM     16  H   UNL     1       1.859   2.456  -0.389  1.00  0.00     0.170 HD
ATOM     17  O   UNL     1       1.155   4.767  -0.141  1.00  0.00    -0.269 OA
BRANCH  15  18
ATOM     18  C   UNL     1      -0.716   4.004   1.031  1.00  0.00     0.040 A 
ATOM     19  C   UNL     1      -1.592   5.040   0.703  1.00  0.00     0.016 A 
ATOM     20  C   UNL     1      -0.952   3.232   2.173  1.00  0.00     0.016 A 
ATOM     21  C   UNL     1      -2.736   5.260   1.478  1.00  0.00     0.027 A 
ATOM     22  C   UNL     1      -2.080   3.478   2.964  1.00  0.00     0.027 A 
ATOM     23  C   UNL     1      -2.994   4.486   2.620  1.00  0.00     0.052 A 
BRANCH  23  24
ATOM     24  N   UNL     1      -4.149   4.729   3.407  1.00  0.00    -0.250 N 
ATOM     25  C   UNL     1      -5.365   5.104   2.877  1.00  0.00     0.238 C 
ATOM     26  C   UNL     1      -4.186   4.573   4.783  1.00  0.00     0.238 C 
ATOM     27  O   UNL     1      -5.666   5.268   1.700  1.00  0.00    -0.274 OA
ATOM     28  C   UNL     1      -6.372   5.217   3.982  1.00  0.00     0.099 C 
ATOM     29  C   UNL     1      -5.559   4.976   5.265  1.00  0.00     0.099 C 
ATOM     30  O   UNL     1      -3.306   4.206   5.528  1.00  0.00    -0.274 OA
ATOM     31  C   UNL     1      -7.418   4.074   4.013  1.00  0.00     0.025 C 
ATOM     32  C   UNL     1      -6.300   3.805   5.920  1.00  0.00     0.025 C 
ATOM     33  C   UNL     1      -8.374   4.408   5.139  1.00  0.00    -0.027 C 
ATOM     34  C   UNL     1      -6.662   2.935   4.712  1.00  0.00     0.017 C 
ATOM     35  C   UNL     1      -7.691   4.267   6.286  1.00  0.00    -0.027 C 
ENDBRANCH  23  24
ENDBRANCH  15  18
ENDBRANCH  11  14
ENDBRANCH   6   7
ENDBRANCH   5   6
ENDBRANCH   1   5
BRANCH   3  36
ATOM     36  C   UNL     1      -2.806  -3.929   2.401  1.00  0.00     0.117 C 
BRANCH  36  37
ATOM     37  C   UNL     1      -1.341  -3.665   2.713  1.00  0.00     0.042 C 
BRANCH  37  38
ATOM     38  C   UNL     1      -1.086  -3.278   4.161  1.00  0.00     0.118 C 
BRANCH  38  39
ATOM     39  N   UNL     1      -0.908  -4.413   5.061  1.00  0.00    -0.352 N 
ATOM     40  C   UNL     1      -0.604  -4.445   6.409  1.00  0.00     0.251 C 
ATOM     41  H   UNL     1      -1.023  -5.296   4.641  1.00  0.00     0.163 HD
ATOM     42  O   UNL     1      -0.451  -5.529   6.965  1.00  0.00    -0.269 OA
BRANCH  40  43
ATOM     43  C   UNL     1      -0.640  -3.202   7.221  1.00  0.00     0.039 A 
ATOM     44  C   UNL     1      -1.237  -3.284   8.487  1.00  0.00     0.014 A 
ATOM     45  C   UNL     1      -0.374  -1.960   6.660  1.00  0.00     0.014 A 
ATOM     46  C   UNL     1      -1.846  -2.158   9.025  1.00  0.00     0.010 A 
ATOM     47  C   UNL     1      -1.076  -0.872   7.117  1.00  0.00     0.010 A 
ATOM     48  C   UNL     1      -1.872  -1.002   8.253  1.00  0.00    -0.014 A 
BRANCH  48  49
ATOM     49  C   UNL     1      -2.768   0.105   8.505  1.00  0.00     0.031 A 
ATOM     50  C   UNL     1      -2.247   1.299   9.201  1.00  0.00     0.074 A 
ATOM     51  C   UNL     1      -4.008   0.071   7.966  1.00  0.00     0.049 A 
ATOM     52  N   UNL     1      -2.955   2.097   9.925  1.00  0.00    -0.248 NA
ATOM     53  C   UNL     1      -0.835   1.673   9.145  1.00  0.00     0.031 C 
ATOM     54  C   UNL     1      -4.951   1.176   7.928  1.00  0.00     0.029 A 
ATOM     55  N   UNL     1      -4.750  -0.991   7.443  1.00  0.00    -0.354 N 
ATOM     56  C   UNL     1      -2.200   3.235  10.117  1.00  0.00     0.074 A 
ATOM     57  C   UNL     1      -0.857   2.874   9.729  1.00  0.00     0.031 C 
ATOM     58  C   UNL     1      -6.187   0.696   7.702  1.00  0.00     0.029 A 
ATOM     59  C   UNL     1      -6.087  -0.749   7.797  1.00  0.00     0.049 A 
ATOM     60  H   UNL     1      -4.404  -1.756   6.929  1.00  0.00     0.167 HD
ATOM     61  C   UNL     1      -2.820   4.417  10.394  1.00  0.00     0.031 A 
ATOM     62  C   UNL     1      -6.785  -1.497   8.707  1.00  0.00     0.031 A 
ATOM     63  C   UNL     1      -4.271   4.247  10.452  1.00  0.00     0.049 A 
ATOM     64  C   UNL     1      -7.232  -0.661   9.900  1.00  0.00     0.074 A 
ATOM     65  C   UNL     1      -5.258   4.506   9.515  1.00  0.00     0.029 A 
ATOM     66  N   UNL     1      -4.843   3.420  11.415  1.00  0.00    -0.354 N 
ATOM     67  N   UNL     1      -6.607   0.414  10.302  1.00  0.00    -0.248 NA
ATOM     68  C   UNL     1      -8.408  -0.955  10.718  1.00  0.00     0.031 C 
ATOM     69  C   UNL     1      -6.397   3.740   9.863  1.00  0.00     0.029 A 
ATOM     70  C   UNL     1      -6.120   3.054  11.031  1.00  0.00     0.049 A 
ATOM     71  H   UNL     1      -4.402   3.136  12.248  1.00  0.00     0.167 HD
ATOM     72  C   UNL     1      -7.303   0.994  11.329  1.00  0.00     0.074 A 
ATOM     73  C   UNL     1      -8.401   0.078  11.583  1.00  0.00     0.031 C 
ATOM     74  C   UNL     1      -6.958   2.203  11.863  1.00  0.00     0.031 A 
BRANCH  61  75
ATOM     75  C   UNL     1      -2.144   5.764  10.243  1.00  0.00    -0.014 A 
ATOM     76  C   UNL     1      -2.914   6.896   9.911  1.00  0.00     0.009 A 
ATOM     77  C   UNL     1      -0.761   5.981  10.364  1.00  0.00     0.009 A 
ATOM     78  C   UNL     1      -2.331   8.136   9.615  1.00  0.00     0.001 A 
ATOM     79  C   UNL     1      -0.166   7.208  10.033  1.00  0.00     0.001 A 
ATOM     80  C   UNL     1      -0.952   8.284   9.646  1.00  0.00     0.000 A 
ENDBRANCH  61  75
BRANCH  62  81
ATOM     81  C   UNL     1      -6.331  -2.912   8.790  1.00  0.00    -0.014 A 
ATOM     82  C   UNL     1      -6.529  -3.737   7.663  1.00  0.00     0.009 A 
ATOM     83  C   UNL     1      -5.377  -3.294   9.742  1.00  0.00     0.009 A 
ATOM     84  C   UNL     1      -5.676  -4.816   7.411  1.00  0.00     0.001 A 
ATOM     85  C   UNL     1      -4.540  -4.389   9.494  1.00  0.00     0.001 A 
ATOM     86  C   UNL     1      -4.655  -5.115   8.308  1.00  0.00     0.000 A 
ENDBRANCH  62  81
BRANCH  74  87
ATOM     87  C   UNL     1      -7.497   2.791  13.141  1.00  0.00    -0.014 A 
ATOM     88  C   UNL     1      -8.036   2.029  14.183  1.00  0.00     0.009 A 
ATOM     89  C   UNL     1      -7.326   4.174  13.386  1.00  0.00     0.009 A 
ATOM     90  C   UNL     1      -8.429   2.626  15.389  1.00  0.00     0.001 A 
ATOM     91  C   UNL     1      -7.670   4.764  14.602  1.00  0.00     0.001 A 
ATOM     92  C   UNL     1      -8.236   3.988  15.601  1.00  0.00     0.000 A 
ENDBRANCH  74  87
ENDBRANCH  48  49
ENDBRANCH  40  43
ENDBRANCH  38  39
ENDBRANCH  37  38
ENDBRANCH  36  37
ENDBRANCH   3  36
TORSDOF 15
