REMARK SMILES CC(C)c1nc(N(C)CCc2ccccn2)sc1C(=O)NCCCNC(=O)c1ccc(-c2c3nc(c(-c4ccccc4)c4ccc([nH]4)c(-c4ccccc4)c4nc(c(-c5ccccc5)c5ccc2[nH]5)C=C4)C=C3)cc1
REMARK SMILES IDX 22 1 21 2 19 3 20 4 18 6 4 7 5 8 6 9 17 10 2 11 1 12 3 13
REMARK SMILES IDX 7 14 8 15 9 16 10 17 11 18 12 19 16 20 13 21 15 22 14 23
REMARK SMILES IDX 23 24 24 25 25 26 26 27 27 29 28 30 29 31 75 32 30 33 74 34
REMARK SMILES IDX 31 35 32 36 33 37 68 38 34 39 73 40 67 41 69 42 35 43 72 44
REMARK SMILES IDX 66 45 65 46 36 48 58 49 43 50 57 51 44 52 47 53 56 54 70 55
REMARK SMILES IDX 45 56 46 57 55 59 71 60 48 61 37 62 38 63 42 64 39 65 41 66
REMARK SMILES IDX 40 67 59 68 60 69 64 70 61 71 63 72 62 73 49 74 50 75 54 76
REMARK SMILES IDX 51 77 53 78 52 79
REMARK H PARENT 21 5 25 28 69 47 47 58
REMARK Flexibility Score: inf
ROOT
ATOM      1  C   UNL     1       0.953   0.623  -1.236  1.00  0.00     0.118 C 
ENDROOT
BRANCH   1   2
ATOM      2  N   UNL     1      -0.083   1.546  -0.848  1.00  0.00    -0.351 N 
ATOM      3  C   UNL     1      -1.293   1.285  -0.244  1.00  0.00     0.263 C 
ATOM      4  O   UNL     1      -1.988   2.278  -0.012  1.00  0.00    -0.268 OA
ATOM      5  H   UNL     1       0.099   2.494  -1.042  1.00  0.00     0.163 HD
BRANCH   3   6
ATOM      6  C   UNL     1      -1.733  -0.074   0.018  1.00  0.00     0.117 A 
ATOM      7  C   UNL     1      -1.146  -1.224   0.537  1.00  0.00     0.069 A 
ATOM      8  N   UNL     1      -1.979  -2.330   0.502  1.00  0.00    -0.224 NA
ATOM      9  C   UNL     1      -3.150  -2.081  -0.031  1.00  0.00     0.186 A 
ATOM     10  S   UNL     1      -3.393  -0.411  -0.343  1.00  0.00    -0.091 S 
BRANCH   7  11
ATOM     11  C   UNL     1       0.253  -1.480   1.058  1.00  0.00     0.034 C 
ATOM     12  C   UNL     1       0.684  -0.489   2.138  1.00  0.00     0.014 C 
ATOM     13  C   UNL     1       0.465  -2.912   1.572  1.00  0.00     0.014 C 
ENDBRANCH   7  11
BRANCH   9  14
ATOM     14  N   UNL     1      -4.020  -3.075  -0.365  1.00  0.00    -0.351 N 
ATOM     15  C   UNL     1      -5.436  -2.870  -0.586  1.00  0.00     0.146 C 
BRANCH  14  16
ATOM     16  C   UNL     1      -3.503  -4.451  -0.430  1.00  0.00     0.125 C 
BRANCH  16  17
ATOM     17  C   UNL     1      -3.009  -4.822  -1.837  1.00  0.00     0.077 C 
BRANCH  17  18
ATOM     18  C   UNL     1      -1.697  -4.189  -2.231  1.00  0.00     0.042 A 
ATOM     19  C   UNL     1      -1.674  -2.969  -2.906  1.00  0.00     0.024 A 
ATOM     20  N   UNL     1      -0.562  -4.859  -1.910  1.00  0.00    -0.261 NA
ATOM     21  C   UNL     1      -0.448  -2.403  -3.240  1.00  0.00     0.003 A 
ATOM     22  C   UNL     1       0.614  -4.281  -2.241  1.00  0.00     0.111 A 
ATOM     23  C   UNL     1       0.723  -3.066  -2.897  1.00  0.00     0.020 A 
ENDBRANCH  17  18
ENDBRANCH  16  17
ENDBRANCH  14  16
ENDBRANCH   9  14
ENDBRANCH   3   6
ENDBRANCH   1   2
BRANCH   1  24
ATOM     24  C   UNL     1       1.857   1.093  -2.357  1.00  0.00     0.042 C 
BRANCH  24  25
ATOM     25  C   UNL     1       2.704   2.308  -2.006  1.00  0.00     0.118 C 
BRANCH  25  26
ATOM     26  N   UNL     1       3.608   2.106  -0.877  1.00  0.00    -0.352 N 
ATOM     27  C   UNL     1       4.980   2.001  -0.793  1.00  0.00     0.251 C 
ATOM     28  H   UNL     1       3.150   2.029  -0.010  1.00  0.00     0.163 HD
ATOM     29  O   UNL     1       5.495   1.736   0.285  1.00  0.00    -0.269 OA
BRANCH  27  30
ATOM     30  C   UNL     1       5.835   2.153  -1.994  1.00  0.00     0.039 A 
ATOM     31  C   UNL     1       6.957   1.329  -2.136  1.00  0.00     0.014 A 
ATOM     32  C   UNL     1       5.543   3.087  -2.983  1.00  0.00     0.014 A 
ATOM     33  C   UNL     1       7.701   1.361  -3.320  1.00  0.00     0.010 A 
ATOM     34  C   UNL     1       6.195   3.025  -4.208  1.00  0.00     0.010 A 
ATOM     35  C   UNL     1       7.282   2.159  -4.395  1.00  0.00    -0.014 A 
BRANCH  35  36
ATOM     36  C   UNL     1       7.949   2.116  -5.724  1.00  0.00     0.031 A 
ATOM     37  C   UNL     1       8.496   3.380  -6.336  1.00  0.00     0.074 A 
ATOM     38  C   UNL     1       7.963   0.969  -6.433  1.00  0.00     0.049 A 
ATOM     39  N   UNL     1       8.963   3.580  -7.542  1.00  0.00    -0.248 NA
ATOM     40  C   UNL     1       8.472   4.589  -5.495  1.00  0.00     0.031 C 
ATOM     41  C   UNL     1       7.420  -0.318  -5.988  1.00  0.00     0.029 A 
ATOM     42  N   UNL     1       8.447   0.704  -7.690  1.00  0.00    -0.354 N 
ATOM     43  C   UNL     1       9.241   4.940  -7.617  1.00  0.00     0.074 A 
ATOM     44  C   UNL     1       8.844   5.524  -6.356  1.00  0.00     0.031 C 
ATOM     45  C   UNL     1       7.637  -1.241  -6.939  1.00  0.00     0.029 A 
ATOM     46  C   UNL     1       8.286  -0.605  -8.079  1.00  0.00     0.049 A 
ATOM     47  H   UNL     1       8.870   1.387  -8.260  1.00  0.00     0.167 HD
ATOM     48  C   UNL     1       9.800   5.640  -8.633  1.00  0.00     0.031 A 
ATOM     49  C   UNL     1       8.617  -1.223  -9.228  1.00  0.00     0.031 A 
ATOM     50  C   UNL     1      10.245   5.054  -9.867  1.00  0.00     0.049 A 
ATOM     51  C   UNL     1       9.268  -0.434 -10.327  1.00  0.00     0.074 A 
ATOM     52  C   UNL     1      10.894   5.665 -10.927  1.00  0.00     0.029 A 
ATOM     53  N   UNL     1      10.100   3.717 -10.201  1.00  0.00    -0.354 N 
ATOM     54  N   UNL     1       9.571   0.841 -10.360  1.00  0.00    -0.248 NA
ATOM     55  C   UNL     1       9.631  -1.172 -11.546  1.00  0.00     0.031 C 
ATOM     56  C   UNL     1      11.112   4.702 -11.918  1.00  0.00     0.029 A 
ATOM     57  C   UNL     1      10.638   3.484 -11.455  1.00  0.00     0.049 A 
ATOM     58  H   UNL     1       9.677   3.035  -9.631  1.00  0.00     0.167 HD
ATOM     59  C   UNL     1      10.184   1.052 -11.588  1.00  0.00     0.074 A 
ATOM     60  C   UNL     1      10.222  -0.228 -12.265  1.00  0.00     0.031 C 
ATOM     61  C   UNL     1      10.672   2.203 -12.109  1.00  0.00     0.031 A 
BRANCH  48  62
ATOM     62  C   UNL     1       9.968   7.121  -8.440  1.00  0.00    -0.014 A 
ATOM     63  C   UNL     1      10.905   7.635  -7.528  1.00  0.00     0.009 A 
ATOM     64  C   UNL     1       9.193   8.017  -9.194  1.00  0.00     0.009 A 
ATOM     65  C   UNL     1      11.030   9.013  -7.343  1.00  0.00     0.001 A 
ATOM     66  C   UNL     1       9.343   9.395  -9.029  1.00  0.00     0.001 A 
ATOM     67  C   UNL     1      10.252   9.892  -8.096  1.00  0.00     0.000 A 
ENDBRANCH  48  62
BRANCH  49  68
ATOM     68  C   UNL     1       8.368  -2.679  -9.390  1.00  0.00    -0.014 A 
ATOM     69  C   UNL     1       9.441  -3.584  -9.372  1.00  0.00     0.009 A 
ATOM     70  C   UNL     1       7.066  -3.173  -9.566  1.00  0.00     0.009 A 
ATOM     71  C   UNL     1       9.219  -4.950  -9.555  1.00  0.00     0.001 A 
ATOM     72  C   UNL     1       6.845  -4.543  -9.722  1.00  0.00     0.001 A 
ATOM     73  C   UNL     1       7.921  -5.429  -9.726  1.00  0.00     0.000 A 
ENDBRANCH  49  68
BRANCH  61  74
ATOM     74  C   UNL     1      11.325   2.123 -13.458  1.00  0.00    -0.014 A 
ATOM     75  C   UNL     1      10.563   1.972 -14.627  1.00  0.00     0.009 A 
ATOM     76  C   UNL     1      12.719   2.244 -13.562  1.00  0.00     0.009 A 
ATOM     77  C   UNL     1      11.189   1.916 -15.873  1.00  0.00     0.001 A 
ATOM     78  C   UNL     1      13.340   2.214 -14.811  1.00  0.00     0.001 A 
ATOM     79  C   UNL     1      12.576   2.042 -15.964  1.00  0.00     0.000 A 
ENDBRANCH  61  74
ENDBRANCH  35  36
ENDBRANCH  27  30
ENDBRANCH  25  26
ENDBRANCH  24  25
ENDBRANCH   1  24
TORSDOF 15
