REMARK SMILES C=CCN(CC(=O)NCCCNC(=O)c1ccc(-c2c3nc(c(-c4ccccc4)c4ccc([nH]4)c(-c4ccccc4)c4nc(c(-c5ccccc5)c5ccc2[nH]5)C=C4)C=C3)cc1)C(=O)NC1CC[NH+](CCC)CC1
REMARK SMILES IDX 6 1 7 2 8 3 5 5 4 6 3 7 2 8 1 9 63 10 64 11 65 12 66 14
REMARK SMILES IDX 67 15 74 16 68 17 73 18 69 19 70 21 71 22 72 23 9 24 10 25
REMARK SMILES IDX 11 26 12 27 13 28 14 30 15 31 16 32 62 33 17 34 61 35 18 36
REMARK SMILES IDX 19 37 20 38 55 39 21 40 60 41 54 42 56 43 22 44 59 45 53 46
REMARK SMILES IDX 52 47 23 49 45 50 30 51 44 52 31 53 34 54 43 55 57 56 32 57
REMARK SMILES IDX 33 58 42 60 58 61 35 62 24 63 25 64 29 65 26 66 28 67 27 68
REMARK SMILES IDX 46 69 47 70 51 71 48 72 50 73 49 74 36 75 37 76 41 77 38 78
REMARK SMILES IDX 40 79 39 80
REMARK H PARENT 8 4 65 13 69 20 12 29 56 48 34 59
REMARK Flexibility Score: inf
ROOT
ATOM      1  C   UNL     1      -3.709  -0.771   3.067  1.00  0.00     0.239 C 
ATOM      2  O   UNL     1      -4.259  -0.936   4.165  1.00  0.00    -0.273 OA
ATOM      3  N   UNL     1      -4.485  -0.197   2.106  1.00  0.00    -0.354 N 
ATOM      4  H   UNL     1      -5.449  -0.350   2.233  1.00  0.00     0.163 HD
ENDROOT
BRANCH   1   5
ATOM      5  C   UNL     1      -2.234  -1.203   2.909  1.00  0.00     0.221 C 
BRANCH   5   6
ATOM      6  N   UNL     1      -1.618  -1.404   1.600  1.00  0.00    -0.312 N 
BRANCH   6   7
ATOM      7  C   UNL     1      -0.945  -0.225   1.055  1.00  0.00     0.149 C 
BRANCH   7   8
ATOM      8  C   UNL     1       0.540  -0.296   1.250  1.00  0.00    -0.013 C 
ATOM      9  C   UNL     1       1.415  -0.037   0.268  1.00  0.00     0.006 C 
ENDBRANCH   7   8
ENDBRANCH   6   7
BRANCH   6  10
ATOM     10  C   UNL     1      -1.514  -2.555   0.870  1.00  0.00     0.318 C 
ATOM     11  O   UNL     1      -0.919  -2.573  -0.215  1.00  0.00    -0.249 OA
ATOM     12  N   UNL     1      -2.028  -3.747   1.211  1.00  0.00    -0.335 N 
ATOM     13  H   UNL     1      -1.710  -4.441   0.590  1.00  0.00     0.165 HD
BRANCH  12  14
ATOM     14  C   UNL     1      -2.917  -4.342   2.221  1.00  0.00     0.095 C 
ATOM     15  C   UNL     1      -3.006  -5.876   2.054  1.00  0.00     0.086 C 
ATOM     16  C   UNL     1      -4.333  -3.794   2.132  1.00  0.00     0.086 C 
ATOM     17  C   UNL     1      -3.838  -6.310   0.830  1.00  0.00     0.264 C 
ATOM     18  C   UNL     1      -5.024  -4.197   0.846  1.00  0.00     0.264 C 
ATOM     19  N   UNL     1      -5.139  -5.645   0.778  1.00  0.00    -0.335 N 
ATOM     20  H   UNL     1      -5.608  -5.964   1.626  1.00  0.00     0.348 HD
BRANCH  19  21
ATOM     21  C   UNL     1      -6.029  -6.076  -0.306  1.00  0.00     0.261 C 
BRANCH  21  22
ATOM     22  C   UNL     1      -5.805  -5.529  -1.729  1.00  0.00     0.058 C 
ATOM     23  C   UNL     1      -4.566  -6.060  -2.427  1.00  0.00     0.010 C 
ENDBRANCH  21  22
ENDBRANCH  19  21
ENDBRANCH  12  14
ENDBRANCH   6  10
ENDBRANCH   5   6
ENDBRANCH   1   5
BRANCH   3  24
ATOM     24  C   UNL     1      -4.171   0.596   0.934  1.00  0.00     0.117 C 
BRANCH  24  25
ATOM     25  C   UNL     1      -4.184  -0.133  -0.408  1.00  0.00     0.042 C 
BRANCH  25  26
ATOM     26  C   UNL     1      -5.534  -0.680  -0.872  1.00  0.00     0.118 C 
BRANCH  26  27
ATOM     27  N   UNL     1      -6.608   0.302  -0.867  1.00  0.00    -0.352 N 
ATOM     28  C   UNL     1      -7.232   1.009  -1.859  1.00  0.00     0.251 C 
ATOM     29  H   UNL     1      -6.957   0.498   0.033  1.00  0.00     0.163 HD
ATOM     30  O   UNL     1      -8.025   1.899  -1.530  1.00  0.00    -0.269 OA
BRANCH  28  31
ATOM     31  C   UNL     1      -6.986   0.774  -3.300  1.00  0.00     0.039 A 
ATOM     32  C   UNL     1      -6.965   1.885  -4.155  1.00  0.00     0.014 A 
ATOM     33  C   UNL     1      -6.868  -0.506  -3.844  1.00  0.00     0.014 A 
ATOM     34  C   UNL     1      -6.754   1.721  -5.528  1.00  0.00     0.010 A 
ATOM     35  C   UNL     1      -6.597  -0.667  -5.207  1.00  0.00     0.010 A 
ATOM     36  C   UNL     1      -6.527   0.444  -6.062  1.00  0.00    -0.014 A 
BRANCH  36  37
ATOM     37  C   UNL     1      -6.179   0.260  -7.497  1.00  0.00     0.031 A 
ATOM     38  C   UNL     1      -7.095  -0.490  -8.426  1.00  0.00     0.074 A 
ATOM     39  C   UNL     1      -4.994   0.712  -7.954  1.00  0.00     0.049 A 
ATOM     40  N   UNL     1      -6.907  -0.825  -9.679  1.00  0.00    -0.248 NA
ATOM     41  C   UNL     1      -8.381  -0.937  -7.871  1.00  0.00     0.031 C 
ATOM     42  C   UNL     1      -4.000   1.436  -7.159  1.00  0.00     0.029 A 
ATOM     43  N   UNL     1      -4.417   0.615  -9.197  1.00  0.00    -0.354 N 
ATOM     44  C   UNL     1      -8.038  -1.538 -10.056  1.00  0.00     0.074 A 
ATOM     45  C   UNL     1      -8.893  -1.615  -8.889  1.00  0.00     0.031 C 
ATOM     46  C   UNL     1      -2.945   1.730  -7.935  1.00  0.00     0.029 A 
ATOM     47  C   UNL     1      -3.165   1.176  -9.267  1.00  0.00     0.049 A 
ATOM     48  H   UNL     1      -4.859   0.184  -9.964  1.00  0.00     0.167 HD
ATOM     49  C   UNL     1      -8.344  -2.071 -11.264  1.00  0.00     0.031 A 
ATOM     50  C   UNL     1      -2.280   1.226 -10.281  1.00  0.00     0.031 A 
ATOM     51  C   UNL     1      -7.501  -1.990 -12.428  1.00  0.00     0.049 A 
ATOM     52  C   UNL     1      -2.629   0.598 -11.601  1.00  0.00     0.074 A 
ATOM     53  C   UNL     1      -7.755  -2.453 -13.709  1.00  0.00     0.029 A 
ATOM     54  N   UNL     1      -6.241  -1.415 -12.455  1.00  0.00    -0.354 N 
ATOM     55  N   UNL     1      -3.728  -0.023 -11.954  1.00  0.00    -0.248 NA
ATOM     56  C   UNL     1      -1.616   0.683 -12.662  1.00  0.00     0.031 C 
ATOM     57  C   UNL     1      -6.627  -2.202 -14.498  1.00  0.00     0.029 A 
ATOM     58  C   UNL     1      -5.693  -1.536 -13.722  1.00  0.00     0.049 A 
ATOM     59  H   UNL     1      -5.801  -0.984 -11.687  1.00  0.00     0.167 HD
ATOM     60  C   UNL     1      -3.548  -0.381 -13.284  1.00  0.00     0.074 A 
ATOM     61  C   UNL     1      -2.242   0.104 -13.678  1.00  0.00     0.031 C 
ATOM     62  C   UNL     1      -4.393  -1.052 -14.104  1.00  0.00     0.031 A 
BRANCH  49  63
ATOM     63  C   UNL     1      -9.648  -2.810 -11.386  1.00  0.00    -0.014 A 
ATOM     64  C   UNL     1     -10.874  -2.127 -11.382  1.00  0.00     0.009 A 
ATOM     65  C   UNL     1      -9.648  -4.203 -11.556  1.00  0.00     0.009 A 
ATOM     66  C   UNL     1     -12.075  -2.828 -11.510  1.00  0.00     0.001 A 
ATOM     67  C   UNL     1     -10.848  -4.899 -11.710  1.00  0.00     0.001 A 
ATOM     68  C   UNL     1     -12.061  -4.213 -11.678  1.00  0.00     0.000 A 
ENDBRANCH  49  63
BRANCH  50  69
ATOM     69  C   UNL     1      -0.969   1.897 -10.088  1.00  0.00    -0.014 A 
ATOM     70  C   UNL     1      -0.699   3.123 -10.713  1.00  0.00     0.009 A 
ATOM     71  C   UNL     1       0.021   1.313  -9.282  1.00  0.00     0.009 A 
ATOM     72  C   UNL     1       0.543   3.741 -10.553  1.00  0.00     0.001 A 
ATOM     73  C   UNL     1       1.252   1.946  -9.101  1.00  0.00     0.001 A 
ATOM     74  C   UNL     1       1.516   3.154  -9.744  1.00  0.00     0.000 A 
ENDBRANCH  50  69
BRANCH  62  75
ATOM     75  C   UNL     1      -3.944  -1.275 -15.520  1.00  0.00    -0.014 A 
ATOM     76  C   UNL     1      -2.955  -2.220 -15.830  1.00  0.00     0.009 A 
ATOM     77  C   UNL     1      -4.552  -0.558 -16.563  1.00  0.00     0.009 A 
ATOM     78  C   UNL     1      -2.564  -2.424 -17.155  1.00  0.00     0.001 A 
ATOM     79  C   UNL     1      -4.178  -0.783 -17.889  1.00  0.00     0.001 A 
ATOM     80  C   UNL     1      -3.180  -1.710 -18.183  1.00  0.00     0.000 A 
ENDBRANCH  62  75
ENDBRANCH  36  37
ENDBRANCH  28  31
ENDBRANCH  26  27
ENDBRANCH  25  26
ENDBRANCH  24  25
ENDBRANCH   3  24
TORSDOF 17
