REMARK SMILES C[NH2+][C@@]1(C(=O)NCCCNC(=O)c2ccc(-c3c4nc(c(-c5ccccc5)c5ccc([nH]5)c(-c5ccccc5)c5nc(c(-c6ccccc6)c6ccc3[nH]6)C=C5)C=C4)cc2)CCC[C@H]1CCOC
REMARK SMILES IDX 7 1 6 2 4 3 5 4 3 6 61 7 64 8 62 9 63 10 2 11 1 12 65 15
REMARK SMILES IDX 66 16 67 17 68 18 8 19 9 20 10 21 11 22 12 24 13 25 14 26
REMARK SMILES IDX 60 27 15 28 59 29 16 30 17 31 18 32 53 33 19 34 58 35 52 36
REMARK SMILES IDX 54 37 20 38 57 39 51 40 50 41 21 43 43 44 28 45 42 46 29 47
REMARK SMILES IDX 32 48 41 49 55 50 30 51 31 52 40 54 56 55 33 56 22 57 23 58
REMARK SMILES IDX 27 59 24 60 26 61 25 62 44 63 45 64 49 65 46 66 48 67 47 68
REMARK SMILES IDX 34 69 35 70 39 71 36 72 38 73 37 74
REMARK H PARENT 6 5 2 13 2 14 10 23 54 42 32 53
REMARK Flexibility Score: inf
ROOT
ATOM      1  C   UNL     1      -3.878   0.990   2.418  1.00  0.00     0.118 C 
ENDROOT
BRANCH   1   2
ATOM      2  N   UNL     1      -2.563   0.826   2.992  1.00  0.00    -0.351 N 
ATOM      3  C   UNL     1      -1.328   0.689   2.448  1.00  0.00     0.281 C 
ATOM      4  O   UNL     1      -0.442   0.407   3.272  1.00  0.00    -0.268 OA
ATOM      5  H   UNL     1      -2.563   0.811   3.976  1.00  0.00     0.163 HD
BRANCH   3   6
ATOM      6  C   UNL     1      -0.981   0.777   0.885  1.00  0.00     0.178 C 
ATOM      7  C   UNL     1      -1.652   1.995   0.219  1.00  0.00     0.079 C 
ATOM      8  C   UNL     1      -1.566  -0.504   0.201  1.00  0.00     0.063 C 
ATOM      9  C   UNL     1      -2.659   1.488  -0.803  1.00  0.00     0.008 C 
ATOM     10  C   UNL     1      -2.741  -0.021  -0.675  1.00  0.00     0.011 C 
BRANCH   6  11
ATOM     11  N   UNL     1       0.482   0.965   0.904  1.00  0.00    -0.336 N 
ATOM     12  C   UNL     1       1.252   1.240  -0.281  1.00  0.00     0.331 C 
ATOM     13  H   UNL     1       0.658   1.742   1.540  1.00  0.00     0.346 HD
ATOM     14  H   UNL     1       0.805   0.027   1.144  1.00  0.00     0.346 HD
ENDBRANCH   6  11
BRANCH   8  15
ATOM     15  C   UNL     1      -0.682  -1.434  -0.654  1.00  0.00     0.039 C 
BRANCH  15  16
ATOM     16  C   UNL     1       0.486  -2.156   0.017  1.00  0.00     0.160 C 
BRANCH  16  17
ATOM     17  O   UNL     1       0.063  -3.195   0.895  1.00  0.00    -0.385 OA
ATOM     18  C   UNL     1      -0.082  -2.793   2.249  1.00  0.00     0.194 C 
ENDBRANCH  16  17
ENDBRANCH  15  16
ENDBRANCH   8  15
ENDBRANCH   3   6
ENDBRANCH   1   2
BRANCH   1  19
ATOM     19  C   UNL     1      -4.715  -0.275   2.554  1.00  0.00     0.042 C 
BRANCH  19  20
ATOM     20  C   UNL     1      -5.359  -0.411   3.927  1.00  0.00     0.118 C 
BRANCH  20  21
ATOM     21  N   UNL     1      -6.341   0.640   4.176  1.00  0.00    -0.352 N 
ATOM     22  C   UNL     1      -7.703   0.574   4.329  1.00  0.00     0.251 C 
ATOM     23  H   UNL     1      -5.963   1.546   4.247  1.00  0.00     0.163 HD
ATOM     24  O   UNL     1      -8.368   1.603   4.285  1.00  0.00    -0.269 OA
BRANCH  22  25
ATOM     25  C   UNL     1      -8.372  -0.727   4.539  1.00  0.00     0.039 A 
ATOM     26  C   UNL     1      -9.622  -0.951   3.955  1.00  0.00     0.014 A 
ATOM     27  C   UNL     1      -7.789  -1.710   5.340  1.00  0.00     0.014 A 
ATOM     28  C   UNL     1     -10.255  -2.183   4.127  1.00  0.00     0.010 A 
ATOM     29  C   UNL     1      -8.369  -2.969   5.424  1.00  0.00     0.010 A 
ATOM     30  C   UNL     1      -9.616  -3.215   4.834  1.00  0.00    -0.014 A 
BRANCH  30  31
ATOM     31  C   UNL     1     -10.241  -4.550   4.994  1.00  0.00     0.031 A 
ATOM     32  C   UNL     1     -10.567  -5.067   6.370  1.00  0.00     0.074 A 
ATOM     33  C   UNL     1     -10.447  -5.325   3.912  1.00  0.00     0.049 A 
ATOM     34  N   UNL     1     -11.042  -6.234   6.723  1.00  0.00    -0.248 NA
ATOM     35  C   UNL     1     -10.293  -4.165   7.501  1.00  0.00     0.031 C 
ATOM     36  C   UNL     1     -10.134  -4.955   2.529  1.00  0.00     0.029 A 
ATOM     37  N   UNL     1     -10.964  -6.592   3.807  1.00  0.00    -0.354 N 
ATOM     38  C   UNL     1     -11.096  -6.214   8.111  1.00  0.00     0.074 A 
ATOM     39  C   UNL     1     -10.554  -4.944   8.539  1.00  0.00     0.031 C 
ATOM     40  C   UNL     1     -10.498  -5.957   1.713  1.00  0.00     0.029 A 
ATOM     41  C   UNL     1     -11.023  -7.056   2.516  1.00  0.00     0.049 A 
ATOM     42  H   UNL     1     -11.264  -7.117   4.584  1.00  0.00     0.167 HD
ATOM     43  C   UNL     1     -11.576  -7.158   8.956  1.00  0.00     0.031 A 
ATOM     44  C   UNL     1     -11.448  -8.239   2.033  1.00  0.00     0.031 A 
ATOM     45  C   UNL     1     -12.130  -8.413   8.526  1.00  0.00     0.049 A 
ATOM     46  C   UNL     1     -11.965  -9.275   2.992  1.00  0.00     0.074 A 
ATOM     47  C   UNL     1     -12.700  -9.412   9.294  1.00  0.00     0.029 A 
ATOM     48  N   UNL     1     -12.180  -8.841   7.208  1.00  0.00    -0.354 N 
ATOM     49  N   UNL     1     -12.078  -9.212   4.297  1.00  0.00    -0.248 NA
ATOM     50  C   UNL     1     -12.425 -10.543   2.407  1.00  0.00     0.031 C 
ATOM     51  C   UNL     1     -13.044 -10.470   8.447  1.00  0.00     0.029 A 
ATOM     52  C   UNL     1     -12.748 -10.102   7.144  1.00  0.00     0.049 A 
ATOM     53  H   UNL     1     -11.860  -8.325   6.433  1.00  0.00     0.167 HD
ATOM     54  C   UNL     1     -12.651 -10.416   4.686  1.00  0.00     0.074 A 
ATOM     55  C   UNL     1     -12.876 -11.182   3.477  1.00  0.00     0.031 C 
ATOM     56  C   UNL     1     -12.965 -10.848   5.932  1.00  0.00     0.031 A 
BRANCH  43  57
ATOM     57  C   UNL     1     -11.510  -6.867  10.430  1.00  0.00    -0.014 A 
ATOM     58  C   UNL     1     -12.301  -5.863  11.014  1.00  0.00     0.009 A 
ATOM     59  C   UNL     1     -10.662  -7.623  11.254  1.00  0.00     0.009 A 
ATOM     60  C   UNL     1     -12.211  -5.595  12.382  1.00  0.00     0.001 A 
ATOM     61  C   UNL     1     -10.599  -7.376  12.627  1.00  0.00     0.001 A 
ATOM     62  C   UNL     1     -11.364  -6.355  13.187  1.00  0.00     0.000 A 
ENDBRANCH  43  57
BRANCH  44  63
ATOM     63  C   UNL     1     -11.422  -8.502   0.570  1.00  0.00    -0.014 A 
ATOM     64  C   UNL     1     -12.619  -8.598  -0.156  1.00  0.00     0.009 A 
ATOM     65  C   UNL     1     -10.204  -8.663  -0.108  1.00  0.00     0.009 A 
ATOM     66  C   UNL     1     -12.598  -8.881  -1.524  1.00  0.00     0.001 A 
ATOM     67  C   UNL     1     -10.185  -8.914  -1.482  1.00  0.00     0.001 A 
ATOM     68  C   UNL     1     -11.382  -9.034  -2.186  1.00  0.00     0.000 A 
ENDBRANCH  44  63
BRANCH  56  69
ATOM     69  C   UNL     1     -13.626 -12.194   6.046  1.00  0.00    -0.014 A 
ATOM     70  C   UNL     1     -12.916 -13.381   5.811  1.00  0.00     0.009 A 
ATOM     71  C   UNL     1     -14.972 -12.271   6.439  1.00  0.00     0.009 A 
ATOM     72  C   UNL     1     -13.553 -14.618   5.932  1.00  0.00     0.001 A 
ATOM     73  C   UNL     1     -15.596 -13.509   6.591  1.00  0.00     0.001 A 
ATOM     74  C   UNL     1     -14.889 -14.681   6.327  1.00  0.00     0.000 A 
ENDBRANCH  56  69
ENDBRANCH  30  31
ENDBRANCH  22  25
ENDBRANCH  20  21
ENDBRANCH  19  20
ENDBRANCH   1  19
TORSDOF 14
