REMARK SMILES C[C@H](SCCO)[C@@H](C)C(=O)NCCCNC(=O)c1ccc(-c2c3nc(c(-c4ccccc4)c4ccc([nH]4)c(-c4ccccc4)c4nc(c(-c5ccccc5)c5ccc2[nH]5)C=C4)C=C3)cc1
REMARK SMILES IDX 9 1 10 2 11 3 7 5 8 6 2 7 1 8 3 9 4 10 5 11 6 12 12 14 13 15
REMARK SMILES IDX 14 16 15 17 16 18 17 20 18 21 19 22 65 23 20 24 64 25 21 26
REMARK SMILES IDX 22 27 23 28 58 29 24 30 63 31 57 32 59 33 25 34 62 35 56 36
REMARK SMILES IDX 55 37 26 39 48 40 33 41 47 42 34 43 37 44 46 45 60 46 35 47
REMARK SMILES IDX 36 48 45 50 61 51 38 52 27 53 28 54 32 55 29 56 31 57 30 58
REMARK SMILES IDX 49 59 50 60 54 61 51 62 53 63 52 64 39 65 40 66 44 67 41 68
REMARK SMILES IDX 43 69 42 70
REMARK H PARENT 11 4 6 13 15 19 59 38 37 49
REMARK Flexibility Score: inf
ROOT
ATOM      1  C   UNL     1      -1.565  -0.060   2.845  1.00  0.00     0.223 C 
ATOM      2  O   UNL     1      -2.164   0.860   3.410  1.00  0.00    -0.275 OA
ATOM      3  N   UNL     1      -1.358  -1.194   3.566  1.00  0.00    -0.356 N 
ATOM      4  H   UNL     1      -1.740  -1.169   4.473  1.00  0.00     0.163 HD
ENDROOT
BRANCH   1   5
ATOM      5  C   UNL     1      -1.103   0.097   1.397  1.00  0.00     0.088 C 
ATOM      6  C   UNL     1      -1.912  -0.843   0.504  1.00  0.00     0.019 C 
BRANCH   5   7
ATOM      7  C   UNL     1       0.438   0.065   1.276  1.00  0.00     0.055 C 
ATOM      8  C   UNL     1       1.057   1.235   2.062  1.00  0.00     0.020 C 
BRANCH   7   9
ATOM      9  S   UNL     1       1.096   0.211  -0.443  1.00  0.00    -0.156 SA
BRANCH   9  10
ATOM     10  C   UNL     1       1.033  -1.518  -1.053  1.00  0.00     0.098 C 
BRANCH  10  11
ATOM     11  C   UNL     1       2.108  -2.446  -0.494  1.00  0.00     0.167 C 
BRANCH  11  12
ATOM     12  O   UNL     1       1.852  -2.808   0.858  1.00  0.00    -0.396 OA
ATOM     13  H   UNL     1       1.846  -2.011   1.411  1.00  0.00     0.210 HD
ENDBRANCH  11  12
ENDBRANCH  10  11
ENDBRANCH   9  10
ENDBRANCH   7   9
ENDBRANCH   5   7
ENDBRANCH   1   5
BRANCH   3  14
ATOM     14  C   UNL     1      -0.677  -2.435   3.241  1.00  0.00     0.117 C 
BRANCH  14  15
ATOM     15  C   UNL     1       0.642  -2.577   3.993  1.00  0.00     0.042 C 
BRANCH  15  16
ATOM     16  C   UNL     1       0.484  -2.766   5.497  1.00  0.00     0.118 C 
BRANCH  16  17
ATOM     17  N   UNL     1      -0.159  -4.030   5.837  1.00  0.00    -0.352 N 
ATOM     18  C   UNL     1       0.305  -5.091   6.566  1.00  0.00     0.251 C 
ATOM     19  H   UNL     1      -1.072  -4.137   5.485  1.00  0.00     0.163 HD
ATOM     20  O   UNL     1      -0.331  -6.149   6.566  1.00  0.00    -0.269 OA
BRANCH  18  21
ATOM     21  C   UNL     1       1.560  -4.998   7.340  1.00  0.00     0.039 A 
ATOM     22  C   UNL     1       2.421  -6.100   7.366  1.00  0.00     0.014 A 
ATOM     23  C   UNL     1       1.878  -3.851   8.073  1.00  0.00     0.014 A 
ATOM     24  C   UNL     1       3.623  -6.029   8.073  1.00  0.00     0.010 A 
ATOM     25  C   UNL     1       3.112  -3.752   8.710  1.00  0.00     0.010 A 
ATOM     26  C   UNL     1       3.995  -4.842   8.723  1.00  0.00    -0.014 A 
BRANCH  26  27
ATOM     27  C   UNL     1       5.298  -4.722   9.425  1.00  0.00     0.031 A 
ATOM     28  C   UNL     1       5.340  -4.489  10.911  1.00  0.00     0.074 A 
ATOM     29  C   UNL     1       6.443  -4.756   8.716  1.00  0.00     0.049 A 
ATOM     30  N   UNL     1       6.377  -4.292  11.687  1.00  0.00    -0.248 NA
ATOM     31  C   UNL     1       4.048  -4.447  11.614  1.00  0.00     0.031 C 
ATOM     32  C   UNL     1       6.538  -4.939   7.267  1.00  0.00     0.029 A 
ATOM     33  N   UNL     1       7.748  -4.631   9.122  1.00  0.00    -0.354 N 
ATOM     34  C   UNL     1       5.861  -4.082  12.960  1.00  0.00     0.074 A 
ATOM     35  C   UNL     1       4.420  -4.128  12.845  1.00  0.00     0.031 C 
ATOM     36  C   UNL     1       7.832  -4.942   6.909  1.00  0.00     0.029 A 
ATOM     37  C   UNL     1       8.654  -4.719   8.093  1.00  0.00     0.049 A 
ATOM     38  H   UNL     1       8.010  -4.492  10.061  1.00  0.00     0.167 HD
ATOM     39  C   UNL     1       6.526  -3.887  14.124  1.00  0.00     0.031 A 
ATOM     40  C   UNL     1       9.997  -4.624   8.101  1.00  0.00     0.031 A 
ATOM     41  C   UNL     1       7.959  -3.854  14.242  1.00  0.00     0.049 A 
ATOM     42  C   UNL     1      10.711  -4.395   9.403  1.00  0.00     0.074 A 
ATOM     43  C   UNL     1       8.727  -3.719  15.385  1.00  0.00     0.029 A 
ATOM     44  N   UNL     1       8.840  -3.953  13.177  1.00  0.00    -0.354 N 
ATOM     45  N   UNL     1      10.211  -4.263  10.607  1.00  0.00    -0.248 NA
ATOM     46  C   UNL     1      12.178  -4.313   9.346  1.00  0.00     0.031 C 
ATOM     47  C   UNL     1      10.073  -3.688  15.006  1.00  0.00     0.029 A 
ATOM     48  C   UNL     1      10.145  -3.859  13.633  1.00  0.00     0.049 A 
ATOM     49  H   UNL     1       8.578  -4.073  12.235  1.00  0.00     0.167 HD
ATOM     50  C   UNL     1      11.300  -4.110  11.455  1.00  0.00     0.074 A 
ATOM     51  C   UNL     1      12.488  -4.181  10.629  1.00  0.00     0.031 C 
ATOM     52  C   UNL     1      11.316  -3.929  12.798  1.00  0.00     0.031 A 
BRANCH  39  53
ATOM     53  C   UNL     1       5.702  -3.686  15.366  1.00  0.00    -0.014 A 
ATOM     54  C   UNL     1       4.963  -4.740  15.929  1.00  0.00     0.009 A 
ATOM     55  C   UNL     1       5.686  -2.434  15.999  1.00  0.00     0.009 A 
ATOM     56  C   UNL     1       4.195  -4.532  17.076  1.00  0.00     0.001 A 
ATOM     57  C   UNL     1       4.942  -2.237  17.164  1.00  0.00     0.001 A 
ATOM     58  C   UNL     1       4.189  -3.283  17.695  1.00  0.00     0.000 A 
ENDBRANCH  39  53
BRANCH  40  59
ATOM     59  C   UNL     1      10.759  -4.763   6.832  1.00  0.00    -0.014 A 
ATOM     60  C   UNL     1      11.539  -5.905   6.594  1.00  0.00     0.009 A 
ATOM     61  C   UNL     1      10.712  -3.757   5.856  1.00  0.00     0.009 A 
ATOM     62  C   UNL     1      12.277  -6.024   5.414  1.00  0.00     0.001 A 
ATOM     63  C   UNL     1      11.429  -3.892   4.664  1.00  0.00     0.001 A 
ATOM     64  C   UNL     1      12.217  -5.021   4.449  1.00  0.00     0.000 A 
ENDBRANCH  40  59
BRANCH  52  65
ATOM     65  C   UNL     1      12.660  -3.831  13.462  1.00  0.00    -0.014 A 
ATOM     66  C   UNL     1      13.464  -2.690  13.316  1.00  0.00     0.009 A 
ATOM     67  C   UNL     1      13.109  -4.881  14.278  1.00  0.00     0.009 A 
ATOM     68  C   UNL     1      14.707  -2.618  13.948  1.00  0.00     0.001 A 
ATOM     69  C   UNL     1      14.339  -4.794  14.931  1.00  0.00     0.001 A 
ATOM     70  C   UNL     1      15.141  -3.667  14.758  1.00  0.00     0.000 A 
ENDBRANCH  52  65
ENDBRANCH  26  27
ENDBRANCH  18  21
ENDBRANCH  16  17
ENDBRANCH  15  16
ENDBRANCH  14  15
ENDBRANCH   3  14
TORSDOF 15
