REMARK SMILES O=C(NCCCNC(=O)[C@H]1CC[C@@H](CNC(=O)[C@@H]2CCC[NH2+]C2)O1)c1ccc(-c2c3nc(c(-c4ccccc4)c4ccc([nH]4)c(-c4ccccc4)c4nc(c(-c5ccccc5)c5ccc2[nH]5)C=C4)C=C3)cc1
REMARK SMILES IDX 5 1 4 2 3 3 1 4 2 5 25 7 26 8 72 9 27 10 71 11 28 12 29 13
REMARK SMILES IDX 30 14 65 15 31 16 70 17 64 18 66 19 32 20 69 21 63 22 62 23
REMARK SMILES IDX 33 25 55 26 40 27 54 28 41 29 44 30 53 31 67 32 42 33 43 34
REMARK SMILES IDX 52 36 68 37 45 38 34 39 35 40 39 41 36 42 38 43 37 44 56 45
REMARK SMILES IDX 57 46 61 47 58 48 60 49 59 50 46 51 47 52 51 53 48 54 50 55
REMARK SMILES IDX 49 56 6 57 7 58 8 59 9 61 10 62 11 63 24 64 12 65 13 66
REMARK SMILES IDX 14 67 15 68 16 69 17 71 18 72 19 73 23 74 20 75 22 76 21 77
REMARK H PARENT 3 6 66 24 44 35 7 60 15 70 22 78 22 79
REMARK Flexibility Score: inf
ROOT
ATOM      1  C   UNL     1       4.062  -1.521   7.229  1.00  0.00     0.042 C 
ENDROOT
BRANCH   1   2
ATOM      2  C   UNL     1       2.837  -1.823   8.081  1.00  0.00     0.118 C 
BRANCH   2   3
ATOM      3  N   UNL     1       3.171  -1.925   9.498  1.00  0.00    -0.352 N 
ATOM      4  O   UNL     1       3.450  -1.208  11.617  1.00  0.00    -0.269 OA
ATOM      5  C   UNL     1       2.885  -1.077  10.538  1.00  0.00     0.251 C 
ATOM      6  H   UNL     1       3.682  -2.729   9.746  1.00  0.00     0.163 HD
BRANCH   5   7
ATOM      7  C   UNL     1       1.904   0.009  10.354  1.00  0.00     0.039 A 
ATOM      8  C   UNL     1       0.718  -0.212   9.651  1.00  0.00     0.014 A 
ATOM      9  C   UNL     1       2.164   1.259  10.921  1.00  0.00     0.014 A 
ATOM     10  C   UNL     1      -0.132   0.850   9.379  1.00  0.00     0.010 A 
ATOM     11  C   UNL     1       1.256   2.300  10.738  1.00  0.00     0.010 A 
ATOM     12  C   UNL     1       0.115   2.110   9.941  1.00  0.00    -0.014 A 
BRANCH  12  13
ATOM     13  C   UNL     1      -0.859   3.208   9.748  1.00  0.00     0.031 A 
ATOM     14  C   UNL     1      -0.461   4.469   9.043  1.00  0.00     0.074 A 
ATOM     15  C   UNL     1      -2.102   3.065  10.246  1.00  0.00     0.049 A 
ATOM     16  N   UNL     1      -1.149   5.568   8.870  1.00  0.00    -0.248 NA
ATOM     17  C   UNL     1       0.892   4.508   8.466  1.00  0.00     0.031 C 
ATOM     18  C   UNL     1      -2.602   1.875  10.940  1.00  0.00     0.029 A 
ATOM     19  N   UNL     1      -3.167   3.926  10.251  1.00  0.00    -0.354 N 
ATOM     20  C   UNL     1      -0.306   6.440   8.195  1.00  0.00     0.074 A 
ATOM     21  C   UNL     1       0.953   5.751   8.009  1.00  0.00     0.031 C 
ATOM     22  C   UNL     1      -3.881   2.075  11.285  1.00  0.00     0.029 A 
ATOM     23  C   UNL     1      -4.264   3.430  10.909  1.00  0.00     0.049 A 
ATOM     24  H   UNL     1      -3.147   4.814   9.824  1.00  0.00     0.167 HD
ATOM     25  C   UNL     1      -0.560   7.703   7.774  1.00  0.00     0.031 A 
ATOM     26  C   UNL     1      -5.436   4.012  11.219  1.00  0.00     0.031 A 
ATOM     27  C   UNL     1      -1.814   8.380   7.981  1.00  0.00     0.049 A 
ATOM     28  C   UNL     1      -5.675   5.429  10.795  1.00  0.00     0.074 A 
ATOM     29  C   UNL     1      -2.187   9.649   7.571  1.00  0.00     0.029 A 
ATOM     30  N   UNL     1      -2.895   7.848   8.669  1.00  0.00    -0.354 N 
ATOM     31  N   UNL     1      -4.879   6.236  10.135  1.00  0.00    -0.248 NA
ATOM     32  C   UNL     1      -6.971   6.017  11.153  1.00  0.00     0.031 C 
ATOM     33  C   UNL     1      -3.468   9.908   8.069  1.00  0.00     0.029 A 
ATOM     34  C   UNL     1      -3.924   8.773   8.722  1.00  0.00     0.049 A 
ATOM     35  H   UNL     1      -2.926   6.946   9.062  1.00  0.00     0.167 HD
ATOM     36  C   UNL     1      -5.588   7.417   9.971  1.00  0.00     0.074 A 
ATOM     37  C   UNL     1      -6.880   7.218  10.597  1.00  0.00     0.031 C 
ATOM     38  C   UNL     1      -5.205   8.558   9.348  1.00  0.00     0.031 A 
BRANCH  25  39
ATOM     39  C   UNL     1       0.561   8.446   7.098  1.00  0.00    -0.014 A 
ATOM     40  C   UNL     1       1.043   8.067   5.835  1.00  0.00     0.009 A 
ATOM     41  C   UNL     1       1.142   9.552   7.738  1.00  0.00     0.009 A 
ATOM     42  C   UNL     1       2.116   8.747   5.252  1.00  0.00     0.001 A 
ATOM     43  C   UNL     1       2.191  10.252   7.138  1.00  0.00     0.001 A 
ATOM     44  C   UNL     1       2.687   9.840   5.903  1.00  0.00     0.000 A 
ENDBRANCH  25  39
BRANCH  26  45
ATOM     45  C   UNL     1      -6.447   3.244  11.989  1.00  0.00    -0.014 A 
ATOM     46  C   UNL     1      -7.623   2.795  11.374  1.00  0.00     0.009 A 
ATOM     47  C   UNL     1      -6.210   2.907  13.332  1.00  0.00     0.009 A 
ATOM     48  C   UNL     1      -8.547   2.032  12.092  1.00  0.00     0.001 A 
ATOM     49  C   UNL     1      -7.120   2.119  14.038  1.00  0.00     0.001 A 
ATOM     50  C   UNL     1      -8.291   1.688  13.419  1.00  0.00     0.000 A 
ENDBRANCH  26  45
BRANCH  38  51
ATOM     51  C   UNL     1      -6.215   9.667   9.259  1.00  0.00    -0.014 A 
ATOM     52  C   UNL     1      -6.563  10.437  10.379  1.00  0.00     0.009 A 
ATOM     53  C   UNL     1      -6.774   9.987   8.012  1.00  0.00     0.009 A 
ATOM     54  C   UNL     1      -7.468  11.493  10.253  1.00  0.00     0.001 A 
ATOM     55  C   UNL     1      -7.654  11.062   7.883  1.00  0.00     0.001 A 
ATOM     56  C   UNL     1      -8.005  11.810   9.005  1.00  0.00     0.000 A 
ENDBRANCH  38  51
ENDBRANCH  12  13
ENDBRANCH   5   7
ENDBRANCH   2   3
ENDBRANCH   1   2
BRANCH   1  57
ATOM     57  C   UNL     1       5.021  -2.699   7.196  1.00  0.00     0.117 C 
BRANCH  57  58
ATOM     58  N   UNL     1       4.549  -3.740   6.314  1.00  0.00    -0.354 N 
ATOM     59  C   UNL     1       5.030  -4.210   5.135  1.00  0.00     0.249 C 
ATOM     60  H   UNL     1       3.729  -4.190   6.623  1.00  0.00     0.163 HD
ATOM     61  O   UNL     1       4.383  -5.125   4.610  1.00  0.00    -0.272 OA
BRANCH  59  62
ATOM     62  C   UNL     1       6.345  -3.726   4.496  1.00  0.00     0.207 C 
ATOM     63  C   UNL     1       6.637  -2.238   4.405  1.00  0.00     0.045 C 
ATOM     64  O   UNL     1       7.446  -4.357   5.149  1.00  0.00    -0.363 OA
ATOM     65  C   UNL     1       7.910  -2.025   5.205  1.00  0.00     0.037 C 
ATOM     66  C   UNL     1       8.497  -3.418   5.371  1.00  0.00     0.138 C 
BRANCH  66  67
ATOM     67  C   UNL     1       9.160  -3.734   6.725  1.00  0.00     0.147 C 
BRANCH  67  68
ATOM     68  N   UNL     1       8.274  -3.551   7.869  1.00  0.00    -0.353 N 
ATOM     69  C   UNL     1       7.698  -4.439   8.724  1.00  0.00     0.228 C 
ATOM     70  H   UNL     1       8.051  -2.611   8.058  1.00  0.00     0.163 HD
ATOM     71  O   UNL     1       6.953  -3.960   9.585  1.00  0.00    -0.275 OA
BRANCH  69  72
ATOM     72  C   UNL     1       7.947  -5.945   8.620  1.00  0.00     0.133 C 
ATOM     73  C   UNL     1       6.988  -6.645   7.653  1.00  0.00     0.025 C 
ATOM     74  C   UNL     1       7.823  -6.603  10.009  1.00  0.00     0.274 C 
ATOM     75  C   UNL     1       5.567  -6.724   8.210  1.00  0.00     0.062 C 
ATOM     76  N   UNL     1       6.451  -6.631  10.536  1.00  0.00    -0.346 N 
ATOM     77  C   UNL     1       5.535  -7.309   9.620  1.00  0.00     0.260 C 
ATOM     78  H   UNL     1       6.450  -7.123  11.429  1.00  0.00     0.346 HD
ATOM     79  H   UNL     1       6.133  -5.668  10.649  1.00  0.00     0.346 HD
ENDBRANCH  69  72
ENDBRANCH  67  68
ENDBRANCH  66  67
ENDBRANCH  59  62
ENDBRANCH  57  58
ENDBRANCH   1  57
TORSDOF 13
