REMARK SMILES [NH3+][C@H](Cc1cc(F)c(F)c(F)c1)C(=O)NCCCNC(=O)c1ccc(-c2c3nc(c(-c4ccccc4)c4ccc([nH]4)c(-c4ccccc4)c4nc(c(-c5ccccc5)c5ccc2[nH]5)C=C4)C=C3)cc1
REMARK SMILES IDX 17 1 16 2 15 3 13 4 14 5 2 7 1 8 3 12 4 13 5 14 12 15 6 16
REMARK SMILES IDX 10 17 7 18 8 19 11 20 9 21 18 22 19 23 20 24 21 26 22 27
REMARK SMILES IDX 23 28 69 29 24 30 68 31 25 32 26 33 27 34 62 35 28 36 67 37
REMARK SMILES IDX 61 38 63 39 29 40 66 41 60 42 59 43 30 45 52 46 37 47 51 48
REMARK SMILES IDX 38 49 41 50 50 51 64 52 39 53 40 54 49 56 65 57 42 58 31 59
REMARK SMILES IDX 32 60 36 61 33 62 35 63 34 64 53 65 54 66 58 67 55 68 57 69
REMARK SMILES IDX 56 70 43 71 44 72 48 73 45 74 47 75 46 76
REMARK H PARENT 15 6 1 9 1 10 1 11 19 25 63 44 41 55
REMARK Flexibility Score: inf
ROOT
ATOM      1  C   UNL     1      -1.282  -2.836   1.965  1.00  0.00     0.042 C 
ENDROOT
BRANCH   1   2
ATOM      2  C   UNL     1      -1.056  -3.155   0.488  1.00  0.00     0.118 C 
BRANCH   2   3
ATOM      3  N   UNL     1      -1.522  -2.115  -0.413  1.00  0.00    -0.351 N 
ATOM      4  C   UNL     1      -0.903  -1.147  -1.139  1.00  0.00     0.278 C 
ATOM      5  O   UNL     1      -1.647  -0.442  -1.837  1.00  0.00    -0.268 OA
ATOM      6  H   UNL     1      -2.500  -2.109  -0.520  1.00  0.00     0.163 HD
BRANCH   4   7
ATOM      7  C   UNL     1       0.602  -0.817  -1.084  1.00  0.00     0.275 C 
BRANCH   7   8
ATOM      8  N   UNL     1       1.460  -2.021  -1.142  1.00  0.00    -0.347 N 
ATOM      9  H   UNL     1       1.104  -2.659  -1.853  1.00  0.00     0.345 HD
ATOM     10  H   UNL     1       1.454  -2.486  -0.234  1.00  0.00     0.345 HD
ATOM     11  H   UNL     1       2.414  -1.747  -1.377  1.00  0.00     0.345 HD
ENDBRANCH   7   8
BRANCH   7  12
ATOM     12  C   UNL     1       1.060   0.223  -0.029  1.00  0.00     0.111 C 
BRANCH  12  13
ATOM     13  C   UNL     1       0.249   0.450   1.226  1.00  0.00    -0.036 A 
ATOM     14  C   UNL     1       0.829   0.262   2.493  1.00  0.00     0.046 A 
ATOM     15  C   UNL     1      -1.071   0.926   1.165  1.00  0.00     0.046 A 
ATOM     16  C   UNL     1       0.082   0.487   3.652  1.00  0.00     0.162 A 
ATOM     17  C   UNL     1      -1.808   1.127   2.332  1.00  0.00     0.162 A 
ATOM     18  F   UNL     1       0.650   0.270   4.846  1.00  0.00    -0.204 F 
ATOM     19  C   UNL     1      -1.238   0.903   3.575  1.00  0.00     0.194 A 
ATOM     20  F   UNL     1      -3.087   1.514   2.239  1.00  0.00    -0.204 F 
ATOM     21  F   UNL     1      -1.964   1.070   4.689  1.00  0.00    -0.200 F 
ENDBRANCH  12  13
ENDBRANCH   7  12
ENDBRANCH   4   7
ENDBRANCH   2   3
ENDBRANCH   1   2
BRANCH   1  22
ATOM     22  C   UNL     1      -2.716  -2.479   2.357  1.00  0.00     0.118 C 
BRANCH  22  23
ATOM     23  N   UNL     1      -3.543  -3.655   2.554  1.00  0.00    -0.352 N 
ATOM     24  C   UNL     1      -4.266  -4.054   3.650  1.00  0.00     0.251 C 
ATOM     25  H   UNL     1      -3.594  -4.261   1.780  1.00  0.00     0.163 HD
ATOM     26  O   UNL     1      -4.738  -5.194   3.659  1.00  0.00    -0.269 OA
BRANCH  24  27
ATOM     27  C   UNL     1      -4.491  -3.174   4.826  1.00  0.00     0.039 A 
ATOM     28  C   UNL     1      -4.514  -3.770   6.093  1.00  0.00     0.014 A 
ATOM     29  C   UNL     1      -4.781  -1.809   4.711  1.00  0.00     0.014 A 
ATOM     30  C   UNL     1      -4.810  -3.010   7.230  1.00  0.00     0.010 A 
ATOM     31  C   UNL     1      -5.026  -1.037   5.857  1.00  0.00     0.010 A 
ATOM     32  C   UNL     1      -5.066  -1.633   7.127  1.00  0.00    -0.014 A 
BRANCH  32  33
ATOM     33  C   UNL     1      -5.393  -0.850   8.351  1.00  0.00     0.031 A 
ATOM     34  C   UNL     1      -6.782  -0.320   8.588  1.00  0.00     0.074 A 
ATOM     35  C   UNL     1      -4.444  -0.641   9.285  1.00  0.00     0.049 A 
ATOM     36  N   UNL     1      -7.274   0.257   9.659  1.00  0.00    -0.248 NA
ATOM     37  C   UNL     1      -7.741  -0.441   7.480  1.00  0.00     0.031 C 
ATOM     38  C   UNL     1      -3.045  -1.055   9.178  1.00  0.00     0.029 A 
ATOM     39  N   UNL     1      -4.522  -0.042  10.520  1.00  0.00    -0.354 N 
ATOM     40  C   UNL     1      -8.594   0.565   9.354  1.00  0.00     0.074 A 
ATOM     41  C   UNL     1      -8.815   0.153   7.983  1.00  0.00     0.031 C 
ATOM     42  C   UNL     1      -2.406  -0.737  10.316  1.00  0.00     0.029 A 
ATOM     43  C   UNL     1      -3.345  -0.085  11.226  1.00  0.00     0.049 A 
ATOM     44  H   UNL     1      -5.343   0.377  10.865  1.00  0.00     0.167 HD
ATOM     45  C   UNL     1      -9.546   1.122  10.142  1.00  0.00     0.031 A 
ATOM     46  C   UNL     1      -3.053   0.331  12.473  1.00  0.00     0.031 A 
ATOM     47  C   UNL     1      -9.345   1.537  11.506  1.00  0.00     0.049 A 
ATOM     48  C   UNL     1      -4.128   0.933  13.334  1.00  0.00     0.074 A 
ATOM     49  C   UNL     1     -10.270   2.062  12.394  1.00  0.00     0.029 A 
ATOM     50  N   UNL     1      -8.135   1.481  12.178  1.00  0.00    -0.354 N 
ATOM     51  N   UNL     1      -5.392   1.133  13.059  1.00  0.00    -0.248 NA
ATOM     52  C   UNL     1      -3.733   1.346  14.690  1.00  0.00     0.031 C 
ATOM     53  C   UNL     1      -9.610   2.361  13.592  1.00  0.00     0.029 A 
ATOM     54  C   UNL     1      -8.285   1.980  13.463  1.00  0.00     0.049 A 
ATOM     55  H   UNL     1      -7.294   1.138  11.800  1.00  0.00     0.167 HD
ATOM     56  C   UNL     1      -5.949   1.671  14.212  1.00  0.00     0.074 A 
ATOM     57  C   UNL     1      -4.889   1.750  15.195  1.00  0.00     0.031 C 
ATOM     58  C   UNL     1      -7.227   2.063  14.434  1.00  0.00     0.031 A 
BRANCH  45  59
ATOM     59  C   UNL     1     -10.910   1.318   9.542  1.00  0.00    -0.014 A 
ATOM     60  C   UNL     1     -11.764   0.226   9.320  1.00  0.00     0.009 A 
ATOM     61  C   UNL     1     -11.364   2.611   9.239  1.00  0.00     0.009 A 
ATOM     62  C   UNL     1     -13.035   0.423   8.775  1.00  0.00     0.001 A 
ATOM     63  C   UNL     1     -12.644   2.806   8.717  1.00  0.00     0.001 A 
ATOM     64  C   UNL     1     -13.475   1.712   8.478  1.00  0.00     0.000 A 
ENDBRANCH  45  59
BRANCH  46  65
ATOM     65  C   UNL     1      -1.680   0.150  13.010  1.00  0.00    -0.014 A 
ATOM     66  C   UNL     1      -1.421  -0.831  13.980  1.00  0.00     0.009 A 
ATOM     67  C   UNL     1      -0.629   0.965  12.566  1.00  0.00     0.009 A 
ATOM     68  C   UNL     1      -0.138  -0.975  14.512  1.00  0.00     0.001 A 
ATOM     69  C   UNL     1       0.658   0.801  13.082  1.00  0.00     0.001 A 
ATOM     70  C   UNL     1       0.900  -0.162  14.060  1.00  0.00     0.000 A 
ENDBRANCH  46  65
BRANCH  58  71
ATOM     71  C   UNL     1      -7.554   2.591  15.803  1.00  0.00    -0.014 A 
ATOM     72  C   UNL     1      -7.117   3.859  16.217  1.00  0.00     0.009 A 
ATOM     73  C   UNL     1      -8.322   1.815  16.684  1.00  0.00     0.009 A 
ATOM     74  C   UNL     1      -7.411   4.323  17.501  1.00  0.00     0.001 A 
ATOM     75  C   UNL     1      -8.636   2.292  17.958  1.00  0.00     0.001 A 
ATOM     76  C   UNL     1      -8.171   3.541  18.369  1.00  0.00     0.000 A 
ENDBRANCH  58  71
ENDBRANCH  32  33
ENDBRANCH  24  27
ENDBRANCH  22  23
ENDBRANCH   1  22
TORSDOF 13
