REMARK SMILES [NH3+][C@H](CC1=c2cccc(O)c2=NC1)C(=O)NCCCNC(=O)c1ccc(-c2c3nc(c(-c4ccccc4)c4ccc([nH]4)c(-c4ccccc4)c4nc(c(-c5ccccc5)c5ccc2[nH]5)C=C4)C=C3)cc1
REMARK SMILES IDX 17 1 16 2 14 3 15 4 2 6 1 7 3 11 4 12 5 13 13 14 6 15 11 16
REMARK SMILES IDX 12 17 7 18 9 19 8 20 10 21 18 23 19 24 20 25 21 26 22 28
REMARK SMILES IDX 23 29 24 30 70 31 25 32 69 33 26 34 27 35 28 36 63 37 29 38
REMARK SMILES IDX 68 39 62 40 64 41 30 42 67 43 61 44 60 45 31 47 53 48 38 49
REMARK SMILES IDX 52 50 39 51 42 52 51 53 65 54 40 55 41 56 50 58 66 59 43 60
REMARK SMILES IDX 32 61 33 62 37 63 34 64 36 65 35 66 54 67 55 68 59 69 56 70
REMARK SMILES IDX 58 71 57 72 44 73 45 74 49 75 46 76 48 77 47 78
REMARK H PARENT 16 5 1 8 1 9 1 10 10 22 20 27 64 46 42 57
REMARK Flexibility Score: inf
ROOT
ATOM      1  C   UNL     1      -1.184   0.600   2.307  1.00  0.00     0.118 C 
ENDROOT
BRANCH   1   2
ATOM      2  N   UNL     1      -1.689  -0.372   1.353  1.00  0.00    -0.351 N 
ATOM      3  C   UNL     1      -1.057  -1.329   0.611  1.00  0.00     0.278 C 
ATOM      4  O   UNL     1      -1.737  -1.945  -0.213  1.00  0.00    -0.268 OA
ATOM      5  H   UNL     1      -2.663  -0.334   1.216  1.00  0.00     0.163 HD
BRANCH   3   6
ATOM      6  C   UNL     1       0.449  -1.621   0.791  1.00  0.00     0.275 C 
BRANCH   6   7
ATOM      7  N   UNL     1       0.686  -2.050   2.184  1.00  0.00    -0.347 N 
ATOM      8  H   UNL     1       0.064  -2.826   2.412  1.00  0.00     0.345 HD
ATOM      9  H   UNL     1       0.501  -1.270   2.816  1.00  0.00     0.345 HD
ATOM     10  H   UNL     1       1.655  -2.349   2.288  1.00  0.00     0.345 HD
ENDBRANCH   6   7
BRANCH   6  11
ATOM     11  C   UNL     1       1.298  -0.448   0.250  1.00  0.00     0.109 C 
BRANCH  11  12
ATOM     12  C   UNL     1       2.754  -0.734   0.010  1.00  0.00    -0.033 C 
ATOM     13  C   UNL     1       3.441  -0.632  -1.127  1.00  0.00     0.005 A 
ATOM     14  C   UNL     1       3.676  -1.099   1.134  1.00  0.00     0.175 C 
ATOM     15  C   UNL     1       3.123  -0.279  -2.474  1.00  0.00     0.010 A 
ATOM     16  C   UNL     1       4.826  -0.938  -0.714  1.00  0.00     0.107 A 
ATOM     17  N   UNL     1       5.027  -1.177   0.547  1.00  0.00    -0.276 NA
ATOM     18  C   UNL     1       4.106  -0.265  -3.389  1.00  0.00     0.005 A 
ATOM     19  C   UNL     1       5.859  -0.932  -1.794  1.00  0.00     0.141 A 
ATOM     20  C   UNL     1       5.475  -0.611  -3.044  1.00  0.00     0.048 A 
BRANCH  19  21
ATOM     21  O   UNL     1       7.155  -1.268  -1.464  1.00  0.00    -0.506 OA
ATOM     22  H   UNL     1       7.821  -1.272  -2.123  1.00  0.00     0.293 HD
ENDBRANCH  19  21
ENDBRANCH  11  12
ENDBRANCH   6  11
ENDBRANCH   3   6
ENDBRANCH   1   2
BRANCH   1  23
ATOM     23  C   UNL     1      -1.456   2.027   1.847  1.00  0.00     0.042 C 
BRANCH  23  24
ATOM     24  C   UNL     1      -2.936   2.391   1.860  1.00  0.00     0.118 C 
BRANCH  24  25
ATOM     25  N   UNL     1      -3.483   2.421   3.210  1.00  0.00    -0.352 N 
ATOM     26  C   UNL     1      -4.071   3.467   3.881  1.00  0.00     0.251 C 
ATOM     27  H   UNL     1      -3.424   1.575   3.711  1.00  0.00     0.163 HD
ATOM     28  O   UNL     1      -4.300   3.391   5.079  1.00  0.00    -0.269 OA
BRANCH  26  29
ATOM     29  C   UNL     1      -4.410   4.692   3.134  1.00  0.00     0.039 A 
ATOM     30  C   UNL     1      -3.996   5.931   3.629  1.00  0.00     0.014 A 
ATOM     31  C   UNL     1      -5.125   4.604   1.935  1.00  0.00     0.014 A 
ATOM     32  C   UNL     1      -4.242   7.084   2.884  1.00  0.00     0.010 A 
ATOM     33  C   UNL     1      -5.321   5.745   1.169  1.00  0.00     0.010 A 
ATOM     34  C   UNL     1      -4.880   6.992   1.637  1.00  0.00    -0.014 A 
BRANCH  34  35
ATOM     35  C   UNL     1      -5.122   8.186   0.797  1.00  0.00     0.031 A 
ATOM     36  C   UNL     1      -6.527   8.662   0.578  1.00  0.00     0.074 A 
ATOM     37  C   UNL     1      -4.092   8.784   0.171  1.00  0.00     0.049 A 
ATOM     38  N   UNL     1      -6.963   9.594  -0.229  1.00  0.00    -0.248 NA
ATOM     39  C   UNL     1      -7.583   7.989   1.353  1.00  0.00     0.031 C 
ATOM     40  C   UNL     1      -2.684   8.407   0.302  1.00  0.00     0.029 A 
ATOM     41  N   UNL     1      -4.077   9.831  -0.715  1.00  0.00    -0.354 N 
ATOM     42  C   UNL     1      -8.341   9.611  -0.069  1.00  0.00     0.074 A 
ATOM     43  C   UNL     1      -8.676   8.576   0.884  1.00  0.00     0.031 C 
ATOM     44  C   UNL     1      -1.940   9.221  -0.464  1.00  0.00     0.029 A 
ATOM     45  C   UNL     1      -2.821  10.148  -1.170  1.00  0.00     0.049 A 
ATOM     46  H   UNL     1      -4.890  10.309  -0.998  1.00  0.00     0.167 HD
ATOM     47  C   UNL     1      -9.245  10.428  -0.655  1.00  0.00     0.031 A 
ATOM     48  C   UNL     1      -2.425  11.073  -2.063  1.00  0.00     0.031 A 
ATOM     49  C   UNL     1      -8.911  11.462  -1.594  1.00  0.00     0.049 A 
ATOM     50  C   UNL     1      -3.450  11.951  -2.721  1.00  0.00     0.074 A 
ATOM     51  C   UNL     1      -9.760  12.353  -2.228  1.00  0.00     0.029 A 
ATOM     52  N   UNL     1      -7.627  11.750  -2.026  1.00  0.00    -0.354 N 
ATOM     53  N   UNL     1      -4.751  11.954  -2.563  1.00  0.00    -0.248 NA
ATOM     54  C   UNL     1      -2.955  12.955  -3.674  1.00  0.00     0.031 C 
ATOM     55  C   UNL     1      -8.991  13.161  -3.069  1.00  0.00     0.029 A 
ATOM     56  C   UNL     1      -7.660  12.804  -2.921  1.00  0.00     0.049 A 
ATOM     57  H   UNL     1      -6.813  11.276  -1.738  1.00  0.00     0.167 HD
ATOM     58  C   UNL     1      -5.228  12.977  -3.372  1.00  0.00     0.074 A 
ATOM     59  C   UNL     1      -4.078  13.572  -4.021  1.00  0.00     0.031 C 
ATOM     60  C   UNL     1      -6.505  13.389  -3.551  1.00  0.00     0.031 A 
BRANCH  47  61
ATOM     61  C   UNL     1     -10.689  10.245  -0.292  1.00  0.00    -0.014 A 
ATOM     62  C   UNL     1     -11.179  10.690   0.945  1.00  0.00     0.009 A 
ATOM     63  C   UNL     1     -11.581   9.693  -1.223  1.00  0.00     0.009 A 
ATOM     64  C   UNL     1     -12.537  10.575   1.247  1.00  0.00     0.001 A 
ATOM     65  C   UNL     1     -12.941   9.600  -0.927  1.00  0.00     0.001 A 
ATOM     66  C   UNL     1     -13.417  10.038   0.308  1.00  0.00     0.000 A 
ENDBRANCH  47  61
BRANCH  48  67
ATOM     67  C   UNL     1      -0.979  11.230  -2.356  1.00  0.00    -0.014 A 
ATOM     68  C   UNL     1      -0.262  12.302  -1.804  1.00  0.00     0.009 A 
ATOM     69  C   UNL     1      -0.298  10.287  -3.141  1.00  0.00     0.009 A 
ATOM     70  C   UNL     1       1.109  12.429  -2.036  1.00  0.00     0.001 A 
ATOM     71  C   UNL     1       1.077  10.406  -3.355  1.00  0.00     0.001 A 
ATOM     72  C   UNL     1       1.778  11.478  -2.805  1.00  0.00     0.000 A 
ENDBRANCH  48  67
BRANCH  60  73
ATOM     73  C   UNL     1      -6.742  14.565  -4.451  1.00  0.00    -0.014 A 
ATOM     74  C   UNL     1      -6.715  14.428  -5.846  1.00  0.00     0.009 A 
ATOM     75  C   UNL     1      -7.102  15.801  -3.890  1.00  0.00     0.009 A 
ATOM     76  C   UNL     1      -7.036  15.514  -6.664  1.00  0.00     0.001 A 
ATOM     77  C   UNL     1      -7.443  16.877  -4.709  1.00  0.00     0.001 A 
ATOM     78  C   UNL     1      -7.407  16.733  -6.095  1.00  0.00     0.000 A 
ENDBRANCH  60  73
ENDBRANCH  34  35
ENDBRANCH  26  29
ENDBRANCH  24  25
ENDBRANCH  23  24
ENDBRANCH   1  23
TORSDOF 14
