REMARK SMILES CC(C)(C)NS(=O)(=O)c1csc(C(=O)Nc2ccccc2C(=O)NCCCNC(=O)c2ccc(-c3c4nc(c(-c5ccccc5)c5ccc([nH]5)c(-c5ccccc5)c5nc(c(-c6ccccc6)c6ccc3[nH]6)C=C5)C=C4)cc2)c1
REMARK SMILES IDX 22 1 23 2 24 3 21 5 16 6 17 7 18 8 20 9 19 10 15 11 13 12
REMARK SMILES IDX 14 13 12 15 9 16 10 17 79 18 11 19 6 20 7 21 8 22 5 23 2 25
REMARK SMILES IDX 1 26 3 27 4 28 25 29 26 30 27 31 28 32 29 33 30 35 31 36
REMARK SMILES IDX 32 37 78 38 33 39 77 40 34 41 35 42 36 43 71 44 37 45 76 46
REMARK SMILES IDX 70 47 72 48 38 49 75 50 69 51 68 52 39 54 61 55 46 56 60 57
REMARK SMILES IDX 47 58 50 59 59 60 73 61 48 62 49 63 58 65 74 66 51 67 40 68
REMARK SMILES IDX 41 69 45 70 42 71 44 72 43 73 62 74 63 75 67 76 64 77 66 78
REMARK SMILES IDX 65 79 52 80 53 81 57 82 54 83 56 84 55 85
REMARK H PARENT 24 4 15 14 5 24 28 34 72 53 50 64
REMARK Flexibility Score: inf
ROOT
ATOM      1  C   UNL     1       2.969   3.049   2.420  1.00  0.00     0.253 C 
ATOM      2  O   UNL     1       2.087   2.865   1.577  1.00  0.00    -0.269 OA
ATOM      3  N   UNL     1       2.900   2.333   3.587  1.00  0.00    -0.352 N 
ATOM      4  H   UNL     1       2.106   1.756   3.667  1.00  0.00     0.163 HD
ENDROOT
BRANCH   1   5
ATOM      5  C   UNL     1       4.016   4.079   2.160  1.00  0.00     0.063 A 
ATOM      6  C   UNL     1       5.396   3.992   2.432  1.00  0.00     0.054 A 
ATOM      7  C   UNL     1       6.192   5.141   2.270  1.00  0.00     0.027 A 
ATOM      8  C   UNL     1       5.680   6.302   1.693  1.00  0.00     0.002 A 
ATOM      9  C   UNL     1       3.520   5.255   1.559  1.00  0.00     0.016 A 
ATOM     10  C   UNL     1       4.349   6.348   1.306  1.00  0.00     0.001 A 
BRANCH   6  11
ATOM     11  N   UNL     1       6.129   2.855   2.820  1.00  0.00    -0.321 N 
ATOM     12  C   UNL     1       6.046   1.519   2.483  1.00  0.00     0.265 C 
ATOM     13  O   UNL     1       6.709   0.756   3.192  1.00  0.00    -0.268 OA
ATOM     14  H   UNL     1       6.848   3.053   3.462  1.00  0.00     0.170 HD
BRANCH  12  15
ATOM     15  C   UNL     1       5.285   1.074   1.328  1.00  0.00     0.094 A 
ATOM     16  C   UNL     1       3.971   0.980  -0.601  1.00  0.00     0.093 A 
ATOM     17  C   UNL     1       4.013  -0.348  -0.250  1.00  0.00     0.087 A 
ATOM     18  C   UNL     1       4.842   1.762   0.214  1.00  0.00     0.047 A 
ATOM     19  S   UNL     1       4.878  -0.593   1.203  1.00  0.00    -0.137 S 
BRANCH  16  20
ATOM     20  S   UNL     1       3.015   1.645  -1.885  1.00  0.00     0.241 S 
ATOM     21  O   UNL     1       3.254   0.757  -3.003  1.00  0.00    -0.207 OA
ATOM     22  O   UNL     1       3.415   3.032  -1.925  1.00  0.00    -0.207 OA
BRANCH  20  23
ATOM     23  N   UNL     1       1.397   1.641  -1.443  1.00  0.00    -0.206 NA
ATOM     24  H   UNL     1       1.379   2.043  -0.506  1.00  0.00     0.141 HD
BRANCH  23  25
ATOM     25  C   UNL     1       0.495   0.465  -1.372  1.00  0.00     0.025 C 
ATOM     26  C   UNL     1       0.525  -0.141   0.034  1.00  0.00     0.028 C 
ATOM     27  C   UNL     1       0.787  -0.596  -2.433  1.00  0.00     0.028 C 
ATOM     28  C   UNL     1      -0.928   1.002  -1.621  1.00  0.00     0.028 C 
ENDBRANCH  23  25
ENDBRANCH  20  23
ENDBRANCH  16  20
ENDBRANCH  12  15
ENDBRANCH   6  11
ENDBRANCH   1   5
BRANCH   3  29
ATOM     29  C   UNL     1       3.798   2.283   4.728  1.00  0.00     0.118 C 
BRANCH  29  30
ATOM     30  C   UNL     1       3.100   2.079   6.061  1.00  0.00     0.042 C 
BRANCH  30  31
ATOM     31  C   UNL     1       2.284   0.797   6.169  1.00  0.00     0.118 C 
BRANCH  31  32
ATOM     32  N   UNL     1       3.064  -0.429   6.054  1.00  0.00    -0.352 N 
ATOM     33  C   UNL     1       3.406  -1.391   6.977  1.00  0.00     0.251 C 
ATOM     34  H   UNL     1       3.410  -0.601   5.148  1.00  0.00     0.163 HD
ATOM     35  O   UNL     1       4.137  -2.320   6.641  1.00  0.00    -0.269 OA
BRANCH  33  36
ATOM     36  C   UNL     1       2.952  -1.304   8.382  1.00  0.00     0.039 A 
ATOM     37  C   UNL     1       3.844  -1.647   9.404  1.00  0.00     0.014 A 
ATOM     38  C   UNL     1       1.663  -0.891   8.709  1.00  0.00     0.014 A 
ATOM     39  C   UNL     1       3.475  -1.472  10.741  1.00  0.00     0.010 A 
ATOM     40  C   UNL     1       1.344  -0.592  10.028  1.00  0.00     0.010 A 
ATOM     41  C   UNL     1       2.242  -0.885  11.064  1.00  0.00    -0.014 A 
BRANCH  41  42
ATOM     42  C   UNL     1       1.858  -0.581  12.468  1.00  0.00     0.031 A 
ATOM     43  C   UNL     1       0.597  -1.167  13.050  1.00  0.00     0.074 A 
ATOM     44  C   UNL     1       2.587   0.293  13.191  1.00  0.00     0.049 A 
ATOM     45  N   UNL     1       0.032  -0.930  14.207  1.00  0.00    -0.248 NA
ATOM     46  C   UNL     1      -0.152  -2.109  12.200  1.00  0.00     0.031 C 
ATOM     47  C   UNL     1       3.794   0.984  12.730  1.00  0.00     0.029 A 
ATOM     48  N   UNL     1       2.413   0.754  14.472  1.00  0.00    -0.354 N 
ATOM     49  C   UNL     1      -1.155  -1.654  14.201  1.00  0.00     0.074 A 
ATOM     50  C   UNL     1      -1.256  -2.293  12.908  1.00  0.00     0.031 C 
ATOM     51  C   UNL     1       4.273   1.746  13.727  1.00  0.00     0.029 A 
ATOM     52  C   UNL     1       3.388   1.631  14.880  1.00  0.00     0.049 A 
ATOM     53  H   UNL     1       1.659   0.482  15.045  1.00  0.00     0.167 HD
ATOM     54  C   UNL     1      -2.068  -1.801  15.190  1.00  0.00     0.031 A 
ATOM     55  C   UNL     1       3.554   2.271  16.053  1.00  0.00     0.031 A 
ATOM     56  C   UNL     1      -1.942  -1.214  16.496  1.00  0.00     0.049 A 
ATOM     57  C   UNL     1       2.558   2.049  17.156  1.00  0.00     0.074 A 
ATOM     58  C   UNL     1      -2.770  -1.366  17.594  1.00  0.00     0.029 A 
ATOM     59  N   UNL     1      -0.911  -0.372  16.882  1.00  0.00    -0.354 N 
ATOM     60  N   UNL     1       1.474   1.312  17.154  1.00  0.00    -0.248 NA
ATOM     61  C   UNL     1       2.817   2.738  18.428  1.00  0.00     0.031 C 
ATOM     62  C   UNL     1      -2.255  -0.590  18.638  1.00  0.00     0.029 A 
ATOM     63  C   UNL     1      -1.085   0.010  18.201  1.00  0.00     0.049 A 
ATOM     64  H   UNL     1      -0.166  -0.088  16.305  1.00  0.00     0.167 HD
ATOM     65  C   UNL     1       0.937   1.427  18.429  1.00  0.00     0.074 A 
ATOM     66  C   UNL     1       1.822   2.292  19.181  1.00  0.00     0.031 C 
ATOM     67  C   UNL     1      -0.190   0.868  18.932  1.00  0.00     0.031 A 
BRANCH  54  68
ATOM     68  C   UNL     1      -3.277  -2.643  14.892  1.00  0.00    -0.014 A 
ATOM     69  C   UNL     1      -3.174  -4.034  14.731  1.00  0.00     0.009 A 
ATOM     70  C   UNL     1      -4.540  -2.039  14.783  1.00  0.00     0.009 A 
ATOM     71  C   UNL     1      -4.302  -4.797  14.419  1.00  0.00     0.001 A 
ATOM     72  C   UNL     1      -5.671  -2.809  14.502  1.00  0.00     0.001 A 
ATOM     73  C   UNL     1      -5.549  -4.184  14.309  1.00  0.00     0.000 A 
ENDBRANCH  54  68
BRANCH  55  74
ATOM     74  C   UNL     1       4.733   3.150  16.263  1.00  0.00    -0.014 A 
ATOM     75  C   UNL     1       5.785   2.735  17.095  1.00  0.00     0.009 A 
ATOM     76  C   UNL     1       4.815   4.404  15.639  1.00  0.00     0.009 A 
ATOM     77  C   UNL     1       6.883   3.568  17.319  1.00  0.00     0.001 A 
ATOM     78  C   UNL     1       5.927   5.225  15.845  1.00  0.00     0.001 A 
ATOM     79  C   UNL     1       6.955   4.811  16.691  1.00  0.00     0.000 A 
ENDBRANCH  55  74
BRANCH  67  80
ATOM     80  C   UNL     1      -0.507   1.147  20.372  1.00  0.00    -0.014 A 
ATOM     81  C   UNL     1      -0.994   2.398  20.780  1.00  0.00     0.009 A 
ATOM     82  C   UNL     1      -0.351   0.129  21.326  1.00  0.00     0.009 A 
ATOM     83  C   UNL     1      -1.289   2.634  22.124  1.00  0.00     0.001 A 
ATOM     84  C   UNL     1      -0.671   0.361  22.664  1.00  0.00     0.001 A 
ATOM     85  C   UNL     1      -1.131   1.615  23.063  1.00  0.00     0.000 A 
ENDBRANCH  67  80
ENDBRANCH  41  42
ENDBRANCH  33  36
ENDBRANCH  31  32
ENDBRANCH  30  31
ENDBRANCH  29  30
ENDBRANCH   3  29
TORSDOF 15
