REMARK SMILES C[C@@H](CCC(=O)NCCCNC(=O)c1ccc(-c2c3nc(c(-c4ccccc4)c4ccc([nH]4)c(-c4ccccc4)c4nc(c(-c5ccccc5)c5ccc2[nH]5)C=C4)C=C3)cc1)[C@@H]1CC[C@H]2[C@@H]3CC[C@H]4CC(=O)CC[C@@]4(C)[C@H]3CC(=O)[C@@]21C
REMARK SMILES IDX 8 1 7 2 5 3 6 4 4 6 3 7 2 8 1 9 62 10 63 11 81 12 64 13
REMARK SMILES IDX 65 14 79 15 82 16 66 17 78 18 80 19 67 20 77 21 68 22 75 23
REMARK SMILES IDX 69 24 74 25 76 26 70 27 73 28 71 29 72 30 9 31 10 32 11 33
REMARK SMILES IDX 12 34 13 36 14 37 15 38 61 39 16 40 60 41 17 42 18 43 19 44
REMARK SMILES IDX 54 45 20 46 59 47 53 48 55 49 21 50 58 51 52 52 51 53 22 55
REMARK SMILES IDX 44 56 29 57 43 58 30 59 33 60 42 61 56 62 31 63 32 64 41 66
REMARK SMILES IDX 57 67 34 68 23 69 24 70 28 71 25 72 27 73 26 74 45 75 46 76
REMARK SMILES IDX 50 77 47 78 49 79 48 80 35 81 36 82 40 83 37 84 39 85 38 86
REMARK H PARENT 7 5 11 35 55 54 33 65
REMARK Flexibility Score: inf
ROOT
ATOM      1  C   UNL     1      -1.898   2.287   0.234  1.00  0.00     0.117 C 
ENDROOT
BRANCH   1   2
ATOM      2  N   UNL     1      -2.185   1.831   1.578  1.00  0.00    -0.356 N 
ATOM      3  C   UNL     1      -1.352   1.666   2.654  1.00  0.00     0.220 C 
ATOM      4  O   UNL     1      -1.871   1.628   3.774  1.00  0.00    -0.275 OA
ATOM      5  H   UNL     1      -3.128   1.602   1.745  1.00  0.00     0.163 HD
BRANCH   3   6
ATOM      6  C   UNL     1       0.143   1.452   2.499  1.00  0.00     0.100 C 
BRANCH   6   7
ATOM      7  C   UNL     1       0.597  -0.007   2.702  1.00  0.00     0.013 C 
BRANCH   7   8
ATOM      8  C   UNL     1       0.459  -0.998   1.513  1.00  0.00    -0.010 C 
ATOM      9  C   UNL     1       1.310  -0.521   0.327  1.00  0.00     0.008 C 
BRANCH   8  10
ATOM     10  C   UNL     1      -0.986  -1.290   1.067  1.00  0.00     0.005 C 
ATOM     11  C   UNL     1      -1.994  -1.397   2.248  1.00  0.00     0.005 C 
ATOM     12  C   UNL     1      -1.265  -2.564   0.172  1.00  0.00     0.032 C 
ATOM     13  C   UNL     1      -3.076  -2.328   1.774  1.00  0.00     0.005 C 
ATOM     14  C   UNL     1      -2.201  -3.361   1.112  1.00  0.00     0.006 C 
ATOM     15  C   UNL     1      -0.231  -3.624  -0.219  1.00  0.00     0.139 C 
ATOM     16  C   UNL     1      -1.812  -2.138  -1.206  1.00  0.00     0.020 C 
ATOM     17  C   UNL     1      -2.928  -4.549   0.523  1.00  0.00    -0.003 C 
ATOM     18  C   UNL     1      -0.834  -4.838  -0.956  1.00  0.00     0.080 C 
ATOM     19  O   UNL     1       0.970  -3.526  -0.028  1.00  0.00    -0.299 OA
ATOM     20  C   UNL     1      -3.753  -5.228   1.633  1.00  0.00     0.004 C 
ATOM     21  C   UNL     1      -1.885  -5.529  -0.066  1.00  0.00     0.006 C 
ATOM     22  C   UNL     1      -4.225  -6.638   1.333  1.00  0.00     0.005 C 
ATOM     23  C   UNL     1      -2.595  -6.805  -0.628  1.00  0.00    -0.025 C 
ATOM     24  C   UNL     1      -3.176  -7.530   0.618  1.00  0.00     0.002 C 
ATOM     25  C   UNL     1      -3.770  -6.521  -1.584  1.00  0.00     0.015 C 
ATOM     26  C   UNL     1      -1.588  -7.673  -1.400  1.00  0.00     0.012 C 
ATOM     27  C   UNL     1      -3.791  -8.875   0.242  1.00  0.00     0.079 C 
ATOM     28  C   UNL     1      -4.881  -7.588  -1.672  1.00  0.00     0.076 C 
ATOM     29  C   UNL     1      -5.017  -8.595  -0.564  1.00  0.00     0.133 C 
ATOM     30  O   UNL     1      -6.071  -9.194  -0.359  1.00  0.00    -0.300 OA
ENDBRANCH   8  10
ENDBRANCH   7   8
ENDBRANCH   6   7
ENDBRANCH   3   6
ENDBRANCH   1   2
BRANCH   1  31
ATOM     31  C   UNL     1      -2.435   1.478  -0.974  1.00  0.00     0.042 C 
BRANCH  31  32
ATOM     32  C   UNL     1      -3.788   0.699  -0.930  1.00  0.00     0.118 C 
BRANCH  32  33
ATOM     33  N   UNL     1      -4.321   0.546  -2.312  1.00  0.00    -0.352 N 
ATOM     34  C   UNL     1      -4.535  -0.340  -3.344  1.00  0.00     0.251 C 
ATOM     35  H   UNL     1      -4.652   1.426  -2.603  1.00  0.00     0.163 HD
ATOM     36  O   UNL     1      -4.728   0.231  -4.429  1.00  0.00    -0.269 OA
BRANCH  34  37
ATOM     37  C   UNL     1      -4.622  -1.843  -3.415  1.00  0.00     0.039 A 
ATOM     38  C   UNL     1      -4.205  -2.444  -4.627  1.00  0.00     0.014 A 
ATOM     39  C   UNL     1      -5.362  -2.663  -2.569  1.00  0.00     0.014 A 
ATOM     40  C   UNL     1      -4.513  -3.788  -4.994  1.00  0.00     0.010 A 
ATOM     41  C   UNL     1      -5.639  -4.032  -2.931  1.00  0.00     0.010 A 
ATOM     42  C   UNL     1      -5.224  -4.647  -4.149  1.00  0.00    -0.014 A 
BRANCH  42  43
ATOM     43  C   UNL     1      -5.489  -6.144  -4.498  1.00  0.00     0.031 A 
ATOM     44  C   UNL     1      -6.826  -6.822  -4.138  1.00  0.00     0.074 A 
ATOM     45  C   UNL     1      -4.498  -7.001  -4.894  1.00  0.00     0.049 A 
ATOM     46  N   UNL     1      -7.109  -8.104  -4.003  1.00  0.00    -0.248 NA
ATOM     47  C   UNL     1      -7.952  -5.941  -3.807  1.00  0.00     0.031 C 
ATOM     48  C   UNL     1      -3.105  -6.649  -5.184  1.00  0.00     0.029 A 
ATOM     49  N   UNL     1      -4.470  -8.401  -4.934  1.00  0.00    -0.354 N 
ATOM     50  C   UNL     1      -8.411  -8.176  -3.502  1.00  0.00     0.074 A 
ATOM     51  C   UNL     1      -8.838  -6.801  -3.322  1.00  0.00     0.031 C 
ATOM     52  C   UNL     1      -2.352  -7.763  -5.223  1.00  0.00     0.029 A 
ATOM     53  C   UNL     1      -3.187  -8.932  -4.963  1.00  0.00     0.049 A 
ATOM     54  H   UNL     1      -5.283  -8.957  -4.940  1.00  0.00     0.167 HD
ATOM     55  C   UNL     1      -9.205  -9.251  -3.230  1.00  0.00     0.031 A 
ATOM     56  C   UNL     1      -2.688 -10.175  -4.746  1.00  0.00     0.031 A 
ATOM     57  C   UNL     1      -8.848 -10.640  -3.409  1.00  0.00     0.049 A 
ATOM     58  C   UNL     1      -3.570 -11.363  -4.444  1.00  0.00     0.074 A 
ATOM     59  C   UNL     1      -9.675 -11.757  -3.383  1.00  0.00     0.029 A 
ATOM     60  N   UNL     1      -7.564 -11.114  -3.590  1.00  0.00    -0.354 N 
ATOM     61  N   UNL     1      -4.847 -11.400  -4.176  1.00  0.00    -0.248 NA
ATOM     62  C   UNL     1      -2.928 -12.694  -4.455  1.00  0.00     0.031 C 
ATOM     63  C   UNL     1      -8.885 -12.906  -3.506  1.00  0.00     0.029 A 
ATOM     64  C   UNL     1      -7.576 -12.501  -3.680  1.00  0.00     0.049 A 
ATOM     65  H   UNL     1      -6.758 -10.552  -3.646  1.00  0.00     0.167 HD
ATOM     66  C   UNL     1      -5.176 -12.753  -4.082  1.00  0.00     0.074 A 
ATOM     67  C   UNL     1      -3.960 -13.505  -4.276  1.00  0.00     0.031 C 
ATOM     68  C   UNL     1      -6.400 -13.302  -3.896  1.00  0.00     0.031 A 
BRANCH  55  69
ATOM     69  C   UNL     1     -10.616  -8.985  -2.745  1.00  0.00    -0.014 A 
ATOM     70  C   UNL     1     -11.550  -8.336  -3.570  1.00  0.00     0.009 A 
ATOM     71  C   UNL     1     -11.050  -9.474  -1.500  1.00  0.00     0.009 A 
ATOM     72  C   UNL     1     -12.860  -8.120  -3.136  1.00  0.00     0.001 A 
ATOM     73  C   UNL     1     -12.374  -9.297  -1.086  1.00  0.00     0.001 A 
ATOM     74  C   UNL     1     -13.273  -8.605  -1.897  1.00  0.00     0.000 A 
ENDBRANCH  55  69
BRANCH  56  75
ATOM     75  C   UNL     1      -1.215 -10.432  -4.819  1.00  0.00    -0.014 A 
ATOM     76  C   UNL     1      -0.659 -10.989  -5.981  1.00  0.00     0.009 A 
ATOM     77  C   UNL     1      -0.386 -10.251  -3.703  1.00  0.00     0.009 A 
ATOM     78  C   UNL     1       0.685 -11.372  -6.013  1.00  0.00     0.001 A 
ATOM     79  C   UNL     1       0.968 -10.597  -3.748  1.00  0.00     0.001 A 
ATOM     80  C   UNL     1       1.500 -11.168  -4.901  1.00  0.00     0.000 A 
ENDBRANCH  56  75
BRANCH  68  81
ATOM     81  C   UNL     1      -6.548 -14.797  -4.036  1.00  0.00    -0.014 A 
ATOM     82  C   UNL     1      -6.039 -15.707  -3.096  1.00  0.00     0.009 A 
ATOM     83  C   UNL     1      -7.249 -15.306  -5.145  1.00  0.00     0.009 A 
ATOM     84  C   UNL     1      -6.204 -17.086  -3.279  1.00  0.00     0.001 A 
ATOM     85  C   UNL     1      -7.438 -16.681  -5.310  1.00  0.00     0.001 A 
ATOM     86  C   UNL     1      -6.907 -17.571  -4.381  1.00  0.00     0.000 A 
ENDBRANCH  68  81
ENDBRANCH  42  43
ENDBRANCH  34  37
ENDBRANCH  32  33
ENDBRANCH  31  32
ENDBRANCH   1  31
TORSDOF 13
