REMARK SMILES COc1ccc(/C=C2\SC(=S)N(c3cc(C(=O)NCCCNC(=O)c4ccc(-c5c6nc(c(-c7ccccc7)c7ccc([nH]7)c(-c7ccccc7)c7nc(c(-c8ccccc8)c8ccc5[nH]8)C=C7)C=C6)cc4)ccc3C)C2=O)cc1
REMARK SMILES IDX 19 1 18 2 16 3 17 4 15 6 13 7 14 8 75 9 74 10 76 11 73 12
REMARK SMILES IDX 12 13 7 14 8 15 9 16 77 17 10 18 78 19 11 20 6 21 3 22 4 23
REMARK SMILES IDX 80 24 5 25 79 26 2 27 1 28 20 29 21 30 22 31 23 32 24 34
REMARK SMILES IDX 25 35 26 36 72 37 27 38 71 39 28 40 29 41 30 42 65 43 31 44
REMARK SMILES IDX 70 45 64 46 66 47 32 48 69 49 63 50 62 51 33 53 55 54 40 55
REMARK SMILES IDX 54 56 41 57 44 58 53 59 67 60 42 61 43 62 52 64 68 65 45 66
REMARK SMILES IDX 34 67 35 68 39 69 36 70 38 71 37 72 56 73 57 74 61 75 58 76
REMARK SMILES IDX 60 77 59 78 46 79 47 80 51 81 48 82 50 83 49 84
REMARK H PARENT 18 5 22 33 66 52 44 63
REMARK Flexibility Score: inf
ROOT
ATOM      1  C   UNL     1       7.617  -8.379  11.736  1.00  0.00     0.118 C 
ENDROOT
BRANCH   1   2
ATOM      2  N   UNL     1       7.656  -8.487  10.284  1.00  0.00    -0.352 N 
ATOM      3  C   UNL     1       7.316  -7.611   9.280  1.00  0.00     0.251 C 
ATOM      4  O   UNL     1       7.415  -7.996   8.115  1.00  0.00    -0.269 OA
ATOM      5  H   UNL     1       7.991  -9.354   9.959  1.00  0.00     0.163 HD
BRANCH   3   6
ATOM      6  C   UNL     1       6.793  -6.247   9.552  1.00  0.00     0.041 A 
ATOM      7  C   UNL     1       5.346  -4.411   8.866  1.00  0.00     0.054 A 
ATOM      8  C   UNL     1       5.902  -5.678   8.629  1.00  0.00     0.041 A 
ATOM      9  C   UNL     1       5.551  -3.795  10.116  1.00  0.00    -0.027 A 
ATOM     10  C   UNL     1       6.520  -4.318  10.977  1.00  0.00     0.006 A 
ATOM     11  C   UNL     1       4.715  -2.649  10.620  1.00  0.00     0.046 C 
ATOM     12  C   UNL     1       7.195  -5.489  10.650  1.00  0.00     0.014 A 
BRANCH   7  13
ATOM     13  N   UNL     1       4.679  -3.726   7.810  1.00  0.00    -0.261 N 
ATOM     14  C   UNL     1       2.133  -3.711   5.226  1.00  0.00     0.029 C 
ATOM     15  C   UNL     1       3.121  -3.388   6.074  1.00  0.00     0.081 C 
ATOM     16  S   UNL     1       3.977  -1.899   6.132  1.00  0.00    -0.054 SA
ATOM     17  C   UNL     1       3.628  -4.320   7.122  1.00  0.00     0.270 C 
ATOM     18  C   UNL     1       5.101  -2.484   7.345  1.00  0.00     0.152 C 
ATOM     19  O   UNL     1       3.142  -5.429   7.314  1.00  0.00    -0.268 OA
ATOM     20  S   UNL     1       6.484  -1.609   7.705  1.00  0.00    -0.051 S 
BRANCH  14  21
ATOM     21  C   UNL     1       1.640  -2.831   4.160  1.00  0.00    -0.024 A 
ATOM     22  C   UNL     1       0.734  -1.063   2.171  1.00  0.00     0.118 A 
ATOM     23  C   UNL     1      -0.105  -1.440   3.223  1.00  0.00     0.047 A 
ATOM     24  C   UNL     1       2.028  -1.575   2.113  1.00  0.00     0.047 A 
ATOM     25  C   UNL     1       0.339  -2.326   4.209  1.00  0.00     0.012 A 
ATOM     26  C   UNL     1       2.475  -2.462   3.097  1.00  0.00     0.012 A 
BRANCH  22  27
ATOM     27  O   UNL     1       0.191  -0.172   1.287  1.00  0.00    -0.497 OA
ATOM     28  C   UNL     1       0.846  -0.053   0.029  1.00  0.00     0.278 C 
ENDBRANCH  22  27
ENDBRANCH  14  21
ENDBRANCH   7  13
ENDBRANCH   3   6
ENDBRANCH   1   2
BRANCH   1  29
ATOM     29  C   UNL     1       6.756  -9.434  12.409  1.00  0.00     0.042 C 
BRANCH  29  30
ATOM     30  C   UNL     1       7.261 -10.856  12.241  1.00  0.00     0.118 C 
BRANCH  30  31
ATOM     31  N   UNL     1       8.562 -11.078  12.863  1.00  0.00    -0.352 N 
ATOM     32  C   UNL     1       8.907 -11.739  14.018  1.00  0.00     0.251 C 
ATOM     33  H   UNL     1       9.321 -10.687  12.373  1.00  0.00     0.163 HD
ATOM     34  O   UNL     1      10.050 -11.645  14.455  1.00  0.00    -0.269 OA
BRANCH  32  35
ATOM     35  C   UNL     1       7.903 -12.536  14.756  1.00  0.00     0.039 A 
ATOM     36  C   UNL     1       7.874 -12.476  16.153  1.00  0.00     0.014 A 
ATOM     37  C   UNL     1       6.989 -13.341  14.078  1.00  0.00     0.014 A 
ATOM     38  C   UNL     1       6.866 -13.142  16.856  1.00  0.00     0.010 A 
ATOM     39  C   UNL     1       5.923 -13.907  14.765  1.00  0.00     0.010 A 
ATOM     40  C   UNL     1       5.849 -13.816  16.163  1.00  0.00    -0.014 A 
BRANCH  40  41
ATOM     41  C   UNL     1       4.694 -14.436  16.862  1.00  0.00     0.031 A 
ATOM     42  C   UNL     1       4.434 -15.912  16.718  1.00  0.00     0.074 A 
ATOM     43  C   UNL     1       3.825 -13.661  17.541  1.00  0.00     0.049 A 
ATOM     44  N   UNL     1       3.413 -16.615  17.137  1.00  0.00    -0.248 NA
ATOM     45  C   UNL     1       5.437 -16.694  15.977  1.00  0.00     0.031 C 
ATOM     46  C   UNL     1       3.941 -12.212  17.724  1.00  0.00     0.029 A 
ATOM     47  N   UNL     1       2.660 -13.983  18.191  1.00  0.00    -0.354 N 
ATOM     48  C   UNL     1       3.639 -17.910  16.688  1.00  0.00     0.074 A 
ATOM     49  C   UNL     1       4.863 -17.885  15.918  1.00  0.00     0.031 C 
ATOM     50  C   UNL     1       2.905 -11.777  18.460  1.00  0.00     0.029 A 
ATOM     51  C   UNL     1       2.024 -12.902  18.753  1.00  0.00     0.049 A 
ATOM     52  H   UNL     1       2.312 -14.903  18.248  1.00  0.00     0.167 HD
ATOM     53  C   UNL     1       2.905 -19.026  16.911  1.00  0.00     0.031 A 
ATOM     54  C   UNL     1       0.854 -12.821  19.414  1.00  0.00     0.031 A 
ATOM     55  C   UNL     1       1.694 -19.053  17.686  1.00  0.00     0.049 A 
ATOM     56  C   UNL     1       0.043 -14.070  19.625  1.00  0.00     0.074 A 
ATOM     57  C   UNL     1       0.909 -20.142  18.019  1.00  0.00     0.029 A 
ATOM     58  N   UNL     1       1.092 -17.937  18.247  1.00  0.00    -0.354 N 
ATOM     59  N   UNL     1       0.304 -15.298  19.250  1.00  0.00    -0.248 NA
ATOM     60  C   UNL     1      -1.222 -13.921  20.359  1.00  0.00     0.031 C 
ATOM     61  C   UNL     1      -0.201 -19.677  18.730  1.00  0.00     0.029 A 
ATOM     62  C   UNL     1      -0.071 -18.308  18.899  1.00  0.00     0.049 A 
ATOM     63  H   UNL     1       1.440 -17.018  18.189  1.00  0.00     0.167 HD
ATOM     64  C   UNL     1      -0.744 -16.072  19.730  1.00  0.00     0.074 A 
ATOM     65  C   UNL     1      -1.638 -15.177  20.435  1.00  0.00     0.031 C 
ATOM     66  C   UNL     1      -0.947 -17.406  19.602  1.00  0.00     0.031 A 
BRANCH  53  67
ATOM     67  C   UNL     1       3.390 -20.311  16.297  1.00  0.00    -0.014 A 
ATOM     68  C   UNL     1       4.569 -20.934  16.740  1.00  0.00     0.009 A 
ATOM     69  C   UNL     1       2.640 -20.926  15.282  1.00  0.00     0.009 A 
ATOM     70  C   UNL     1       5.006 -22.122  16.152  1.00  0.00     0.001 A 
ATOM     71  C   UNL     1       3.062 -22.132  14.720  1.00  0.00     0.001 A 
ATOM     72  C   UNL     1       4.250 -22.723  15.147  1.00  0.00     0.000 A 
ENDBRANCH  53  67
BRANCH  54  73
ATOM     73  C   UNL     1       0.378 -11.511  19.933  1.00  0.00    -0.014 A 
ATOM     74  C   UNL     1       0.330 -11.266  21.314  1.00  0.00     0.009 A 
ATOM     75  C   UNL     1      -0.042 -10.501  19.052  1.00  0.00     0.009 A 
ATOM     76  C   UNL     1      -0.155 -10.051  21.803  1.00  0.00     0.001 A 
ATOM     77  C   UNL     1      -0.495  -9.274  19.543  1.00  0.00     0.001 A 
ATOM     78  C   UNL     1      -0.563  -9.054  20.917  1.00  0.00     0.000 A 
ENDBRANCH  54  73
BRANCH  66  79
ATOM     79  C   UNL     1      -2.156 -17.992  20.276  1.00  0.00    -0.014 A 
ATOM     80  C   UNL     1      -3.451 -17.762  19.788  1.00  0.00     0.009 A 
ATOM     81  C   UNL     1      -1.986 -18.838  21.384  1.00  0.00     0.009 A 
ATOM     82  C   UNL     1      -4.554 -18.344  20.416  1.00  0.00     0.001 A 
ATOM     83  C   UNL     1      -3.087 -19.445  21.989  1.00  0.00     0.001 A 
ATOM     84  C   UNL     1      -4.370 -19.191  21.510  1.00  0.00     0.000 A 
ENDBRANCH  66  79
ENDBRANCH  40  41
ENDBRANCH  32  35
ENDBRANCH  30  31
ENDBRANCH  29  30
ENDBRANCH   1  29
TORSDOF 13
