REMARK SMILES CC1(C(=O)N2CC[C@H](C(=O)NCCCNC(=O)c3ccc(-c4c5nc(c(-c6ccccc6)c6ccc([nH]6)c(-c6ccccc6)c6nc(c(-c7ccccc7)c7ccc4[nH]7)C=C6)C=C5)cc3)C2)CCCC1
REMARK SMILES IDX 13 1 12 2 11 3 9 4 10 5 8 7 5 8 6 9 66 10 7 11 3 12 4 13
REMARK SMILES IDX 2 14 1 15 67 16 70 17 68 18 69 19 14 20 15 21 16 22 17 24
REMARK SMILES IDX 18 25 19 26 65 27 20 28 64 29 21 30 22 31 23 32 58 33 24 34
REMARK SMILES IDX 63 35 57 36 59 37 25 38 62 39 56 40 55 41 26 43 48 44 33 45
REMARK SMILES IDX 47 46 34 47 37 48 46 49 60 50 35 51 36 52 45 54 61 55 38 56
REMARK SMILES IDX 27 57 28 58 32 59 29 60 31 61 30 62 49 63 50 64 54 65 51 66
REMARK SMILES IDX 53 67 52 68 39 69 40 70 44 71 41 72 43 73 42 74
REMARK H PARENT 11 6 15 23 59 42 37 53
REMARK Flexibility Score: inf
ROOT
ATOM      1  C   UNL     1       0.918  -4.832   0.441  1.00  0.00     0.042 C 
ENDROOT
BRANCH   1   2
ATOM      2  C   UNL     1       1.237  -4.130   1.752  1.00  0.00     0.117 C 
BRANCH   2   3
ATOM      3  N   UNL     1       2.290  -4.785   2.503  1.00  0.00    -0.356 N 
ATOM      4  C   UNL     1       3.525  -4.349   2.870  1.00  0.00     0.224 C 
ATOM      5  O   UNL     1       4.215  -5.126   3.536  1.00  0.00    -0.275 OA
ATOM      6  H   UNL     1       2.074  -5.699   2.797  1.00  0.00     0.163 HD
BRANCH   4   7
ATOM      7  C   UNL     1       4.085  -2.995   2.462  1.00  0.00     0.099 C 
ATOM      8  N   UNL     1       2.894  -1.117   1.634  1.00  0.00    -0.341 N 
ATOM      9  C   UNL     1       3.905  -1.423   0.645  1.00  0.00     0.120 C 
ATOM     10  C   UNL     1       3.232  -1.796   2.881  1.00  0.00     0.133 C 
ATOM     11  C   UNL     1       4.296  -2.857   0.951  1.00  0.00     0.037 C 
BRANCH   8  12
ATOM     12  C   UNL     1       1.933  -0.126   1.631  1.00  0.00     0.228 C 
ATOM     13  O   UNL     1       1.661   0.442   2.694  1.00  0.00    -0.274 OA
BRANCH  12  14
ATOM     14  C   UNL     1       1.022   0.069   0.385  1.00  0.00     0.047 C 
ATOM     15  C   UNL     1       1.738   0.241  -0.958  1.00  0.00     0.022 C 
ATOM     16  C   UNL     1       0.048   1.253   0.596  1.00  0.00     0.016 C 
ATOM     17  C   UNL     1       0.026  -1.105   0.332  1.00  0.00     0.016 C 
ATOM     18  C   UNL     1      -1.188   0.928  -0.241  1.00  0.00     0.001 C 
ATOM     19  C   UNL     1      -1.232  -0.590  -0.356  1.00  0.00     0.001 C 
ENDBRANCH  12  14
ENDBRANCH   8  12
ENDBRANCH   4   7
ENDBRANCH   2   3
ENDBRANCH   1   2
BRANCH   1  20
ATOM     20  C   UNL     1       0.228  -6.174   0.616  1.00  0.00     0.118 C 
BRANCH  20  21
ATOM     21  N   UNL     1      -1.099  -6.046   1.207  1.00  0.00    -0.352 N 
ATOM     22  C   UNL     1      -2.338  -6.319   0.685  1.00  0.00     0.251 C 
ATOM     23  H   UNL     1      -1.107  -5.710   2.132  1.00  0.00     0.163 HD
ATOM     24  O   UNL     1      -3.346  -5.955   1.290  1.00  0.00    -0.269 OA
BRANCH  22  25
ATOM     25  C   UNL     1      -2.475  -7.024  -0.607  1.00  0.00     0.039 A 
ATOM     26  C   UNL     1      -3.472  -6.620  -1.499  1.00  0.00     0.014 A 
ATOM     27  C   UNL     1      -1.635  -8.089  -0.938  1.00  0.00     0.014 A 
ATOM     28  C   UNL     1      -3.574  -7.232  -2.750  1.00  0.00     0.010 A 
ATOM     29  C   UNL     1      -1.669  -8.625  -2.220  1.00  0.00     0.010 A 
ATOM     30  C   UNL     1      -2.644  -8.210  -3.138  1.00  0.00    -0.014 A 
BRANCH  30  31
ATOM     31  C   UNL     1      -2.670  -8.813  -4.494  1.00  0.00     0.031 A 
ATOM     32  C   UNL     1      -2.874 -10.294  -4.660  1.00  0.00     0.074 A 
ATOM     33  C   UNL     1      -2.425  -8.043  -5.571  1.00  0.00     0.049 A 
ATOM     34  N   UNL     1      -2.849 -11.014  -5.753  1.00  0.00    -0.248 NA
ATOM     35  C   UNL     1      -3.102 -11.074  -3.433  1.00  0.00     0.031 C 
ATOM     36  C   UNL     1      -2.156  -6.603  -5.540  1.00  0.00     0.029 A 
ATOM     37  N   UNL     1      -2.348  -8.367  -6.902  1.00  0.00    -0.354 N 
ATOM     38  C   UNL     1      -3.036 -12.328  -5.343  1.00  0.00     0.074 A 
ATOM     39  C   UNL     1      -3.110 -12.313  -3.898  1.00  0.00     0.031 C 
ATOM     40  C   UNL     1      -1.965  -6.166  -6.795  1.00  0.00     0.029 A 
ATOM     41  C   UNL     1      -2.053  -7.298  -7.712  1.00  0.00     0.049 A 
ATOM     42  H   UNL     1      -2.490  -9.280  -7.243  1.00  0.00     0.167 HD
ATOM     43  C   UNL     1      -3.157 -13.446  -6.098  1.00  0.00     0.031 A 
ATOM     44  C   UNL     1      -1.861  -7.234  -9.043  1.00  0.00     0.031 A 
ATOM     45  C   UNL     1      -3.084 -13.459  -7.535  1.00  0.00     0.049 A 
ATOM     46  C   UNL     1      -1.994  -8.486  -9.864  1.00  0.00     0.074 A 
ATOM     47  C   UNL     1      -3.256 -14.527  -8.398  1.00  0.00     0.029 A 
ATOM     48  N   UNL     1      -2.808 -12.350  -8.320  1.00  0.00    -0.354 N 
ATOM     49  N   UNL     1      -2.252  -9.709  -9.468  1.00  0.00    -0.248 NA
ATOM     50  C   UNL     1      -1.823  -8.344 -11.316  1.00  0.00     0.031 C 
ATOM     51  C   UNL     1      -3.023 -14.076  -9.701  1.00  0.00     0.029 A 
ATOM     52  C   UNL     1      -2.773 -12.713  -9.656  1.00  0.00     0.049 A 
ATOM     53  H   UNL     1      -2.658 -11.439  -7.979  1.00  0.00     0.167 HD
ATOM     54  C   UNL     1      -2.298 -10.479 -10.623  1.00  0.00     0.074 A 
ATOM     55  C   UNL     1      -2.059  -9.580 -11.734  1.00  0.00     0.031 C 
ATOM     56  C   UNL     1      -2.522 -11.810 -10.751  1.00  0.00     0.031 A 
BRANCH  43  57
ATOM     57  C   UNL     1      -3.364 -14.748  -5.370  1.00  0.00    -0.014 A 
ATOM     58  C   UNL     1      -4.544 -15.006  -4.652  1.00  0.00     0.009 A 
ATOM     59  C   UNL     1      -2.365 -15.733  -5.404  1.00  0.00     0.009 A 
ATOM     60  C   UNL     1      -4.694 -16.197  -3.938  1.00  0.00     0.001 A 
ATOM     61  C   UNL     1      -2.533 -16.938  -4.720  1.00  0.00     0.001 A 
ATOM     62  C   UNL     1      -3.690 -17.163  -3.975  1.00  0.00     0.000 A 
ENDBRANCH  43  57
BRANCH  44  63
ATOM     63  C   UNL     1      -1.530  -5.931  -9.676  1.00  0.00    -0.014 A 
ATOM     64  C   UNL     1      -2.470  -5.264 -10.476  1.00  0.00     0.009 A 
ATOM     65  C   UNL     1      -0.277  -5.334  -9.460  1.00  0.00     0.009 A 
ATOM     66  C   UNL     1      -2.155  -4.036 -11.062  1.00  0.00     0.001 A 
ATOM     67  C   UNL     1       0.024  -4.093 -10.024  1.00  0.00     0.001 A 
ATOM     68  C   UNL     1      -0.912  -3.448 -10.830  1.00  0.00     0.000 A 
ENDBRANCH  44  63
BRANCH  56  69
ATOM     69  C   UNL     1      -2.545 -12.373 -12.145  1.00  0.00    -0.014 A 
ATOM     70  C   UNL     1      -1.372 -12.492 -12.907  1.00  0.00     0.009 A 
ATOM     71  C   UNL     1      -3.757 -12.829 -12.688  1.00  0.00     0.009 A 
ATOM     72  C   UNL     1      -1.419 -13.026 -14.196  1.00  0.00     0.001 A 
ATOM     73  C   UNL     1      -3.795 -13.392 -13.964  1.00  0.00     0.001 A 
ATOM     74  C   UNL     1      -2.628 -13.481 -14.721  1.00  0.00     0.000 A 
ENDBRANCH  56  69
ENDBRANCH  30  31
ENDBRANCH  22  25
ENDBRANCH  20  21
ENDBRANCH   1  20
TORSDOF 12
