REMARK SMILES Cc1cc(C)n(C)c(=O)c1C(=O)N1CCC2(CC1)C[NH2+][C@@H](C(=O)NCCCNC(=O)c1ccc(-c3c4nc(c(-c5ccccc5)c5ccc([nH]5)c(-c5ccccc5)c5nc(c(-c6ccccc6)c6ccc3[nH]6)C=C5)C=C4)cc1)C2
REMARK SMILES IDX 26 1 25 2 24 3 22 4 23 5 21 7 11 8 12 9 13 10 14 11 18 12
REMARK SMILES IDX 15 13 17 14 16 15 19 16 79 17 20 18 10 21 1 22 2 23 3 24
REMARK SMILES IDX 4 25 8 26 5 27 6 28 9 29 7 30 27 31 28 32 29 33 30 35 31 36
REMARK SMILES IDX 32 37 78 38 33 39 77 40 34 41 35 42 36 43 71 44 37 45 76 46
REMARK SMILES IDX 70 47 72 48 38 49 75 50 69 51 68 52 39 54 61 55 46 56 60 57
REMARK SMILES IDX 47 58 50 59 59 60 73 61 48 62 49 63 58 65 74 66 51 67 40 68
REMARK SMILES IDX 41 69 45 70 42 71 44 72 43 73 62 74 63 75 67 76 64 77 66 78
REMARK SMILES IDX 65 79 52 80 53 81 57 82 54 83 56 84 55 85
REMARK H PARENT 24 6 20 19 20 20 28 34 72 53 50 64
REMARK Flexibility Score: inf
ROOT
ATOM      1  C   UNL     1      -1.681   4.188  -4.181  1.00  0.00     0.042 C 
ENDROOT
BRANCH   1   2
ATOM      2  C   UNL     1      -0.214   4.497  -4.442  1.00  0.00     0.118 C 
BRANCH   2   3
ATOM      3  N   UNL     1       0.128   5.866  -4.097  1.00  0.00    -0.351 N 
ATOM      4  C   UNL     1       0.936   6.349  -3.110  1.00  0.00     0.278 C 
ATOM      5  O   UNL     1       1.075   7.573  -3.028  1.00  0.00    -0.268 OA
ATOM      6  H   UNL     1      -0.289   6.554  -4.664  1.00  0.00     0.163 HD
BRANCH   4   7
ATOM      7  C   UNL     1       1.624   5.418  -2.106  1.00  0.00     0.273 C 
ATOM      8  C   UNL     1       0.079   0.964   2.420  1.00  0.00     0.259 C 
ATOM      9  O   UNL     1       0.256   1.351   3.580  1.00  0.00    -0.269 OA
ATOM     10  N   UNL     1       0.088   1.881   1.376  1.00  0.00    -0.338 N 
ATOM     11  C   UNL     1       0.716   3.169   1.633  1.00  0.00     0.120 C 
ATOM     12  C   UNL     1      -0.584   1.787   0.083  1.00  0.00     0.120 C 
ATOM     13  C   UNL     1       1.835   3.366   0.623  1.00  0.00     0.034 C 
ATOM     14  C   UNL     1       0.322   2.195  -1.096  1.00  0.00     0.034 C 
ATOM     15  C   UNL     1       1.314   3.367  -0.829  1.00  0.00     0.029 C 
ATOM     16  C   UNL     1       2.535   3.295  -1.780  1.00  0.00     0.268 C 
ATOM     17  C   UNL     1       0.658   4.728  -1.152  1.00  0.00     0.088 C 
ATOM     18  N   UNL     1       2.335   4.325  -2.785  1.00  0.00    -0.336 N 
ATOM     19  H   UNL     1       1.775   3.963  -3.557  1.00  0.00     0.346 HD
ATOM     20  H   UNL     1       3.221   4.642  -3.179  1.00  0.00     0.346 HD
BRANCH   8  21
ATOM     21  C   UNL     1       0.008  -0.519   2.181  1.00  0.00     0.108 A 
ATOM     22  C   UNL     1       1.663  -0.583   0.224  1.00  0.00     0.045 C 
ATOM     23  C   UNL     1       0.735  -1.168   1.243  1.00  0.00    -0.031 A 
ATOM     24  C   UNL     1       0.800  -2.616   1.232  1.00  0.00     0.026 A 
ATOM     25  C   UNL     1       0.418  -3.345   2.288  1.00  0.00     0.018 A 
ATOM     26  C   UNL     1      -0.621  -1.365   3.272  1.00  0.00     0.263 A 
ATOM     27  C   UNL     1       0.686  -4.825   2.279  1.00  0.00     0.064 C 
ATOM     28  N   UNL     1      -0.223  -2.714   3.346  1.00  0.00    -0.315 N 
ATOM     29  O   UNL     1      -1.430  -0.877   4.061  1.00  0.00    -0.268 OA
ATOM     30  C   UNL     1      -0.546  -3.448   4.562  1.00  0.00     0.153 C 
ENDBRANCH   8  21
ENDBRANCH   4   7
ENDBRANCH   2   3
ENDBRANCH   1   2
BRANCH   1  31
ATOM     31  C   UNL     1      -2.633   5.018  -5.026  1.00  0.00     0.118 C 
BRANCH  31  32
ATOM     32  N   UNL     1      -2.488   4.745  -6.449  1.00  0.00    -0.352 N 
ATOM     33  C   UNL     1      -3.381   4.198  -7.333  1.00  0.00     0.251 C 
ATOM     34  H   UNL     1      -1.617   4.992  -6.835  1.00  0.00     0.163 HD
ATOM     35  O   UNL     1      -3.002   3.849  -8.450  1.00  0.00    -0.269 OA
BRANCH  33  36
ATOM     36  C   UNL     1      -4.791   4.008  -6.941  1.00  0.00     0.039 A 
ATOM     37  C   UNL     1      -5.439   2.825  -7.304  1.00  0.00     0.014 A 
ATOM     38  C   UNL     1      -5.478   4.996  -6.231  1.00  0.00     0.014 A 
ATOM     39  C   UNL     1      -6.758   2.611  -6.906  1.00  0.00     0.010 A 
ATOM     40  C   UNL     1      -6.759   4.743  -5.756  1.00  0.00     0.010 A 
ATOM     41  C   UNL     1      -7.417   3.555  -6.102  1.00  0.00    -0.014 A 
BRANCH  41  42
ATOM     42  C   UNL     1      -8.803   3.323  -5.632  1.00  0.00     0.031 A 
ATOM     43  C   UNL     1      -9.914   4.227  -6.082  1.00  0.00     0.074 A 
ATOM     44  C   UNL     1      -9.051   2.328  -4.760  1.00  0.00     0.049 A 
ATOM     45  N   UNL     1     -11.184   4.192  -5.767  1.00  0.00    -0.248 NA
ATOM     46  C   UNL     1      -9.550   5.330  -6.987  1.00  0.00     0.031 C 
ATOM     47  C   UNL     1      -8.049   1.408  -4.219  1.00  0.00     0.029 A 
ATOM     48  N   UNL     1     -10.226   1.924  -4.177  1.00  0.00    -0.354 N 
ATOM     49  C   UNL     1     -11.763   5.271  -6.421  1.00  0.00     0.074 A 
ATOM     50  C   UNL     1     -10.700   5.975  -7.102  1.00  0.00     0.031 C 
ATOM     51  C   UNL     1      -8.657   0.525  -3.413  1.00  0.00     0.029 A 
ATOM     52  C   UNL     1     -10.081   0.841  -3.346  1.00  0.00     0.049 A 
ATOM     53  H   UNL     1     -11.089   2.368  -4.339  1.00  0.00     0.167 HD
ATOM     54  C   UNL     1     -13.067   5.631  -6.468  1.00  0.00     0.031 A 
ATOM     55  C   UNL     1     -10.991   0.174  -2.610  1.00  0.00     0.031 A 
ATOM     56  C   UNL     1     -14.121   4.926  -5.790  1.00  0.00     0.049 A 
ATOM     57  C   UNL     1     -12.429   0.602  -2.657  1.00  0.00     0.074 A 
ATOM     58  C   UNL     1     -15.482   5.172  -5.827  1.00  0.00     0.029 A 
ATOM     59  N   UNL     1     -13.931   3.843  -4.945  1.00  0.00    -0.354 N 
ATOM     60  N   UNL     1     -12.976   1.576  -3.343  1.00  0.00    -0.248 NA
ATOM     61  C   UNL     1     -13.377  -0.165  -1.837  1.00  0.00     0.031 C 
ATOM     62  C   UNL     1     -16.108   4.283  -4.949  1.00  0.00     0.029 A 
ATOM     63  C   UNL     1     -15.146   3.436  -4.420  1.00  0.00     0.049 A 
ATOM     64  H   UNL     1     -13.062   3.425  -4.748  1.00  0.00     0.167 HD
ATOM     65  C   UNL     1     -14.333   1.533  -3.051  1.00  0.00     0.074 A 
ATOM     66  C   UNL     1     -14.528   0.423  -2.139  1.00  0.00     0.031 C 
ATOM     67  C   UNL     1     -15.325   2.341  -3.499  1.00  0.00     0.031 A 
BRANCH  54  68
ATOM     68  C   UNL     1     -13.418   6.855  -7.268  1.00  0.00    -0.014 A 
ATOM     69  C   UNL     1     -13.303   6.872  -8.668  1.00  0.00     0.009 A 
ATOM     70  C   UNL     1     -13.898   8.001  -6.614  1.00  0.00     0.009 A 
ATOM     71  C   UNL     1     -13.620   8.025  -9.391  1.00  0.00     0.001 A 
ATOM     72  C   UNL     1     -14.246   9.140  -7.343  1.00  0.00     0.001 A 
ATOM     73  C   UNL     1     -14.096   9.155  -8.728  1.00  0.00     0.000 A 
ENDBRANCH  54  68
BRANCH  55  74
ATOM     74  C   UNL     1     -10.550  -0.988  -1.796  1.00  0.00    -0.014 A 
ATOM     75  C   UNL     1     -10.861  -2.295  -2.198  1.00  0.00     0.009 A 
ATOM     76  C   UNL     1      -9.752  -0.799  -0.656  1.00  0.00     0.009 A 
ATOM     77  C   UNL     1     -10.379  -3.390  -1.476  1.00  0.00     0.001 A 
ATOM     78  C   UNL     1      -9.250  -1.896   0.048  1.00  0.00     0.001 A 
ATOM     79  C   UNL     1      -9.566  -3.190  -0.362  1.00  0.00     0.000 A 
ENDBRANCH  55  74
BRANCH  67  80
ATOM     80  C   UNL     1     -16.721   2.064  -3.015  1.00  0.00    -0.014 A 
ATOM     81  C   UNL     1     -17.102   2.354  -1.696  1.00  0.00     0.009 A 
ATOM     82  C   UNL     1     -17.691   1.591  -3.914  1.00  0.00     0.009 A 
ATOM     83  C   UNL     1     -18.422   2.158  -1.283  1.00  0.00     0.001 A 
ATOM     84  C   UNL     1     -19.015   1.425  -3.507  1.00  0.00     0.001 A 
ATOM     85  C   UNL     1     -19.378   1.703  -2.190  1.00  0.00     0.000 A 
ENDBRANCH  67  80
ENDBRANCH  41  42
ENDBRANCH  33  36
ENDBRANCH  31  32
ENDBRANCH   1  31
TORSDOF 11
