REMARK SMILES C=CCn1nc(C(=O)NCCCNC(=O)c2ccc(-c3c4nc(c(-c5ccccc5)c5ccc([nH]5)c(-c5ccccc5)c5nc(c(-c6ccccc6)c6ccc3[nH]6)C=C5)C=C4)cc2)c2c1CC[C@@H]([NH2+]Cc1nc(C)cc(=O)[nH]1)C2
REMARK SMILES IDX 10 1 9 2 7 3 8 4 6 6 4 7 5 8 65 9 64 10 66 11 79 12 67 13
REMARK SMILES IDX 68 14 3 15 2 16 1 17 69 18 70 21 71 22 72 23 78 24 73 25
REMARK SMILES IDX 76 26 74 28 75 29 77 30 11 31 12 32 13 33 14 34 15 36 16 37
REMARK SMILES IDX 17 38 63 39 18 40 62 41 19 42 20 43 21 44 56 45 22 46 61 47
REMARK SMILES IDX 55 48 57 49 23 50 60 51 54 52 53 53 24 55 46 56 31 57 45 58
REMARK SMILES IDX 32 59 35 60 44 61 58 62 33 63 34 64 43 66 59 67 36 68 25 69
REMARK SMILES IDX 26 70 30 71 27 72 29 73 28 74 47 75 48 76 52 77 49 78 51 79
REMARK SMILES IDX 50 80 37 81 38 82 42 83 39 84 41 85 40 86
REMARK H PARENT 9 5 69 19 69 20 78 27 13 35 57 54 35 65
REMARK Flexibility Score: inf
ROOT
ATOM      1  C   UNL     1      -4.042  -1.140  -6.728  1.00  0.00     0.118 C 
ENDROOT
BRANCH   1   2
ATOM      2  N   UNL     1      -3.316  -2.248  -6.131  1.00  0.00    -0.351 N 
ATOM      3  C   UNL     1      -2.703  -2.467  -4.914  1.00  0.00     0.272 C 
ATOM      4  O   UNL     1      -2.337  -3.641  -4.760  1.00  0.00    -0.267 OA
ATOM      5  H   UNL     1      -3.244  -3.022  -6.735  1.00  0.00     0.163 HD
BRANCH   3   6
ATOM      6  C   UNL     1      -2.466  -1.440  -3.856  1.00  0.00     0.153 A 
ATOM      7  N   UNL     1      -1.826  -0.785  -1.897  1.00  0.00    -0.265 N 
ATOM      8  N   UNL     1      -2.144  -1.878  -2.614  1.00  0.00    -0.167 NA
ATOM      9  C   UNL     1      -2.006   0.369  -2.591  1.00  0.00     0.043 A 
ATOM     10  C   UNL     1      -2.406  -0.009  -3.850  1.00  0.00     0.012 A 
ATOM     11  C   UNL     1      -1.693   1.754  -2.142  1.00  0.00     0.062 C 
ATOM     12  C   UNL     1      -2.578   1.001  -4.904  1.00  0.00     0.105 C 
ATOM     13  C   UNL     1      -2.281   2.776  -3.131  1.00  0.00     0.072 C 
ATOM     14  C   UNL     1      -2.048   2.419  -4.612  1.00  0.00     0.187 C 
BRANCH   7  15
ATOM     15  C   UNL     1      -1.278  -0.934  -0.554  1.00  0.00     0.171 C 
BRANCH  15  16
ATOM     16  C   UNL     1       0.226  -0.898  -0.564  1.00  0.00    -0.011 C 
ATOM     17  C   UNL     1       0.975   0.039   0.034  1.00  0.00     0.006 C 
ENDBRANCH  15  16
ENDBRANCH   7  15
BRANCH  14  18
ATOM     18  N   UNL     1      -0.631   2.580  -5.008  1.00  0.00    -0.337 N 
ATOM     19  H   UNL     1      -0.100   1.779  -4.666  1.00  0.00     0.346 HD
ATOM     20  H   UNL     1      -0.286   3.450  -4.604  1.00  0.00     0.346 HD
BRANCH  18  21
ATOM     21  C   UNL     1      -0.476   2.663  -6.477  1.00  0.00     0.337 C 
BRANCH  21  22
ATOM     22  C   UNL     1       1.004   2.557  -6.812  1.00  0.00     0.164 A 
ATOM     23  N   UNL     1       1.584   1.398  -6.870  1.00  0.00    -0.234 NA
ATOM     24  N   UNL     1       1.654   3.739  -7.021  1.00  0.00    -0.306 N 
ATOM     25  C   UNL     1       2.932   1.383  -7.145  1.00  0.00     0.045 A 
ATOM     26  C   UNL     1       2.981   3.789  -7.313  1.00  0.00     0.251 A 
ATOM     27  H   UNL     1       1.147   4.580  -6.957  1.00  0.00     0.171 HD
ATOM     28  C   UNL     1       3.590   0.033  -7.168  1.00  0.00     0.067 C 
ATOM     29  C   UNL     1       3.659   2.487  -7.369  1.00  0.00     0.095 A 
ATOM     30  O   UNL     1       3.581   4.837  -7.518  1.00  0.00    -0.270 OA
ENDBRANCH  21  22
ENDBRANCH  18  21
ENDBRANCH  14  18
ENDBRANCH   3   6
ENDBRANCH   1   2
BRANCH   1  31
ATOM     31  C   UNL     1      -3.127  -0.205  -7.529  1.00  0.00     0.042 C 
BRANCH  31  32
ATOM     32  C   UNL     1      -3.249  -0.255  -9.024  1.00  0.00     0.118 C 
BRANCH  32  33
ATOM     33  N   UNL     1      -4.429   0.458  -9.522  1.00  0.00    -0.352 N 
ATOM     34  C   UNL     1      -4.838   0.573 -10.847  1.00  0.00     0.251 C 
ATOM     35  H   UNL     1      -4.991   0.903  -8.848  1.00  0.00     0.163 HD
ATOM     36  O   UNL     1      -5.557   1.478 -11.217  1.00  0.00    -0.269 OA
BRANCH  34  37
ATOM     37  C   UNL     1      -4.341  -0.451 -11.784  1.00  0.00     0.039 A 
ATOM     38  C   UNL     1      -3.852  -0.142 -13.052  1.00  0.00     0.014 A 
ATOM     39  C   UNL     1      -4.218  -1.729 -11.263  1.00  0.00     0.014 A 
ATOM     40  C   UNL     1      -3.134  -1.125 -13.732  1.00  0.00     0.010 A 
ATOM     41  C   UNL     1      -3.250  -2.538 -11.774  1.00  0.00     0.010 A 
ATOM     42  C   UNL     1      -2.800  -2.314 -13.060  1.00  0.00    -0.014 A 
BRANCH  42  43
ATOM     43  C   UNL     1      -1.926  -3.326 -13.636  1.00  0.00     0.031 A 
ATOM     44  C   UNL     1      -0.664  -2.794 -14.191  1.00  0.00     0.074 A 
ATOM     45  C   UNL     1      -2.137  -4.657 -13.510  1.00  0.00     0.049 A 
ATOM     46  N   UNL     1      -0.417  -2.534 -15.430  1.00  0.00    -0.248 NA
ATOM     47  C   UNL     1       0.379  -2.336 -13.261  1.00  0.00     0.031 C 
ATOM     48  C   UNL     1      -3.141  -5.351 -12.684  1.00  0.00     0.029 A 
ATOM     49  N   UNL     1      -1.423  -5.694 -14.030  1.00  0.00    -0.354 N 
ATOM     50  C   UNL     1       0.915  -2.143 -15.463  1.00  0.00     0.074 A 
ATOM     51  C   UNL     1       1.268  -1.808 -14.107  1.00  0.00     0.031 C 
ATOM     52  C   UNL     1      -2.823  -6.657 -12.569  1.00  0.00     0.029 A 
ATOM     53  C   UNL     1      -1.743  -6.934 -13.492  1.00  0.00     0.049 A 
ATOM     54  H   UNL     1      -0.739  -5.574 -14.727  1.00  0.00     0.167 HD
ATOM     55  C   UNL     1       1.696  -2.474 -16.530  1.00  0.00     0.031 A 
ATOM     56  C   UNL     1      -1.196  -8.128 -13.812  1.00  0.00     0.031 A 
ATOM     57  C   UNL     1       0.896  -3.025 -17.599  1.00  0.00     0.049 A 
ATOM     58  C   UNL     1      -0.621  -7.998 -15.164  1.00  0.00     0.074 A 
ATOM     59  C   UNL     1       0.025  -2.556 -18.556  1.00  0.00     0.029 A 
ATOM     60  N   UNL     1       0.674  -4.372 -17.467  1.00  0.00    -0.354 N 
ATOM     61  N   UNL     1      -1.347  -7.796 -16.227  1.00  0.00    -0.248 NA
ATOM     62  C   UNL     1       0.804  -7.735 -15.318  1.00  0.00     0.031 C 
ATOM     63  C   UNL     1      -0.848  -3.644 -18.865  1.00  0.00     0.029 A 
ATOM     64  C   UNL     1      -0.460  -4.761 -18.127  1.00  0.00     0.049 A 
ATOM     65  H   UNL     1       1.258  -4.983 -16.961  1.00  0.00     0.167 HD
ATOM     66  C   UNL     1      -0.566  -6.977 -17.018  1.00  0.00     0.074 A 
ATOM     67  C   UNL     1       0.791  -7.129 -16.508  1.00  0.00     0.031 C 
ATOM     68  C   UNL     1      -1.127  -6.002 -17.790  1.00  0.00     0.031 A 
BRANCH  55  69
ATOM     69  C   UNL     1       3.167  -2.822 -16.436  1.00  0.00    -0.014 A 
ATOM     70  C   UNL     1       3.844  -3.158 -17.624  1.00  0.00     0.009 A 
ATOM     71  C   UNL     1       3.831  -3.117 -15.232  1.00  0.00     0.009 A 
ATOM     72  C   UNL     1       5.083  -3.810 -17.603  1.00  0.00     0.001 A 
ATOM     73  C   UNL     1       5.084  -3.738 -15.206  1.00  0.00     0.001 A 
ATOM     74  C   UNL     1       5.699  -4.107 -16.393  1.00  0.00     0.000 A 
ENDBRANCH  55  69
BRANCH  56  75
ATOM     75  C   UNL     1      -0.991  -9.325 -12.980  1.00  0.00    -0.014 A 
ATOM     76  C   UNL     1      -0.834 -10.588 -13.570  1.00  0.00     0.009 A 
ATOM     77  C   UNL     1      -0.643  -9.177 -11.626  1.00  0.00     0.009 A 
ATOM     78  C   UNL     1      -0.284 -11.652 -12.845  1.00  0.00     0.001 A 
ATOM     79  C   UNL     1      -0.092 -10.240 -10.903  1.00  0.00     0.001 A 
ATOM     80  C   UNL     1       0.106 -11.472 -11.520  1.00  0.00     0.000 A 
ENDBRANCH  56  75
BRANCH  68  81
ATOM     81  C   UNL     1      -2.574  -6.157 -18.163  1.00  0.00    -0.014 A 
ATOM     82  C   UNL     1      -3.631  -6.113 -17.240  1.00  0.00     0.009 A 
ATOM     83  C   UNL     1      -2.880  -6.289 -19.526  1.00  0.00     0.009 A 
ATOM     84  C   UNL     1      -4.958  -6.223 -17.673  1.00  0.00     0.001 A 
ATOM     85  C   UNL     1      -4.203  -6.379 -19.959  1.00  0.00     0.001 A 
ATOM     86  C   UNL     1      -5.242  -6.353 -19.032  1.00  0.00     0.000 A 
ENDBRANCH  68  81
ENDBRANCH  42  43
ENDBRANCH  34  37
ENDBRANCH  32  33
ENDBRANCH  31  32
ENDBRANCH   1  31
TORSDOF 15
