REMARK SMILES CC(=O)Nc1ccc(/C(=C\c2ccc(S(C)(=O)=O)cc2)C(=O)NCCCNC(=O)c2ccc(-c3c4nc(c(-c5ccccc5)c5ccc([nH]5)c(-c5ccccc5)c5nc(c(-c6ccccc6)c6ccc3[nH]6)C=C5)C=C4)cc2)cc1
REMARK SMILES IDX 25 1 24 2 23 3 21 4 22 5 9 7 10 8 8 9 5 10 6 11 79 12 7 13
REMARK SMILES IDX 78 14 4 15 1 16 2 17 3 18 11 20 12 21 20 22 13 23 19 24
REMARK SMILES IDX 14 25 15 26 16 27 17 28 18 29 26 30 27 31 28 32 29 34 30 35
REMARK SMILES IDX 31 36 77 37 32 38 76 39 33 40 34 41 35 42 70 43 36 44 75 45
REMARK SMILES IDX 69 46 71 47 37 48 74 49 68 50 67 51 38 53 60 54 45 55 59 56
REMARK SMILES IDX 46 57 49 58 58 59 72 60 47 61 48 62 57 64 73 65 50 66 39 67
REMARK SMILES IDX 40 68 44 69 41 70 43 71 42 72 61 73 62 74 66 75 63 76 65 77
REMARK SMILES IDX 64 78 51 79 52 80 56 81 53 82 55 83 54 84
REMARK H PARENT 23 6 4 19 27 33 71 52 49 63
REMARK Flexibility Score: inf
ROOT
ATOM      1  C   UNL     1       6.163  -7.751   3.478  1.00  0.00     0.042 C 
ENDROOT
BRANCH   1   2
ATOM      2  C   UNL     1       6.552  -6.388   4.053  1.00  0.00     0.118 C 
BRANCH   2   3
ATOM      3  N   UNL     1       6.452  -5.361   3.035  1.00  0.00    -0.352 N 
ATOM      4  C   UNL     1       5.535  -4.425   2.681  1.00  0.00     0.251 C 
ATOM      5  O   UNL     1       5.859  -3.791   1.674  1.00  0.00    -0.269 OA
ATOM      6  H   UNL     1       7.248  -5.335   2.457  1.00  0.00     0.163 HD
BRANCH   4   7
ATOM      7  C   UNL     1       4.251  -4.119   3.452  1.00  0.00     0.047 C 
ATOM      8  C   UNL     1       3.662  -5.141   4.118  1.00  0.00     0.022 C 
BRANCH   7   9
ATOM      9  C   UNL     1       3.574  -2.774   3.284  1.00  0.00    -0.013 A 
ATOM     10  C   UNL     1       1.923  -0.513   2.688  1.00  0.00     0.041 A 
ATOM     11  C   UNL     1       1.921  -1.085   3.959  1.00  0.00     0.027 A 
ATOM     12  C   UNL     1       2.872  -0.957   1.784  1.00  0.00     0.027 A 
ATOM     13  C   UNL     1       2.760  -2.176   4.260  1.00  0.00     0.011 A 
ATOM     14  C   UNL     1       3.654  -2.082   2.066  1.00  0.00     0.011 A 
BRANCH  10  15
ATOM     15  N   UNL     1       0.972   0.480   2.403  1.00  0.00    -0.326 N 
ATOM     16  C   UNL     1       0.859   0.334  -0.097  1.00  0.00     0.114 C 
ATOM     17  C   UNL     1       0.497   0.972   1.218  1.00  0.00     0.221 C 
ATOM     18  O   UNL     1      -0.283   1.928   1.247  1.00  0.00    -0.275 OA
ATOM     19  H   UNL     1       0.575   0.899   3.200  1.00  0.00     0.169 HD
ENDBRANCH  10  15
ENDBRANCH   7   9
BRANCH   8  20
ATOM     20  C   UNL     1       2.502  -5.133   5.021  1.00  0.00    -0.025 A 
ATOM     21  C   UNL     1       2.744  -5.193   6.404  1.00  0.00     0.009 A 
ATOM     22  C   UNL     1       1.191  -5.004   4.551  1.00  0.00     0.009 A 
ATOM     23  C   UNL     1       1.694  -5.059   7.312  1.00  0.00     0.021 A 
ATOM     24  C   UNL     1       0.135  -4.866   5.458  1.00  0.00     0.021 A 
ATOM     25  C   UNL     1       0.394  -4.883   6.832  1.00  0.00     0.067 A 
BRANCH  25  26
ATOM     26  S   UNL     1      -0.914  -4.550   7.991  1.00  0.00     0.175 S 
ATOM     27  C   UNL     1      -1.289  -6.137   8.681  1.00  0.00     0.163 C 
ATOM     28  O   UNL     1      -0.350  -3.720   9.038  1.00  0.00    -0.224 OA
ATOM     29  O   UNL     1      -2.068  -4.107   7.232  1.00  0.00    -0.224 OA
ENDBRANCH  25  26
ENDBRANCH   8  20
ENDBRANCH   4   7
ENDBRANCH   2   3
ENDBRANCH   1   2
BRANCH   1  30
ATOM     30  C   UNL     1       7.175  -8.292   2.468  1.00  0.00     0.118 C 
BRANCH  30  31
ATOM     31  N   UNL     1       8.436  -8.653   3.101  1.00  0.00    -0.352 N 
ATOM     32  C   UNL     1       9.036  -9.882   3.212  1.00  0.00     0.251 C 
ATOM     33  H   UNL     1       8.931  -7.905   3.510  1.00  0.00     0.163 HD
ATOM     34  O   UNL     1       9.968 -10.045   3.992  1.00  0.00    -0.269 OA
BRANCH  32  35
ATOM     35  C   UNL     1       8.555 -11.011   2.391  1.00  0.00     0.039 A 
ATOM     36  C   UNL     1       8.396 -12.270   2.979  1.00  0.00     0.014 A 
ATOM     37  C   UNL     1       8.287 -10.829   1.032  1.00  0.00     0.014 A 
ATOM     38  C   UNL     1       7.909 -13.334   2.216  1.00  0.00     0.010 A 
ATOM     39  C   UNL     1       7.735 -11.869   0.294  1.00  0.00     0.010 A 
ATOM     40  C   UNL     1       7.547 -13.133   0.876  1.00  0.00    -0.014 A 
BRANCH  40  41
ATOM     41  C   UNL     1       6.996 -14.222   0.032  1.00  0.00     0.031 A 
ATOM     42  C   UNL     1       7.758 -14.667  -1.186  1.00  0.00     0.074 A 
ATOM     43  C   UNL     1       5.774 -14.725   0.289  1.00  0.00     0.049 A 
ATOM     44  N   UNL     1       7.376 -15.450  -2.162  1.00  0.00    -0.248 NA
ATOM     45  C   UNL     1       9.120 -14.129  -1.343  1.00  0.00     0.031 C 
ATOM     46  C   UNL     1       4.930 -14.367   1.431  1.00  0.00     0.029 A 
ATOM     47  N   UNL     1       5.017 -15.630  -0.413  1.00  0.00    -0.354 N 
ATOM     48  C   UNL     1       8.433 -15.469  -3.063  1.00  0.00     0.074 A 
ATOM     49  C   UNL     1       9.454 -14.589  -2.539  1.00  0.00     0.031 C 
ATOM     50  C   UNL     1       3.776 -15.050   1.355  1.00  0.00     0.029 A 
ATOM     51  C   UNL     1       3.776 -15.850   0.134  1.00  0.00     0.049 A 
ATOM     52  H   UNL     1       5.334 -16.078  -1.230  1.00  0.00     0.167 HD
ATOM     53  C   UNL     1       8.547 -16.166  -4.218  1.00  0.00     0.031 A 
ATOM     54  C   UNL     1       2.744 -16.592  -0.312  1.00  0.00     0.031 A 
ATOM     55  C   UNL     1       7.536 -17.053  -4.724  1.00  0.00     0.049 A 
ATOM     56  C   UNL     1       2.885 -17.338  -1.612  1.00  0.00     0.074 A 
ATOM     57  C   UNL     1       7.574 -17.844  -5.858  1.00  0.00     0.029 A 
ATOM     58  N   UNL     1       6.305 -17.266  -4.124  1.00  0.00    -0.354 N 
ATOM     59  N   UNL     1       3.906 -17.380  -2.433  1.00  0.00    -0.248 NA
ATOM     60  C   UNL     1       1.732 -18.143  -2.044  1.00  0.00     0.031 C 
ATOM     61  C   UNL     1       6.345 -18.500  -5.972  1.00  0.00     0.029 A 
ATOM     62  C   UNL     1       5.567 -18.164  -4.875  1.00  0.00     0.049 A 
ATOM     63  H   UNL     1       6.001 -16.843  -3.289  1.00  0.00     0.167 HD
ATOM     64  C   UNL     1       3.536 -18.246  -3.454  1.00  0.00     0.074 A 
ATOM     65  C   UNL     1       2.197 -18.707  -3.150  1.00  0.00     0.031 C 
ATOM     66  C   UNL     1       4.245 -18.630  -4.543  1.00  0.00     0.031 A 
BRANCH  53  67
ATOM     67  C   UNL     1       9.807 -15.982  -5.019  1.00  0.00    -0.014 A 
ATOM     68  C   UNL     1      11.042 -16.465  -4.559  1.00  0.00     0.009 A 
ATOM     69  C   UNL     1       9.751 -15.344  -6.268  1.00  0.00     0.009 A 
ATOM     70  C   UNL     1      12.202 -16.276  -5.314  1.00  0.00     0.001 A 
ATOM     71  C   UNL     1      10.906 -15.186  -7.036  1.00  0.00     0.001 A 
ATOM     72  C   UNL     1      12.132 -15.641  -6.553  1.00  0.00     0.000 A 
ENDBRANCH  53  67
BRANCH  54  73
ATOM     73  C   UNL     1       1.486 -16.672   0.476  1.00  0.00    -0.014 A 
ATOM     74  C   UNL     1       1.129 -17.865   1.124  1.00  0.00     0.009 A 
ATOM     75  C   UNL     1       0.633 -15.562   0.582  1.00  0.00     0.009 A 
ATOM     76  C   UNL     1      -0.069 -17.953   1.837  1.00  0.00     0.001 A 
ATOM     77  C   UNL     1      -0.549 -15.644   1.322  1.00  0.00     0.001 A 
ATOM     78  C   UNL     1      -0.904 -16.842   1.940  1.00  0.00     0.000 A 
ENDBRANCH  54  73
BRANCH  66  79
ATOM     79  C   UNL     1       3.627 -19.649  -5.456  1.00  0.00    -0.014 A 
ATOM     80  C   UNL     1       2.590 -19.311  -6.338  1.00  0.00     0.009 A 
ATOM     81  C   UNL     1       4.160 -20.948  -5.494  1.00  0.00     0.009 A 
ATOM     82  C   UNL     1       2.089 -20.262  -7.230  1.00  0.00     0.001 A 
ATOM     83  C   UNL     1       3.677 -21.886  -6.406  1.00  0.00     0.001 A 
ATOM     84  C   UNL     1       2.638 -21.543  -7.270  1.00  0.00     0.000 A 
ENDBRANCH  66  79
ENDBRANCH  40  41
ENDBRANCH  32  35
ENDBRANCH  30  31
ENDBRANCH   1  30
TORSDOF 14
