REMARK SMILES C=CCn1nc(C(=O)NCCCNC(=O)c2ccc(-c3c4nc(c(-c5ccccc5)c5ccc([nH]5)c(-c5ccccc5)c5nc(c(-c6ccccc6)c6ccc3[nH]6)C=C5)C=C4)cc2)c2c1CC[C@@H]([NH+]1CCC(C(C)(C)O)CC1)C2
REMARK SMILES IDX 10 1 9 2 7 3 8 4 6 6 4 7 5 8 65 9 64 10 66 11 79 12 67 13
REMARK SMILES IDX 68 14 3 15 2 16 1 17 69 18 70 19 78 20 71 22 77 23 72 24
REMARK SMILES IDX 73 25 74 26 75 27 76 28 11 30 12 31 13 32 14 33 15 35 16 36
REMARK SMILES IDX 17 37 63 38 18 39 62 40 19 41 20 42 21 43 56 44 22 45 61 46
REMARK SMILES IDX 55 47 57 48 23 49 60 50 54 51 53 52 24 54 46 55 31 56 45 57
REMARK SMILES IDX 32 58 35 59 44 60 58 61 33 62 34 63 43 65 59 66 36 67 25 68
REMARK SMILES IDX 26 69 30 70 27 71 29 72 28 73 47 74 48 75 52 76 49 77 51 78
REMARK SMILES IDX 50 79 37 80 38 81 42 82 39 83 41 84 40 85
REMARK H PARENT 9 5 69 21 76 29 13 34 57 53 35 64
REMARK Flexibility Score: inf
ROOT
ATOM      1  C   UNL     1      -3.754   0.695  -7.114  1.00  0.00     0.118 C 
ENDROOT
BRANCH   1   2
ATOM      2  N   UNL     1      -3.264  -0.623  -6.700  1.00  0.00    -0.351 N 
ATOM      3  C   UNL     1      -2.876  -1.223  -5.511  1.00  0.00     0.272 C 
ATOM      4  O   UNL     1      -2.673  -2.440  -5.617  1.00  0.00    -0.267 OA
ATOM      5  H   UNL     1      -3.193  -1.242  -7.462  1.00  0.00     0.163 HD
BRANCH   3   6
ATOM      6  C   UNL     1      -2.703  -0.522  -4.205  1.00  0.00     0.153 A 
ATOM      7  N   UNL     1      -2.279  -0.326  -2.092  1.00  0.00    -0.265 N 
ATOM      8  N   UNL     1      -2.541  -1.236  -3.063  1.00  0.00    -0.167 NA
ATOM      9  C   UNL     1      -2.478   0.954  -2.516  1.00  0.00     0.043 A 
ATOM     10  C   UNL     1      -2.556   0.848  -3.880  1.00  0.00     0.012 A 
ATOM     11  C   UNL     1      -2.395   2.228  -1.755  1.00  0.00     0.062 C 
ATOM     12  C   UNL     1      -2.371   2.016  -4.732  1.00  0.00     0.105 C 
ATOM     13  C   UNL     1      -2.317   3.436  -2.723  1.00  0.00     0.072 C 
ATOM     14  C   UNL     1      -1.665   3.219  -4.110  1.00  0.00     0.189 C 
BRANCH   7  15
ATOM     15  C   UNL     1      -1.692  -0.768  -0.827  1.00  0.00     0.171 C 
BRANCH  15  16
ATOM     16  C   UNL     1      -0.185  -0.862  -0.903  1.00  0.00    -0.011 C 
ATOM     17  C   UNL     1       0.666  -0.409   0.029  1.00  0.00     0.006 C 
ENDBRANCH  15  16
ENDBRANCH   7  15
BRANCH  14  18
ATOM     18  N   UNL     1      -0.224   3.141  -4.437  1.00  0.00    -0.332 N 
ATOM     19  C   UNL     1       0.609   2.128  -3.818  1.00  0.00     0.262 C 
ATOM     20  C   UNL     1       0.498   4.400  -4.494  1.00  0.00     0.262 C 
ATOM     21  H   UNL     1      -0.375   2.796  -5.385  1.00  0.00     0.348 HD
ATOM     22  C   UNL     1       0.981   2.463  -2.387  1.00  0.00     0.068 C 
ATOM     23  C   UNL     1       0.755   4.965  -3.112  1.00  0.00     0.068 C 
ATOM     24  C   UNL     1       1.290   3.946  -2.072  1.00  0.00     0.031 C 
BRANCH  24  25
ATOM     25  C   UNL     1       0.868   4.361  -0.616  1.00  0.00     0.062 C 
ATOM     26  C   UNL     1       1.183   3.300   0.440  1.00  0.00     0.042 C 
ATOM     27  C   UNL     1       1.506   5.698  -0.235  1.00  0.00     0.042 C 
BRANCH  25  28
ATOM     28  O   UNL     1      -0.547   4.556  -0.551  1.00  0.00    -0.390 OA
ATOM     29  H   UNL     1      -0.998   3.730  -0.785  1.00  0.00     0.211 HD
ENDBRANCH  25  28
ENDBRANCH  24  25
ENDBRANCH  14  18
ENDBRANCH   3   6
ENDBRANCH   1   2
BRANCH   1  30
ATOM     30  C   UNL     1      -2.627   1.654  -7.552  1.00  0.00     0.042 C 
BRANCH  30  31
ATOM     31  C   UNL     1      -2.595   2.114  -8.977  1.00  0.00     0.118 C 
BRANCH  31  32
ATOM     32  N   UNL     1      -3.626   3.115  -9.281  1.00  0.00    -0.352 N 
ATOM     33  C   UNL     1      -3.974   3.591 -10.535  1.00  0.00     0.251 C 
ATOM     34  H   UNL     1      -4.120   3.487  -8.515  1.00  0.00     0.163 HD
ATOM     35  O   UNL     1      -4.505   4.688 -10.686  1.00  0.00    -0.269 OA
BRANCH  33  36
ATOM     36  C   UNL     1      -3.674   2.723 -11.681  1.00  0.00     0.039 A 
ATOM     37  C   UNL     1      -3.091   3.184 -12.860  1.00  0.00     0.014 A 
ATOM     38  C   UNL     1      -3.814   1.367 -11.431  1.00  0.00     0.014 A 
ATOM     39  C   UNL     1      -2.560   2.237 -13.732  1.00  0.00     0.010 A 
ATOM     40  C   UNL     1      -2.966   0.524 -12.077  1.00  0.00     0.010 A 
ATOM     41  C   UNL     1      -2.469   0.901 -13.305  1.00  0.00    -0.014 A 
BRANCH  41  42
ATOM     42  C   UNL     1      -1.800  -0.143 -14.062  1.00  0.00     0.031 A 
ATOM     43  C   UNL     1      -0.446   0.226 -14.514  1.00  0.00     0.074 A 
ATOM     44  C   UNL     1      -2.284  -1.401 -14.183  1.00  0.00     0.049 A 
ATOM     45  N   UNL     1      -0.137   0.732 -15.658  1.00  0.00    -0.248 NA
ATOM     46  C   UNL     1       0.653   0.234 -13.537  1.00  0.00     0.031 C 
ATOM     47  C   UNL     1      -3.436  -2.022 -13.504  1.00  0.00     0.029 A 
ATOM     48  N   UNL     1      -1.782  -2.438 -14.904  1.00  0.00    -0.354 N 
ATOM     49  C   UNL     1       1.244   0.857 -15.645  1.00  0.00     0.074 A 
ATOM     50  C   UNL     1       1.635   0.778 -14.261  1.00  0.00     0.031 C 
ATOM     51  C   UNL     1      -3.409  -3.362 -13.676  1.00  0.00     0.029 A 
ATOM     52  C   UNL     1      -2.379  -3.666 -14.646  1.00  0.00     0.049 A 
ATOM     53  H   UNL     1      -1.054  -2.328 -15.558  1.00  0.00     0.167 HD
ATOM     54  C   UNL     1       1.954   0.657 -16.790  1.00  0.00     0.031 A 
ATOM     55  C   UNL     1      -2.074  -4.850 -15.225  1.00  0.00     0.031 A 
ATOM     56  C   UNL     1       1.065   0.544 -17.925  1.00  0.00     0.049 A 
ATOM     57  C   UNL     1      -1.423  -4.539 -16.513  1.00  0.00     0.074 A 
ATOM     58  C   UNL     1       0.228   1.379 -18.631  1.00  0.00     0.029 A 
ATOM     59  N   UNL     1       0.659  -0.746 -18.173  1.00  0.00    -0.354 N 
ATOM     60  N   UNL     1      -2.046  -3.965 -17.503  1.00  0.00    -0.248 NA
ATOM     61  C   UNL     1       0.030  -4.505 -16.586  1.00  0.00     0.031 C 
ATOM     62  C   UNL     1      -0.845   0.555 -19.090  1.00  0.00     0.029 A 
ATOM     63  C   UNL     1      -0.601  -0.765 -18.707  1.00  0.00     0.049 A 
ATOM     64  H   UNL     1       1.200  -1.547 -17.990  1.00  0.00     0.167 HD
ATOM     65  C   UNL     1      -1.100  -3.126 -18.064  1.00  0.00     0.074 A 
ATOM     66  C   UNL     1       0.182  -3.631 -17.587  1.00  0.00     0.031 C 
ATOM     67  C   UNL     1      -1.464  -1.926 -18.606  1.00  0.00     0.031 A 
BRANCH  54  68
ATOM     68  C   UNL     1       3.326   0.022 -16.837  1.00  0.00    -0.014 A 
ATOM     69  C   UNL     1       3.927  -0.158 -18.098  1.00  0.00     0.009 A 
ATOM     70  C   UNL     1       3.911  -0.667 -15.759  1.00  0.00     0.009 A 
ATOM     71  C   UNL     1       5.001  -1.037 -18.279  1.00  0.00     0.001 A 
ATOM     72  C   UNL     1       5.005  -1.521 -15.930  1.00  0.00     0.001 A 
ATOM     73  C   UNL     1       5.534  -1.726 -17.195  1.00  0.00     0.000 A 
ENDBRANCH  54  68
BRANCH  55  74
ATOM     74  C   UNL     1      -2.120  -6.216 -14.675  1.00  0.00    -0.014 A 
ATOM     75  C   UNL     1      -2.182  -7.333 -15.523  1.00  0.00     0.009 A 
ATOM     76  C   UNL     1      -1.787  -6.430 -13.326  1.00  0.00     0.009 A 
ATOM     77  C   UNL     1      -1.862  -8.612 -15.050  1.00  0.00     0.001 A 
ATOM     78  C   UNL     1      -1.463  -7.707 -12.855  1.00  0.00     0.001 A 
ATOM     79  C   UNL     1      -1.482  -8.795 -13.722  1.00  0.00     0.000 A 
ENDBRANCH  55  74
BRANCH  67  80
ATOM     80  C   UNL     1      -2.916  -1.743 -18.967  1.00  0.00    -0.014 A 
ATOM     81  C   UNL     1      -3.962  -1.720 -18.030  1.00  0.00     0.009 A 
ATOM     82  C   UNL     1      -3.222  -1.497 -20.314  1.00  0.00     0.009 A 
ATOM     83  C   UNL     1      -5.280  -1.482 -18.438  1.00  0.00     0.001 A 
ATOM     84  C   UNL     1      -4.532  -1.240 -20.718  1.00  0.00     0.001 A 
ATOM     85  C   UNL     1      -5.562  -1.239 -19.781  1.00  0.00     0.000 A 
ENDBRANCH  67  80
ENDBRANCH  41  42
ENDBRANCH  33  36
ENDBRANCH  31  32
ENDBRANCH  30  31
ENDBRANCH   1  30
TORSDOF 15
