REMARK SMILES O=C(CC1(CC(=O)Nc2ccc(F)cc2F)CCCCC1)NCCCNC(=O)c1ccc(-c2c3nc(c(-c4ccccc4)c4ccc([nH]4)c(-c4ccccc4)c4nc(c(-c5ccccc5)c5ccc2[nH]5)C=C4)C=C3)cc1
REMARK SMILES IDX 23 1 22 2 1 3 2 4 3 6 4 7 17 8 21 9 18 10 20 11 19 12 5 13
REMARK SMILES IDX 6 14 7 15 8 16 9 18 10 19 15 20 11 21 14 22 16 23 12 24
REMARK SMILES IDX 13 25 24 26 25 27 26 28 27 29 28 31 29 32 30 33 76 34 31 35
REMARK SMILES IDX 75 36 32 37 33 38 34 39 69 40 35 41 74 42 68 43 70 44 36 45
REMARK SMILES IDX 73 46 67 47 66 48 37 50 59 51 44 52 58 53 45 54 48 55 57 56
REMARK SMILES IDX 71 57 46 58 47 59 56 61 72 62 49 63 38 64 39 65 43 66 40 67
REMARK SMILES IDX 42 68 41 69 60 70 61 71 65 72 62 73 64 74 63 75 50 76 51 77
REMARK SMILES IDX 55 78 52 79 54 80 53 81
REMARK H PARENT 22 5 8 17 26 30 70 49 48 60
REMARK Flexibility Score: inf
ROOT
ATOM      1  C   UNL     1       1.844  -0.001  -2.227  1.00  0.00     0.117 C 
ENDROOT
BRANCH   1   2
ATOM      2  N   UNL     1       2.567   0.426  -1.046  1.00  0.00    -0.356 N 
ATOM      3  O   UNL     1       1.103  -0.517   0.443  1.00  0.00    -0.275 OA
ATOM      4  C   UNL     1       2.167   0.050   0.216  1.00  0.00     0.220 C 
ATOM      5  H   UNL     1       3.362   0.998  -1.149  1.00  0.00     0.163 HD
BRANCH   4   6
ATOM      6  C   UNL     1       3.175   0.351   1.316  1.00  0.00     0.107 C 
BRANCH   6   7
ATOM      7  C   UNL     1       4.048  -0.851   1.788  1.00  0.00    -0.012 C 
ATOM      8  C   UNL     1       4.873  -0.345   3.026  1.00  0.00     0.008 C 
ATOM      9  C   UNL     1       3.178  -1.984   2.370  1.00  0.00     0.008 C 
ATOM     10  C   UNL     1       5.721  -1.437   3.691  1.00  0.00     0.001 C 
ATOM     11  C   UNL     1       4.002  -3.154   2.908  1.00  0.00     0.001 C 
ATOM     12  C   UNL     1       4.928  -2.700   4.030  1.00  0.00     0.000 C 
BRANCH   7  13
ATOM     13  C   UNL     1       5.068  -1.321   0.706  1.00  0.00     0.108 C 
BRANCH  13  14
ATOM     14  C   UNL     1       4.746  -1.512  -0.770  1.00  0.00     0.225 C 
ATOM     15  O   UNL     1       5.070  -0.614  -1.559  1.00  0.00    -0.275 OA
ATOM     16  N   UNL     1       4.254  -2.669  -1.298  1.00  0.00    -0.324 N 
ATOM     17  H   UNL     1       4.305  -2.730  -2.279  1.00  0.00     0.170 HD
BRANCH  16  18
ATOM     18  C   UNL     1       3.689  -3.781  -0.669  1.00  0.00     0.077 A 
ATOM     19  C   UNL     1       2.359  -3.752  -0.246  1.00  0.00     0.032 A 
ATOM     20  C   UNL     1       4.381  -4.994  -0.635  1.00  0.00     0.149 A 
ATOM     21  C   UNL     1       1.788  -4.879   0.352  1.00  0.00     0.041 A 
ATOM     22  C   UNL     1       3.819  -6.125  -0.054  1.00  0.00     0.080 A 
ATOM     23  F   UNL     1       5.619  -5.069  -1.145  1.00  0.00    -0.205 F 
ATOM     24  C   UNL     1       2.531  -6.049   0.459  1.00  0.00     0.126 A 
ATOM     25  F   UNL     1       1.990  -7.121   1.051  1.00  0.00    -0.207 F 
ENDBRANCH  16  18
ENDBRANCH  13  14
ENDBRANCH   7  13
ENDBRANCH   6   7
ENDBRANCH   4   6
ENDBRANCH   1   2
BRANCH   1  26
ATOM     26  C   UNL     1       2.116   0.850  -3.462  1.00  0.00     0.042 C 
BRANCH  26  27
ATOM     27  C   UNL     1       3.554   0.860  -3.972  1.00  0.00     0.118 C 
BRANCH  27  28
ATOM     28  N   UNL     1       4.023  -0.425  -4.473  1.00  0.00    -0.352 N 
ATOM     29  C   UNL     1       4.851  -0.685  -5.544  1.00  0.00     0.251 C 
ATOM     30  H   UNL     1       3.704  -1.215  -3.980  1.00  0.00     0.163 HD
ATOM     31  O   UNL     1       5.131  -1.834  -5.855  1.00  0.00    -0.269 OA
BRANCH  29  32
ATOM     32  C   UNL     1       5.362   0.450  -6.345  1.00  0.00     0.039 A 
ATOM     33  C   UNL     1       5.149   0.459  -7.726  1.00  0.00     0.014 A 
ATOM     34  C   UNL     1       5.982   1.534  -5.719  1.00  0.00     0.014 A 
ATOM     35  C   UNL     1       5.459   1.604  -8.465  1.00  0.00     0.010 A 
ATOM     36  C   UNL     1       6.230   2.695  -6.445  1.00  0.00     0.010 A 
ATOM     37  C   UNL     1       5.948   2.752  -7.820  1.00  0.00    -0.014 A 
BRANCH  37  38
ATOM     38  C   UNL     1       6.135   4.039  -8.539  1.00  0.00     0.031 A 
ATOM     39  C   UNL     1       7.503   4.651  -8.645  1.00  0.00     0.074 A 
ATOM     40  C   UNL     1       5.061   4.715  -8.994  1.00  0.00     0.049 A 
ATOM     41  N   UNL     1       7.848   5.835  -9.086  1.00  0.00    -0.248 NA
ATOM     42  C   UNL     1       8.630   3.833  -8.168  1.00  0.00     0.031 C 
ATOM     43  C   UNL     1       3.674   4.250  -8.930  1.00  0.00     0.029 A 
ATOM     44  N   UNL     1       4.968   5.953  -9.581  1.00  0.00    -0.354 N 
ATOM     45  C   UNL     1       9.223   5.915  -8.914  1.00  0.00     0.074 A 
ATOM     46  C   UNL     1       9.645   4.675  -8.297  1.00  0.00     0.031 C 
ATOM     47  C   UNL     1       2.872   5.184  -9.467  1.00  0.00     0.029 A 
ATOM     48  C   UNL     1       3.678   6.333  -9.866  1.00  0.00     0.049 A 
ATOM     49  H   UNL     1       5.751   6.516  -9.779  1.00  0.00     0.167 HD
ATOM     50  C   UNL     1      10.062   6.924  -9.248  1.00  0.00     0.031 A 
ATOM     51  C   UNL     1       3.194   7.483 -10.372  1.00  0.00     0.031 A 
ATOM     52  C   UNL     1       9.647   8.152  -9.871  1.00  0.00     0.049 A 
ATOM     53  C   UNL     1       4.143   8.597 -10.716  1.00  0.00     0.074 A 
ATOM     54  C   UNL     1      10.432   9.213 -10.290  1.00  0.00     0.029 A 
ATOM     55  N   UNL     1       8.334   8.484 -10.164  1.00  0.00    -0.354 N 
ATOM     56  N   UNL     1       5.447   8.638 -10.590  1.00  0.00    -0.248 NA
ATOM     57  C   UNL     1       3.553   9.821 -11.278  1.00  0.00     0.031 C 
ATOM     58  C   UNL     1       9.589  10.206 -10.798  1.00  0.00     0.029 A 
ATOM     59  C   UNL     1       8.285   9.740 -10.744  1.00  0.00     0.049 A 
ATOM     60  H   UNL     1       7.553   7.912  -9.987  1.00  0.00     0.167 HD
ATOM     61  C   UNL     1       5.836   9.874 -11.091  1.00  0.00     0.074 A 
ATOM     62  C   UNL     1       4.633  10.551 -11.526  1.00  0.00     0.031 C 
ATOM     63  C   UNL     1       7.083  10.396 -11.187  1.00  0.00     0.031 A 
BRANCH  50  64
ATOM     64  C   UNL     1      11.520   6.743  -8.931  1.00  0.00    -0.014 A 
ATOM     65  C   UNL     1      12.312   5.830  -9.645  1.00  0.00     0.009 A 
ATOM     66  C   UNL     1      12.119   7.523  -7.929  1.00  0.00     0.009 A 
ATOM     67  C   UNL     1      13.664   5.674  -9.335  1.00  0.00     0.001 A 
ATOM     68  C   UNL     1      13.478   7.385  -7.641  1.00  0.00     0.001 A 
ATOM     69  C   UNL     1      14.247   6.454  -8.338  1.00  0.00     0.000 A 
ENDBRANCH  50  64
BRANCH  51  70
ATOM     70  C   UNL     1       1.732   7.644 -10.592  1.00  0.00    -0.014 A 
ATOM     71  C   UNL     1       1.210   7.662 -11.894  1.00  0.00     0.009 A 
ATOM     72  C   UNL     1       0.855   7.788  -9.507  1.00  0.00     0.009 A 
ATOM     73  C   UNL     1      -0.159   7.848 -12.106  1.00  0.00     0.001 A 
ATOM     74  C   UNL     1      -0.517   7.945  -9.720  1.00  0.00     0.001 A 
ATOM     75  C   UNL     1      -1.021   7.984 -11.019  1.00  0.00     0.000 A 
ENDBRANCH  51  70
BRANCH  63  76
ATOM     76  C   UNL     1       7.222  11.742 -11.839  1.00  0.00    -0.014 A 
ATOM     77  C   UNL     1       6.844  12.920 -11.177  1.00  0.00     0.009 A 
ATOM     78  C   UNL     1       7.801  11.832 -13.115  1.00  0.00     0.009 A 
ATOM     79  C   UNL     1       7.022  14.161 -11.793  1.00  0.00     0.001 A 
ATOM     80  C   UNL     1       8.001  13.075 -13.716  1.00  0.00     0.001 A 
ATOM     81  C   UNL     1       7.606  14.238 -13.057  1.00  0.00     0.000 A 
ENDBRANCH  63  76
ENDBRANCH  37  38
ENDBRANCH  29  32
ENDBRANCH  27  28
ENDBRANCH  26  27
ENDBRANCH   1  26
TORSDOF 14
