REMARK SMILES O=C(COc1ccc(N2C[C@@H](C(=O)NCCCNC(=O)c3ccc(-c4c5nc(c(-c6ccccc6)c6ccc([nH]6)c(-c6ccccc6)c6nc(c(-c7ccccc7)c7ccc4[nH]7)C=C6)C=C5)cc3)CC2=O)cc1)Nc1ccc(Cl)cc1Cl
REMARK SMILES IDX 12 1 13 2 14 3 11 5 9 6 10 7 70 8 69 9 71 10 8 11 5 12 6 13
REMARK SMILES IDX 73 14 7 15 72 16 4 17 3 18 2 19 1 20 74 21 75 23 76 24 81 25
REMARK SMILES IDX 77 26 80 27 82 28 78 29 79 30 15 31 16 32 17 33 18 34 19 35
REMARK SMILES IDX 20 37 21 38 22 39 68 40 23 41 67 42 24 43 25 44 26 45 61 46
REMARK SMILES IDX 27 47 66 48 60 49 62 50 28 51 65 52 59 53 58 54 29 56 51 57
REMARK SMILES IDX 36 58 50 59 37 60 40 61 49 62 63 63 38 64 39 65 48 67 64 68
REMARK SMILES IDX 41 69 30 70 31 71 35 72 32 73 34 74 33 75 52 76 53 77 57 78
REMARK SMILES IDX 54 79 56 80 55 81 42 82 43 83 47 84 44 85 46 86 45 87
REMARK H PARENT 14 4 74 22 18 36 62 55 40 66
REMARK Flexibility Score: inf
ROOT
ATOM      1  C   UNL     1      -0.274   1.079  -9.330  1.00  0.00     0.225 C 
ATOM      2  O   UNL     1      -0.211   0.738 -10.514  1.00  0.00    -0.275 OA
ATOM      3  N   UNL     1      -1.490   1.013  -8.733  1.00  0.00    -0.356 N 
ATOM      4  H   UNL     1      -2.209   0.699  -9.327  1.00  0.00     0.163 HD
ENDROOT
BRANCH   1   5
ATOM      5  C   UNL     1       0.981   1.528  -8.613  1.00  0.00     0.107 C 
ATOM      6  N   UNL     1       1.731   1.449  -6.379  1.00  0.00    -0.312 N 
ATOM      7  C   UNL     1       1.397   0.594  -7.492  1.00  0.00     0.139 C 
ATOM      8  C   UNL     1       1.430   2.788  -6.625  1.00  0.00     0.227 C 
ATOM      9  C   UNL     1       0.902   2.924  -8.024  1.00  0.00     0.116 C 
ATOM     10  O   UNL     1       1.573   3.752  -5.883  1.00  0.00    -0.274 OA
BRANCH   6  11
ATOM     11  C   UNL     1       2.244   0.948  -5.157  1.00  0.00     0.044 A 
ATOM     12  C   UNL     1       3.321   0.038  -2.718  1.00  0.00     0.120 A 
ATOM     13  C   UNL     1       3.619  -0.629  -3.902  1.00  0.00     0.048 A 
ATOM     14  C   UNL     1       2.497   1.158  -2.748  1.00  0.00     0.048 A 
ATOM     15  C   UNL     1       3.058  -0.193  -5.114  1.00  0.00     0.030 A 
ATOM     16  C   UNL     1       1.965   1.606  -3.957  1.00  0.00     0.030 A 
BRANCH  12  17
ATOM     17  O   UNL     1       3.950  -0.349  -1.564  1.00  0.00    -0.484 OA
BRANCH  17  18
ATOM     18  C   UNL     1       3.058  -0.980  -0.641  1.00  0.00     0.329 C 
BRANCH  18  19
ATOM     19  C   UNL     1       2.161  -0.011   0.135  1.00  0.00     0.262 C 
ATOM     20  O   UNL     1       0.947  -0.175   0.188  1.00  0.00    -0.271 OA
ATOM     21  N   UNL     1       2.869   1.073   0.640  1.00  0.00    -0.322 N 
ATOM     22  H   UNL     1       3.847   1.064   0.529  1.00  0.00     0.170 HD
BRANCH  21  23
ATOM     23  C   UNL     1       2.304   2.189   1.300  1.00  0.00     0.060 A 
ATOM     24  C   UNL     1       2.882   3.431   0.986  1.00  0.00     0.029 A 
ATOM     25  C   UNL     1       1.232   2.159   2.212  1.00  0.00     0.066 A 
ATOM     26  C   UNL     1       2.351   4.620   1.493  1.00  0.00     0.023 A 
ATOM     27  C   UNL     1       0.696   3.354   2.711  1.00  0.00     0.043 A 
ATOM     28  Cl  UNL     1       0.639   0.705   2.940  1.00  0.00    -0.082 Cl
ATOM     29  C   UNL     1       1.248   4.576   2.339  1.00  0.00     0.042 A 
ATOM     30  Cl  UNL     1       0.586   6.039   2.956  1.00  0.00    -0.084 Cl
ENDBRANCH  21  23
ENDBRANCH  18  19
ENDBRANCH  17  18
ENDBRANCH  12  17
ENDBRANCH   6  11
ENDBRANCH   1   5
BRANCH   3  31
ATOM     31  C   UNL     1      -1.933   1.317  -7.382  1.00  0.00     0.117 C 
BRANCH  31  32
ATOM     32  C   UNL     1      -2.857   2.531  -7.333  1.00  0.00     0.042 C 
BRANCH  32  33
ATOM     33  C   UNL     1      -4.162   2.365  -8.106  1.00  0.00     0.118 C 
BRANCH  33  34
ATOM     34  N   UNL     1      -5.019   1.324  -7.556  1.00  0.00    -0.352 N 
ATOM     35  C   UNL     1      -6.286   1.403  -7.034  1.00  0.00     0.251 C 
ATOM     36  H   UNL     1      -4.628   0.421  -7.560  1.00  0.00     0.163 HD
ATOM     37  O   UNL     1      -6.767   0.428  -6.462  1.00  0.00    -0.269 OA
BRANCH  35  38
ATOM     38  C   UNL     1      -7.069   2.655  -7.133  1.00  0.00     0.039 A 
ATOM     39  C   UNL     1      -7.811   3.074  -6.025  1.00  0.00     0.014 A 
ATOM     40  C   UNL     1      -7.096   3.403  -8.311  1.00  0.00     0.014 A 
ATOM     41  C   UNL     1      -8.519   4.278  -6.077  1.00  0.00     0.010 A 
ATOM     42  C   UNL     1      -7.729   4.644  -8.333  1.00  0.00     0.010 A 
ATOM     43  C   UNL     1      -8.450   5.094  -7.217  1.00  0.00    -0.014 A 
BRANCH  43  44
ATOM     44  C   UNL     1      -9.115   6.423  -7.257  1.00  0.00     0.031 A 
ATOM     45  C   UNL     1     -10.203   6.700  -8.260  1.00  0.00     0.074 A 
ATOM     46  C   UNL     1      -8.696   7.403  -6.431  1.00  0.00     0.049 A 
ATOM     47  N   UNL     1     -10.852   7.815  -8.486  1.00  0.00    -0.248 NA
ATOM     48  C   UNL     1     -10.596   5.589  -9.142  1.00  0.00     0.031 C 
ATOM     49  C   UNL     1      -7.625   7.278  -5.440  1.00  0.00     0.029 A 
ATOM     50  N   UNL     1      -9.116   8.704  -6.301  1.00  0.00    -0.354 N 
ATOM     51  C   UNL     1     -11.713   7.544  -9.542  1.00  0.00     0.074 A 
ATOM     52  C   UNL     1     -11.471   6.177  -9.945  1.00  0.00     0.031 C 
ATOM     53  C   UNL     1      -7.491   8.443  -4.786  1.00  0.00     0.029 A 
ATOM     54  C   UNL     1      -8.430   9.411  -5.342  1.00  0.00     0.049 A 
ATOM     55  H   UNL     1      -9.840   9.093  -6.843  1.00  0.00     0.167 HD
ATOM     56  C   UNL     1     -12.636   8.354 -10.113  1.00  0.00     0.031 A 
ATOM     57  C   UNL     1      -8.535  10.699  -4.960  1.00  0.00     0.031 A 
ATOM     58  C   UNL     1     -12.887   9.711  -9.705  1.00  0.00     0.049 A 
ATOM     59  C   UNL     1      -9.555  11.581  -5.627  1.00  0.00     0.074 A 
ATOM     60  C   UNL     1     -13.842  10.590 -10.184  1.00  0.00     0.029 A 
ATOM     61  N   UNL     1     -12.175  10.386  -8.726  1.00  0.00    -0.354 N 
ATOM     62  N   UNL     1     -10.412  11.285  -6.574  1.00  0.00    -0.248 NA
ATOM     63  C   UNL     1      -9.628  12.974  -5.163  1.00  0.00     0.031 C 
ATOM     64  C   UNL     1     -13.668  11.818  -9.538  1.00  0.00     0.029 A 
ATOM     65  C   UNL     1     -12.651  11.681  -8.607  1.00  0.00     0.049 A 
ATOM     66  H   UNL     1     -11.441  10.002  -8.194  1.00  0.00     0.167 HD
ATOM     67  C   UNL     1     -11.148  12.443  -6.793  1.00  0.00     0.074 A 
ATOM     68  C   UNL     1     -10.648  13.440  -5.870  1.00  0.00     0.031 C 
ATOM     69  C   UNL     1     -12.149  12.661  -7.681  1.00  0.00     0.031 A 
BRANCH  56  70
ATOM     70  C   UNL     1     -13.445   7.798 -11.253  1.00  0.00    -0.014 A 
ATOM     71  C   UNL     1     -14.412   6.801 -11.044  1.00  0.00     0.009 A 
ATOM     72  C   UNL     1     -13.279   8.320 -12.546  1.00  0.00     0.009 A 
ATOM     73  C   UNL     1     -15.174   6.319 -12.111  1.00  0.00     0.001 A 
ATOM     74  C   UNL     1     -14.063   7.858 -13.604  1.00  0.00     0.001 A 
ATOM     75  C   UNL     1     -15.004   6.853 -13.388  1.00  0.00     0.000 A 
ENDBRANCH  56  70
BRANCH  57  76
ATOM     76  C   UNL     1      -7.651  11.240  -3.893  1.00  0.00    -0.014 A 
ATOM     77  C   UNL     1      -8.181  11.625  -2.652  1.00  0.00     0.009 A 
ATOM     78  C   UNL     1      -6.275  11.400  -4.119  1.00  0.00     0.009 A 
ATOM     79  C   UNL     1      -7.359  12.194  -1.675  1.00  0.00     0.001 A 
ATOM     80  C   UNL     1      -5.450  11.936  -3.128  1.00  0.00     0.001 A 
ATOM     81  C   UNL     1      -5.994  12.345  -1.913  1.00  0.00     0.000 A 
ENDBRANCH  57  76
BRANCH  69  82
ATOM     82  C   UNL     1     -12.803  14.015  -7.665  1.00  0.00    -0.014 A 
ATOM     83  C   UNL     1     -12.135  15.159  -8.126  1.00  0.00     0.009 A 
ATOM     84  C   UNL     1     -14.129  14.136  -7.219  1.00  0.00     0.009 A 
ATOM     85  C   UNL     1     -12.770  16.403  -8.106  1.00  0.00     0.001 A 
ATOM     86  C   UNL     1     -14.773  15.374  -7.232  1.00  0.00     0.001 A 
ATOM     87  C   UNL     1     -14.089  16.508  -7.665  1.00  0.00     0.000 A 
ENDBRANCH  69  82
ENDBRANCH  43  44
ENDBRANCH  35  38
ENDBRANCH  33  34
ENDBRANCH  32  33
ENDBRANCH  31  32
ENDBRANCH   3  31
TORSDOF 15
