REMARK SMILES O=C(Cc1ccc(=O)n(C(F)F)c1)NCCCNC(=O)c1ccc(-c2c3nc(c(-c4ccccc4)c4ccc([nH]4)c(-c4ccccc4)c4nc(c(-c5ccccc5)c5ccc2[nH]5)C=C4)C=C3)cc1
REMARK SMILES IDX 16 1 15 2 14 3 1 4 2 5 3 7 4 8 5 9 13 10 6 11 9 12 7 13 8 14
REMARK SMILES IDX 10 15 11 16 12 17 17 18 18 19 19 20 20 22 21 23 22 24 68 25
REMARK SMILES IDX 23 26 67 27 24 28 25 29 26 30 61 31 27 32 66 33 60 34 62 35
REMARK SMILES IDX 28 36 65 37 59 38 58 39 29 41 51 42 36 43 50 44 37 45 40 46
REMARK SMILES IDX 49 47 63 48 38 49 39 50 48 52 64 53 41 54 30 55 31 56 35 57
REMARK SMILES IDX 32 58 34 59 33 60 52 61 53 62 57 63 54 64 56 65 55 66 42 67
REMARK SMILES IDX 43 68 47 69 44 70 46 71 45 72
REMARK H PARENT 14 6 18 21 62 40 40 51
REMARK Flexibility Score: inf
ROOT
ATOM      1  C   UNL     1       2.573  -0.491   3.428  1.00  0.00     0.042 C 
ENDROOT
BRANCH   1   2
ATOM      2  C   UNL     1       2.304   0.577   2.377  1.00  0.00     0.117 C 
BRANCH   2   3
ATOM      3  N   UNL     1       2.963   0.296   1.116  1.00  0.00    -0.356 N 
ATOM      4  O   UNL     1       1.050  -0.270  -0.015  1.00  0.00    -0.275 OA
ATOM      5  C   UNL     1       2.261  -0.070  -0.011  1.00  0.00     0.224 C 
ATOM      6  H   UNL     1       3.943   0.369   1.064  1.00  0.00     0.163 HD
BRANCH   5   7
ATOM      7  C   UNL     1       3.106  -0.247  -1.272  1.00  0.00     0.137 C 
BRANCH   7   8
ATOM      8  C   UNL     1       3.958   0.939  -1.661  1.00  0.00    -0.022 A 
ATOM      9  C   UNL     1       3.479   2.288  -1.428  1.00  0.00     0.011 A 
ATOM     10  C   UNL     1       5.152   0.779  -2.259  1.00  0.00     0.099 A 
ATOM     11  C   UNL     1       4.217   3.352  -1.770  1.00  0.00     0.072 A 
ATOM     12  N   UNL     1       5.922   1.862  -2.652  1.00  0.00    -0.258 N 
ATOM     13  C   UNL     1       5.534   3.174  -2.438  1.00  0.00     0.254 A 
ATOM     14  O   UNL     1       6.170   4.174  -2.756  1.00  0.00    -0.269 OA
BRANCH  12  15
ATOM     15  C   UNL     1       7.155   1.662  -3.372  1.00  0.00     0.451 C 
ATOM     16  F   UNL     1       7.069   2.172  -4.625  1.00  0.00    -0.185 F 
ATOM     17  F   UNL     1       8.196   2.258  -2.743  1.00  0.00    -0.185 F 
ENDBRANCH  12  15
ENDBRANCH   7   8
ENDBRANCH   5   7
ENDBRANCH   2   3
ENDBRANCH   1   2
BRANCH   1  18
ATOM     18  C   UNL     1       4.043  -0.656   3.794  1.00  0.00     0.118 C 
BRANCH  18  19
ATOM     19  N   UNL     1       4.631   0.528   4.408  1.00  0.00    -0.352 N 
ATOM     20  C   UNL     1       5.293   0.680   5.604  1.00  0.00     0.251 C 
ATOM     21  H   UNL     1       4.540   1.354   3.880  1.00  0.00     0.163 HD
ATOM     22  O   UNL     1       5.611   1.806   5.979  1.00  0.00    -0.269 OA
BRANCH  20  23
ATOM     23  C   UNL     1       5.586  -0.489   6.463  1.00  0.00     0.039 A 
ATOM     24  C   UNL     1       6.023  -1.698   5.924  1.00  0.00     0.014 A 
ATOM     25  C   UNL     1       5.412  -0.369   7.846  1.00  0.00     0.014 A 
ATOM     26  C   UNL     1       6.092  -2.831   6.730  1.00  0.00     0.010 A 
ATOM     27  C   UNL     1       5.580  -1.486   8.671  1.00  0.00     0.010 A 
ATOM     28  C   UNL     1       5.862  -2.742   8.112  1.00  0.00    -0.014 A 
BRANCH  28  29
ATOM     29  C   UNL     1       5.909  -3.971   8.949  1.00  0.00     0.031 A 
ATOM     30  C   UNL     1       4.679  -4.458   9.671  1.00  0.00     0.074 A 
ATOM     31  C   UNL     1       7.051  -4.683   9.019  1.00  0.00     0.049 A 
ATOM     32  N   UNL     1       4.534  -5.524  10.418  1.00  0.00    -0.248 NA
ATOM     33  C   UNL     1       3.456  -3.650   9.542  1.00  0.00     0.031 C 
ATOM     34  C   UNL     1       8.305  -4.329   8.350  1.00  0.00     0.029 A 
ATOM     35  N   UNL     1       7.339  -5.862   9.661  1.00  0.00    -0.354 N 
ATOM     36  C   UNL     1       3.215  -5.505  10.857  1.00  0.00     0.074 A 
ATOM     37  C   UNL     1       2.610  -4.304  10.326  1.00  0.00     0.031 C 
ATOM     38  C   UNL     1       9.207  -5.296   8.569  1.00  0.00     0.029 A 
ATOM     39  C   UNL     1       8.624  -6.302   9.452  1.00  0.00     0.049 A 
ATOM     40  H   UNL     1       6.686  -6.346  10.217  1.00  0.00     0.167 HD
ATOM     41  C   UNL     1       2.563  -6.415  11.619  1.00  0.00     0.031 A 
ATOM     42  C   UNL     1       9.273  -7.384   9.924  1.00  0.00     0.031 A 
ATOM     43  C   UNL     1       3.163  -7.616  12.138  1.00  0.00     0.049 A 
ATOM     44  C   UNL     1       8.544  -8.346  10.819  1.00  0.00     0.074 A 
ATOM     45  C   UNL     1       2.569  -8.610  12.897  1.00  0.00     0.029 A 
ATOM     46  N   UNL     1       4.486  -7.988  11.955  1.00  0.00    -0.354 N 
ATOM     47  N   UNL     1       7.290  -8.326  11.201  1.00  0.00    -0.248 NA
ATOM     48  C   UNL     1       9.315  -9.481  11.347  1.00  0.00     0.031 C 
ATOM     49  C   UNL     1       3.549  -9.543  13.237  1.00  0.00     0.029 A 
ATOM     50  C   UNL     1       4.734  -9.178  12.618  1.00  0.00     0.049 A 
ATOM     51  H   UNL     1       5.149  -7.482  11.433  1.00  0.00     0.167 HD
ATOM     52  C   UNL     1       7.116  -9.451  11.996  1.00  0.00     0.074 A 
ATOM     53  C   UNL     1       8.387 -10.145  12.024  1.00  0.00     0.031 C 
ATOM     54  C   UNL     1       6.001  -9.867  12.643  1.00  0.00     0.031 A 
BRANCH  41  55
ATOM     55  C   UNL     1       1.117  -6.161  11.956  1.00  0.00    -0.014 A 
ATOM     56  C   UNL     1       0.743  -5.930  13.291  1.00  0.00     0.009 A 
ATOM     57  C   UNL     1       0.113  -6.262  10.981  1.00  0.00     0.009 A 
ATOM     58  C   UNL     1      -0.604  -5.829  13.645  1.00  0.00     0.001 A 
ATOM     59  C   UNL     1      -1.232  -6.127  11.333  1.00  0.00     0.001 A 
ATOM     60  C   UNL     1      -1.590  -5.923  12.665  1.00  0.00     0.000 A 
ENDBRANCH  41  55
BRANCH  42  61
ATOM     61  C   UNL     1      10.693  -7.606   9.538  1.00  0.00    -0.014 A 
ATOM     62  C   UNL     1      11.695  -6.714   9.956  1.00  0.00     0.009 A 
ATOM     63  C   UNL     1      11.047  -8.674   8.699  1.00  0.00     0.009 A 
ATOM     64  C   UNL     1      13.011  -6.863   9.513  1.00  0.00     0.001 A 
ATOM     65  C   UNL     1      12.372  -8.841   8.288  1.00  0.00     0.001 A 
ATOM     66  C   UNL     1      13.349  -7.929   8.683  1.00  0.00     0.000 A 
ENDBRANCH  42  61
BRANCH  54  67
ATOM     67  C   UNL     1       6.073 -11.142  13.439  1.00  0.00    -0.014 A 
ATOM     68  C   UNL     1       5.320 -12.258  13.035  1.00  0.00     0.009 A 
ATOM     69  C   UNL     1       6.781 -11.204  14.648  1.00  0.00     0.009 A 
ATOM     70  C   UNL     1       5.253 -13.397  13.838  1.00  0.00     0.001 A 
ATOM     71  C   UNL     1       6.740 -12.359  15.432  1.00  0.00     0.001 A 
ATOM     72  C   UNL     1       5.966 -13.448  15.034  1.00  0.00     0.000 A 
ENDBRANCH  54  67
ENDBRANCH  28  29
ENDBRANCH  20  23
ENDBRANCH  18  19
ENDBRANCH   1  18
TORSDOF 12
