REMARK SMILES COCC[C@@]1(C(=O)NCCCNC(=O)c2ccc(-c3c4nc(c(-c5ccccc5)c5ccc([nH]5)c(-c5ccccc5)c5nc(c(-c6ccccc6)c6ccc3[nH]6)C=C5)C=C4)cc2)CCCN(C(=O)NCc2ccc(OC)cc2)C1
REMARK SMILES IDX 9 1 8 2 6 3 7 4 5 6 63 7 79 8 64 9 66 10 65 11 4 12 3 13
REMARK SMILES IDX 2 14 1 15 67 16 68 17 69 18 70 20 71 21 72 22 78 23 73 24
REMARK SMILES IDX 77 25 74 26 75 27 76 28 10 29 11 30 12 31 13 32 14 34 15 35
REMARK SMILES IDX 16 36 62 37 17 38 61 39 18 40 19 41 20 42 55 43 21 44 60 45
REMARK SMILES IDX 54 46 56 47 22 48 59 49 53 50 52 51 23 53 45 54 30 55 44 56
REMARK SMILES IDX 31 57 34 58 43 59 57 60 32 61 33 62 42 64 58 65 35 66 24 67
REMARK SMILES IDX 25 68 29 69 26 70 28 71 27 72 46 73 47 74 51 75 48 76 50 77
REMARK SMILES IDX 49 78 36 79 37 80 41 81 38 82 40 83 39 84
REMARK H PARENT 8 5 69 19 12 33 56 52 34 63
REMARK Flexibility Score: inf
ROOT
ATOM      1  C   UNL     1       1.804  -2.775  -3.266  1.00  0.00     0.117 C 
ENDROOT
BRANCH   1   2
ATOM      2  N   UNL     1       0.599  -2.186  -2.668  1.00  0.00    -0.355 N 
ATOM      3  C   UNL     1       0.068  -0.923  -2.634  1.00  0.00     0.228 C 
ATOM      4  O   UNL     1      -1.089  -0.864  -2.192  1.00  0.00    -0.274 OA
ATOM      5  H   UNL     1       0.050  -2.845  -2.186  1.00  0.00     0.163 HD
BRANCH   3   6
ATOM      6  C   UNL     1       0.857   0.396  -2.893  1.00  0.00     0.069 C 
ATOM      7  C   UNL     1      -0.117   1.620  -3.253  1.00  0.00     0.021 C 
ATOM      8  C   UNL     1       1.931   0.291  -3.990  1.00  0.00     0.138 C 
ATOM      9  C   UNL     1      -0.209   2.137  -4.709  1.00  0.00     0.023 C 
ATOM     10  N   UNL     1       1.367   0.487  -5.341  1.00  0.00    -0.324 N 
ATOM     11  C   UNL     1       1.041   1.879  -5.531  1.00  0.00     0.121 C 
BRANCH   6  12
ATOM     12  C   UNL     1       1.433   0.825  -1.491  1.00  0.00     0.047 C 
BRANCH  12  13
ATOM     13  C   UNL     1       2.284  -0.158  -0.693  1.00  0.00     0.161 C 
BRANCH  13  14
ATOM     14  O   UNL     1       3.508   0.436  -0.257  1.00  0.00    -0.385 OA
ATOM     15  C   UNL     1       4.458   0.581  -1.303  1.00  0.00     0.194 C 
ENDBRANCH  13  14
ENDBRANCH  12  13
ENDBRANCH   6  12
BRANCH  10  16
ATOM     16  C   UNL     1       0.690  -0.530  -5.966  1.00  0.00     0.317 C 
ATOM     17  O   UNL     1       0.443  -1.612  -5.431  1.00  0.00    -0.249 OA
ATOM     18  N   UNL     1       0.184  -0.469  -7.198  1.00  0.00    -0.334 N 
ATOM     19  H   UNL     1      -0.374  -1.258  -7.383  1.00  0.00     0.165 HD
BRANCH  18  20
ATOM     20  C   UNL     1       0.211   0.409  -8.337  1.00  0.00     0.153 C 
BRANCH  20  21
ATOM     21  C   UNL     1       1.451   0.272  -9.176  1.00  0.00    -0.028 A 
ATOM     22  C   UNL     1       1.912  -0.983  -9.602  1.00  0.00     0.009 A 
ATOM     23  C   UNL     1       2.096   1.420  -9.649  1.00  0.00     0.009 A 
ATOM     24  C   UNL     1       2.972  -1.077 -10.509  1.00  0.00     0.047 A 
ATOM     25  C   UNL     1       3.153   1.323 -10.558  1.00  0.00     0.047 A 
ATOM     26  C   UNL     1       3.577   0.075 -11.013  1.00  0.00     0.118 A 
BRANCH  26  27
ATOM     27  O   UNL     1       4.564  -0.140 -11.936  1.00  0.00    -0.497 OA
ATOM     28  C   UNL     1       4.938   0.987 -12.722  1.00  0.00     0.278 C 
ENDBRANCH  26  27
ENDBRANCH  20  21
ENDBRANCH  18  20
ENDBRANCH  10  16
ENDBRANCH   3   6
ENDBRANCH   1   2
BRANCH   1  29
ATOM     29  C   UNL     1       1.806  -4.293  -3.388  1.00  0.00     0.042 C 
BRANCH  29  30
ATOM     30  C   UNL     1       0.603  -4.919  -4.087  1.00  0.00     0.118 C 
BRANCH  30  31
ATOM     31  N   UNL     1       0.481  -4.651  -5.513  1.00  0.00    -0.352 N 
ATOM     32  C   UNL     1       0.531  -5.470  -6.627  1.00  0.00     0.251 C 
ATOM     33  H   UNL     1       0.333  -3.701  -5.726  1.00  0.00     0.163 HD
ATOM     34  O   UNL     1       0.346  -4.990  -7.738  1.00  0.00    -0.269 OA
BRANCH  32  35
ATOM     35  C   UNL     1       0.894  -6.914  -6.518  1.00  0.00     0.039 A 
ATOM     36  C   UNL     1       1.745  -7.463  -7.487  1.00  0.00     0.014 A 
ATOM     37  C   UNL     1       0.451  -7.731  -5.482  1.00  0.00     0.014 A 
ATOM     38  C   UNL     1       2.266  -8.755  -7.325  1.00  0.00     0.010 A 
ATOM     39  C   UNL     1       1.059  -8.967  -5.255  1.00  0.00     0.010 A 
ATOM     40  C   UNL     1       2.001  -9.484  -6.156  1.00  0.00    -0.014 A 
BRANCH  40  41
ATOM     41  C   UNL     1       2.736 -10.739  -5.819  1.00  0.00     0.031 A 
ATOM     42  C   UNL     1       1.998 -12.020  -5.528  1.00  0.00     0.074 A 
ATOM     43  C   UNL     1       4.076 -10.704  -5.652  1.00  0.00     0.049 A 
ATOM     44  N   UNL     1       2.464 -13.162  -5.084  1.00  0.00    -0.248 NA
ATOM     45  C   UNL     1       0.541 -12.005  -5.728  1.00  0.00     0.031 C 
ATOM     46  C   UNL     1       4.928  -9.527  -5.843  1.00  0.00     0.029 A 
ATOM     47  N   UNL     1       4.958 -11.686  -5.267  1.00  0.00    -0.354 N 
ATOM     48  C   UNL     1       1.357 -13.985  -4.917  1.00  0.00     0.074 A 
ATOM     49  C   UNL     1       0.194 -13.197  -5.266  1.00  0.00     0.031 C 
ATOM     50  C   UNL     1       6.206  -9.864  -5.615  1.00  0.00     0.029 A 
ATOM     51  C   UNL     1       6.264 -11.263  -5.206  1.00  0.00     0.049 A 
ATOM     52  H   UNL     1       4.679 -12.607  -5.055  1.00  0.00     0.167 HD
ATOM     53  C   UNL     1       1.307 -15.282  -4.526  1.00  0.00     0.031 A 
ATOM     54  C   UNL     1       7.388 -11.915  -4.850  1.00  0.00     0.031 A 
ATOM     55  C   UNL     1       2.458 -16.083  -4.203  1.00  0.00     0.049 A 
ATOM     56  C   UNL     1       7.309 -13.348  -4.412  1.00  0.00     0.074 A 
ATOM     57  C   UNL     1       2.510 -17.430  -3.883  1.00  0.00     0.029 A 
ATOM     58  N   UNL     1       3.760 -15.612  -4.157  1.00  0.00    -0.354 N 
ATOM     59  N   UNL     1       6.259 -14.127  -4.323  1.00  0.00    -0.248 NA
ATOM     60  C   UNL     1       8.573 -13.990  -4.021  1.00  0.00     0.031 C 
ATOM     61  C   UNL     1       3.838 -17.762  -3.596  1.00  0.00     0.029 A 
ATOM     62  C   UNL     1       4.619 -16.633  -3.783  1.00  0.00     0.049 A 
ATOM     63  H   UNL     1       4.034 -14.688  -4.359  1.00  0.00     0.167 HD
ATOM     64  C   UNL     1       6.736 -15.354  -3.883  1.00  0.00     0.074 A 
ATOM     65  C   UNL     1       8.171 -15.222  -3.738  1.00  0.00     0.031 C 
ATOM     66  C   UNL     1       6.043 -16.489  -3.624  1.00  0.00     0.031 A 
BRANCH  53  67
ATOM     67  C   UNL     1      -0.055 -15.914  -4.416  1.00  0.00    -0.014 A 
ATOM     68  C   UNL     1      -0.823 -16.194  -5.558  1.00  0.00     0.009 A 
ATOM     69  C   UNL     1      -0.571 -16.244  -3.154  1.00  0.00     0.009 A 
ATOM     70  C   UNL     1      -2.100 -16.745  -5.434  1.00  0.00     0.001 A 
ATOM     71  C   UNL     1      -1.837 -16.823  -3.035  1.00  0.00     0.001 A 
ATOM     72  C   UNL     1      -2.605 -17.060  -4.173  1.00  0.00     0.000 A 
ENDBRANCH  53  67
BRANCH  54  73
ATOM     73  C   UNL     1       8.697 -11.216  -4.913  1.00  0.00    -0.014 A 
ATOM     74  C   UNL     1       9.607 -11.521  -5.937  1.00  0.00     0.009 A 
ATOM     75  C   UNL     1       9.039 -10.236  -3.969  1.00  0.00     0.009 A 
ATOM     76  C   UNL     1      10.839 -10.867  -6.007  1.00  0.00     0.001 A 
ATOM     77  C   UNL     1      10.262  -9.566  -4.056  1.00  0.00     0.001 A 
ATOM     78  C   UNL     1      11.162  -9.886  -5.071  1.00  0.00     0.000 A 
ENDBRANCH  54  73
BRANCH  66  79
ATOM     79  C   UNL     1       6.830 -17.684  -3.168  1.00  0.00    -0.014 A 
ATOM     80  C   UNL     1       7.346 -17.756  -1.865  1.00  0.00     0.009 A 
ATOM     81  C   UNL     1       7.027 -18.766  -4.040  1.00  0.00     0.009 A 
ATOM     82  C   UNL     1       8.067 -18.879  -1.453  1.00  0.00     0.001 A 
ATOM     83  C   UNL     1       7.727 -19.897  -3.617  1.00  0.00     0.001 A 
ATOM     84  C   UNL     1       8.252 -19.950  -2.327  1.00  0.00     0.000 A 
ENDBRANCH  66  79
ENDBRANCH  40  41
ENDBRANCH  32  35
ENDBRANCH  30  31
ENDBRANCH  29  30
ENDBRANCH   1  29
TORSDOF 17
