REMARK SMILES CC(C)C[NH+]1CC[NH+]([C@H](C)[C@@H](C)C(=O)NCCCNC(=O)c2ccc(-c3c4nc(c(-c5ccccc5)c5ccc([nH]5)c(-c5ccccc5)c5nc(c(-c6ccccc6)c6ccc3[nH]6)C=C5)C=C4)cc2)CC1
REMARK SMILES IDX 16 1 15 2 13 3 14 4 11 6 12 7 9 8 10 9 8 10 5 11 6 12 71 13
REMARK SMILES IDX 7 15 70 16 4 18 2 19 1 20 3 21 17 22 18 23 19 24 20 25 21 27
REMARK SMILES IDX 22 28 23 29 69 30 24 31 68 32 25 33 26 34 27 35 62 36 28 37
REMARK SMILES IDX 67 38 61 39 63 40 29 41 66 42 60 43 59 44 30 46 52 47 37 48
REMARK SMILES IDX 51 49 38 50 41 51 50 52 64 53 39 54 40 55 49 57 65 58 42 59
REMARK SMILES IDX 31 60 32 61 36 62 33 63 35 64 34 65 53 66 54 67 58 68 55 69
REMARK SMILES IDX 57 70 56 71 43 72 44 73 48 74 45 75 47 76 46 77
REMARK H PARENT 15 5 5 14 8 17 19 26 63 45 41 56
REMARK Flexibility Score: inf
ROOT
ATOM      1  C   UNL     1      -0.762  -6.378   1.711  1.00  0.00     0.117 C 
ENDROOT
BRANCH   1   2
ATOM      2  N   UNL     1      -2.201  -6.193   1.718  1.00  0.00    -0.356 N 
ATOM      3  C   UNL     1      -3.005  -5.283   1.103  1.00  0.00     0.228 C 
ATOM      4  O   UNL     1      -4.222  -5.405   1.276  1.00  0.00    -0.275 OA
ATOM      5  H   UNL     1      -2.687  -6.847   2.271  1.00  0.00     0.163 HD
BRANCH   3   6
ATOM      6  C   UNL     1      -2.464  -4.193   0.182  1.00  0.00     0.133 C 
ATOM      7  C   UNL     1      -1.878  -4.824  -1.088  1.00  0.00     0.024 C 
BRANCH   6   8
ATOM      8  C   UNL     1      -1.540  -3.189   0.922  1.00  0.00     0.193 C 
ATOM      9  C   UNL     1      -0.776  -2.276  -0.058  1.00  0.00     0.076 C 
BRANCH   8  10
ATOM     10  N   UNL     1      -2.254  -2.459   2.005  1.00  0.00    -0.323 N 
ATOM     11  N   UNL     1      -2.729   0.232   3.262  1.00  0.00    -0.325 N 
ATOM     12  C   UNL     1      -3.817  -0.522   2.599  1.00  0.00     0.324 C 
ATOM     13  C   UNL     1      -1.865  -0.754   3.908  1.00  0.00     0.324 C 
ATOM     14  H   UNL     1      -3.038   0.852   4.011  1.00  0.00     0.348 HD
ATOM     15  C   UNL     1      -3.315  -1.547   1.548  1.00  0.00     0.324 C 
ATOM     16  C   UNL     1      -1.336  -1.893   3.007  1.00  0.00     0.324 C 
ATOM     17  H   UNL     1      -2.785  -3.174   2.502  1.00  0.00     0.348 HD
BRANCH  11  18
ATOM     18  C   UNL     1      -2.126   1.193   2.324  1.00  0.00     0.265 C 
BRANCH  18  19
ATOM     19  C   UNL     1      -0.753   1.857   2.608  1.00  0.00     0.038 C 
ATOM     20  C   UNL     1       0.442   0.945   2.321  1.00  0.00     0.013 C 
ATOM     21  C   UNL     1      -0.617   3.087   1.695  1.00  0.00     0.013 C 
ENDBRANCH  18  19
ENDBRANCH  11  18
ENDBRANCH   8  10
ENDBRANCH   6   8
ENDBRANCH   3   6
ENDBRANCH   1   2
BRANCH   1  22
ATOM     22  C   UNL     1      -0.111  -5.989   3.035  1.00  0.00     0.042 C 
BRANCH  22  23
ATOM     23  C   UNL     1      -0.544  -6.839   4.222  1.00  0.00     0.118 C 
BRANCH  23  24
ATOM     24  N   UNL     1      -0.176  -8.238   4.065  1.00  0.00    -0.352 N 
ATOM     25  C   UNL     1       0.632  -9.037   4.827  1.00  0.00     0.251 C 
ATOM     26  H   UNL     1      -0.575  -8.682   3.282  1.00  0.00     0.163 HD
ATOM     27  O   UNL     1       0.971 -10.138   4.384  1.00  0.00    -0.269 OA
BRANCH  25  28
ATOM     28  C   UNL     1       1.108  -8.612   6.161  1.00  0.00     0.039 A 
ATOM     29  C   UNL     1       2.392  -8.996   6.565  1.00  0.00     0.014 A 
ATOM     30  C   UNL     1       0.286  -7.909   7.046  1.00  0.00     0.014 A 
ATOM     31  C   UNL     1       2.859  -8.650   7.834  1.00  0.00     0.010 A 
ATOM     32  C   UNL     1       0.781  -7.495   8.281  1.00  0.00     0.010 A 
ATOM     33  C   UNL     1       2.063  -7.881   8.697  1.00  0.00    -0.014 A 
BRANCH  33  34
ATOM     34  C   UNL     1       2.545  -7.508  10.051  1.00  0.00     0.031 A 
ATOM     35  C   UNL     1       1.849  -8.039  11.276  1.00  0.00     0.074 A 
ATOM     36  C   UNL     1       3.579  -6.656  10.181  1.00  0.00     0.049 A 
ATOM     37  N   UNL     1       2.106  -7.804  12.538  1.00  0.00    -0.248 NA
ATOM     38  C   UNL     1       0.696  -8.926  11.054  1.00  0.00     0.031 C 
ATOM     39  C   UNL     1       4.309  -6.033   9.075  1.00  0.00     0.029 A 
ATOM     40  N   UNL     1       4.193  -6.164  11.305  1.00  0.00    -0.354 N 
ATOM     41  C   UNL     1       1.134  -8.491  13.255  1.00  0.00     0.074 A 
ATOM     42  C   UNL     1       0.257  -9.114  12.289  1.00  0.00     0.031 C 
ATOM     43  C   UNL     1       5.288  -5.263   9.575  1.00  0.00     0.029 A 
ATOM     44  C   UNL     1       5.237  -5.315  11.033  1.00  0.00     0.049 A 
ATOM     45  H   UNL     1       3.912  -6.398  12.219  1.00  0.00     0.167 HD
ATOM     46  C   UNL     1       0.993  -8.609  14.597  1.00  0.00     0.031 A 
ATOM     47  C   UNL     1       6.063  -4.653  11.864  1.00  0.00     0.031 A 
ATOM     48  C   UNL     1       1.880  -8.013  15.560  1.00  0.00     0.049 A 
ATOM     49  C   UNL     1       5.907  -4.824  13.348  1.00  0.00     0.074 A 
ATOM     50  C   UNL     1       1.864  -8.133  16.939  1.00  0.00     0.029 A 
ATOM     51  N   UNL     1       2.943  -7.183  15.242  1.00  0.00    -0.354 N 
ATOM     52  N   UNL     1       5.029  -5.539  14.009  1.00  0.00    -0.248 NA
ATOM     53  C   UNL     1       6.869  -4.111  14.200  1.00  0.00     0.031 C 
ATOM     54  C   UNL     1       2.895  -7.343  17.458  1.00  0.00     0.029 A 
ATOM     55  C   UNL     1       3.580  -6.769  16.399  1.00  0.00     0.049 A 
ATOM     56  H   UNL     1       3.207  -6.926  14.329  1.00  0.00     0.167 HD
ATOM     57  C   UNL     1       5.346  -5.380  15.351  1.00  0.00     0.074 A 
ATOM     58  C   UNL     1       6.507  -4.516  15.409  1.00  0.00     0.031 C 
ATOM     59  C   UNL     1       4.731  -5.905  16.439  1.00  0.00     0.031 A 
BRANCH  46  60
ATOM     60  C   UNL     1      -0.174  -9.413  15.100  1.00  0.00    -0.014 A 
ATOM     61  C   UNL     1      -0.213 -10.809  14.957  1.00  0.00     0.009 A 
ATOM     62  C   UNL     1      -1.240  -8.766  15.744  1.00  0.00     0.009 A 
ATOM     63  C   UNL     1      -1.315 -11.536  15.412  1.00  0.00     0.001 A 
ATOM     64  C   UNL     1      -2.328  -9.499  16.223  1.00  0.00     0.001 A 
ATOM     65  C   UNL     1      -2.369 -10.881  16.047  1.00  0.00     0.000 A 
ENDBRANCH  46  60
BRANCH  47  66
ATOM     66  C   UNL     1       7.135  -3.789  11.307  1.00  0.00    -0.014 A 
ATOM     67  C   UNL     1       8.476  -4.200  11.356  1.00  0.00     0.009 A 
ATOM     68  C   UNL     1       6.822  -2.557  10.714  1.00  0.00     0.009 A 
ATOM     69  C   UNL     1       9.485  -3.382  10.843  1.00  0.00     0.001 A 
ATOM     70  C   UNL     1       7.831  -1.752  10.180  1.00  0.00     0.001 A 
ATOM     71  C   UNL     1       9.161  -2.162  10.252  1.00  0.00     0.000 A 
ENDBRANCH  47  66
BRANCH  59  72
ATOM     72  C   UNL     1       5.321  -5.580  17.781  1.00  0.00    -0.014 A 
ATOM     73  C   UNL     1       5.173  -4.306  18.351  1.00  0.00     0.009 A 
ATOM     74  C   UNL     1       6.005  -6.574  18.499  1.00  0.00     0.009 A 
ATOM     75  C   UNL     1       5.729  -4.024  19.600  1.00  0.00     0.001 A 
ATOM     76  C   UNL     1       6.537  -6.296  19.759  1.00  0.00     0.001 A 
ATOM     77  C   UNL     1       6.406  -5.020  20.304  1.00  0.00     0.000 A 
ENDBRANCH  59  72
ENDBRANCH  33  34
ENDBRANCH  25  28
ENDBRANCH  23  24
ENDBRANCH  22  23
ENDBRANCH   1  22
TORSDOF 14
