REMARK SMILES Nc1cc(F)c([C@H]([NH3+])C(=O)NCCCNC(=O)c2ccc(-c3c4nc(c(-c5ccccc5)c5ccc([nH]5)c(-c5ccccc5)c5nc(c(-c6ccccc6)c6ccc3[nH]6)C=C5)C=C4)cc2)cc1F
REMARK SMILES IDX 13 1 12 2 11 3 9 4 10 5 7 7 6 8 2 9 3 10 67 11 4 12 66 13
REMARK SMILES IDX 68 14 5 15 1 16 8 19 14 23 15 24 16 25 17 27 18 28 19 29
REMARK SMILES IDX 65 30 20 31 64 32 21 33 22 34 23 35 58 36 24 37 63 38 57 39
REMARK SMILES IDX 59 40 25 41 62 42 56 43 55 44 26 46 48 47 33 48 47 49 34 50
REMARK SMILES IDX 37 51 46 52 60 53 35 54 36 55 45 57 61 58 38 59 27 60 28 61
REMARK SMILES IDX 32 62 29 63 31 64 30 65 49 66 50 67 54 68 51 69 53 70 52 71
REMARK SMILES IDX 39 72 40 73 44 74 41 75 43 76 42 77
REMARK H PARENT 11 6 1 17 1 18 8 20 8 21 8 22 15 26 59 45 37 56
REMARK Flexibility Score: inf
ROOT
ATOM      1  C   UNL     1       1.101  -3.648   3.977  1.00  0.00     0.042 C 
ENDROOT
BRANCH   1   2
ATOM      2  C   UNL     1       0.619  -4.959   3.378  1.00  0.00     0.118 C 
BRANCH   2   3
ATOM      3  N   UNL     1      -0.821  -5.112   3.489  1.00  0.00    -0.351 N 
ATOM      4  C   UNL     1      -1.763  -5.186   2.503  1.00  0.00     0.283 C 
ATOM      5  O   UNL     1      -2.950  -5.225   2.846  1.00  0.00    -0.268 OA
ATOM      6  H   UNL     1      -1.168  -5.171   4.409  1.00  0.00     0.163 HD
BRANCH   4   7
ATOM      7  C   UNL     1      -1.372  -5.130   1.001  1.00  0.00     0.305 C 
BRANCH   7   8
ATOM      8  C   UNL     1      -0.376  -6.190   0.555  1.00  0.00     0.058 A 
ATOM      9  C   UNL     1       1.508  -8.187  -0.204  1.00  0.00     0.071 A 
ATOM     10  C   UNL     1       0.571  -8.439   0.793  1.00  0.00     0.068 A 
ATOM     11  C   UNL     1       1.491  -6.928  -0.817  1.00  0.00     0.146 A 
ATOM     12  C   UNL     1      -0.369  -7.466   1.140  1.00  0.00     0.135 A 
ATOM     13  C   UNL     1       0.564  -5.948  -0.461  1.00  0.00     0.055 A 
ATOM     14  F   UNL     1       2.390  -6.646  -1.773  1.00  0.00    -0.205 F 
ATOM     15  F   UNL     1      -1.264  -7.779   2.087  1.00  0.00    -0.206 F 
BRANCH   9  16
ATOM     16  N   UNL     1       2.496  -9.117  -0.499  1.00  0.00    -0.396 N 
ATOM     17  H   UNL     1       2.490  -9.997  -0.057  1.00  0.00     0.156 HD
ATOM     18  H   UNL     1       3.201  -8.897  -1.149  1.00  0.00     0.156 HD
ENDBRANCH   9  16
ENDBRANCH   7   8
BRANCH   7  19
ATOM     19  N   UNL     1      -0.942  -3.740   0.701  1.00  0.00    -0.343 N 
ATOM     20  H   UNL     1      -0.122  -3.509   1.263  1.00  0.00     0.345 HD
ATOM     21  H   UNL     1      -1.699  -3.094   0.922  1.00  0.00     0.345 HD
ATOM     22  H   UNL     1      -0.708  -3.663  -0.289  1.00  0.00     0.345 HD
ENDBRANCH   7  19
ENDBRANCH   4   7
ENDBRANCH   2   3
ENDBRANCH   1   2
BRANCH   1  23
ATOM     23  C   UNL     1       0.885  -3.539   5.478  1.00  0.00     0.118 C 
BRANCH  23  24
ATOM     24  N   UNL     1       1.710  -4.460   6.252  1.00  0.00    -0.352 N 
ATOM     25  C   UNL     1       2.578  -4.199   7.288  1.00  0.00     0.251 C 
ATOM     26  H   UNL     1       1.635  -5.408   5.996  1.00  0.00     0.163 HD
ATOM     27  O   UNL     1       3.288  -5.091   7.741  1.00  0.00    -0.269 OA
BRANCH  25  28
ATOM     28  C   UNL     1       2.684  -2.826   7.825  1.00  0.00     0.039 A 
ATOM     29  C   UNL     1       1.537  -2.071   8.069  1.00  0.00     0.014 A 
ATOM     30  C   UNL     1       3.948  -2.271   8.041  1.00  0.00     0.014 A 
ATOM     31  C   UNL     1       1.654  -0.711   8.325  1.00  0.00     0.010 A 
ATOM     32  C   UNL     1       4.063  -0.925   8.401  1.00  0.00     0.010 A 
ATOM     33  C   UNL     1       2.918  -0.118   8.485  1.00  0.00    -0.014 A 
BRANCH  33  34
ATOM     34  C   UNL     1       3.004   1.346   8.728  1.00  0.00     0.031 A 
ATOM     35  C   UNL     1       3.658   2.260   7.726  1.00  0.00     0.074 A 
ATOM     36  C   UNL     1       2.411   1.863   9.822  1.00  0.00     0.049 A 
ATOM     37  N   UNL     1       3.757   3.567   7.750  1.00  0.00    -0.248 NA
ATOM     38  C   UNL     1       4.282   1.638   6.547  1.00  0.00     0.031 C 
ATOM     39  C   UNL     1       1.728   1.081  10.856  1.00  0.00     0.029 A 
ATOM     40  N   UNL     1       2.247   3.163  10.226  1.00  0.00    -0.354 N 
ATOM     41  C   UNL     1       4.468   3.917   6.609  1.00  0.00     0.074 A 
ATOM     42  C   UNL     1       4.800   2.688   5.923  1.00  0.00     0.031 C 
ATOM     43  C   UNL     1       1.154   1.919  11.730  1.00  0.00     0.029 A 
ATOM     44  C   UNL     1       1.487   3.291  11.363  1.00  0.00     0.049 A 
ATOM     45  H   UNL     1       2.637   3.931   9.748  1.00  0.00     0.167 HD
ATOM     46  C   UNL     1       4.802   5.152   6.166  1.00  0.00     0.031 A 
ATOM     47  C   UNL     1       1.100   4.387  12.044  1.00  0.00     0.031 A 
ATOM     48  C   UNL     1       4.455   6.377   6.838  1.00  0.00     0.049 A 
ATOM     49  C   UNL     1       1.517   5.741  11.551  1.00  0.00     0.074 A 
ATOM     50  C   UNL     1       4.737   7.676   6.451  1.00  0.00     0.029 A 
ATOM     51  N   UNL     1       3.749   6.456   8.027  1.00  0.00    -0.354 N 
ATOM     52  N   UNL     1       2.186   6.051  10.469  1.00  0.00    -0.248 NA
ATOM     53  C   UNL     1       1.131   6.895  12.375  1.00  0.00     0.031 C 
ATOM     54  C   UNL     1       4.248   8.539   7.434  1.00  0.00     0.029 A 
ATOM     55  C   UNL     1       3.607   7.781   8.401  1.00  0.00     0.049 A 
ATOM     56  H   UNL     1       3.400   5.685   8.530  1.00  0.00     0.167 HD
ATOM     57  C   UNL     1       2.298   7.434  10.476  1.00  0.00     0.074 A 
ATOM     58  C   UNL     1       1.606   7.906  11.658  1.00  0.00     0.031 C 
ATOM     59  C   UNL     1       2.923   8.238   9.583  1.00  0.00     0.031 A 
BRANCH  46  60
ATOM     60  C   UNL     1       5.598   5.258   4.894  1.00  0.00    -0.014 A 
ATOM     61  C   UNL     1       6.933   5.690   4.943  1.00  0.00     0.009 A 
ATOM     62  C   UNL     1       5.003   5.029   3.644  1.00  0.00     0.009 A 
ATOM     63  C   UNL     1       7.654   5.904   3.766  1.00  0.00     0.001 A 
ATOM     64  C   UNL     1       5.735   5.218   2.469  1.00  0.00     0.001 A 
ATOM     65  C   UNL     1       7.055   5.664   2.530  1.00  0.00     0.000 A 
ENDBRANCH  46  60
BRANCH  47  66
ATOM     66  C   UNL     1       0.265   4.229  13.263  1.00  0.00    -0.014 A 
ATOM     67  C   UNL     1       0.798   3.635  14.419  1.00  0.00     0.009 A 
ATOM     68  C   UNL     1      -1.083   4.614  13.258  1.00  0.00     0.009 A 
ATOM     69  C   UNL     1      -0.009   3.403  15.534  1.00  0.00     0.001 A 
ATOM     70  C   UNL     1      -1.881   4.407  14.386  1.00  0.00     0.001 A 
ATOM     71  C   UNL     1      -1.347   3.792  15.518  1.00  0.00     0.000 A 
ENDBRANCH  47  66
BRANCH  59  72
ATOM     72  C   UNL     1       2.895   9.718   9.834  1.00  0.00    -0.014 A 
ATOM     73  C   UNL     1       2.136  10.553   8.998  1.00  0.00     0.009 A 
ATOM     74  C   UNL     1       3.696  10.296  10.831  1.00  0.00     0.009 A 
ATOM     75  C   UNL     1       2.192  11.940   9.145  1.00  0.00     0.001 A 
ATOM     76  C   UNL     1       3.729  11.682  10.992  1.00  0.00     0.001 A 
ATOM     77  C   UNL     1       2.985  12.502  10.144  1.00  0.00     0.000 A 
ENDBRANCH  59  72
ENDBRANCH  33  34
ENDBRANCH  25  28
ENDBRANCH  23  24
ENDBRANCH   1  23
TORSDOF 13
