REMARK SMILES C[C@@H]1CC[C@@H](C(=O)NCCCNC(=O)c2ccc(-c3c4nc(c(-c5ccccc5)c5ccc([nH]5)c(-c5ccccc5)c5nc(c(-c6ccccc6)c6ccc3[nH]6)C=C5)C=C4)cc2)[C@H](SCC[NH+](C)C)C1
REMARK SMILES IDX 9 1 8 2 6 3 7 4 5 6 1 7 2 8 3 9 70 10 4 11 63 12 64 13 65 14
REMARK SMILES IDX 66 15 67 16 68 17 69 18 10 20 11 21 12 22 13 23 14 25 15 26
REMARK SMILES IDX 16 27 62 28 17 29 61 30 18 31 19 32 20 33 55 34 21 35 60 36
REMARK SMILES IDX 54 37 56 38 22 39 59 40 53 41 52 42 23 44 45 45 30 46 44 47
REMARK SMILES IDX 31 48 34 49 43 50 57 51 32 52 33 53 42 55 58 56 35 57 24 58
REMARK SMILES IDX 25 59 29 60 26 61 28 62 27 63 46 64 47 65 51 66 48 67 50 68
REMARK SMILES IDX 49 69 36 70 37 71 41 72 38 73 40 74 39 75
REMARK H PARENT 8 5 67 19 12 24 56 43 34 54
REMARK Flexibility Score: inf
ROOT
ATOM      1  C   UNL     1      -4.762   0.050  -1.510  1.00  0.00     0.117 C 
ENDROOT
BRANCH   1   2
ATOM      2  N   UNL     1      -3.650  -0.493  -2.253  1.00  0.00    -0.356 N 
ATOM      3  C   UNL     1      -2.344  -0.651  -1.948  1.00  0.00     0.224 C 
ATOM      4  O   UNL     1      -1.665  -1.201  -2.821  1.00  0.00    -0.275 OA
ATOM      5  H   UNL     1      -3.889  -0.808  -3.154  1.00  0.00     0.163 HD
BRANCH   3   6
ATOM      6  C   UNL     1      -1.708  -0.107  -0.646  1.00  0.00     0.091 C 
ATOM      7  C   UNL     1       2.211  -1.227   0.135  1.00  0.00     0.007 C 
ATOM      8  C   UNL     1       1.100  -1.220  -0.917  1.00  0.00    -0.013 C 
ATOM      9  C   UNL     1       0.772   0.187  -1.455  1.00  0.00     0.004 C 
ATOM     10  C   UNL     1      -0.079  -2.069  -0.446  1.00  0.00     0.018 C 
ATOM     11  C   UNL     1      -0.609   0.810  -1.200  1.00  0.00     0.015 C 
ATOM     12  C   UNL     1      -1.238  -1.307   0.217  1.00  0.00     0.059 C 
BRANCH  12  13
ATOM     13  S   UNL     1      -1.074  -1.527   2.091  1.00  0.00    -0.152 SA
BRANCH  13  14
ATOM     14  C   UNL     1      -0.824   0.019   3.062  1.00  0.00     0.131 C 
BRANCH  14  15
ATOM     15  C   UNL     1       0.640   0.436   3.436  1.00  0.00     0.272 C 
BRANCH  15  16
ATOM     16  N   UNL     1       1.240   1.602   2.751  1.00  0.00    -0.339 N 
ATOM     17  C   UNL     1       2.686   1.458   2.543  1.00  0.00     0.332 C 
ATOM     18  C   UNL     1       0.583   1.878   1.501  1.00  0.00     0.332 C 
ATOM     19  H   UNL     1       1.101   2.396   3.376  1.00  0.00     0.347 HD
ENDBRANCH  15  16
ENDBRANCH  14  15
ENDBRANCH  13  14
ENDBRANCH  12  13
ENDBRANCH   3   6
ENDBRANCH   1   2
BRANCH   1  20
ATOM     20  C   UNL     1      -5.161   1.447  -1.975  1.00  0.00     0.042 C 
BRANCH  20  21
ATOM     21  C   UNL     1      -5.381   1.609  -3.481  1.00  0.00     0.118 C 
BRANCH  21  22
ATOM     22  N   UNL     1      -6.334   0.660  -4.043  1.00  0.00    -0.352 N 
ATOM     23  C   UNL     1      -7.506   0.863  -4.726  1.00  0.00     0.251 C 
ATOM     24  H   UNL     1      -6.096  -0.286  -3.909  1.00  0.00     0.163 HD
ATOM     25  O   UNL     1      -8.222  -0.103  -4.997  1.00  0.00    -0.269 OA
BRANCH  23  26
ATOM     26  C   UNL     1      -7.939   2.220  -5.117  1.00  0.00     0.039 A 
ATOM     27  C   UNL     1      -9.284   2.567  -4.957  1.00  0.00     0.014 A 
ATOM     28  C   UNL     1      -7.043   3.142  -5.663  1.00  0.00     0.014 A 
ATOM     29  C   UNL     1      -9.713   3.857  -5.276  1.00  0.00     0.010 A 
ATOM     30  C   UNL     1      -7.454   4.452  -5.902  1.00  0.00     0.010 A 
ATOM     31  C   UNL     1      -8.793   4.825  -5.713  1.00  0.00    -0.014 A 
BRANCH  31  32
ATOM     32  C   UNL     1      -9.219   6.226  -5.965  1.00  0.00     0.031 A 
ATOM     33  C   UNL     1      -9.112   6.823  -7.343  1.00  0.00     0.074 A 
ATOM     34  C   UNL     1      -9.659   6.982  -4.939  1.00  0.00     0.049 A 
ATOM     35  N   UNL     1      -9.414   8.032  -7.744  1.00  0.00    -0.248 NA
ATOM     36  C   UNL     1      -8.572   5.957  -8.403  1.00  0.00     0.031 C 
ATOM     37  C   UNL     1      -9.770   6.539  -3.547  1.00  0.00     0.029 A 
ATOM     38  N   UNL     1     -10.094   8.283  -4.907  1.00  0.00    -0.354 N 
ATOM     39  C   UNL     1      -9.090   8.075  -9.094  1.00  0.00     0.074 A 
ATOM     40  C   UNL     1      -8.514   6.792  -9.431  1.00  0.00     0.031 C 
ATOM     41  C   UNL     1     -10.278   7.537  -2.807  1.00  0.00     0.029 A 
ATOM     42  C   UNL     1     -10.486   8.703  -3.658  1.00  0.00     0.049 A 
ATOM     43  H   UNL     1     -10.123   8.861  -5.703  1.00  0.00     0.167 HD
ATOM     44  C   UNL     1      -9.273   9.082  -9.981  1.00  0.00     0.031 A 
ATOM     45  C   UNL     1     -10.959   9.893  -3.243  1.00  0.00     0.031 A 
ATOM     46  C   UNL     1      -9.848  10.359  -9.647  1.00  0.00     0.049 A 
ATOM     47  C   UNL     1     -11.136  11.002  -4.243  1.00  0.00     0.074 A 
ATOM     48  C   UNL     1     -10.123  11.426 -10.485  1.00  0.00     0.029 A 
ATOM     49  N   UNL     1     -10.231  10.743  -8.372  1.00  0.00    -0.354 N 
ATOM     50  N   UNL     1     -10.892  11.000  -5.531  1.00  0.00    -0.248 NA
ATOM     51  C   UNL     1     -11.668  12.273  -3.732  1.00  0.00     0.031 C 
ATOM     52  C   UNL     1     -10.616  12.477  -9.706  1.00  0.00     0.029 A 
ATOM     53  C   UNL     1     -10.716  12.040  -8.395  1.00  0.00     0.049 A 
ATOM     54  H   UNL     1     -10.168  10.177  -7.568  1.00  0.00     0.167 HD
ATOM     55  C   UNL     1     -11.275  12.254  -5.991  1.00  0.00     0.074 A 
ATOM     56  C   UNL     1     -11.780  12.983  -4.846  1.00  0.00     0.031 C 
ATOM     57  C   UNL     1     -11.218  12.754  -7.249  1.00  0.00     0.031 A 
BRANCH  44  58
ATOM     58  C   UNL     1      -8.836   8.845 -11.402  1.00  0.00    -0.014 A 
ATOM     59  C   UNL     1      -9.505   7.925 -12.227  1.00  0.00     0.009 A 
ATOM     60  C   UNL     1      -7.765   9.577 -11.936  1.00  0.00     0.009 A 
ATOM     61  C   UNL     1      -9.082   7.714 -13.542  1.00  0.00     0.001 A 
ATOM     62  C   UNL     1      -7.366   9.389 -13.261  1.00  0.00     0.001 A 
ATOM     63  C   UNL     1      -8.018   8.450 -14.059  1.00  0.00     0.000 A 
ENDBRANCH  44  58
BRANCH  45  64
ATOM     64  C   UNL     1     -11.319  10.096  -1.814  1.00  0.00    -0.014 A 
ATOM     65  C   UNL     1     -12.659  10.264  -1.432  1.00  0.00     0.009 A 
ATOM     66  C   UNL     1     -10.324  10.134  -0.824  1.00  0.00     0.009 A 
ATOM     67  C   UNL     1     -12.992  10.496  -0.095  1.00  0.00     0.001 A 
ATOM     68  C   UNL     1     -10.663  10.334   0.516  1.00  0.00     0.001 A 
ATOM     69  C   UNL     1     -11.995  10.527   0.878  1.00  0.00     0.000 A 
ENDBRANCH  45  64
BRANCH  57  70
ATOM     70  C   UNL     1     -11.762  14.139  -7.467  1.00  0.00    -0.014 A 
ATOM     71  C   UNL     1     -11.103  15.275  -6.972  1.00  0.00     0.009 A 
ATOM     72  C   UNL     1     -12.938  14.308  -8.215  1.00  0.00     0.009 A 
ATOM     73  C   UNL     1     -11.633  16.549  -7.190  1.00  0.00     0.001 A 
ATOM     74  C   UNL     1     -13.447  15.584  -8.461  1.00  0.00     0.001 A 
ATOM     75  C   UNL     1     -12.800  16.703  -7.939  1.00  0.00     0.000 A 
ENDBRANCH  57  70
ENDBRANCH  31  32
ENDBRANCH  23  26
ENDBRANCH  21  22
ENDBRANCH  20  21
ENDBRANCH   1  20
TORSDOF 14
