REMARK SMILES O=C(NCCCNC(=O)[C@H]1CCCCN1c1cc(-c2ccccc2)nc(-c2cccc(Cl)c2)n1)c1ccc(-c2c3nc(c(-c4ccccc4)c4ccc([nH]4)c(-c4ccccc4)c4nc(c(-c5ccccc5)c5ccc2[nH]5)C=C4)C=C3)cc1
REMARK SMILES IDX 5 1 4 2 3 3 1 4 2 5 35 7 36 8 82 9 37 10 81 11 38 12 39 13
REMARK SMILES IDX 40 14 75 15 41 16 80 17 74 18 76 19 42 20 79 21 73 22 72 23
REMARK SMILES IDX 43 25 65 26 50 27 64 28 51 29 54 30 63 31 77 32 52 33 53 34
REMARK SMILES IDX 62 36 78 37 55 38 44 39 45 40 49 41 46 42 48 43 47 44 66 45
REMARK SMILES IDX 67 46 71 47 68 48 70 49 69 50 56 51 57 52 61 53 58 54 60 55
REMARK SMILES IDX 59 56 6 57 7 58 8 59 9 61 10 62 11 63 15 64 12 65 14 66
REMARK SMILES IDX 13 67 16 68 17 69 34 70 18 71 26 72 25 73 19 74 20 75 24 76
REMARK SMILES IDX 21 77 23 78 22 79 27 80 28 81 33 82 29 83 31 84 30 85 32 86
REMARK H PARENT 3 6 76 24 54 35 7 60
REMARK Flexibility Score: inf
ROOT
ATOM      1  C   UNL     1       9.182   4.258  -0.727  1.00  0.00     0.042 C 
ENDROOT
BRANCH   1   2
ATOM      2  C   UNL     1       8.931   3.971  -2.195  1.00  0.00     0.118 C 
BRANCH   2   3
ATOM      3  N   UNL     1       9.588   4.950  -3.056  1.00  0.00    -0.352 N 
ATOM      4  O   UNL     1      11.324   5.886  -4.152  1.00  0.00    -0.269 OA
ATOM      5  C   UNL     1      10.798   4.875  -3.707  1.00  0.00     0.251 C 
ATOM      6  H   UNL     1       9.091   5.789  -3.192  1.00  0.00     0.163 HD
BRANCH   5   7
ATOM      7  C   UNL     1      11.453   3.562  -3.860  1.00  0.00     0.039 A 
ATOM      8  C   UNL     1      10.677   2.439  -4.142  1.00  0.00     0.014 A 
ATOM      9  C   UNL     1      12.841   3.448  -3.751  1.00  0.00     0.014 A 
ATOM     10  C   UNL     1      11.250   1.182  -4.126  1.00  0.00     0.010 A 
ATOM     11  C   UNL     1      13.441   2.193  -3.893  1.00  0.00     0.010 A 
ATOM     12  C   UNL     1      12.645   1.052  -4.070  1.00  0.00    -0.014 A 
BRANCH  12  13
ATOM     13  C   UNL     1      13.221  -0.278  -4.370  1.00  0.00     0.031 A 
ATOM     14  C   UNL     1      14.027  -1.035  -3.360  1.00  0.00     0.074 A 
ATOM     15  C   UNL     1      12.950  -0.807  -5.582  1.00  0.00     0.049 A 
ATOM     16  N   UNL     1      14.574  -2.218  -3.478  1.00  0.00    -0.248 NA
ATOM     17  C   UNL     1      14.261  -0.391  -2.058  1.00  0.00     0.031 C 
ATOM     18  C   UNL     1      12.175  -0.142  -6.638  1.00  0.00     0.029 A 
ATOM     19  N   UNL     1      13.260  -2.025  -6.123  1.00  0.00    -0.354 N 
ATOM     20  C   UNL     1      15.240  -2.449  -2.283  1.00  0.00     0.074 A 
ATOM     21  C   UNL     1      15.036  -1.282  -1.451  1.00  0.00     0.031 C 
ATOM     22  C   UNL     1      12.012  -0.984  -7.666  1.00  0.00     0.029 A 
ATOM     23  C   UNL     1      12.754  -2.203  -7.388  1.00  0.00     0.049 A 
ATOM     24  H   UNL     1      13.792  -2.707  -5.653  1.00  0.00     0.167 HD
ATOM     25  C   UNL     1      15.960  -3.538  -1.925  1.00  0.00     0.031 A 
ATOM     26  C   UNL     1      12.903  -3.220  -8.254  1.00  0.00     0.031 A 
ATOM     27  C   UNL     1      16.144  -4.694  -2.765  1.00  0.00     0.049 A 
ATOM     28  C   UNL     1      13.740  -4.389  -7.835  1.00  0.00     0.074 A 
ATOM     29  C   UNL     1      16.818  -5.868  -2.477  1.00  0.00     0.029 A 
ATOM     30  N   UNL     1      15.661  -4.816  -4.060  1.00  0.00    -0.354 N 
ATOM     31  N   UNL     1      14.326  -4.610  -6.684  1.00  0.00    -0.248 NA
ATOM     32  C   UNL     1      13.947  -5.442  -8.836  1.00  0.00     0.031 C 
ATOM     33  C   UNL     1      16.798  -6.674  -3.619  1.00  0.00     0.029 A 
ATOM     34  C   UNL     1      16.059  -6.029  -4.598  1.00  0.00     0.049 A 
ATOM     35  H   UNL     1      15.117  -4.142  -4.526  1.00  0.00     0.167 HD
ATOM     36  C   UNL     1      14.970  -5.830  -6.820  1.00  0.00     0.074 A 
ATOM     37  C   UNL     1      14.668  -6.317  -8.151  1.00  0.00     0.031 C 
ATOM     38  C   UNL     1      15.753  -6.484  -5.929  1.00  0.00     0.031 A 
BRANCH  25  39
ATOM     39  C   UNL     1      16.641  -3.531  -0.585  1.00  0.00    -0.014 A 
ATOM     40  C   UNL     1      15.921  -3.702   0.606  1.00  0.00     0.009 A 
ATOM     41  C   UNL     1      18.042  -3.445  -0.526  1.00  0.00     0.009 A 
ATOM     42  C   UNL     1      16.590  -3.776   1.831  1.00  0.00     0.001 A 
ATOM     43  C   UNL     1      18.709  -3.542   0.697  1.00  0.00     0.001 A 
ATOM     44  C   UNL     1      17.983  -3.704   1.874  1.00  0.00     0.000 A 
ENDBRANCH  25  39
BRANCH  26  45
ATOM     45  C   UNL     1      12.312  -3.138  -9.615  1.00  0.00    -0.014 A 
ATOM     46  C   UNL     1      11.300  -4.019 -10.017  1.00  0.00     0.009 A 
ATOM     47  C   UNL     1      12.771  -2.171 -10.526  1.00  0.00     0.009 A 
ATOM     48  C   UNL     1      10.783  -3.955 -11.314  1.00  0.00     0.001 A 
ATOM     49  C   UNL     1      12.226  -2.084 -11.807  1.00  0.00     0.001 A 
ATOM     50  C   UNL     1      11.242  -2.985 -12.204  1.00  0.00     0.000 A 
ENDBRANCH  26  45
BRANCH  38  51
ATOM     51  C   UNL     1      16.320  -7.800  -6.374  1.00  0.00    -0.014 A 
ATOM     52  C   UNL     1      17.346  -7.859  -7.329  1.00  0.00     0.009 A 
ATOM     53  C   UNL     1      15.832  -8.992  -5.818  1.00  0.00     0.009 A 
ATOM     54  C   UNL     1      17.848  -9.091  -7.747  1.00  0.00     0.001 A 
ATOM     55  C   UNL     1      16.358 -10.221  -6.215  1.00  0.00     0.001 A 
ATOM     56  C   UNL     1      17.357 -10.270  -7.186  1.00  0.00     0.000 A 
ENDBRANCH  38  51
ENDBRANCH  12  13
ENDBRANCH   5   7
ENDBRANCH   2   3
ENDBRANCH   1   2
BRANCH   1  57
ATOM     57  C   UNL     1       8.484   5.526  -0.280  1.00  0.00     0.117 C 
BRANCH  57  58
ATOM     58  N   UNL     1       7.051   5.340  -0.212  1.00  0.00    -0.354 N 
ATOM     59  C   UNL     1       6.124   5.465   0.763  1.00  0.00     0.242 C 
ATOM     60  H   UNL     1       6.663   5.058  -1.072  1.00  0.00     0.163 HD
ATOM     61  O   UNL     1       4.987   5.104   0.416  1.00  0.00    -0.273 OA
BRANCH  59  62
ATOM     62  C   UNL     1       6.360   6.029   2.197  1.00  0.00     0.173 C 
ATOM     63  C   UNL     1       7.707   6.613   2.625  1.00  0.00     0.035 C 
ATOM     64  N   UNL     1       5.336   7.067   2.422  1.00  0.00    -0.344 N 
ATOM     65  C   UNL     1       8.006   7.955   1.947  1.00  0.00     0.004 C 
ATOM     66  C   UNL     1       5.521   8.350   1.755  1.00  0.00     0.119 C 
ATOM     67  C   UNL     1       6.867   8.949   2.166  1.00  0.00     0.022 C 
BRANCH  64  68
ATOM     68  C   UNL     1       4.621   7.020   3.602  1.00  0.00     0.133 A 
ATOM     69  C   UNL     1       3.279   7.325   3.590  1.00  0.00     0.076 A 
ATOM     70  N   UNL     1       5.240   6.639   4.728  1.00  0.00    -0.211 NA
ATOM     71  C   UNL     1       2.590   7.208   4.779  1.00  0.00     0.076 A 
ATOM     72  C   UNL     1       4.500   6.573   5.847  1.00  0.00     0.162 A 
ATOM     73  N   UNL     1       3.188   6.842   5.928  1.00  0.00    -0.228 NA
BRANCH  71  74
ATOM     74  C   UNL     1       1.152   7.473   4.841  1.00  0.00     0.000 A 
ATOM     75  C   UNL     1       0.641   8.473   5.682  1.00  0.00     0.010 A 
ATOM     76  C   UNL     1       0.253   6.760   4.029  1.00  0.00     0.010 A 
ATOM     77  C   UNL     1      -0.724   8.768   5.693  1.00  0.00     0.001 A 
ATOM     78  C   UNL     1      -1.113   7.048   4.047  1.00  0.00     0.001 A 
ATOM     79  C   UNL     1      -1.599   8.056   4.875  1.00  0.00     0.000 A 
ENDBRANCH  71  74
BRANCH  72  80
ATOM     80  C   UNL     1       5.187   6.157   7.071  1.00  0.00     0.021 A 
ATOM     81  C   UNL     1       6.375   6.788   7.487  1.00  0.00     0.012 A 
ATOM     82  C   UNL     1       4.686   5.104   7.854  1.00  0.00     0.032 A 
ATOM     83  C   UNL     1       7.033   6.391   8.654  1.00  0.00     0.002 A 
ATOM     84  C   UNL     1       5.357   4.697   9.007  1.00  0.00     0.041 A 
ATOM     85  C   UNL     1       6.524   5.340   9.414  1.00  0.00     0.020 A 
ATOM     86  Cl  UNL     1       4.743   3.381   9.932  1.00  0.00    -0.084 Cl
ENDBRANCH  72  80
ENDBRANCH  64  68
ENDBRANCH  59  62
ENDBRANCH  57  58
ENDBRANCH   1  57
TORSDOF 13
