REMARK SMILES O=C(Cc1csc(NC(=O)CS[C@@H]2CCS(=O)(=O)C2)n1)NCCCNC(=O)c1ccc(-c2c3nc(c(-c4ccccc4)c4ccc([nH]4)c(-c4ccccc4)c4nc(c(-c5ccccc5)c5ccc2[nH]5)C=C4)C=C3)cc1
REMARK SMILES IDX 1 1 2 2 21 3 3 5 4 6 5 7 20 8 6 9 7 10 8 11 9 12 10 14 11 15
REMARK SMILES IDX 12 16 13 17 14 18 19 19 15 20 16 21 17 22 18 23 22 24 23 25
REMARK SMILES IDX 24 26 25 27 26 28 27 30 28 31 29 32 75 33 30 34 74 35 31 36
REMARK SMILES IDX 32 37 33 38 68 39 34 40 73 41 67 42 69 43 35 44 72 45 66 46
REMARK SMILES IDX 65 47 36 49 58 50 43 51 57 52 44 53 47 54 56 55 70 56 45 57
REMARK SMILES IDX 46 58 55 60 71 61 48 62 37 63 38 64 42 65 39 66 41 67 40 68
REMARK SMILES IDX 59 69 60 70 64 71 61 72 63 73 62 74 49 75 50 76 54 77 51 78
REMARK SMILES IDX 53 79 52 80
REMARK H PARENT 21 4 8 13 25 29 69 48 47 59
REMARK Flexibility Score: inf
ROOT
ATOM      1  O   UNL     1       0.924   0.270   0.042  1.00  0.00    -0.275 OA
ATOM      2  C   UNL     1       2.147   0.215  -0.041  1.00  0.00     0.226 C 
ATOM      3  N   UNL     1       2.812  -0.645  -0.899  1.00  0.00    -0.356 N 
ATOM      4  H   UNL     1       3.761  -0.477  -1.098  1.00  0.00     0.163 HD
ENDROOT
BRANCH   2   5
ATOM      5  C   UNL     1       3.068   1.057   0.833  1.00  0.00     0.157 C 
BRANCH   5   6
ATOM      6  C   UNL     1       3.970   0.207   1.687  1.00  0.00     0.063 A 
ATOM      7  C   UNL     1       3.950  -1.173   1.806  1.00  0.00     0.093 A 
ATOM      8  N   UNL     1       4.966   0.816   2.449  1.00  0.00    -0.224 NA
ATOM      9  S   UNL     1       5.373  -1.699   2.574  1.00  0.00    -0.105 S 
ATOM     10  C   UNL     1       5.647  -0.101   3.103  1.00  0.00     0.189 A 
BRANCH  10  11
ATOM     11  N   UNL     1       6.607   0.190   4.033  1.00  0.00    -0.301 N 
ATOM     12  C   UNL     1       7.179  -0.587   4.996  1.00  0.00     0.236 C 
ATOM     13  H   UNL     1       6.942   1.115   4.001  1.00  0.00     0.172 HD
ATOM     14  O   UNL     1       8.240  -0.200   5.503  1.00  0.00    -0.274 OA
BRANCH  12  15
ATOM     15  C   UNL     1       6.586  -1.898   5.500  1.00  0.00     0.170 C 
BRANCH  15  16
ATOM     16  S   UNL     1       4.798  -1.838   5.873  1.00  0.00    -0.148 SA
BRANCH  16  17
ATOM     17  C   UNL     1       4.627  -0.996   7.490  1.00  0.00     0.063 C 
ATOM     18  C   UNL     1       3.458   0.006   7.381  1.00  0.00     0.031 C 
ATOM     19  C   UNL     1       5.801  -0.252   8.120  1.00  0.00     0.151 C 
ATOM     20  C   UNL     1       4.037   1.321   6.884  1.00  0.00     0.138 C 
ATOM     21  S   UNL     1       5.583   1.479   7.744  1.00  0.00     0.151 S 
ATOM     22  O   UNL     1       6.584   1.913   6.792  1.00  0.00    -0.229 OA
ATOM     23  O   UNL     1       5.344   2.184   8.985  1.00  0.00    -0.229 OA
ENDBRANCH  16  17
ENDBRANCH  15  16
ENDBRANCH  12  15
ENDBRANCH  10  11
ENDBRANCH   5   6
ENDBRANCH   2   5
BRANCH   3  24
ATOM     24  C   UNL     1       2.158  -1.785  -1.514  1.00  0.00     0.117 C 
BRANCH  24  25
ATOM     25  C   UNL     1       2.520  -1.947  -2.980  1.00  0.00     0.042 C 
BRANCH  25  26
ATOM     26  C   UNL     1       4.005  -2.168  -3.246  1.00  0.00     0.118 C 
BRANCH  26  27
ATOM     27  N   UNL     1       4.497  -3.466  -2.802  1.00  0.00    -0.352 N 
ATOM     28  C   UNL     1       5.168  -4.434  -3.515  1.00  0.00     0.251 C 
ATOM     29  H   UNL     1       4.324  -3.681  -1.857  1.00  0.00     0.163 HD
ATOM     30  O   UNL     1       5.407  -5.522  -3.001  1.00  0.00    -0.269 OA
BRANCH  28  31
ATOM     31  C   UNL     1       5.567  -4.176  -4.916  1.00  0.00     0.039 A 
ATOM     32  C   UNL     1       5.292  -5.143  -5.887  1.00  0.00     0.014 A 
ATOM     33  C   UNL     1       6.180  -2.975  -5.279  1.00  0.00     0.014 A 
ATOM     34  C   UNL     1       5.543  -4.865  -7.234  1.00  0.00     0.010 A 
ATOM     35  C   UNL     1       6.352  -2.667  -6.626  1.00  0.00     0.010 A 
ATOM     36  C   UNL     1       6.026  -3.604  -7.619  1.00  0.00    -0.014 A 
BRANCH  36  37
ATOM     37  C   UNL     1       6.179  -3.229  -9.049  1.00  0.00     0.031 A 
ATOM     38  C   UNL     1       7.535  -2.876  -9.598  1.00  0.00     0.074 A 
ATOM     39  C   UNL     1       5.089  -3.120  -9.835  1.00  0.00     0.049 A 
ATOM     40  N   UNL     1       7.853  -2.417 -10.781  1.00  0.00    -0.248 NA
ATOM     41  C   UNL     1       8.680  -3.036  -8.687  1.00  0.00     0.031 C 
ATOM     42  C   UNL     1       3.713  -3.409  -9.424  1.00  0.00     0.029 A 
ATOM     43  N   UNL     1       4.966  -2.721 -11.144  1.00  0.00    -0.354 N 
ATOM     44  C   UNL     1       9.227  -2.216 -10.751  1.00  0.00     0.074 A 
ATOM     45  C   UNL     1       9.675  -2.556  -9.418  1.00  0.00     0.031 C 
ATOM     46  C   UNL     1       2.890  -3.197 -10.463  1.00  0.00     0.029 A 
ATOM     47  C   UNL     1       3.668  -2.707 -11.596  1.00  0.00     0.049 A 
ATOM     48  H   UNL     1       5.734  -2.469 -11.705  1.00  0.00     0.167 HD
ATOM     49  C   UNL     1      10.046  -1.801 -11.746  1.00  0.00     0.031 A 
ATOM     50  C   UNL     1       3.155  -2.323 -12.782  1.00  0.00     0.031 A 
ATOM     51  C   UNL     1       9.602  -1.463 -13.073  1.00  0.00     0.049 A 
ATOM     52  C   UNL     1       4.081  -1.819 -13.856  1.00  0.00     0.074 A 
ATOM     53  C   UNL     1      10.363  -1.079 -14.163  1.00  0.00     0.029 A 
ATOM     54  N   UNL     1       8.279  -1.460 -13.487  1.00  0.00    -0.354 N 
ATOM     55  N   UNL     1       5.385  -1.694 -13.830  1.00  0.00    -0.248 NA
ATOM     56  C   UNL     1       3.462  -1.409 -15.125  1.00  0.00     0.031 C 
ATOM     57  C   UNL     1       9.496  -0.780 -15.217  1.00  0.00     0.029 A 
ATOM     58  C   UNL     1       8.200  -1.050 -14.807  1.00  0.00     0.049 A 
ATOM     59  H   UNL     1       7.511  -1.712 -12.926  1.00  0.00     0.167 HD
ATOM     60  C   UNL     1       5.746  -1.227 -15.088  1.00  0.00     0.074 A 
ATOM     61  C   UNL     1       4.525  -1.100 -15.855  1.00  0.00     0.031 C 
ATOM     62  C   UNL     1       6.981  -0.935 -15.564  1.00  0.00     0.031 A 
BRANCH  49  63
ATOM     63  C   UNL     1      11.512  -1.671 -11.433  1.00  0.00    -0.014 A 
ATOM     64  C   UNL     1      12.309  -2.801 -11.186  1.00  0.00     0.009 A 
ATOM     65  C   UNL     1      12.114  -0.403 -11.425  1.00  0.00     0.009 A 
ATOM     66  C   UNL     1      13.669  -2.660 -10.899  1.00  0.00     0.001 A 
ATOM     67  C   UNL     1      13.480  -0.268 -11.172  1.00  0.00     0.001 A 
ATOM     68  C   UNL     1      14.254  -1.394 -10.899  1.00  0.00     0.000 A 
ENDBRANCH  49  63
BRANCH  50  69
ATOM     69  C   UNL     1       1.688  -2.396 -13.021  1.00  0.00    -0.014 A 
ATOM     70  C   UNL     1       1.160  -3.315 -13.940  1.00  0.00     0.009 A 
ATOM     71  C   UNL     1       0.809  -1.538 -12.342  1.00  0.00     0.009 A 
ATOM     72  C   UNL     1      -0.213  -3.353 -14.197  1.00  0.00     0.001 A 
ATOM     73  C   UNL     1      -0.567  -1.601 -12.575  1.00  0.00     0.001 A 
ATOM     74  C   UNL     1      -1.075  -2.500 -13.510  1.00  0.00     0.000 A 
ENDBRANCH  50  69
BRANCH  62  75
ATOM     75  C   UNL     1       7.090  -0.498 -16.999  1.00  0.00    -0.014 A 
ATOM     76  C   UNL     1       6.653   0.768 -17.417  1.00  0.00     0.009 A 
ATOM     77  C   UNL     1       7.707  -1.346 -17.933  1.00  0.00     0.009 A 
ATOM     78  C   UNL     1       6.811   1.165 -18.746  1.00  0.00     0.001 A 
ATOM     79  C   UNL     1       7.893  -0.934 -19.253  1.00  0.00     0.001 A 
ATOM     80  C   UNL     1       7.439   0.319 -19.660  1.00  0.00     0.000 A 
ENDBRANCH  62  75
ENDBRANCH  36  37
ENDBRANCH  28  31
ENDBRANCH  26  27
ENDBRANCH  25  26
ENDBRANCH  24  25
ENDBRANCH   3  24
TORSDOF 15
