REMARK SMILES C[N@@H+]1CCN(C(=O)c2cc(-n3cccn3)ccc2Cl)C[C@H]1C(=O)NCCCNC(=O)c1ccc(-c2c3nc(c(-c4ccccc4)c4ccc([nH]4)c(-c4ccccc4)c4nc(c(-c5ccccc5)c5ccc2[nH]5)C=C4)C=C3)cc1
REMARK SMILES IDX 25 1 24 2 22 3 23 4 21 6 1 7 2 8 3 9 4 11 20 12 5 13 6 14
REMARK SMILES IDX 7 15 8 16 9 17 18 18 10 19 17 20 19 21 16 22 11 23 12 24
REMARK SMILES IDX 15 25 13 26 14 27 26 28 27 29 28 30 29 31 30 33 31 34 32 35
REMARK SMILES IDX 78 36 33 37 77 38 34 39 35 40 36 41 71 42 37 43 76 44 70 45
REMARK SMILES IDX 72 46 38 47 75 48 69 49 68 50 39 52 61 53 46 54 60 55 47 56
REMARK SMILES IDX 50 57 59 58 73 59 48 60 49 61 58 63 74 64 51 65 40 66 41 67
REMARK SMILES IDX 45 68 42 69 44 70 43 71 62 72 63 73 67 74 64 75 66 76 65 77
REMARK SMILES IDX 52 78 53 79 57 80 54 81 56 82 55 83
REMARK H PARENT 24 5 2 10 28 32 72 51 50 62
REMARK Flexibility Score: inf
ROOT
ATOM      1  C   UNL     1       0.311  -1.576  -2.791  1.00  0.00     0.118 C 
ENDROOT
BRANCH   1   2
ATOM      2  N   UNL     1       0.895  -2.494  -1.821  1.00  0.00    -0.351 N 
ATOM      3  C   UNL     1       0.955  -2.389  -0.459  1.00  0.00     0.280 C 
ATOM      4  O   UNL     1       1.494  -3.301   0.174  1.00  0.00    -0.268 OA
ATOM      5  H   UNL     1       1.304  -3.306  -2.201  1.00  0.00     0.163 HD
BRANCH   3   6
ATOM      6  C   UNL     1       0.335  -1.184   0.260  1.00  0.00     0.293 C 
ATOM      7  C   UNL     1       2.359   0.173   0.161  1.00  0.00     0.333 C 
ATOM      8  N   UNL     1       0.943   0.096  -0.217  1.00  0.00    -0.324 N 
ATOM      9  C   UNL     1       0.205   1.237   0.367  1.00  0.00     0.284 C 
ATOM     10  H   UNL     1       0.881   0.130  -1.235  1.00  0.00     0.348 HD
ATOM     11  C   UNL     1      -1.303   1.183   0.063  1.00  0.00     0.181 C 
ATOM     12  C   UNL     1      -1.198  -1.285   0.093  1.00  0.00     0.195 C 
ATOM     13  N   UNL     1      -1.909  -0.074   0.504  1.00  0.00    -0.326 N 
BRANCH  13  14
ATOM     14  C   UNL     1      -3.212  -0.058   0.989  1.00  0.00     0.255 C 
ATOM     15  O   UNL     1      -3.888   0.963   1.091  1.00  0.00    -0.269 OA
BRANCH  14  16
ATOM     16  C   UNL     1      -3.848  -1.337   1.368  1.00  0.00     0.060 A 
ATOM     17  C   UNL     1      -5.001  -1.723   0.666  1.00  0.00     0.043 A 
ATOM     18  C   UNL     1      -3.372  -2.115   2.433  1.00  0.00     0.053 A 
ATOM     19  C   UNL     1      -5.685  -2.881   1.056  1.00  0.00     0.065 A 
ATOM     20  C   UNL     1      -4.004  -3.320   2.744  1.00  0.00     0.023 A 
ATOM     21  Cl  UNL     1      -2.028  -1.646   3.416  1.00  0.00    -0.083 Cl
ATOM     22  C   UNL     1      -5.167  -3.696   2.072  1.00  0.00     0.030 A 
BRANCH  19  23
ATOM     23  N   UNL     1      -6.927  -3.207   0.458  1.00  0.00    -0.241 N 
ATOM     24  C   UNL     1      -7.966  -3.893   1.049  1.00  0.00     0.115 A 
ATOM     25  N   UNL     1      -7.236  -2.825  -0.804  1.00  0.00    -0.177 NA
ATOM     26  C   UNL     1      -8.963  -3.999   0.111  1.00  0.00     0.042 A 
ATOM     27  C   UNL     1      -8.442  -3.357  -1.023  1.00  0.00     0.135 A 
ENDBRANCH  19  23
ENDBRANCH  14  16
ENDBRANCH  13  14
ENDBRANCH   3   6
ENDBRANCH   1   2
BRANCH   1  28
ATOM     28  C   UNL     1       1.339  -0.887  -3.680  1.00  0.00     0.042 C 
BRANCH  28  29
ATOM     29  C   UNL     1       1.994  -1.847  -4.649  1.00  0.00     0.118 C 
BRANCH  29  30
ATOM     30  N   UNL     1       1.057  -2.423  -5.617  1.00  0.00    -0.352 N 
ATOM     31  C   UNL     1       1.333  -3.332  -6.627  1.00  0.00     0.251 C 
ATOM     32  H   UNL     1       0.121  -2.130  -5.541  1.00  0.00     0.163 HD
ATOM     33  O   UNL     1       0.565  -3.524  -7.546  1.00  0.00    -0.269 OA
BRANCH  31  34
ATOM     34  C   UNL     1       2.609  -4.063  -6.541  1.00  0.00     0.039 A 
ATOM     35  C   UNL     1       3.474  -4.159  -7.633  1.00  0.00     0.014 A 
ATOM     36  C   UNL     1       2.966  -4.552  -5.290  1.00  0.00     0.014 A 
ATOM     37  C   UNL     1       4.752  -4.672  -7.424  1.00  0.00     0.010 A 
ATOM     38  C   UNL     1       4.275  -4.862  -5.049  1.00  0.00     0.010 A 
ATOM     39  C   UNL     1       5.153  -4.997  -6.120  1.00  0.00    -0.014 A 
BRANCH  39  40
ATOM     40  C   UNL     1       6.518  -5.409  -5.820  1.00  0.00     0.031 A 
ATOM     41  C   UNL     1       7.579  -4.445  -6.222  1.00  0.00     0.074 A 
ATOM     42  C   UNL     1       6.780  -6.458  -5.010  1.00  0.00     0.049 A 
ATOM     43  N   UNL     1       8.513  -4.616  -7.097  1.00  0.00    -0.248 NA
ATOM     44  C   UNL     1       7.535  -3.085  -5.658  1.00  0.00     0.031 C 
ATOM     45  C   UNL     1       5.828  -7.289  -4.258  1.00  0.00     0.029 A 
ATOM     46  N   UNL     1       7.979  -6.916  -4.570  1.00  0.00    -0.354 N 
ATOM     47  C   UNL     1       9.293  -3.461  -7.066  1.00  0.00     0.074 A 
ATOM     48  C   UNL     1       8.551  -2.497  -6.293  1.00  0.00     0.031 C 
ATOM     49  C   UNL     1       6.479  -7.952  -3.278  1.00  0.00     0.029 A 
ATOM     50  C   UNL     1       7.903  -7.749  -3.461  1.00  0.00     0.049 A 
ATOM     51  H   UNL     1       8.832  -6.678  -5.001  1.00  0.00     0.167 HD
ATOM     52  C   UNL     1      10.593  -3.468  -7.477  1.00  0.00     0.031 A 
ATOM     53  C   UNL     1       8.937  -8.222  -2.726  1.00  0.00     0.031 A 
ATOM     54  C   UNL     1      10.907  -4.670  -8.207  1.00  0.00     0.049 A 
ATOM     55  C   UNL     1      10.159  -8.079  -3.549  1.00  0.00     0.074 A 
ATOM     56  C   UNL     1      10.451  -5.253  -9.371  1.00  0.00     0.029 A 
ATOM     57  N   UNL     1      11.553  -5.664  -7.510  1.00  0.00    -0.354 N 
ATOM     58  N   UNL     1      10.367  -8.751  -4.645  1.00  0.00    -0.248 NA
ATOM     59  C   UNL     1      10.939  -6.861  -3.405  1.00  0.00     0.031 C 
ATOM     60  C   UNL     1      10.418  -6.650  -9.088  1.00  0.00     0.029 A 
ATOM     61  C   UNL     1      10.927  -6.846  -7.801  1.00  0.00     0.049 A 
ATOM     62  H   UNL     1      12.325  -5.547  -6.910  1.00  0.00     0.167 HD
ATOM     63  C   UNL     1      10.951  -7.838  -5.512  1.00  0.00     0.074 A 
ATOM     64  C   UNL     1      11.377  -6.728  -4.660  1.00  0.00     0.031 C 
ATOM     65  C   UNL     1      10.775  -7.937  -6.863  1.00  0.00     0.031 A 
BRANCH  52  66
ATOM     66  C   UNL     1      11.683  -2.613  -6.875  1.00  0.00    -0.014 A 
ATOM     67  C   UNL     1      12.990  -2.731  -7.386  1.00  0.00     0.009 A 
ATOM     68  C   UNL     1      11.546  -1.923  -5.656  1.00  0.00     0.009 A 
ATOM     69  C   UNL     1      14.101  -2.270  -6.671  1.00  0.00     0.001 A 
ATOM     70  C   UNL     1      12.650  -1.423  -4.959  1.00  0.00     0.001 A 
ATOM     71  C   UNL     1      13.931  -1.625  -5.451  1.00  0.00     0.000 A 
ENDBRANCH  52  66
BRANCH  53  72
ATOM     72  C   UNL     1       8.977  -8.551  -1.288  1.00  0.00    -0.014 A 
ATOM     73  C   UNL     1       9.957  -9.411  -0.772  1.00  0.00     0.009 A 
ATOM     74  C   UNL     1       8.206  -7.809  -0.373  1.00  0.00     0.009 A 
ATOM     75  C   UNL     1      10.183  -9.496   0.609  1.00  0.00     0.001 A 
ATOM     76  C   UNL     1       8.432  -7.894   1.005  1.00  0.00     0.001 A 
ATOM     77  C   UNL     1       9.431  -8.727   1.495  1.00  0.00     0.000 A 
ENDBRANCH  53  72
BRANCH  65  78
ATOM     78  C   UNL     1      10.129  -9.188  -7.408  1.00  0.00    -0.014 A 
ATOM     79  C   UNL     1       8.805  -9.560  -7.116  1.00  0.00     0.009 A 
ATOM     80  C   UNL     1      10.819  -9.906  -8.395  1.00  0.00     0.009 A 
ATOM     81  C   UNL     1       8.197 -10.629  -7.785  1.00  0.00     0.001 A 
ATOM     82  C   UNL     1      10.206 -10.958  -9.077  1.00  0.00     0.001 A 
ATOM     83  C   UNL     1       8.896 -11.321  -8.771  1.00  0.00     0.000 A 
ENDBRANCH  65  78
ENDBRANCH  39  40
ENDBRANCH  31  34
ENDBRANCH  29  30
ENDBRANCH  28  29
ENDBRANCH   1  28
TORSDOF 13
