REMARK SMILES O=C(CCCc1nc(-c2ccc(Cl)c(Cl)c2)c(-c2ccccc2)o1)NCCCNC(=O)c1ccc(-c2c3nc(c(-c4ccccc4)c4ccc([nH]4)c(-c4ccccc4)c4nc(c(-c5ccccc5)c5ccc2[nH]5)C=C4)C=C3)cc1
REMARK SMILES IDX 26 1 25 2 1 3 2 4 3 6 4 7 5 8 6 9 7 10 24 11 8 12 17 13 9 14
REMARK SMILES IDX 10 15 16 16 11 17 14 18 12 19 15 20 13 21 18 22 19 23 23 24
REMARK SMILES IDX 20 25 22 26 21 27 27 28 28 29 29 30 30 31 31 33 32 34 33 35
REMARK SMILES IDX 79 36 34 37 78 38 35 39 36 40 37 41 72 42 38 43 77 44 71 45
REMARK SMILES IDX 73 46 39 47 76 48 70 49 69 50 40 52 62 53 47 54 61 55 48 56
REMARK SMILES IDX 51 57 60 58 74 59 49 60 50 61 59 63 75 64 52 65 41 66 42 67
REMARK SMILES IDX 46 68 43 69 45 70 44 71 63 72 64 73 68 74 65 75 67 76 66 77
REMARK SMILES IDX 53 78 54 79 58 80 55 81 57 82 56 83
REMARK H PARENT 25 5 29 32 73 51 51 62
REMARK Flexibility Score: inf
ROOT
ATOM      1  C   UNL     1       2.104   2.215  -1.009  1.00  0.00     0.117 C 
ENDROOT
BRANCH   1   2
ATOM      2  N   UNL     1       2.729   1.118  -0.297  1.00  0.00    -0.356 N 
ATOM      3  O   UNL     1       1.031  -0.378  -0.689  1.00  0.00    -0.275 OA
ATOM      4  C   UNL     1       2.144  -0.126  -0.240  1.00  0.00     0.220 C 
ATOM      5  H   UNL     1       3.591   1.267   0.155  1.00  0.00     0.163 HD
BRANCH   4   6
ATOM      6  C   UNL     1       3.018  -1.191   0.384  1.00  0.00     0.100 C 
BRANCH   6   7
ATOM      7  C   UNL     1       3.980  -1.801  -0.640  1.00  0.00     0.020 C 
BRANCH   7   8
ATOM      8  C   UNL     1       5.163  -0.909  -1.036  1.00  0.00     0.098 C 
BRANCH   8   9
ATOM      9  C   UNL     1       6.003  -0.544   0.134  1.00  0.00     0.195 A 
ATOM     10  N   UNL     1       6.718  -1.341   0.902  1.00  0.00    -0.213 NA
ATOM     11  O   UNL     1       6.007   0.776   0.512  1.00  0.00    -0.440 OA
ATOM     12  C   UNL     1       7.232  -0.499   1.853  1.00  0.00     0.117 A 
ATOM     13  C   UNL     1       6.843   0.801   1.600  1.00  0.00     0.162 A 
BRANCH  12  14
ATOM     14  C   UNL     1       8.068  -0.936   2.948  1.00  0.00     0.006 A 
ATOM     15  C   UNL     1       9.223  -1.680   2.689  1.00  0.00     0.012 A 
ATOM     16  C   UNL     1       7.737  -0.609   4.270  1.00  0.00     0.032 A 
ATOM     17  C   UNL     1      10.058  -2.065   3.741  1.00  0.00     0.023 A 
ATOM     18  C   UNL     1       8.567  -1.003   5.324  1.00  0.00     0.060 A 
ATOM     19  C   UNL     1       9.735  -1.726   5.058  1.00  0.00     0.059 A 
ATOM     20  Cl  UNL     1       8.093  -0.559   6.925  1.00  0.00    -0.083 Cl
ATOM     21  Cl  UNL     1      10.819  -2.224   6.307  1.00  0.00    -0.083 Cl
ENDBRANCH  12  14
BRANCH  13  22
ATOM     22  C   UNL     1       7.159   2.092   2.181  1.00  0.00     0.020 A 
ATOM     23  C   UNL     1       6.156   2.931   2.678  1.00  0.00     0.012 A 
ATOM     24  C   UNL     1       8.501   2.479   2.320  1.00  0.00     0.012 A 
ATOM     25  C   UNL     1       6.493   4.127   3.319  1.00  0.00     0.001 A 
ATOM     26  C   UNL     1       8.836   3.676   2.953  1.00  0.00     0.001 A 
ATOM     27  C   UNL     1       7.831   4.497   3.458  1.00  0.00     0.000 A 
ENDBRANCH  13  22
ENDBRANCH   8   9
ENDBRANCH   7   8
ENDBRANCH   6   7
ENDBRANCH   4   6
ENDBRANCH   1   2
BRANCH   1  28
ATOM     28  C   UNL     1       2.365   3.568  -0.363  1.00  0.00     0.042 C 
BRANCH  28  29
ATOM     29  C   UNL     1       3.826   4.002  -0.343  1.00  0.00     0.118 C 
BRANCH  29  30
ATOM     30  N   UNL     1       4.388   4.225  -1.664  1.00  0.00    -0.352 N 
ATOM     31  C   UNL     1       5.161   5.260  -2.128  1.00  0.00     0.251 C 
ATOM     32  H   UNL     1       4.183   3.527  -2.328  1.00  0.00     0.163 HD
ATOM     33  O   UNL     1       5.457   5.303  -3.323  1.00  0.00    -0.269 OA
BRANCH  31  34
ATOM     34  C   UNL     1       5.618   6.342  -1.226  1.00  0.00     0.039 A 
ATOM     35  C   UNL     1       5.604   7.658  -1.700  1.00  0.00     0.014 A 
ATOM     36  C   UNL     1       6.097   6.078   0.059  1.00  0.00     0.014 A 
ATOM     37  C   UNL     1       6.024   8.705  -0.875  1.00  0.00     0.010 A 
ATOM     38  C   UNL     1       6.440   7.130   0.908  1.00  0.00     0.010 A 
ATOM     39  C   UNL     1       6.426   8.454   0.446  1.00  0.00    -0.014 A 
BRANCH  39  40
ATOM     40  C   UNL     1       6.859   9.561   1.338  1.00  0.00     0.031 A 
ATOM     41  C   UNL     1       8.278   9.631   1.836  1.00  0.00     0.074 A 
ATOM     42  C   UNL     1       5.968  10.493   1.732  1.00  0.00     0.049 A 
ATOM     43  N   UNL     1       8.841  10.533   2.603  1.00  0.00    -0.248 NA
ATOM     44  C   UNL     1       9.178   8.535   1.444  1.00  0.00     0.031 C 
ATOM     45  C   UNL     1       4.549  10.518   1.372  1.00  0.00     0.029 A 
ATOM     46  N   UNL     1       6.130  11.605   2.521  1.00  0.00    -0.354 N 
ATOM     47  C   UNL     1      10.150  10.107   2.792  1.00  0.00     0.074 A 
ATOM     48  C   UNL     1      10.284   8.840   2.107  1.00  0.00     0.031 C 
ATOM     49  C   UNL     1       3.979  11.610   1.908  1.00  0.00     0.029 A 
ATOM     50  C   UNL     1       4.984  12.348   2.667  1.00  0.00     0.049 A 
ATOM     51  H   UNL     1       6.987  11.848   2.942  1.00  0.00     0.167 HD
ATOM     52  C   UNL     1      11.160  10.723   3.452  1.00  0.00     0.031 A 
ATOM     53  C   UNL     1       4.767  13.502   3.325  1.00  0.00     0.031 A 
ATOM     54  C   UNL     1      11.042  11.992   4.120  1.00  0.00     0.049 A 
ATOM     55  C   UNL     1       5.909  14.181   4.028  1.00  0.00     0.074 A 
ATOM     56  C   UNL     1      12.024  12.720   4.770  1.00  0.00     0.029 A 
ATOM     57  N   UNL     1       9.870  12.723   4.219  1.00  0.00    -0.354 N 
ATOM     58  N   UNL     1       7.159  13.800   4.132  1.00  0.00    -0.248 NA
ATOM     59  C   UNL     1       5.612  15.462   4.684  1.00  0.00     0.031 C 
ATOM     60  C   UNL     1      11.436  13.876   5.295  1.00  0.00     0.029 A 
ATOM     61  C   UNL     1      10.100  13.890   4.929  1.00  0.00     0.049 A 
ATOM     62  H   UNL     1       9.002  12.454   3.841  1.00  0.00     0.167 HD
ATOM     63  C   UNL     1       7.805  14.812   4.832  1.00  0.00     0.074 A 
ATOM     64  C   UNL     1       6.811  15.825   5.118  1.00  0.00     0.031 C 
ATOM     65  C   UNL     1       9.106  14.894   5.202  1.00  0.00     0.031 A 
BRANCH  52  66
ATOM     66  C   UNL     1      12.491  10.025   3.478  1.00  0.00    -0.014 A 
ATOM     67  C   UNL     1      13.281   9.927   2.321  1.00  0.00     0.009 A 
ATOM     68  C   UNL     1      12.975   9.482   4.678  1.00  0.00     0.009 A 
ATOM     69  C   UNL     1      14.511   9.265   2.357  1.00  0.00     0.001 A 
ATOM     70  C   UNL     1      14.217   8.846   4.717  1.00  0.00     0.001 A 
ATOM     71  C   UNL     1      14.979   8.729   3.555  1.00  0.00     0.000 A 
ENDBRANCH  52  66
BRANCH  53  72
ATOM     72  C   UNL     1       3.417  14.123   3.312  1.00  0.00    -0.014 A 
ATOM     73  C   UNL     1       3.177  15.284   2.560  1.00  0.00     0.009 A 
ATOM     74  C   UNL     1       2.368  13.567   4.059  1.00  0.00     0.009 A 
ATOM     75  C   UNL     1       1.920  15.892   2.580  1.00  0.00     0.001 A 
ATOM     76  C   UNL     1       1.105  14.163   4.055  1.00  0.00     0.001 A 
ATOM     77  C   UNL     1       0.885  15.330   3.324  1.00  0.00     0.000 A 
ENDBRANCH  53  72
BRANCH  65  78
ATOM     78  C   UNL     1       9.539  16.145   5.913  1.00  0.00    -0.014 A 
ATOM     79  C   UNL     1       9.162  16.401   7.240  1.00  0.00     0.009 A 
ATOM     80  C   UNL     1      10.357  17.071   5.246  1.00  0.00     0.009 A 
ATOM     81  C   UNL     1       9.562  17.581   7.872  1.00  0.00     0.001 A 
ATOM     82  C   UNL     1      10.778  18.235   5.889  1.00  0.00     0.001 A 
ATOM     83  C   UNL     1      10.372  18.494   7.197  1.00  0.00     0.000 A 
ENDBRANCH  65  78
ENDBRANCH  39  40
ENDBRANCH  31  34
ENDBRANCH  29  30
ENDBRANCH  28  29
ENDBRANCH   1  28
TORSDOF 15
