REMARK SMILES C[C@@H](CC(=O)NCCCNC(=O)c1ccc(-c2c3nc(c(-c4ccccc4)c4ccc([nH]4)c(-c4ccccc4)c4nc(c(-c5ccccc5)c5ccc2[nH]5)C=C4)C=C3)cc1)CC(=O)N(C)C[C@H]1CCC[N@H+]1C
REMARK SMILES IDX 4 1 5 2 6 3 3 5 2 6 1 7 61 8 62 9 63 10 64 11 65 12 66 13
REMARK SMILES IDX 67 14 68 15 71 16 69 17 70 18 72 19 7 21 8 22 9 23 10 24
REMARK SMILES IDX 11 25 12 27 13 28 14 29 60 30 15 31 59 32 16 33 17 34 18 35
REMARK SMILES IDX 53 36 19 37 58 38 52 39 54 40 20 41 57 42 51 43 50 44 21 46
REMARK SMILES IDX 43 47 28 48 42 49 29 50 32 51 41 52 55 53 30 54 31 55 40 57
REMARK SMILES IDX 56 58 33 59 22 60 23 61 27 62 24 63 26 64 25 65 44 66 45 67
REMARK SMILES IDX 49 68 46 69 48 70 47 71 34 72 35 73 39 74 36 75 38 76 37 77
REMARK H PARENT 6 4 71 20 10 26 54 45 32 56
REMARK Flexibility Score: inf
ROOT
ATOM      1  C   UNL     1       0.475  -1.368  -2.421  1.00  0.00     0.220 C 
ATOM      2  O   UNL     1      -0.504  -1.645  -3.116  1.00  0.00    -0.275 OA
ATOM      3  N   UNL     1       1.031  -2.369  -1.690  1.00  0.00    -0.356 N 
ATOM      4  H   UNL     1       0.626  -3.254  -1.838  1.00  0.00     0.163 HD
ENDROOT
BRANCH   1   5
ATOM      5  C   UNL     1       1.026   0.046  -2.386  1.00  0.00     0.103 C 
BRANCH   5   6
ATOM      6  C   UNL     1       0.417   1.011  -1.344  1.00  0.00     0.004 C 
ATOM      7  C   UNL     1       1.315   1.146  -0.112  1.00  0.00     0.009 C 
BRANCH   6   8
ATOM      8  C   UNL     1      -1.058   0.707  -1.013  1.00  0.00     0.104 C 
BRANCH   8   9
ATOM      9  C   UNL     1      -1.627   1.609   0.073  1.00  0.00     0.222 C 
ATOM     10  O   UNL     1      -1.900   2.780  -0.206  1.00  0.00    -0.275 OA
BRANCH   9  11
ATOM     11  N   UNL     1      -1.765   1.120   1.368  1.00  0.00    -0.340 N 
ATOM     12  C   UNL     1      -1.443  -0.225   1.822  1.00  0.00     0.147 C 
BRANCH  11  13
ATOM     13  C   UNL     1      -2.136   2.073   2.427  1.00  0.00     0.184 C 
BRANCH  13  14
ATOM     14  C   UNL     1      -0.929   2.948   2.876  1.00  0.00     0.203 C 
ATOM     15  C   UNL     1      -1.058   4.391   2.347  1.00  0.00     0.073 C 
ATOM     16  N   UNL     1      -0.676   3.134   4.319  1.00  0.00    -0.333 N 
ATOM     17  C   UNL     1      -0.930   5.290   3.568  1.00  0.00     0.068 C 
ATOM     18  C   UNL     1      -1.304   4.384   4.722  1.00  0.00     0.262 C 
ATOM     19  C   UNL     1      -0.953   2.021   5.201  1.00  0.00     0.333 C 
ATOM     20  H   UNL     1       0.336   3.180   4.434  1.00  0.00     0.348 HD
ENDBRANCH  13  14
ENDBRANCH  11  13
ENDBRANCH   9  11
ENDBRANCH   8   9
ENDBRANCH   6   8
ENDBRANCH   5   6
ENDBRANCH   1   5
BRANCH   3  21
ATOM     21  C   UNL     1       2.119  -2.358  -0.729  1.00  0.00     0.117 C 
BRANCH  21  22
ATOM     22  C   UNL     1       1.601  -2.466   0.704  1.00  0.00     0.042 C 
BRANCH  22  23
ATOM     23  C   UNL     1       0.941  -3.796   1.053  1.00  0.00     0.118 C 
BRANCH  23  24
ATOM     24  N   UNL     1       1.907  -4.831   1.371  1.00  0.00    -0.352 N 
ATOM     25  C   UNL     1       2.117  -5.525   2.540  1.00  0.00     0.251 C 
ATOM     26  H   UNL     1       2.508  -5.077   0.631  1.00  0.00     0.163 HD
ATOM     27  O   UNL     1       3.119  -6.229   2.639  1.00  0.00    -0.269 OA
BRANCH  25  28
ATOM     28  C   UNL     1       1.178  -5.432   3.687  1.00  0.00     0.039 A 
ATOM     29  C   UNL     1       1.712  -5.437   4.981  1.00  0.00     0.014 A 
ATOM     30  C   UNL     1      -0.209  -5.424   3.520  1.00  0.00     0.014 A 
ATOM     31  C   UNL     1       0.866  -5.391   6.095  1.00  0.00     0.010 A 
ATOM     32  C   UNL     1      -1.052  -5.312   4.630  1.00  0.00     0.010 A 
ATOM     33  C   UNL     1      -0.525  -5.308   5.931  1.00  0.00    -0.014 A 
BRANCH  33  34
ATOM     34  C   UNL     1      -1.434  -5.241   7.107  1.00  0.00     0.031 A 
ATOM     35  C   UNL     1      -2.395  -6.365   7.396  1.00  0.00     0.074 A 
ATOM     36  C   UNL     1      -1.433  -4.150   7.898  1.00  0.00     0.049 A 
ATOM     37  N   UNL     1      -3.292  -6.462   8.347  1.00  0.00    -0.248 NA
ATOM     38  C   UNL     1      -2.358  -7.522   6.487  1.00  0.00     0.031 C 
ATOM     39  C   UNL     1      -0.580  -2.974   7.721  1.00  0.00     0.029 A 
ATOM     40  N   UNL     1      -2.183  -3.853   9.010  1.00  0.00    -0.354 N 
ATOM     41  C   UNL     1      -3.940  -7.672   8.135  1.00  0.00     0.074 A 
ATOM     42  C   UNL     1      -3.358  -8.260   6.947  1.00  0.00     0.031 C 
ATOM     43  C   UNL     1      -0.842  -2.091   8.699  1.00  0.00     0.029 A 
ATOM     44  C   UNL     1      -1.900  -2.623   9.553  1.00  0.00     0.049 A 
ATOM     45  H   UNL     1      -2.859  -4.463   9.383  1.00  0.00     0.167 HD
ATOM     46  C   UNL     1      -4.922  -8.252   8.867  1.00  0.00     0.031 A 
ATOM     47  C   UNL     1      -2.433  -1.989  10.614  1.00  0.00     0.031 A 
ATOM     48  C   UNL     1      -5.487  -7.692  10.066  1.00  0.00     0.049 A 
ATOM     49  C   UNL     1      -3.513  -2.658  11.418  1.00  0.00     0.074 A 
ATOM     50  C   UNL     1      -6.433  -8.245  10.912  1.00  0.00     0.029 A 
ATOM     51  N   UNL     1      -5.158  -6.453  10.589  1.00  0.00    -0.354 N 
ATOM     52  N   UNL     1      -4.065  -3.833  11.240  1.00  0.00    -0.248 NA
ATOM     53  C   UNL     1      -4.034  -1.916  12.576  1.00  0.00     0.031 C 
ATOM     54  C   UNL     1      -6.707  -7.322  11.926  1.00  0.00     0.029 A 
ATOM     55  C   UNL     1      -5.899  -6.213  11.734  1.00  0.00     0.049 A 
ATOM     56  H   UNL     1      -4.495  -5.835  10.205  1.00  0.00     0.167 HD
ATOM     57  C   UNL     1      -4.979  -3.981  12.275  1.00  0.00     0.074 A 
ATOM     58  C   UNL     1      -4.899  -2.783  13.084  1.00  0.00     0.031 C 
ATOM     59  C   UNL     1      -5.812  -5.019  12.531  1.00  0.00     0.031 A 
BRANCH  46  60
ATOM     60  C   UNL     1      -5.460  -9.570   8.385  1.00  0.00    -0.014 A 
ATOM     61  C   UNL     1      -4.711 -10.750   8.507  1.00  0.00     0.009 A 
ATOM     62  C   UNL     1      -6.753  -9.637   7.844  1.00  0.00     0.009 A 
ATOM     63  C   UNL     1      -5.235 -11.968   8.067  1.00  0.00     0.001 A 
ATOM     64  C   UNL     1      -7.284 -10.860   7.427  1.00  0.00     0.001 A 
ATOM     65  C   UNL     1      -6.521 -12.022   7.531  1.00  0.00     0.000 A 
ENDBRANCH  46  60
BRANCH  47  66
ATOM     66  C   UNL     1      -1.947  -0.637  10.991  1.00  0.00    -0.014 A 
ATOM     67  C   UNL     1      -1.152  -0.459  12.133  1.00  0.00     0.009 A 
ATOM     68  C   UNL     1      -2.284   0.483  10.215  1.00  0.00     0.009 A 
ATOM     69  C   UNL     1      -0.724   0.817  12.504  1.00  0.00     0.001 A 
ATOM     70  C   UNL     1      -1.833   1.754  10.574  1.00  0.00     0.001 A 
ATOM     71  C   UNL     1      -1.061   1.922  11.723  1.00  0.00     0.000 A 
ENDBRANCH  47  66
BRANCH  59  72
ATOM     72  C   UNL     1      -6.683  -4.918  13.749  1.00  0.00    -0.014 A 
ATOM     73  C   UNL     1      -7.808  -4.079  13.770  1.00  0.00     0.009 A 
ATOM     74  C   UNL     1      -6.395  -5.702  14.878  1.00  0.00     0.009 A 
ATOM     75  C   UNL     1      -8.612  -4.007  14.909  1.00  0.00     0.001 A 
ATOM     76  C   UNL     1      -7.215  -5.645  16.006  1.00  0.00     0.001 A 
ATOM     77  C   UNL     1      -8.318  -4.792  16.024  1.00  0.00     0.000 A 
ENDBRANCH  59  72
ENDBRANCH  33  34
ENDBRANCH  25  28
ENDBRANCH  23  24
ENDBRANCH  22  23
ENDBRANCH  21  22
ENDBRANCH   3  21
TORSDOF 16
