REMARK SMILES O=C(NCCCNC(=O)c1cc(Br)n(Cc2ccn(C3CCCC3)n2)c1)c1ccc(-c2c3nc(c(-c4ccccc4)c4ccc([nH]4)c(-c4ccccc4)c4nc(c(-c5ccccc5)c5ccc2[nH]5)C=C4)C=C3)cc1
REMARK SMILES IDX 5 1 4 2 3 3 1 4 2 5 27 7 28 8 74 9 29 10 73 11 30 12 31 13
REMARK SMILES IDX 32 14 67 15 33 16 72 17 66 18 68 19 34 20 71 21 65 22 64 23
REMARK SMILES IDX 35 25 57 26 42 27 56 28 43 29 46 30 55 31 69 32 44 33 45 34
REMARK SMILES IDX 54 36 70 37 47 38 36 39 37 40 41 41 38 42 40 43 39 44 58 45
REMARK SMILES IDX 59 46 63 47 60 48 62 49 61 50 48 51 49 52 53 53 50 54 52 55
REMARK SMILES IDX 51 56 6 57 7 58 8 59 9 61 10 62 11 63 26 64 12 65 14 66
REMARK SMILES IDX 13 67 15 68 16 69 17 70 25 71 18 72 19 73 20 74 21 75 24 76
REMARK SMILES IDX 22 77 23 78
REMARK H PARENT 3 6 68 24 46 35 7 60
REMARK Flexibility Score: inf
ROOT
ATOM      1  C   UNL     1       4.846  -0.720   2.104  1.00  0.00     0.042 C 
ENDROOT
BRANCH   1   2
ATOM      2  C   UNL     1       4.682  -1.013   0.613  1.00  0.00     0.118 C 
BRANCH   2   3
ATOM      3  N   UNL     1       3.314  -1.231   0.181  1.00  0.00    -0.352 N 
ATOM      4  O   UNL     1       1.209  -0.977  -0.448  1.00  0.00    -0.269 OA
ATOM      5  C   UNL     1       2.227  -0.426  -0.022  1.00  0.00     0.251 C 
ATOM      6  H   UNL     1       3.124  -2.178  -0.010  1.00  0.00     0.163 HD
BRANCH   5   7
ATOM      7  C   UNL     1       2.175   1.033   0.270  1.00  0.00     0.039 A 
ATOM      8  C   UNL     1       3.281   1.868   0.427  1.00  0.00     0.014 A 
ATOM      9  C   UNL     1       0.891   1.603   0.357  1.00  0.00     0.014 A 
ATOM     10  C   UNL     1       3.114   3.222   0.725  1.00  0.00     0.010 A 
ATOM     11  C   UNL     1       0.719   2.960   0.627  1.00  0.00     0.010 A 
ATOM     12  C   UNL     1       1.835   3.770   0.833  1.00  0.00    -0.014 A 
BRANCH  12  13
ATOM     13  C   UNL     1       1.717   5.210   1.074  1.00  0.00     0.031 A 
ATOM     14  C   UNL     1       2.169   6.133  -0.012  1.00  0.00     0.074 A 
ATOM     15  C   UNL     1       1.061   5.747   2.123  1.00  0.00     0.049 A 
ATOM     16  N   UNL     1       2.993   7.130   0.068  1.00  0.00    -0.248 NA
ATOM     17  C   UNL     1       1.611   5.921  -1.356  1.00  0.00     0.031 C 
ATOM     18  C   UNL     1       0.233   5.053   3.109  1.00  0.00     0.029 A 
ATOM     19  N   UNL     1       0.899   7.067   2.441  1.00  0.00    -0.354 N 
ATOM     20  C   UNL     1       2.966   7.759  -1.177  1.00  0.00     0.074 A 
ATOM     21  C   UNL     1       2.144   6.938  -2.034  1.00  0.00     0.031 C 
ATOM     22  C   UNL     1      -0.519   5.963   3.766  1.00  0.00     0.029 A 
ATOM     23  C   UNL     1      -0.132   7.298   3.335  1.00  0.00     0.049 A 
ATOM     24  H   UNL     1       1.462   7.785   2.070  1.00  0.00     0.167 HD
ATOM     25  C   UNL     1       3.498   8.991  -1.406  1.00  0.00     0.031 A 
ATOM     26  C   UNL     1      -0.684   8.490   3.656  1.00  0.00     0.031 A 
ATOM     27  C   UNL     1       4.396   9.421  -0.374  1.00  0.00     0.049 A 
ATOM     28  C   UNL     1       0.240   9.572   3.259  1.00  0.00     0.074 A 
ATOM     29  C   UNL     1       5.587   8.966   0.152  1.00  0.00     0.029 A 
ATOM     30  N   UNL     1       3.965  10.405   0.480  1.00  0.00    -0.354 N 
ATOM     31  N   UNL     1       1.361   9.839   3.862  1.00  0.00    -0.248 NA
ATOM     32  C   UNL     1       0.059  10.219   1.968  1.00  0.00     0.031 C 
ATOM     33  C   UNL     1       5.573   9.370   1.518  1.00  0.00     0.029 A 
ATOM     34  C   UNL     1       4.367  10.037   1.737  1.00  0.00     0.049 A 
ATOM     35  H   UNL     1       3.465  11.217   0.237  1.00  0.00     0.167 HD
ATOM     36  C   UNL     1       2.187  10.343   2.870  1.00  0.00     0.074 A 
ATOM     37  C   UNL     1       1.290  10.696   1.777  1.00  0.00     0.031 C 
ATOM     38  C   UNL     1       3.539  10.157   2.917  1.00  0.00     0.031 A 
BRANCH  25  39
ATOM     39  C   UNL     1       2.984   9.955  -2.443  1.00  0.00    -0.014 A 
ATOM     40  C   UNL     1       3.748  11.092  -2.767  1.00  0.00     0.009 A 
ATOM     41  C   UNL     1       1.658   9.924  -2.913  1.00  0.00     0.009 A 
ATOM     42  C   UNL     1       3.201  12.158  -3.492  1.00  0.00     0.001 A 
ATOM     43  C   UNL     1       1.122  10.969  -3.673  1.00  0.00     0.001 A 
ATOM     44  C   UNL     1       1.887  12.095  -3.945  1.00  0.00     0.000 A 
ENDBRANCH  25  39
BRANCH  26  45
ATOM     45  C   UNL     1      -2.055   8.766   4.130  1.00  0.00    -0.014 A 
ATOM     46  C   UNL     1      -2.355   9.950   4.817  1.00  0.00     0.009 A 
ATOM     47  C   UNL     1      -3.128   7.960   3.707  1.00  0.00     0.009 A 
ATOM     48  C   UNL     1      -3.683  10.322   5.059  1.00  0.00     0.001 A 
ATOM     49  C   UNL     1      -4.453   8.325   3.956  1.00  0.00     0.001 A 
ATOM     50  C   UNL     1      -4.731   9.513   4.623  1.00  0.00     0.000 A 
ENDBRANCH  26  45
BRANCH  38  51
ATOM     51  C   UNL     1       4.146   9.691   4.215  1.00  0.00    -0.014 A 
ATOM     52  C   UNL     1       3.777   8.480   4.827  1.00  0.00     0.009 A 
ATOM     53  C   UNL     1       5.217  10.414   4.761  1.00  0.00     0.009 A 
ATOM     54  C   UNL     1       4.429   8.029   5.977  1.00  0.00     0.001 A 
ATOM     55  C   UNL     1       5.885   9.950   5.898  1.00  0.00     0.001 A 
ATOM     56  C   UNL     1       5.486   8.763   6.509  1.00  0.00     0.000 A 
ENDBRANCH  38  51
ENDBRANCH  12  13
ENDBRANCH   5   7
ENDBRANCH   2   3
ENDBRANCH   1   2
BRANCH   1  57
ATOM     57  C   UNL     1       4.322  -1.822   3.028  1.00  0.00     0.118 C 
BRANCH  57  58
ATOM     58  N   UNL     1       4.987  -3.089   2.783  1.00  0.00    -0.352 N 
ATOM     59  C   UNL     1       5.927  -3.744   3.534  1.00  0.00     0.252 C 
ATOM     60  H   UNL     1       4.723  -3.546   1.952  1.00  0.00     0.163 HD
ATOM     61  O   UNL     1       6.603  -4.618   2.998  1.00  0.00    -0.269 OA
BRANCH  59  62
ATOM     62  C   UNL     1       6.070  -3.411   4.942  1.00  0.00     0.058 A 
ATOM     63  C   UNL     1       5.054  -3.293   5.935  1.00  0.00     0.049 A 
ATOM     64  C   UNL     1       7.277  -3.285   5.609  1.00  0.00     0.101 A 
ATOM     65  C   UNL     1       5.674  -3.148   7.154  1.00  0.00     0.086 A 
ATOM     66  N   UNL     1       7.029  -3.078   6.949  1.00  0.00    -0.335 N 
ATOM     67  Br  UNL     1       4.746  -3.140   8.777  1.00  0.00    -0.031 Br
BRANCH  66  68
ATOM     68  C   UNL     1       8.072  -2.987   7.968  1.00  0.00     0.180 C 
BRANCH  68  69
ATOM     69  C   UNL     1       8.369  -1.575   8.367  1.00  0.00     0.082 A 
ATOM     70  C   UNL     1       7.496  -0.625   8.953  1.00  0.00     0.047 A 
ATOM     71  N   UNL     1       9.617  -1.083   8.271  1.00  0.00    -0.176 NA
ATOM     72  C   UNL     1       8.273   0.475   9.214  1.00  0.00     0.109 A 
ATOM     73  N   UNL     1       9.533   0.155   8.802  1.00  0.00    -0.269 N 
BRANCH  73  74
ATOM     74  C   UNL     1      10.701   0.993   8.949  1.00  0.00     0.107 C 
ATOM     75  C   UNL     1      11.886   0.337   9.656  1.00  0.00     0.027 C 
ATOM     76  C   UNL     1      11.317   1.473   7.637  1.00  0.00     0.027 C 
ATOM     77  C   UNL     1      13.027   1.309   9.385  1.00  0.00     0.002 C 
ATOM     78  C   UNL     1      12.714   1.953   8.032  1.00  0.00     0.002 C 
ENDBRANCH  73  74
ENDBRANCH  68  69
ENDBRANCH  66  68
ENDBRANCH  59  62
ENDBRANCH  57  58
ENDBRANCH   1  57
TORSDOF 13
