REMARK SMILES C[C@H]1C[N@H+]2CCCC[C@@H]2CN1C(=O)[C@H]([NH3+])CC(=O)NCCCNC(=O)c1ccc(-c2c3nc(c(-c4ccccc4)c4ccc([nH]4)c(-c4ccccc4)c4nc(c(-c5ccccc5)c5ccc2[nH]5)C=C4)C=C3)cc1
REMARK SMILES IDX 20 1 19 2 17 3 18 4 16 6 14 7 12 8 13 9 11 10 1 11 2 12 3 13
REMARK SMILES IDX 4 14 10 15 5 16 9 17 6 19 8 20 7 21 15 22 21 26 22 27 23 28
REMARK SMILES IDX 24 29 25 31 26 32 27 33 73 34 28 35 72 36 29 37 30 38 31 39
REMARK SMILES IDX 66 40 32 41 71 42 65 43 67 44 33 45 70 46 64 47 63 48 34 50
REMARK SMILES IDX 56 51 41 52 55 53 42 54 45 55 54 56 68 57 43 58 44 59 53 61
REMARK SMILES IDX 69 62 46 63 35 64 36 65 40 66 37 67 39 68 38 69 57 70 58 71
REMARK SMILES IDX 62 72 59 73 61 74 60 75 47 76 48 77 52 78 49 79 51 80 50 81
REMARK H PARENT 19 5 4 18 15 23 15 24 15 25 23 30 67 49 45 60
REMARK Flexibility Score: inf
ROOT
ATOM      1  C   UNL     1      -1.435  -0.449   0.530  1.00  0.00     0.117 C 
ENDROOT
BRANCH   1   2
ATOM      2  N   UNL     1      -2.560   0.208   1.173  1.00  0.00    -0.356 N 
ATOM      3  C   UNL     1      -3.381   1.170   0.664  1.00  0.00     0.226 C 
ATOM      4  O   UNL     1      -4.168   1.742   1.421  1.00  0.00    -0.275 OA
ATOM      5  H   UNL     1      -2.755  -0.079   2.094  1.00  0.00     0.163 HD
BRANCH   3   6
ATOM      6  C   UNL     1      -3.329   1.505  -0.806  1.00  0.00     0.175 C 
BRANCH   6   7
ATOM      7  C   UNL     1      -2.452   2.725  -1.099  1.00  0.00     0.280 C 
BRANCH   7   8
ATOM      8  C   UNL     1      -2.796   3.239  -2.519  1.00  0.00     0.281 C 
ATOM      9  O   UNL     1      -2.933   2.388  -3.405  1.00  0.00    -0.268 OA
BRANCH   8  10
ATOM     10  N   UNL     1      -2.777   4.602  -2.782  1.00  0.00    -0.323 N 
ATOM     11  C   UNL     1      -3.105   4.225  -5.312  1.00  0.00     0.037 C 
ATOM     12  C   UNL     1      -2.648   5.140  -4.165  1.00  0.00     0.137 C 
ATOM     13  C   UNL     1      -3.401   6.496  -4.370  1.00  0.00     0.287 C 
ATOM     14  N   UNL     1      -3.453   7.447  -3.241  1.00  0.00    -0.329 N 
ATOM     15  C   UNL     1      -2.685   5.635  -1.742  1.00  0.00     0.185 C 
ATOM     16  C   UNL     1      -4.502   8.450  -3.505  1.00  0.00     0.262 C 
ATOM     17  C   UNL     1      -3.732   6.736  -1.979  1.00  0.00     0.203 C 
ATOM     18  H   UNL     1      -2.550   7.912  -3.150  1.00  0.00     0.348 HD
ATOM     19  C   UNL     1      -4.624   9.470  -2.375  1.00  0.00     0.062 C 
ATOM     20  C   UNL     1      -3.744   7.725  -0.805  1.00  0.00     0.067 C 
ATOM     21  C   UNL     1      -4.809   8.795  -1.021  1.00  0.00     0.012 C 
ENDBRANCH   8  10
ENDBRANCH   7   8
BRANCH   7  22
ATOM     22  N   UNL     1      -1.005   2.402  -1.133  1.00  0.00    -0.347 N 
ATOM     23  H   UNL     1      -0.826   1.726  -1.875  1.00  0.00     0.345 HD
ATOM     24  H   UNL     1      -0.724   2.006  -0.237  1.00  0.00     0.345 HD
ATOM     25  H   UNL     1      -0.471   3.253  -1.312  1.00  0.00     0.345 HD
ENDBRANCH   7  22
ENDBRANCH   6   7
ENDBRANCH   3   6
ENDBRANCH   1   2
BRANCH   1  26
ATOM     26  C   UNL     1      -0.112   0.187   0.940  1.00  0.00     0.042 C 
BRANCH  26  27
ATOM     27  C   UNL     1       0.327  -0.172   2.348  1.00  0.00     0.118 C 
BRANCH  27  28
ATOM     28  N   UNL     1       0.770  -1.552   2.451  1.00  0.00    -0.352 N 
ATOM     29  C   UNL     1       2.001  -2.063   2.779  1.00  0.00     0.251 C 
ATOM     30  H   UNL     1       0.080  -2.227   2.256  1.00  0.00     0.163 HD
ATOM     31  O   UNL     1       2.224  -3.257   2.606  1.00  0.00    -0.269 OA
BRANCH  29  32
ATOM     32  C   UNL     1       3.065  -1.191   3.328  1.00  0.00     0.039 A 
ATOM     33  C   UNL     1       4.391  -1.440   2.960  1.00  0.00     0.014 A 
ATOM     34  C   UNL     1       2.780  -0.171   4.239  1.00  0.00     0.014 A 
ATOM     35  C   UNL     1       5.420  -0.648   3.476  1.00  0.00     0.010 A 
ATOM     36  C   UNL     1       3.792   0.678   4.678  1.00  0.00     0.010 A 
ATOM     37  C   UNL     1       5.126   0.430   4.325  1.00  0.00    -0.014 A 
BRANCH  37  38
ATOM     38  C   UNL     1       6.202   1.276   4.899  1.00  0.00     0.031 A 
ATOM     39  C   UNL     1       6.420   1.305   6.388  1.00  0.00     0.074 A 
ATOM     40  C   UNL     1       6.944   2.059   4.094  1.00  0.00     0.049 A 
ATOM     41  N   UNL     1       7.271   2.016   7.086  1.00  0.00    -0.248 NA
ATOM     42  C   UNL     1       5.547   0.445   7.203  1.00  0.00     0.031 C 
ATOM     43  C   UNL     1       6.803   2.157   2.640  1.00  0.00     0.029 A 
ATOM     44  N   UNL     1       7.964   2.927   4.390  1.00  0.00    -0.354 N 
ATOM     45  C   UNL     1       7.013   1.710   8.416  1.00  0.00     0.074 A 
ATOM     46  C   UNL     1       5.896   0.792   8.432  1.00  0.00     0.031 C 
ATOM     47  C   UNL     1       7.721   3.015   2.169  1.00  0.00     0.029 A 
ATOM     48  C   UNL     1       8.490   3.553   3.287  1.00  0.00     0.049 A 
ATOM     49  H   UNL     1       8.287   3.087   5.306  1.00  0.00     0.167 HD
ATOM     50  C   UNL     1       7.660   2.136   9.528  1.00  0.00     0.031 A 
ATOM     51  C   UNL     1       9.480   4.460   3.187  1.00  0.00     0.031 A 
ATOM     52  C   UNL     1       8.784   3.032   9.512  1.00  0.00     0.049 A 
ATOM     53  C   UNL     1      10.197   4.906   4.429  1.00  0.00     0.074 A 
ATOM     54  C   UNL     1       9.551   3.474  10.576  1.00  0.00     0.029 A 
ATOM     55  N   UNL     1       9.303   3.624   8.371  1.00  0.00    -0.354 N 
ATOM     56  N   UNL     1       9.987   4.556   5.675  1.00  0.00    -0.248 NA
ATOM     57  C   UNL     1      11.299   5.861   4.248  1.00  0.00     0.031 C 
ATOM     58  C   UNL     1      10.506   4.370  10.082  1.00  0.00     0.029 A 
ATOM     59  C   UNL     1      10.367   4.443   8.705  1.00  0.00     0.049 A 
ATOM     60  H   UNL     1       8.963   3.483   7.457  1.00  0.00     0.167 HD
ATOM     61  C   UNL     1      10.946   5.225   6.424  1.00  0.00     0.074 A 
ATOM     62  C   UNL     1      11.746   5.992   5.490  1.00  0.00     0.031 C 
ATOM     63  C   UNL     1      11.149   5.203   7.764  1.00  0.00     0.031 A 
BRANCH  50  64
ATOM     64  C   UNL     1       7.148   1.640  10.852  1.00  0.00    -0.014 A 
ATOM     65  C   UNL     1       7.281   0.293  11.229  1.00  0.00     0.009 A 
ATOM     66  C   UNL     1       6.523   2.532  11.737  1.00  0.00     0.009 A 
ATOM     67  C   UNL     1       6.752  -0.159  12.440  1.00  0.00     0.001 A 
ATOM     68  C   UNL     1       6.024   2.084  12.961  1.00  0.00     0.001 A 
ATOM     69  C   UNL     1       6.127   0.737  13.306  1.00  0.00     0.000 A 
ENDBRANCH  50  64
BRANCH  51  70
ATOM     70  C   UNL     1       9.869   4.978   1.851  1.00  0.00    -0.014 A 
ATOM     71  C   UNL     1      11.067   4.563   1.250  1.00  0.00     0.009 A 
ATOM     72  C   UNL     1       9.034   5.868   1.159  1.00  0.00     0.009 A 
ATOM     73  C   UNL     1      11.429   5.043  -0.010  1.00  0.00     0.001 A 
ATOM     74  C   UNL     1       9.386   6.327  -0.112  1.00  0.00     0.001 A 
ATOM     75  C   UNL     1      10.586   5.919  -0.693  1.00  0.00     0.000 A 
ENDBRANCH  51  70
BRANCH  63  76
ATOM     76  C   UNL     1      12.302   6.005   8.297  1.00  0.00    -0.014 A 
ATOM     77  C   UNL     1      12.253   7.407   8.352  1.00  0.00     0.009 A 
ATOM     78  C   UNL     1      13.439   5.343   8.787  1.00  0.00     0.009 A 
ATOM     79  C   UNL     1      13.335   8.130   8.859  1.00  0.00     0.001 A 
ATOM     80  C   UNL     1      14.506   6.067   9.319  1.00  0.00     0.001 A 
ATOM     81  C   UNL     1      14.457   7.460   9.345  1.00  0.00     0.000 A 
ENDBRANCH  63  76
ENDBRANCH  37  38
ENDBRANCH  29  32
ENDBRANCH  27  28
ENDBRANCH  26  27
ENDBRANCH   1  26
TORSDOF 14
