REMARK SMILES CC(=O)Oc1ccccc1C(=O)NCCCNC(=O)c1ccc(-c2c3nc(c(-c4ccccc4)c4ccc([nH]4)c(-c4ccccc4)c4nc(c(-c5ccccc5)c5ccc2[nH]5)C=C4)C=C3)cc1
REMARK SMILES IDX 15 1 14 2 13 3 11 4 12 5 10 7 5 8 6 9 7 10 9 11 8 12 4 13
REMARK SMILES IDX 2 14 1 15 3 16 16 17 17 18 18 19 19 21 20 22 21 23 67 24
REMARK SMILES IDX 22 25 66 26 23 27 24 28 25 29 60 30 26 31 65 32 59 33 61 34
REMARK SMILES IDX 27 35 64 36 58 37 57 38 28 40 50 41 35 42 49 43 36 44 39 45
REMARK SMILES IDX 48 46 62 47 37 48 38 49 47 51 63 52 40 53 29 54 30 55 34 56
REMARK SMILES IDX 31 57 33 58 32 59 51 60 52 61 56 62 53 63 55 64 54 65 41 66
REMARK SMILES IDX 42 67 46 68 43 69 45 70 44 71
REMARK H PARENT 13 6 17 20 61 39 39 50
REMARK Flexibility Score: inf
ROOT
ATOM      1  C   UNL     1      -0.884   0.573   2.184  1.00  0.00     0.042 C 
ENDROOT
BRANCH   1   2
ATOM      2  C   UNL     1      -0.505   1.438   1.005  1.00  0.00     0.118 C 
BRANCH   2   3
ATOM      3  N   UNL     1      -1.582   1.831   0.134  1.00  0.00    -0.352 N 
ATOM      4  C   UNL     1      -1.646   2.890  -0.739  1.00  0.00     0.255 C 
ATOM      5  O   UNL     1      -2.650   2.979  -1.447  1.00  0.00    -0.269 OA
ATOM      6  H   UNL     1      -2.385   1.262   0.169  1.00  0.00     0.163 HD
BRANCH   4   7
ATOM      7  C   UNL     1      -0.636   3.986  -0.768  1.00  0.00     0.082 A 
ATOM      8  C   UNL     1       0.759   3.885  -0.674  1.00  0.00     0.143 A 
ATOM      9  C   UNL     1       1.558   5.036  -0.600  1.00  0.00     0.048 A 
ATOM     10  C   UNL     1       0.981   6.302  -0.674  1.00  0.00     0.004 A 
ATOM     11  C   UNL     1      -1.193   5.277  -0.879  1.00  0.00     0.018 A 
ATOM     12  C   UNL     1      -0.395   6.423  -0.829  1.00  0.00     0.001 A 
BRANCH   8  13
ATOM     13  O   UNL     1       1.484   2.692  -0.507  1.00  0.00    -0.426 OA
BRANCH  13  14
ATOM     14  C   UNL     1       1.562   1.790  -1.565  1.00  0.00     0.308 C 
ATOM     15  C   UNL     1       2.382   0.605  -1.119  1.00  0.00     0.139 C 
ATOM     16  O   UNL     1       1.072   1.929  -2.673  1.00  0.00    -0.252 OA
ENDBRANCH  13  14
ENDBRANCH   8  13
ENDBRANCH   4   7
ENDBRANCH   2   3
ENDBRANCH   1   2
BRANCH   1  17
ATOM     17  C   UNL     1      -1.472  -0.780   1.813  1.00  0.00     0.118 C 
BRANCH  17  18
ATOM     18  N   UNL     1      -0.605  -1.615   0.982  1.00  0.00    -0.352 N 
ATOM     19  C   UNL     1       0.133  -2.747   1.248  1.00  0.00     0.251 C 
ATOM     20  H   UNL     1      -0.536  -1.308   0.050  1.00  0.00     0.163 HD
ATOM     21  O   UNL     1       0.880  -3.190   0.378  1.00  0.00    -0.269 OA
BRANCH  19  22
ATOM     22  C   UNL     1       0.083  -3.410   2.571  1.00  0.00     0.039 A 
ATOM     23  C   UNL     1       1.239  -4.007   3.087  1.00  0.00     0.014 A 
ATOM     24  C   UNL     1      -1.091  -3.451   3.316  1.00  0.00     0.014 A 
ATOM     25  C   UNL     1       1.234  -4.533   4.384  1.00  0.00     0.010 A 
ATOM     26  C   UNL     1      -1.054  -3.824   4.652  1.00  0.00     0.010 A 
ATOM     27  C   UNL     1       0.104  -4.387   5.203  1.00  0.00    -0.014 A 
BRANCH  27  28
ATOM     28  C   UNL     1       0.086  -4.829   6.623  1.00  0.00     0.031 A 
ATOM     29  C   UNL     1      -0.967  -5.800   7.097  1.00  0.00     0.074 A 
ATOM     30  C   UNL     1       0.947  -4.287   7.507  1.00  0.00     0.049 A 
ATOM     31  N   UNL     1      -1.222  -6.216   8.313  1.00  0.00    -0.248 NA
ATOM     32  C   UNL     1      -1.887  -6.339   6.080  1.00  0.00     0.031 C 
ATOM     33  C   UNL     1       1.971  -3.285   7.198  1.00  0.00     0.029 A 
ATOM     34  N   UNL     1       1.092  -4.499   8.856  1.00  0.00    -0.354 N 
ATOM     35  C   UNL     1      -2.348  -7.025   8.206  1.00  0.00     0.074 A 
ATOM     36  C   UNL     1      -2.768  -6.987   6.824  1.00  0.00     0.031 C 
ATOM     37  C   UNL     1       2.665  -3.004   8.313  1.00  0.00     0.029 A 
ATOM     38  C   UNL     1       2.107  -3.766   9.424  1.00  0.00     0.049 A 
ATOM     39  H   UNL     1       0.523  -5.117   9.368  1.00  0.00     0.167 HD
ATOM     40  C   UNL     1      -2.962  -7.761   9.162  1.00  0.00     0.031 A 
ATOM     41  C   UNL     1       2.540  -3.712  10.698  1.00  0.00     0.031 A 
ATOM     42  C   UNL     1      -2.517  -7.836  10.526  1.00  0.00     0.049 A 
ATOM     43  C   UNL     1       1.863  -4.563  11.736  1.00  0.00     0.074 A 
ATOM     44  C   UNL     1      -3.016  -8.616  11.554  1.00  0.00     0.029 A 
ATOM     45  N   UNL     1      -1.461  -7.107  11.050  1.00  0.00    -0.354 N 
ATOM     46  N   UNL     1       0.849  -5.382  11.600  1.00  0.00    -0.248 NA
ATOM     47  C   UNL     1       2.401  -4.490  13.101  1.00  0.00     0.031 C 
ATOM     48  C   UNL     1      -2.291  -8.323  12.713  1.00  0.00     0.029 A 
ATOM     49  C   UNL     1      -1.305  -7.403  12.392  1.00  0.00     0.049 A 
ATOM     50  H   UNL     1      -0.905  -6.473  10.542  1.00  0.00     0.167 HD
ATOM     51  C   UNL     1       0.644  -5.942  12.854  1.00  0.00     0.074 A 
ATOM     52  C   UNL     1       1.653  -5.384  13.731  1.00  0.00     0.031 C 
ATOM     53  C   UNL     1      -0.296  -6.836  13.248  1.00  0.00     0.031 A 
BRANCH  40  54
ATOM     54  C   UNL     1      -4.177  -8.551   8.755  1.00  0.00    -0.014 A 
ATOM     55  C   UNL     1      -4.076  -9.651   7.886  1.00  0.00     0.009 A 
ATOM     56  C   UNL     1      -5.438  -8.206   9.264  1.00  0.00     0.009 A 
ATOM     57  C   UNL     1      -5.217 -10.357   7.500  1.00  0.00     0.001 A 
ATOM     58  C   UNL     1      -6.573  -8.935   8.903  1.00  0.00     0.001 A 
ATOM     59  C   UNL     1      -6.463 -10.001   8.012  1.00  0.00     0.000 A 
ENDBRANCH  40  54
BRANCH  41  60
ATOM     60  C   UNL     1       3.693  -2.845  11.060  1.00  0.00    -0.014 A 
ATOM     61  C   UNL     1       4.927  -3.416  11.411  1.00  0.00     0.009 A 
ATOM     62  C   UNL     1       3.567  -1.448  11.066  1.00  0.00     0.009 A 
ATOM     63  C   UNL     1       6.001  -2.606  11.789  1.00  0.00     0.001 A 
ATOM     64  C   UNL     1       4.652  -0.640  11.415  1.00  0.00     0.001 A 
ATOM     65  C   UNL     1       5.864  -1.219  11.786  1.00  0.00     0.000 A 
ENDBRANCH  41  60
BRANCH  53  66
ATOM     66  C   UNL     1      -0.254  -7.289  14.680  1.00  0.00    -0.014 A 
ATOM     67  C   UNL     1      -0.627  -6.432  15.726  1.00  0.00     0.009 A 
ATOM     68  C   UNL     1       0.133  -8.604  14.980  1.00  0.00     0.009 A 
ATOM     69  C   UNL     1      -0.578  -6.874  17.050  1.00  0.00     0.001 A 
ATOM     70  C   UNL     1       0.150  -9.053  16.300  1.00  0.00     0.001 A 
ATOM     71  C   UNL     1      -0.194  -8.184  17.335  1.00  0.00     0.000 A 
ENDBRANCH  53  66
ENDBRANCH  27  28
ENDBRANCH  19  22
ENDBRANCH  17  18
ENDBRANCH   1  17
TORSDOF 12
