REMARK SMILES CC(C)C[C@H](NC(N)=O)C(=O)N[C@@H](C(=O)NCCCNC(=O)c1ccc(-c2c3nc(c(-c4ccccc4)c4ccc([nH]4)c(-c4ccccc4)c4nc(c(-c5ccccc5)c5ccc2[nH]5)C=C4)C=C3)cc1)C(C)C
REMARK SMILES IDX 17 1 16 2 14 3 15 4 13 6 12 7 10 8 11 9 5 11 4 12 2 13 1 14
REMARK SMILES IDX 3 15 6 16 7 17 8 19 9 20 71 23 72 24 73 25 18 26 19 27 20 28
REMARK SMILES IDX 21 29 22 31 23 32 24 33 70 34 25 35 69 36 26 37 27 38 28 39
REMARK SMILES IDX 63 40 29 41 68 42 62 43 64 44 30 45 67 46 61 47 60 48 31 50
REMARK SMILES IDX 53 51 38 52 52 53 39 54 42 55 51 56 65 57 40 58 41 59 50 61
REMARK SMILES IDX 66 62 43 63 32 64 33 65 37 66 34 67 36 68 35 69 54 70 55 71
REMARK SMILES IDX 59 72 56 73 58 74 57 75 44 76 45 77 49 78 46 79 48 80 47 81
REMARK H PARENT 16 5 12 10 6 18 8 21 8 22 20 30 64 49 42 60
REMARK Flexibility Score: inf
ROOT
ATOM      1  C   UNL     1      -2.623   1.841  -2.490  1.00  0.00     0.117 C 
ENDROOT
BRANCH   1   2
ATOM      2  N   UNL     1      -3.368   3.055  -2.640  1.00  0.00    -0.354 N 
ATOM      3  C   UNL     1      -3.654   4.011  -1.718  1.00  0.00     0.242 C 
ATOM      4  O   UNL     1      -4.209   5.014  -2.179  1.00  0.00    -0.273 OA
ATOM      5  H   UNL     1      -3.725   3.221  -3.542  1.00  0.00     0.163 HD
BRANCH   3   6
ATOM      6  C   UNL     1      -3.181   3.911  -0.219  1.00  0.00     0.173 C 
BRANCH   6   7
ATOM      7  N   UNL     1      -3.558   2.626   0.394  1.00  0.00    -0.342 N 
ATOM      8  C   UNL     1      -2.862   1.543   0.846  1.00  0.00     0.243 C 
ATOM      9  O   UNL     1      -3.569   0.579   1.182  1.00  0.00    -0.273 OA
ATOM     10  H   UNL     1      -4.532   2.526   0.502  1.00  0.00     0.164 HD
BRANCH   8  11
ATOM     11  C   UNL     1      -1.302   1.413   1.027  1.00  0.00     0.173 C 
BRANCH  11  12
ATOM     12  C   UNL     1      -0.685   1.929   2.344  1.00  0.00     0.038 C 
BRANCH  12  13
ATOM     13  C   UNL     1      -1.400   3.124   2.973  1.00  0.00    -0.015 C 
ATOM     14  C   UNL     1      -2.516   2.666   3.918  1.00  0.00     0.007 C 
ATOM     15  C   UNL     1      -0.433   4.035   3.726  1.00  0.00     0.007 C 
ENDBRANCH  12  13
ENDBRANCH  11  12
BRANCH  11  16
ATOM     16  N   UNL     1      -0.448   1.627  -0.148  1.00  0.00    -0.327 N 
ATOM     17  C   UNL     1       0.159   2.781  -0.517  1.00  0.00     0.312 C 
ATOM     18  H   UNL     1      -0.299   0.848  -0.731  1.00  0.00     0.166 HD
ATOM     19  N   UNL     1       0.715   2.708  -1.750  1.00  0.00    -0.352 N 
ATOM     20  O   UNL     1       0.179   3.819   0.127  1.00  0.00    -0.249 OA
ATOM     21  H   UNL     1       0.688   1.862  -2.252  1.00  0.00     0.161 HD
ATOM     22  H   UNL     1       1.147   3.501  -2.143  1.00  0.00     0.161 HD
ENDBRANCH  11  16
ENDBRANCH   8  11
ENDBRANCH   6   7
BRANCH   6  23
ATOM     23  C   UNL     1      -3.766   5.165   0.520  1.00  0.00     0.015 C 
ATOM     24  C   UNL     1      -4.114   5.039   2.002  1.00  0.00     0.010 C 
ATOM     25  C   UNL     1      -2.805   6.351   0.331  1.00  0.00     0.010 C 
ENDBRANCH   6  23
ENDBRANCH   3   6
ENDBRANCH   1   2
BRANCH   1  26
ATOM     26  C   UNL     1      -3.460   0.603  -2.723  1.00  0.00     0.042 C 
BRANCH  26  27
ATOM     27  C   UNL     1      -3.842   0.448  -4.181  1.00  0.00     0.118 C 
BRANCH  27  28
ATOM     28  N   UNL     1      -2.674   0.315  -5.046  1.00  0.00    -0.352 N 
ATOM     29  C   UNL     1      -2.359  -0.682  -5.934  1.00  0.00     0.251 C 
ATOM     30  H   UNL     1      -2.018   1.046  -4.984  1.00  0.00     0.163 HD
ATOM     31  O   UNL     1      -1.232  -0.750  -6.413  1.00  0.00    -0.269 OA
BRANCH  29  32
ATOM     32  C   UNL     1      -3.389  -1.675  -6.285  1.00  0.00     0.039 A 
ATOM     33  C   UNL     1      -3.041  -3.023  -6.369  1.00  0.00     0.014 A 
ATOM     34  C   UNL     1      -4.710  -1.268  -6.490  1.00  0.00     0.014 A 
ATOM     35  C   UNL     1      -4.038  -3.972  -6.590  1.00  0.00     0.010 A 
ATOM     36  C   UNL     1      -5.712  -2.219  -6.590  1.00  0.00     0.010 A 
ATOM     37  C   UNL     1      -5.386  -3.579  -6.658  1.00  0.00    -0.014 A 
BRANCH  37  38
ATOM     38  C   UNL     1      -6.475  -4.569  -6.827  1.00  0.00     0.031 A 
ATOM     39  C   UNL     1      -7.365  -4.495  -8.038  1.00  0.00     0.074 A 
ATOM     40  C   UNL     1      -6.702  -5.484  -5.864  1.00  0.00     0.049 A 
ATOM     41  N   UNL     1      -8.419  -5.212  -8.331  1.00  0.00    -0.248 NA
ATOM     42  C   UNL     1      -7.047  -3.462  -9.040  1.00  0.00     0.031 C 
ATOM     43  C   UNL     1      -5.936  -5.624  -4.623  1.00  0.00     0.029 A 
ATOM     44  N   UNL     1      -7.652  -6.469  -5.778  1.00  0.00    -0.354 N 
ATOM     45  C   UNL     1      -8.891  -4.709  -9.536  1.00  0.00     0.074 A 
ATOM     46  C   UNL     1      -8.055  -3.585  -9.889  1.00  0.00     0.031 C 
ATOM     47  C   UNL     1      -6.425  -6.657  -3.917  1.00  0.00     0.029 A 
ATOM     48  C   UNL     1      -7.567  -7.218  -4.629  1.00  0.00     0.049 A 
ATOM     49  H   UNL     1      -8.331  -6.625  -6.474  1.00  0.00     0.167 HD
ATOM     50  C   UNL     1      -9.912  -5.162 -10.300  1.00  0.00     0.031 A 
ATOM     51  C   UNL     1      -8.333  -8.237  -4.196  1.00  0.00     0.031 A 
ATOM     52  C   UNL     1     -10.734  -6.289  -9.955  1.00  0.00     0.049 A 
ATOM     53  C   UNL     1      -9.481  -8.698  -5.053  1.00  0.00     0.074 A 
ATOM     54  C   UNL     1     -11.769  -6.852 -10.679  1.00  0.00     0.029 A 
ATOM     55  N   UNL     1     -10.608  -7.026  -8.789  1.00  0.00    -0.354 N 
ATOM     56  N   UNL     1      -9.873  -8.253  -6.223  1.00  0.00    -0.248 NA
ATOM     57  C   UNL     1     -10.284  -9.815  -4.535  1.00  0.00     0.031 C 
ATOM     58  C   UNL     1     -12.304  -7.901  -9.926  1.00  0.00     0.029 A 
ATOM     59  C   UNL     1     -11.560  -8.030  -8.764  1.00  0.00     0.049 A 
ATOM     60  H   UNL     1      -9.942  -6.860  -8.083  1.00  0.00     0.167 HD
ATOM     61  C   UNL     1     -10.942  -9.057  -6.595  1.00  0.00     0.074 A 
ATOM     62  C   UNL     1     -11.123 -10.030  -5.537  1.00  0.00     0.031 C 
ATOM     63  C   UNL     1     -11.710  -8.997  -7.710  1.00  0.00     0.031 A 
BRANCH  50  64
ATOM     64  C   UNL     1     -10.185  -4.448 -11.594  1.00  0.00    -0.014 A 
ATOM     65  C   UNL     1      -9.291  -4.542 -12.674  1.00  0.00     0.009 A 
ATOM     66  C   UNL     1     -11.373  -3.721 -11.757  1.00  0.00     0.009 A 
ATOM     67  C   UNL     1      -9.571  -3.900 -13.882  1.00  0.00     0.001 A 
ATOM     68  C   UNL     1     -11.665  -3.106 -12.976  1.00  0.00     0.001 A 
ATOM     69  C   UNL     1     -10.761  -3.191 -14.035  1.00  0.00     0.000 A 
ENDBRANCH  50  64
BRANCH  51  70
ATOM     70  C   UNL     1      -8.055  -8.894  -2.891  1.00  0.00    -0.014 A 
ATOM     71  C   UNL     1      -7.635 -10.233  -2.839  1.00  0.00     0.009 A 
ATOM     72  C   UNL     1      -8.254  -8.203  -1.686  1.00  0.00     0.009 A 
ATOM     73  C   UNL     1      -7.471 -10.879  -1.611  1.00  0.00     0.001 A 
ATOM     74  C   UNL     1      -8.053  -8.839  -0.459  1.00  0.00     0.001 A 
ATOM     75  C   UNL     1      -7.679 -10.181  -0.423  1.00  0.00     0.000 A 
ENDBRANCH  51  70
BRANCH  63  76
ATOM     76  C   UNL     1     -12.776 -10.045  -7.869  1.00  0.00    -0.014 A 
ATOM     77  C   UNL     1     -13.927 -10.047  -7.068  1.00  0.00     0.009 A 
ATOM     78  C   UNL     1     -12.640 -11.020  -8.870  1.00  0.00     0.009 A 
ATOM     79  C   UNL     1     -14.904 -11.030  -7.242  1.00  0.00     0.001 A 
ATOM     80  C   UNL     1     -13.634 -11.978  -9.065  1.00  0.00     0.001 A 
ATOM     81  C   UNL     1     -14.759 -11.989  -8.243  1.00  0.00     0.000 A 
ENDBRANCH  63  76
ENDBRANCH  37  38
ENDBRANCH  29  32
ENDBRANCH  27  28
ENDBRANCH  26  27
ENDBRANCH   1  26
TORSDOF 16
