REMARK SMILES COc1ccc([C@H](C)NC(=O)c2cnn(C)c2C(=O)NCCCNC(=O)c2ccc(-c3c4nc(c(-c5ccccc5)c5ccc([nH]5)c(-c5ccccc5)c5nc(c(-c6ccccc6)c6ccc3[nH]6)C=C5)C=C4)cc2)cc1
REMARK SMILES IDX 21 1 20 2 18 3 19 4 17 6 12 7 13 8 14 9 15 10 16 11 10 12
REMARK SMILES IDX 9 13 11 15 7 16 8 17 6 18 3 19 4 20 76 21 5 22 75 23 2 24
REMARK SMILES IDX 1 25 22 26 23 27 24 28 25 29 26 31 27 32 28 33 74 34 29 35
REMARK SMILES IDX 73 36 30 37 31 38 32 39 67 40 33 41 72 42 66 43 68 44 34 45
REMARK SMILES IDX 71 46 65 47 64 48 35 50 57 51 42 52 56 53 43 54 46 55 55 56
REMARK SMILES IDX 69 57 44 58 45 59 54 61 70 62 47 63 36 64 37 65 41 66 38 67
REMARK SMILES IDX 40 68 39 69 58 70 59 71 63 72 60 73 62 74 61 75 48 76 49 77
REMARK SMILES IDX 53 78 50 79 52 80 51 81
REMARK H PARENT 20 5 9 14 24 30 68 49 46 60
REMARK Flexibility Score: inf
ROOT
ATOM      1  C   UNL     1       7.306   9.085  -0.656  1.00  0.00     0.118 C 
ENDROOT
BRANCH   1   2
ATOM      2  N   UNL     1       6.013   9.629  -0.267  1.00  0.00    -0.351 N 
ATOM      3  C   UNL     1       4.982   9.215   0.536  1.00  0.00     0.270 C 
ATOM      4  O   UNL     1       4.023   9.988   0.583  1.00  0.00    -0.268 OA
ATOM      5  H   UNL     1       5.837  10.506  -0.680  1.00  0.00     0.163 HD
BRANCH   3   6
ATOM      6  C   UNL     1       4.963   7.933   1.198  1.00  0.00     0.138 A 
ATOM      7  C   UNL     1       3.824   7.184   1.523  1.00  0.00     0.090 A 
ATOM      8  C   UNL     1       4.306   5.992   2.096  1.00  0.00     0.149 A 
ATOM      9  N   UNL     1       5.636   5.992   2.189  1.00  0.00    -0.180 NA
ATOM     10  N   UNL     1       5.975   7.257   1.843  1.00  0.00    -0.262 N 
ATOM     11  C   UNL     1       7.191   7.799   2.421  1.00  0.00     0.174 C 
BRANCH   7  12
ATOM     12  C   UNL     1       2.442   7.593   1.388  1.00  0.00     0.255 C 
ATOM     13  N   UNL     1       1.770   7.273   0.242  1.00  0.00    -0.345 N 
ATOM     14  H   UNL     1       0.865   7.652   0.163  1.00  0.00     0.164 HD
ATOM     15  O   UNL     1       1.855   8.176   2.294  1.00  0.00    -0.269 OA
BRANCH  13  16
ATOM     16  C   UNL     1       2.203   6.454  -0.874  1.00  0.00     0.109 C 
ATOM     17  C   UNL     1       1.658   5.032  -0.719  1.00  0.00     0.036 C 
BRANCH  16  18
ATOM     18  C   UNL     1       1.809   7.135  -2.172  1.00  0.00    -0.026 A 
ATOM     19  C   UNL     1       1.171   8.505  -4.561  1.00  0.00     0.118 A 
ATOM     20  C   UNL     1       2.414   8.683  -3.955  1.00  0.00     0.047 A 
ATOM     21  C   UNL     1       0.241   7.650  -3.966  1.00  0.00     0.047 A 
ATOM     22  C   UNL     1       2.720   8.021  -2.765  1.00  0.00     0.009 A 
ATOM     23  C   UNL     1       0.556   6.973  -2.779  1.00  0.00     0.009 A 
BRANCH  19  24
ATOM     24  O   UNL     1       0.992   9.214  -5.716  1.00  0.00    -0.497 OA
ATOM     25  C   UNL     1      -0.333   9.257  -6.240  1.00  0.00     0.278 C 
ENDBRANCH  19  24
ENDBRANCH  16  18
ENDBRANCH  13  16
ENDBRANCH   7  12
ENDBRANCH   3   6
ENDBRANCH   1   2
BRANCH   1  26
ATOM     26  C   UNL     1       7.269   7.904  -1.624  1.00  0.00     0.042 C 
BRANCH  26  27
ATOM     27  C   UNL     1       6.736   8.238  -3.017  1.00  0.00     0.118 C 
BRANCH  27  28
ATOM     28  N   UNL     1       7.457   9.311  -3.679  1.00  0.00    -0.352 N 
ATOM     29  C   UNL     1       8.587   9.331  -4.454  1.00  0.00     0.251 C 
ATOM     30  H   UNL     1       7.055  10.200  -3.545  1.00  0.00     0.163 HD
ATOM     31  O   UNL     1       9.089  10.419  -4.729  1.00  0.00    -0.269 OA
BRANCH  29  32
ATOM     32  C   UNL     1       9.240   8.098  -4.949  1.00  0.00     0.039 A 
ATOM     33  C   UNL     1      10.642   8.061  -4.955  1.00  0.00     0.014 A 
ATOM     34  C   UNL     1       8.524   7.043  -5.520  1.00  0.00     0.014 A 
ATOM     35  C   UNL     1      11.320   6.959  -5.483  1.00  0.00     0.010 A 
ATOM     36  C   UNL     1       9.201   5.924  -6.019  1.00  0.00     0.010 A 
ATOM     37  C   UNL     1      10.603   5.872  -6.003  1.00  0.00    -0.014 A 
BRANCH  37  38
ATOM     38  C   UNL     1      11.309   4.676  -6.524  1.00  0.00     0.031 A 
ATOM     39  C   UNL     1      11.381   4.405  -7.999  1.00  0.00     0.074 A 
ATOM     40  C   UNL     1      11.873   3.810  -5.662  1.00  0.00     0.049 A 
ATOM     41  N   UNL     1      11.841   3.347  -8.619  1.00  0.00    -0.248 NA
ATOM     42  C   UNL     1      10.869   5.455  -8.892  1.00  0.00     0.031 C 
ATOM     43  C   UNL     1      11.897   3.955  -4.205  1.00  0.00     0.029 A 
ATOM     44  N   UNL     1      12.533   2.629  -5.893  1.00  0.00    -0.354 N 
ATOM     45  C   UNL     1      11.648   3.588  -9.972  1.00  0.00     0.074 A 
ATOM     46  C   UNL     1      11.040   4.899 -10.085  1.00  0.00     0.031 C 
ATOM     47  C   UNL     1      12.552   2.910  -3.673  1.00  0.00     0.029 A 
ATOM     48  C   UNL     1      12.961   2.009  -4.747  1.00  0.00     0.049 A 
ATOM     49  H   UNL     1      12.685   2.263  -6.794  1.00  0.00     0.167 HD
ATOM     50  C   UNL     1      11.943   2.792 -11.027  1.00  0.00     0.031 A 
ATOM     51  C   UNL     1      13.592   0.834  -4.573  1.00  0.00     0.031 A 
ATOM     52  C   UNL     1      12.573   1.503 -10.937  1.00  0.00     0.049 A 
ATOM     53  C   UNL     1      13.895  -0.038  -5.754  1.00  0.00     0.074 A 
ATOM     54  C   UNL     1      12.912   0.632 -11.960  1.00  0.00     0.029 A 
ATOM     55  N   UNL     1      12.971   0.903  -9.754  1.00  0.00    -0.354 N 
ATOM     56  N   UNL     1      13.655   0.183  -7.022  1.00  0.00    -0.248 NA
ATOM     57  C   UNL     1      14.533  -1.333  -5.473  1.00  0.00     0.031 C 
ATOM     58  C   UNL     1      13.511  -0.500 -11.393  1.00  0.00     0.029 A 
ATOM     59  C   UNL     1      13.547  -0.327 -10.020  1.00  0.00     0.049 A 
ATOM     60  H   UNL     1      12.860   1.294  -8.857  1.00  0.00     0.167 HD
ATOM     61  C   UNL     1      14.102  -0.948  -7.690  1.00  0.00     0.074 A 
ATOM     62  C   UNL     1      14.636  -1.849  -6.690  1.00  0.00     0.031 C 
ATOM     63  C   UNL     1      14.064  -1.216  -9.016  1.00  0.00     0.031 A 
BRANCH  50  64
ATOM     64  C   UNL     1      11.564   3.295 -12.385  1.00  0.00    -0.014 A 
ATOM     65  C   UNL     1      12.449   4.091 -13.126  1.00  0.00     0.009 A 
ATOM     66  C   UNL     1      10.324   2.942 -12.940  1.00  0.00     0.009 A 
ATOM     67  C   UNL     1      12.091   4.539 -14.399  1.00  0.00     0.001 A 
ATOM     68  C   UNL     1       9.970   3.389 -14.214  1.00  0.00     0.001 A 
ATOM     69  C   UNL     1      10.853   4.188 -14.941  1.00  0.00     0.000 A 
ENDBRANCH  50  64
BRANCH  51  70
ATOM     70  C   UNL     1      13.949   0.392  -3.207  1.00  0.00    -0.014 A 
ATOM     71  C   UNL     1      15.223   0.666  -2.689  1.00  0.00     0.009 A 
ATOM     72  C   UNL     1      13.014  -0.294  -2.417  1.00  0.00     0.009 A 
ATOM     73  C   UNL     1      15.558   0.252  -1.398  1.00  0.00     0.001 A 
ATOM     74  C   UNL     1      13.351  -0.702  -1.126  1.00  0.00     0.001 A 
ATOM     75  C   UNL     1      14.623  -0.430  -0.619  1.00  0.00     0.000 A 
ENDBRANCH  51  70
BRANCH  63  76
ATOM     76  C   UNL     1      14.605  -2.542  -9.451  1.00  0.00    -0.014 A 
ATOM     77  C   UNL     1      13.765  -3.664  -9.501  1.00  0.00     0.009 A 
ATOM     78  C   UNL     1      15.951  -2.671  -9.823  1.00  0.00     0.009 A 
ATOM     79  C   UNL     1      14.269  -4.902  -9.904  1.00  0.00     0.001 A 
ATOM     80  C   UNL     1      16.451  -3.909 -10.227  1.00  0.00     0.001 A 
ATOM     81  C   UNL     1      15.612  -5.023 -10.264  1.00  0.00     0.000 A 
ENDBRANCH  63  76
ENDBRANCH  37  38
ENDBRANCH  29  32
ENDBRANCH  27  28
ENDBRANCH  26  27
ENDBRANCH   1  26
TORSDOF 14
