REMARK SMILES CC1=C(C)C[C@@H](C(=O)NCCCNC(=O)c2ccc(-c3c4nc(c(-c5ccccc5)c5ccc([nH]5)c(-c5ccccc5)c5nc(c(-c6ccccc6)c6ccc3[nH]6)C=C5)C=C4)cc2)[C@@H](C(=O)N2CCN(c3cccc(C(F)(F)F)c3)CC2)C1
REMARK SMILES IDX 10 1 9 2 7 3 8 4 6 6 1 7 2 8 3 9 83 10 4 11 5 12 64 13 65 14
REMARK SMILES IDX 66 15 67 16 68 17 82 18 69 19 81 20 70 21 71 22 72 23 80 24
REMARK SMILES IDX 73 25 75 26 74 27 76 28 77 29 78 30 79 31 11 32 12 33 13 34
REMARK SMILES IDX 14 35 15 37 16 38 17 39 63 40 18 41 62 42 19 43 20 44 21 45
REMARK SMILES IDX 56 46 22 47 61 48 55 49 57 50 23 51 60 52 54 53 53 54 24 56
REMARK SMILES IDX 46 57 31 58 45 59 32 60 35 61 44 62 58 63 33 64 34 65 43 67
REMARK SMILES IDX 59 68 36 69 25 70 26 71 30 72 27 73 29 74 28 75 47 76 48 77
REMARK SMILES IDX 52 78 49 79 51 80 50 81 37 82 38 83 42 84 39 85 41 86 40 87
REMARK H PARENT 9 5 13 36 57 55 35 66
REMARK Flexibility Score: inf
ROOT
ATOM      1  C   UNL     1       2.337   0.857   3.656  1.00  0.00     0.117 C 
ENDROOT
BRANCH   1   2
ATOM      2  N   UNL     1       2.053   2.127   4.297  1.00  0.00    -0.356 N 
ATOM      3  C   UNL     1       1.161   3.116   4.065  1.00  0.00     0.224 C 
ATOM      4  O   UNL     1       1.223   4.097   4.819  1.00  0.00    -0.275 OA
ATOM      5  H   UNL     1       2.636   2.308   5.069  1.00  0.00     0.163 HD
BRANCH   3   6
ATOM      6  C   UNL     1       0.115   3.117   2.954  1.00  0.00     0.095 C 
ATOM      7  C   UNL     1       0.581   0.178  -0.316  1.00  0.00     0.039 C 
ATOM      8  C   UNL     1       0.182   1.163   0.756  1.00  0.00    -0.074 C 
ATOM      9  C   UNL     1      -0.544   0.868   1.854  1.00  0.00    -0.074 C 
ATOM     10  C   UNL     1       0.711   2.553   0.485  1.00  0.00     0.045 C 
ATOM     11  C   UNL     1      -1.127  -0.486   2.181  1.00  0.00     0.039 C 
ATOM     12  C   UNL     1      -0.813   1.900   2.925  1.00  0.00     0.045 C 
ATOM     13  C   UNL     1       0.574   3.625   1.586  1.00  0.00     0.095 C 
BRANCH  13  14
ATOM     14  C   UNL     1       1.895   4.405   1.609  1.00  0.00     0.226 C 
ATOM     15  O   UNL     1       2.970   3.856   1.852  1.00  0.00    -0.275 OA
ATOM     16  N   UNL     1       1.859   5.689   1.112  1.00  0.00    -0.339 N 
ATOM     17  C   UNL     1       3.036   6.195   0.404  1.00  0.00     0.141 C 
ATOM     18  C   UNL     1       0.934   6.726   1.586  1.00  0.00     0.141 C 
ATOM     19  C   UNL     1       2.602   7.048  -0.797  1.00  0.00     0.138 C 
ATOM     20  C   UNL     1       0.548   7.729   0.480  1.00  0.00     0.138 C 
ATOM     21  N   UNL     1       1.705   8.115  -0.339  1.00  0.00    -0.368 N 
BRANCH  21  22
ATOM     22  C   UNL     1       2.071   9.423  -0.554  1.00  0.00     0.037 A 
ATOM     23  C   UNL     1       2.271   9.895  -1.858  1.00  0.00     0.026 A 
ATOM     24  C   UNL     1       2.321  10.297   0.508  1.00  0.00     0.039 A 
ATOM     25  C   UNL     1       2.704  11.198  -2.102  1.00  0.00     0.003 A 
ATOM     26  C   UNL     1       2.791  11.604   0.284  1.00  0.00     0.058 A 
ATOM     27  C   UNL     1       2.968  12.049  -1.034  1.00  0.00     0.013 A 
BRANCH  26  28
ATOM     28  C   UNL     1       3.127  12.516   1.435  1.00  0.00     0.416 C 
ATOM     29  F   UNL     1       4.410  12.972   1.379  1.00  0.00    -0.166 F 
ATOM     30  F   UNL     1       2.339  13.626   1.468  1.00  0.00    -0.166 F 
ATOM     31  F   UNL     1       2.996  11.929   2.658  1.00  0.00    -0.166 F 
ENDBRANCH  26  28
ENDBRANCH  21  22
ENDBRANCH  13  14
ENDBRANCH   3   6
ENDBRANCH   1   2
BRANCH   1  32
ATOM     32  C   UNL     1       3.430   0.920   2.596  1.00  0.00     0.042 C 
BRANCH  32  33
ATOM     33  C   UNL     1       4.752   1.473   3.117  1.00  0.00     0.118 C 
BRANCH  33  34
ATOM     34  N   UNL     1       5.412   0.503   3.982  1.00  0.00    -0.352 N 
ATOM     35  C   UNL     1       6.611  -0.136   3.798  1.00  0.00     0.251 C 
ATOM     36  H   UNL     1       4.932   0.277   4.811  1.00  0.00     0.163 HD
ATOM     37  O   UNL     1       6.873  -1.149   4.439  1.00  0.00    -0.269 OA
BRANCH  35  38
ATOM     38  C   UNL     1       7.597   0.403   2.838  1.00  0.00     0.039 A 
ATOM     39  C   UNL     1       8.310  -0.482   2.024  1.00  0.00     0.014 A 
ATOM     40  C   UNL     1       7.872   1.774   2.797  1.00  0.00     0.014 A 
ATOM     41  C   UNL     1       9.284   0.008   1.152  1.00  0.00     0.010 A 
ATOM     42  C   UNL     1       8.805   2.267   1.889  1.00  0.00     0.010 A 
ATOM     43  C   UNL     1       9.534   1.387   1.074  1.00  0.00    -0.014 A 
BRANCH  43  44
ATOM     44  C   UNL     1      10.583   1.934   0.180  1.00  0.00     0.031 A 
ATOM     45  C   UNL     1      11.805   2.581   0.770  1.00  0.00     0.074 A 
ATOM     46  C   UNL     1      10.407   1.912  -1.154  1.00  0.00     0.049 A 
ATOM     47  N   UNL     1      12.785   3.203   0.165  1.00  0.00    -0.248 NA
ATOM     48  C   UNL     1      11.928   2.547   2.236  1.00  0.00     0.031 C 
ATOM     49  C   UNL     1       9.254   1.337  -1.848  1.00  0.00     0.029 A 
ATOM     50  N   UNL     1      11.195   2.402  -2.164  1.00  0.00    -0.354 N 
ATOM     51  C   UNL     1      13.623   3.658   1.176  1.00  0.00     0.074 A 
ATOM     52  C   UNL     1      13.019   3.272   2.432  1.00  0.00     0.031 C 
ATOM     53  C   UNL     1       9.416   1.497  -3.172  1.00  0.00     0.029 A 
ATOM     54  C   UNL     1      10.663   2.216  -3.416  1.00  0.00     0.049 A 
ATOM     55  H   UNL     1      12.060   2.845  -2.006  1.00  0.00     0.167 HD
ATOM     56  C   UNL     1      14.795   4.327   1.068  1.00  0.00     0.031 A 
ATOM     57  C   UNL     1      11.121   2.593  -4.623  1.00  0.00     0.031 A 
ATOM     58  C   UNL     1      15.405   4.694  -0.181  1.00  0.00     0.049 A 
ATOM     59  C   UNL     1      12.425   3.334  -4.719  1.00  0.00     0.074 A 
ATOM     60  C   UNL     1      16.621   5.319  -0.397  1.00  0.00     0.029 A 
ATOM     61  N   UNL     1      14.842   4.468  -1.427  1.00  0.00    -0.354 N 
ATOM     62  N   UNL     1      13.233   3.710  -3.757  1.00  0.00    -0.248 NA
ATOM     63  C   UNL     1      12.883   3.696  -6.068  1.00  0.00     0.031 C 
ATOM     64  C   UNL     1      16.775   5.508  -1.775  1.00  0.00     0.029 A 
ATOM     65  C   UNL     1      15.677   4.959  -2.417  1.00  0.00     0.049 A 
ATOM     66  H   UNL     1      13.977   4.025  -1.585  1.00  0.00     0.167 HD
ATOM     67  C   UNL     1      14.307   4.327  -4.385  1.00  0.00     0.074 A 
ATOM     68  C   UNL     1      14.051   4.269  -5.809  1.00  0.00     0.031 C 
ATOM     69  C   UNL     1      15.407   4.890  -3.829  1.00  0.00     0.031 A 
BRANCH  56  70
ATOM     70  C   UNL     1      15.487   4.715   2.345  1.00  0.00    -0.014 A 
ATOM     71  C   UNL     1      16.100   3.753   3.164  1.00  0.00     0.009 A 
ATOM     72  C   UNL     1      15.545   6.065   2.723  1.00  0.00     0.009 A 
ATOM     73  C   UNL     1      16.720   4.131   4.356  1.00  0.00     0.001 A 
ATOM     74  C   UNL     1      16.191   6.444   3.902  1.00  0.00     0.001 A 
ATOM     75  C   UNL     1      16.768   5.476   4.722  1.00  0.00     0.000 A 
ENDBRANCH  56  70
BRANCH  57  76
ATOM     76  C   UNL     1      10.345   2.259  -5.844  1.00  0.00    -0.014 A 
ATOM     77  C   UNL     1      10.790   1.253  -6.714  1.00  0.00     0.009 A 
ATOM     78  C   UNL     1       9.149   2.933  -6.137  1.00  0.00     0.009 A 
ATOM     79  C   UNL     1      10.062   0.940  -7.864  1.00  0.00     0.001 A 
ATOM     80  C   UNL     1       8.411   2.602  -7.275  1.00  0.00     0.001 A 
ATOM     81  C   UNL     1       8.871   1.611  -8.141  1.00  0.00     0.000 A 
ENDBRANCH  57  76
BRANCH  69  82
ATOM     82  C   UNL     1      16.436   5.456  -4.765  1.00  0.00    -0.014 A 
ATOM     83  C   UNL     1      16.226   6.674  -5.427  1.00  0.00     0.009 A 
ATOM     84  C   UNL     1      17.656   4.783  -4.942  1.00  0.00     0.009 A 
ATOM     85  C   UNL     1      17.209   7.197  -6.269  1.00  0.00     0.001 A 
ATOM     86  C   UNL     1      18.646   5.320  -5.765  1.00  0.00     0.001 A 
ATOM     87  C   UNL     1      18.419   6.523  -6.433  1.00  0.00     0.000 A 
ENDBRANCH  69  82
ENDBRANCH  43  44
ENDBRANCH  35  38
ENDBRANCH  33  34
ENDBRANCH  32  33
ENDBRANCH   1  32
TORSDOF 13
