REMARK SMILES Cc1cc([N+](=O)[O-])ccc1NC(=O)[C@@H]1[C@@H](C(=O)NCCCNC(=O)c2ccc(-c3c4nc(c(-c5ccccc5)c5ccc([nH]5)c(-c5ccccc5)c5nc(c(-c6ccccc6)c6ccc3[nH]6)C=C5)C=C4)cc2)[C@H]2C=C[C@@H]1C2
REMARK SMILES IDX 19 1 18 2 16 3 17 4 15 6 14 7 76 8 73 9 75 10 77 11 74 12
REMARK SMILES IDX 12 13 11 14 13 16 10 17 1 18 2 19 3 20 4 21 9 22 8 23 5 24
REMARK SMILES IDX 6 25 7 26 20 27 21 28 22 29 23 30 24 32 25 33 26 34 72 35
REMARK SMILES IDX 27 36 71 37 28 38 29 39 30 40 65 41 31 42 70 43 64 44 66 45
REMARK SMILES IDX 32 46 69 47 63 48 62 49 33 51 55 52 40 53 54 54 41 55 44 56
REMARK SMILES IDX 53 57 67 58 42 59 43 60 52 62 68 63 45 64 34 65 35 66 39 67
REMARK SMILES IDX 36 68 38 69 37 70 56 71 57 72 61 73 58 74 60 75 59 76 46 77
REMARK SMILES IDX 47 78 51 79 48 80 50 81 49 82
REMARK H PARENT 18 5 11 15 22 31 66 50 44 61
REMARK Flexibility Score: inf
ROOT
ATOM      1  C   UNL     1      -4.172   7.272   0.787  1.00  0.00     0.117 C 
ENDROOT
BRANCH   1   2
ATOM      2  N   UNL     1      -3.666   6.564  -0.375  1.00  0.00    -0.356 N 
ATOM      3  C   UNL     1      -2.709   5.613  -0.541  1.00  0.00     0.224 C 
ATOM      4  O   UNL     1      -2.519   5.251  -1.709  1.00  0.00    -0.275 OA
ATOM      5  H   UNL     1      -4.106   6.826  -1.216  1.00  0.00     0.163 HD
BRANCH   3   6
ATOM      6  C   UNL     1      -1.829   5.075   0.589  1.00  0.00     0.098 C 
ATOM      7  C   UNL     1      -1.347   3.600   0.228  1.00  0.00     0.099 C 
ATOM      8  C   UNL     1      -1.719   2.807   1.507  1.00  0.00     0.025 C 
ATOM      9  C   UNL     1      -2.465   4.853   1.980  1.00  0.00     0.025 C 
ATOM     10  C   UNL     1      -3.227   2.724   1.559  1.00  0.00    -0.027 C 
ATOM     11  C   UNL     1      -1.496   3.846   2.600  1.00  0.00     0.017 C 
ATOM     12  C   UNL     1      -3.676   3.953   1.849  1.00  0.00    -0.027 C 
BRANCH   7  13
ATOM     13  C   UNL     1       0.132   3.464  -0.106  1.00  0.00     0.228 C 
ATOM     14  N   UNL     1       0.704   2.244  -0.378  1.00  0.00    -0.326 N 
ATOM     15  H   UNL     1       1.670   2.295  -0.560  1.00  0.00     0.169 HD
ATOM     16  O   UNL     1       0.883   4.444  -0.088  1.00  0.00    -0.274 OA
BRANCH  14  17
ATOM     17  C   UNL     1       0.186   0.931  -0.447  1.00  0.00     0.044 A 
ATOM     18  C   UNL     1       2.503  -0.063   0.127  1.00  0.00     0.047 C 
ATOM     19  C   UNL     1       1.019  -0.164  -0.121  1.00  0.00    -0.021 A 
ATOM     20  C   UNL     1       0.457  -1.457  -0.021  1.00  0.00     0.091 A 
ATOM     21  C   UNL     1      -0.907  -1.660  -0.256  1.00  0.00     0.269 A 
ATOM     22  C   UNL     1      -1.145   0.671  -0.801  1.00  0.00     0.033 A 
ATOM     23  C   UNL     1      -1.705  -0.604  -0.682  1.00  0.00     0.088 A 
BRANCH  21  24
ATOM     24  N   UNL     1      -1.502  -2.984  -0.053  1.00  0.00     0.062 N 
ATOM     25  O   UNL     1      -0.735  -3.941   0.119  1.00  0.00    -0.258 OA
ATOM     26  O   UNL     1      -2.739  -3.062  -0.050  1.00  0.00    -0.258 OA
ENDBRANCH  21  24
ENDBRANCH  14  17
ENDBRANCH   7  13
ENDBRANCH   3   6
ENDBRANCH   1   2
BRANCH   1  27
ATOM     27  C   UNL     1      -3.446   8.590   1.016  1.00  0.00     0.042 C 
BRANCH  27  28
ATOM     28  C   UNL     1      -4.196   9.757   0.391  1.00  0.00     0.118 C 
BRANCH  28  29
ATOM     29  N   UNL     1      -5.259  10.302   1.236  1.00  0.00    -0.352 N 
ATOM     30  C   UNL     1      -6.251  11.222   0.917  1.00  0.00     0.251 C 
ATOM     31  H   UNL     1      -5.273   9.971   2.163  1.00  0.00     0.163 HD
ATOM     32  O   UNL     1      -7.077  11.557   1.739  1.00  0.00    -0.269 OA
BRANCH  30  33
ATOM     33  C   UNL     1      -6.355  11.683  -0.490  1.00  0.00     0.039 A 
ATOM     34  C   UNL     1      -7.594  11.562  -1.126  1.00  0.00     0.014 A 
ATOM     35  C   UNL     1      -5.206  11.962  -1.221  1.00  0.00     0.014 A 
ATOM     36  C   UNL     1      -7.629  11.447  -2.513  1.00  0.00     0.010 A 
ATOM     37  C   UNL     1      -5.222  11.732  -2.581  1.00  0.00     0.010 A 
ATOM     38  C   UNL     1      -6.424  11.407  -3.215  1.00  0.00    -0.014 A 
BRANCH  38  39
ATOM     39  C   UNL     1      -6.324  10.914  -4.582  1.00  0.00     0.031 A 
ATOM     40  C   UNL     1      -6.099  11.853  -5.695  1.00  0.00     0.074 A 
ATOM     41  C   UNL     1      -6.441   9.592  -4.838  1.00  0.00     0.049 A 
ATOM     42  N   UNL     1      -6.562  11.677  -6.887  1.00  0.00    -0.248 NA
ATOM     43  C   UNL     1      -5.363  13.103  -5.534  1.00  0.00     0.031 C 
ATOM     44  C   UNL     1      -6.180   8.903  -6.098  1.00  0.00     0.029 A 
ATOM     45  N   UNL     1      -7.034   8.624  -4.035  1.00  0.00    -0.354 N 
ATOM     46  C   UNL     1      -5.966  12.614  -7.694  1.00  0.00     0.074 A 
ATOM     47  C   UNL     1      -5.290  13.525  -6.799  1.00  0.00     0.031 C 
ATOM     48  C   UNL     1      -6.810   7.716  -6.083  1.00  0.00     0.029 A 
ATOM     49  C   UNL     1      -7.607   7.653  -4.868  1.00  0.00     0.049 A 
ATOM     50  H   UNL     1      -7.049   8.621  -3.051  1.00  0.00     0.167 HD
ATOM     51  C   UNL     1      -5.968  12.455  -9.045  1.00  0.00     0.031 A 
ATOM     52  C   UNL     1      -8.948   7.403  -4.826  1.00  0.00     0.031 A 
ATOM     53  C   UNL     1      -6.658  11.239  -9.456  1.00  0.00     0.049 A 
ATOM     54  C   UNL     1      -9.672   7.757  -6.110  1.00  0.00     0.074 A 
ATOM     55  C   UNL     1      -6.205   9.970  -9.780  1.00  0.00     0.029 A 
ATOM     56  N   UNL     1      -8.028  11.131  -9.257  1.00  0.00    -0.354 N 
ATOM     57  N   UNL     1      -9.150   8.472  -7.068  1.00  0.00    -0.248 NA
ATOM     58  C   UNL     1     -11.056   7.380  -6.393  1.00  0.00     0.031 C 
ATOM     59  C   UNL     1      -7.304   9.078  -9.692  1.00  0.00     0.029 A 
ATOM     60  C   UNL     1      -8.426   9.811  -9.350  1.00  0.00     0.049 A 
ATOM     61  H   UNL     1      -8.630  11.888  -9.075  1.00  0.00     0.167 HD
ATOM     62  C   UNL     1     -10.084   8.682  -8.047  1.00  0.00     0.074 A 
ATOM     63  C   UNL     1     -11.257   7.960  -7.590  1.00  0.00     0.031 C 
ATOM     64  C   UNL     1      -9.820   9.450  -9.143  1.00  0.00     0.031 A 
BRANCH  51  65
ATOM     65  C   UNL     1      -5.050  13.253  -9.928  1.00  0.00    -0.014 A 
ATOM     66  C   UNL     1      -4.406  12.632 -11.012  1.00  0.00     0.009 A 
ATOM     67  C   UNL     1      -4.739  14.605  -9.701  1.00  0.00     0.009 A 
ATOM     68  C   UNL     1      -3.426  13.292 -11.762  1.00  0.00     0.001 A 
ATOM     69  C   UNL     1      -3.727  15.257 -10.419  1.00  0.00     0.001 A 
ATOM     70  C   UNL     1      -3.062  14.594 -11.444  1.00  0.00     0.000 A 
ENDBRANCH  51  65
BRANCH  52  71
ATOM     71  C   UNL     1      -9.529   7.529  -3.460  1.00  0.00    -0.014 A 
ATOM     72  C   UNL     1      -9.148   6.582  -2.488  1.00  0.00     0.009 A 
ATOM     73  C   UNL     1     -10.117   8.727  -3.032  1.00  0.00     0.009 A 
ATOM     74  C   UNL     1      -9.241   6.876  -1.124  1.00  0.00     0.001 A 
ATOM     75  C   UNL     1     -10.216   9.014  -1.664  1.00  0.00     0.001 A 
ATOM     76  C   UNL     1      -9.746   8.107  -0.714  1.00  0.00     0.000 A 
ENDBRANCH  52  71
BRANCH  64  77
ATOM     77  C   UNL     1     -10.828   9.898 -10.169  1.00  0.00    -0.014 A 
ATOM     78  C   UNL     1     -12.190  10.086  -9.903  1.00  0.00     0.009 A 
ATOM     79  C   UNL     1     -10.364  10.298 -11.443  1.00  0.00     0.009 A 
ATOM     80  C   UNL     1     -13.052  10.610 -10.876  1.00  0.00     0.001 A 
ATOM     81  C   UNL     1     -11.212  10.861 -12.399  1.00  0.00     0.001 A 
ATOM     82  C   UNL     1     -12.562  11.008 -12.117  1.00  0.00     0.000 A 
ENDBRANCH  64  77
ENDBRANCH  38  39
ENDBRANCH  30  33
ENDBRANCH  28  29
ENDBRANCH  27  28
ENDBRANCH   1  27
TORSDOF 13
