REMARK SMILES O=C(NCCCNC(=O)[C@H](c1c[nH]c2cc(OCc3ccccc3)ccc12)[NH+]1CC[NH+]([C@H]2CCS(=O)(=O)C2)CC1)c1ccc(-c2c3nc(c(-c4ccccc4)c4ccc([nH]4)c(-c4ccccc4)c4nc(c(-c5ccccc5)c5ccc2[nH]5)C=C4)C=C3)cc1
REMARK SMILES IDX 6 1 5 2 4 3 3 4 1 5 2 6 41 8 42 9 88 10 43 11 87 12 44 13
REMARK SMILES IDX 45 14 46 15 81 16 47 17 86 18 80 19 82 20 48 21 85 22 79 23
REMARK SMILES IDX 78 24 49 26 71 27 56 28 70 29 57 30 60 31 69 32 83 33 58 34
REMARK SMILES IDX 59 35 68 37 84 38 61 39 50 40 51 41 55 42 52 43 54 44 53 45
REMARK SMILES IDX 72 46 73 47 77 48 74 49 76 50 75 51 62 52 63 53 67 54 64 55
REMARK SMILES IDX 66 56 65 57 7 58 8 59 9 61 10 62 28 63 29 64 40 65 30 67
REMARK SMILES IDX 39 68 31 69 32 71 33 72 38 73 34 74 35 75 36 76 37 77 11 78
REMARK SMILES IDX 12 79 27 80 13 81 14 82 26 83 15 85 25 86 16 87 17 88 18 89
REMARK SMILES IDX 19 90 20 91 24 92 21 93 23 94 22 95
REMARK H PARENT 3 7 82 25 60 36 7 60 28 66 31 70 13 84
REMARK Flexibility Score: inf
ROOT
ATOM      1  C   UNL     1      -1.947  -8.525  -8.460  1.00  0.00     0.118 C 
ENDROOT
BRANCH   1   2
ATOM      2  C   UNL     1      -2.208  -9.793  -9.259  1.00  0.00     0.042 C 
BRANCH   2   3
ATOM      3  C   UNL     1      -3.615 -10.333  -9.065  1.00  0.00     0.118 C 
BRANCH   3   4
ATOM      4  N   UNL     1      -4.621  -9.490  -9.698  1.00  0.00    -0.352 N 
ATOM      5  O   UNL     1      -6.014  -8.784 -11.319  1.00  0.00    -0.269 OA
ATOM      6  C   UNL     1      -5.402  -9.716 -10.805  1.00  0.00     0.251 C 
ATOM      7  H   UNL     1      -4.763  -8.618  -9.264  1.00  0.00     0.163 HD
BRANCH   6   8
ATOM      8  C   UNL     1      -5.496 -11.071 -11.388  1.00  0.00     0.039 A 
ATOM      9  C   UNL     1      -5.534 -12.197 -10.567  1.00  0.00     0.014 A 
ATOM     10  C   UNL     1      -5.571 -11.220 -12.776  1.00  0.00     0.014 A 
ATOM     11  C   UNL     1      -5.447 -13.463 -11.126  1.00  0.00     0.010 A 
ATOM     12  C   UNL     1      -5.616 -12.500 -13.337  1.00  0.00     0.010 A 
ATOM     13  C   UNL     1      -5.512 -13.634 -12.517  1.00  0.00    -0.014 A 
BRANCH  13  14
ATOM     14  C   UNL     1      -5.520 -15.012 -13.070  1.00  0.00     0.031 A 
ATOM     15  C   UNL     1      -4.431 -15.491 -13.989  1.00  0.00     0.074 A 
ATOM     16  C   UNL     1      -6.504 -15.851 -12.690  1.00  0.00     0.049 A 
ATOM     17  N   UNL     1      -4.260 -16.680 -14.511  1.00  0.00    -0.248 NA
ATOM     18  C   UNL     1      -3.405 -14.512 -14.382  1.00  0.00     0.031 C 
ATOM     19  C   UNL     1      -7.617 -15.500 -11.801  1.00  0.00     0.029 A 
ATOM     20  N   UNL     1      -6.712 -17.177 -12.969  1.00  0.00    -0.354 N 
ATOM     21  C   UNL     1      -3.130 -16.585 -15.313  1.00  0.00     0.074 A 
ATOM     22  C   UNL     1      -2.670 -15.216 -15.232  1.00  0.00     0.031 C 
ATOM     23  C   UNL     1      -8.345 -16.597 -11.552  1.00  0.00     0.029 A 
ATOM     24  C   UNL     1      -7.803 -17.707 -12.324  1.00  0.00     0.049 A 
ATOM     25  H   UNL     1      -6.136 -17.698 -13.574  1.00  0.00     0.167 HD
ATOM     26  C   UNL     1      -2.529 -17.553 -16.048  1.00  0.00     0.031 A 
ATOM     27  C   UNL     1      -8.323 -18.947 -12.358  1.00  0.00     0.031 A 
ATOM     28  C   UNL     1      -2.994 -18.914 -16.125  1.00  0.00     0.049 A 
ATOM     29  C   UNL     1      -7.657 -19.986 -13.211  1.00  0.00     0.074 A 
ATOM     30  C   UNL     1      -2.437 -19.978 -16.815  1.00  0.00     0.029 A 
ATOM     31  N   UNL     1      -4.133 -19.398 -15.499  1.00  0.00    -0.354 N 
ATOM     32  N   UNL     1      -6.567 -19.889 -13.933  1.00  0.00    -0.248 NA
ATOM     33  C   UNL     1      -8.293 -21.308 -13.248  1.00  0.00     0.031 C 
ATOM     34  C   UNL     1      -3.275 -21.087 -16.660  1.00  0.00     0.029 A 
ATOM     35  C   UNL     1      -4.311 -20.737 -15.810  1.00  0.00     0.049 A 
ATOM     36  H   UNL     1      -4.727 -18.869 -14.918  1.00  0.00     0.167 HD
ATOM     37  C   UNL     1      -6.368 -21.146 -14.485  1.00  0.00     0.074 A 
ATOM     38  C   UNL     1      -7.439 -21.991 -13.997  1.00  0.00     0.031 C 
ATOM     39  C   UNL     1      -5.384 -21.564 -15.319  1.00  0.00     0.031 A 
BRANCH  26  40
ATOM     40  C   UNL     1      -1.324 -17.163 -16.863  1.00  0.00    -0.014 A 
ATOM     41  C   UNL     1      -0.102 -16.824 -16.260  1.00  0.00     0.009 A 
ATOM     42  C   UNL     1      -1.405 -17.171 -18.265  1.00  0.00     0.009 A 
ATOM     43  C   UNL     1       0.999 -16.463 -17.042  1.00  0.00     0.001 A 
ATOM     44  C   UNL     1      -0.295 -16.842 -19.045  1.00  0.00     0.001 A 
ATOM     45  C   UNL     1       0.903 -16.477 -18.433  1.00  0.00     0.000 A 
ENDBRANCH  26  40
BRANCH  27  46
ATOM     46  C   UNL     1      -9.541 -19.267 -11.569  1.00  0.00    -0.014 A 
ATOM     47  C   UNL     1      -9.480 -20.162 -10.490  1.00  0.00     0.009 A 
ATOM     48  C   UNL     1     -10.775 -18.679 -11.893  1.00  0.00     0.009 A 
ATOM     49  C   UNL     1     -10.635 -20.485  -9.773  1.00  0.00     0.001 A 
ATOM     50  C   UNL     1     -11.919 -18.976 -11.152  1.00  0.00     0.001 A 
ATOM     51  C   UNL     1     -11.851 -19.888 -10.101  1.00  0.00     0.000 A 
ENDBRANCH  27  46
BRANCH  39  52
ATOM     52  C   UNL     1      -5.394 -23.017 -15.709  1.00  0.00    -0.014 A 
ATOM     53  C   UNL     1      -6.385 -23.549 -16.549  1.00  0.00     0.009 A 
ATOM     54  C   UNL     1      -4.381 -23.864 -15.232  1.00  0.00     0.009 A 
ATOM     55  C   UNL     1      -6.388 -24.910 -16.863  1.00  0.00     0.001 A 
ATOM     56  C   UNL     1      -4.365 -25.215 -15.578  1.00  0.00     0.001 A 
ATOM     57  C   UNL     1      -5.376 -25.740 -16.381  1.00  0.00     0.000 A 
ENDBRANCH  39  52
ENDBRANCH  13  14
ENDBRANCH   6   8
ENDBRANCH   3   4
ENDBRANCH   2   3
ENDBRANCH   1   2
BRANCH   1  58
ATOM     58  N   UNL     1      -1.697  -8.828  -7.069  1.00  0.00    -0.351 N 
ATOM     59  C   UNL     1      -0.571  -9.069  -6.353  1.00  0.00     0.283 C 
ATOM     60  H   UNL     1      -2.518  -8.867  -6.526  1.00  0.00     0.163 HD
ATOM     61  O   UNL     1      -0.813  -9.215  -5.141  1.00  0.00    -0.268 OA
BRANCH  59  62
ATOM     62  C   UNL     1       0.912  -9.075  -6.871  1.00  0.00     0.308 C 
BRANCH  62  63
ATOM     63  N   UNL     1       1.704 -10.301  -6.535  1.00  0.00    -0.312 N 
ATOM     64  C   UNL     1       3.155  -9.978  -6.462  1.00  0.00     0.325 C 
ATOM     65  C   UNL     1       1.359 -11.007  -5.292  1.00  0.00     0.325 C 
ATOM     66  H   UNL     1       1.464 -10.933  -7.298  1.00  0.00     0.349 HD
ATOM     67  C   UNL     1       3.577  -9.211  -5.182  1.00  0.00     0.324 C 
ATOM     68  C   UNL     1       1.759 -10.283  -3.984  1.00  0.00     0.324 C 
ATOM     69  N   UNL     1       3.187  -9.911  -3.944  1.00  0.00    -0.322 N 
ATOM     70  H   UNL     1       3.699 -10.791  -3.888  1.00  0.00     0.348 HD
BRANCH  69  71
ATOM     71  C   UNL     1       3.608  -9.185  -2.735  1.00  0.00     0.200 C 
ATOM     72  C   UNL     1       2.865  -7.873  -2.408  1.00  0.00     0.082 C 
ATOM     73  C   UNL     1       3.506 -10.029  -1.458  1.00  0.00     0.201 C 
ATOM     74  C   UNL     1       3.412  -7.390  -1.067  1.00  0.00     0.143 C 
ATOM     75  S   UNL     1       3.820  -8.864  -0.146  1.00  0.00     0.156 S 
ATOM     76  O   UNL     1       5.240  -8.849   0.130  1.00  0.00    -0.229 OA
ATOM     77  O   UNL     1       2.832  -9.056   0.897  1.00  0.00    -0.229 OA
ENDBRANCH  69  71
ENDBRANCH  62  63
BRANCH  62  78
ATOM     78  C   UNL     1       1.119  -8.845  -8.354  1.00  0.00     0.044 A 
ATOM     79  C   UNL     1       0.977  -9.759  -9.388  1.00  0.00     0.094 A 
ATOM     80  C   UNL     1       1.633  -7.649  -8.961  1.00  0.00     0.009 A 
ATOM     81  N   UNL     1       1.181  -9.114 -10.576  1.00  0.00    -0.361 N 
ATOM     82  C   UNL     1       1.591  -7.825 -10.343  1.00  0.00     0.050 A 
ATOM     83  C   UNL     1       2.125  -6.431  -8.459  1.00  0.00     0.015 A 
ATOM     84  H   UNL     1       1.052  -9.515 -11.466  1.00  0.00     0.166 HD
ATOM     85  C   UNL     1       1.926  -6.809 -11.244  1.00  0.00     0.073 A 
ATOM     86  C   UNL     1       2.529  -5.429  -9.349  1.00  0.00     0.047 A 
ATOM     87  C   UNL     1       2.385  -5.594 -10.726  1.00  0.00     0.121 A 
BRANCH  87  88
ATOM     88  O   UNL     1       2.595  -4.626 -11.674  1.00  0.00    -0.489 OA
BRANCH  88  89
ATOM     89  C   UNL     1       3.121  -3.359 -11.266  1.00  0.00     0.265 C 
BRANCH  89  90
ATOM     90  C   UNL     1       2.179  -2.460 -10.485  1.00  0.00    -0.011 A 
ATOM     91  C   UNL     1       0.817  -2.751 -10.320  1.00  0.00     0.007 A 
ATOM     92  C   UNL     1       2.698  -1.308  -9.874  1.00  0.00     0.007 A 
ATOM     93  C   UNL     1       0.012  -1.954  -9.504  1.00  0.00     0.000 A 
ATOM     94  C   UNL     1       1.887  -0.499  -9.076  1.00  0.00     0.000 A 
ATOM     95  C   UNL     1       0.549  -0.831  -8.879  1.00  0.00     0.000 A 
ENDBRANCH  89  90
ENDBRANCH  88  89
ENDBRANCH  87  88
ENDBRANCH  62  78
ENDBRANCH  59  62
ENDBRANCH   1  58
TORSDOF 16
