REMARK SMILES Cc1ccc(F)cc1NC(=O)c1nn(C)cc1C(=O)NCCCNC(=O)c1ccc(-c2c3nc(c(-c4ccccc4)c4ccc([nH]4)c(-c4ccccc4)c4nc(c(-c5ccccc5)c5ccc2[nH]5)C=C4)C=C3)cc1
REMARK SMILES IDX 22 1 21 2 20 3 18 4 19 5 17 7 12 8 13 9 14 10 16 11 15 12
REMARK SMILES IDX 10 13 9 14 11 16 8 17 1 18 2 19 3 20 4 21 7 22 5 23 6 24
REMARK SMILES IDX 23 25 24 26 25 27 26 29 27 30 28 31 74 32 29 33 73 34 30 35
REMARK SMILES IDX 31 36 32 37 67 38 33 39 72 40 66 41 68 42 34 43 71 44 65 45
REMARK SMILES IDX 64 46 35 48 57 49 42 50 56 51 43 52 46 53 55 54 69 55 44 56
REMARK SMILES IDX 45 57 54 59 70 60 47 61 36 62 37 63 41 64 38 65 40 66 39 67
REMARK SMILES IDX 58 68 59 69 63 70 60 71 62 72 61 73 48 74 49 75 53 76 50 77
REMARK SMILES IDX 52 78 51 79
REMARK H PARENT 20 6 9 15 24 28 68 47 46 58
REMARK Flexibility Score: inf
ROOT
ATOM      1  C   UNL     1      -4.034  -0.269  -2.265  1.00  0.00     0.042 C 
ENDROOT
BRANCH   1   2
ATOM      2  C   UNL     1      -3.581  -1.591  -2.881  1.00  0.00     0.118 C 
BRANCH   2   3
ATOM      3  N   UNL     1      -2.141  -1.765  -2.904  1.00  0.00    -0.352 N 
ATOM      4  C   UNL     1      -1.254  -2.497  -2.156  1.00  0.00     0.255 C 
ATOM      5  O   UNL     1      -0.074  -2.430  -2.509  1.00  0.00    -0.269 OA
ATOM      6  H   UNL     1      -1.703  -1.243  -3.615  1.00  0.00     0.163 HD
BRANCH   4   7
ATOM      7  C   UNL     1      -1.640  -3.280  -0.990  1.00  0.00     0.090 A 
ATOM      8  C   UNL     1      -0.736  -3.756   0.031  1.00  0.00     0.163 A 
ATOM      9  N   UNL     1      -1.389  -4.446   0.987  1.00  0.00    -0.167 NA
ATOM     10  N   UNL     1      -2.662  -4.440   0.590  1.00  0.00    -0.274 N 
ATOM     11  C   UNL     1      -2.864  -3.784  -0.588  1.00  0.00     0.123 A 
ATOM     12  C   UNL     1      -3.661  -5.082   1.410  1.00  0.00     0.173 C 
BRANCH   8  13
ATOM     13  C   UNL     1       0.718  -3.582   0.134  1.00  0.00     0.277 C 
ATOM     14  N   UNL     1       1.292  -2.331   0.248  1.00  0.00    -0.320 N 
ATOM     15  H   UNL     1       2.276  -2.353   0.233  1.00  0.00     0.170 HD
ATOM     16  O   UNL     1       1.483  -4.551   0.112  1.00  0.00    -0.267 OA
BRANCH  14  17
ATOM     17  C   UNL     1       0.768  -1.031   0.382  1.00  0.00     0.047 A 
ATOM     18  C   UNL     1       3.065  -0.002  -0.231  1.00  0.00     0.046 C 
ATOM     19  C   UNL     1       1.594   0.081   0.094  1.00  0.00    -0.027 A 
ATOM     20  C   UNL     1       1.039   1.378   0.114  1.00  0.00     0.008 A 
ATOM     21  C   UNL     1      -0.299   1.582   0.434  1.00  0.00     0.039 A 
ATOM     22  C   UNL     1      -0.549  -0.794   0.790  1.00  0.00     0.065 A 
ATOM     23  C   UNL     1      -1.075   0.493   0.787  1.00  0.00     0.125 A 
ATOM     24  F   UNL     1      -2.358   0.679   1.126  1.00  0.00    -0.207 F 
ENDBRANCH  14  17
ENDBRANCH   8  13
ENDBRANCH   4   7
ENDBRANCH   2   3
ENDBRANCH   1   2
BRANCH   1  25
ATOM     25  C   UNL     1      -3.705   0.973  -3.097  1.00  0.00     0.118 C 
BRANCH  25  26
ATOM     26  N   UNL     1      -4.266   0.916  -4.441  1.00  0.00    -0.352 N 
ATOM     27  C   UNL     1      -5.233   1.656  -5.070  1.00  0.00     0.251 C 
ATOM     28  H   UNL     1      -3.876   0.210  -5.005  1.00  0.00     0.163 HD
ATOM     29  O   UNL     1      -5.675   1.249  -6.144  1.00  0.00    -0.269 OA
BRANCH  27  30
ATOM     30  C   UNL     1      -5.760   2.923  -4.510  1.00  0.00     0.039 A 
ATOM     31  C   UNL     1      -7.102   3.244  -4.751  1.00  0.00     0.014 A 
ATOM     32  C   UNL     1      -4.945   3.844  -3.847  1.00  0.00     0.014 A 
ATOM     33  C   UNL     1      -7.632   4.453  -4.294  1.00  0.00     0.010 A 
ATOM     34  C   UNL     1      -5.491   5.023  -3.332  1.00  0.00     0.010 A 
ATOM     35  C   UNL     1      -6.838   5.344  -3.555  1.00  0.00    -0.014 A 
BRANCH  35  36
ATOM     36  C   UNL     1      -7.417   6.598  -3.006  1.00  0.00     0.031 A 
ATOM     37  C   UNL     1      -6.949   7.946  -3.487  1.00  0.00     0.074 A 
ATOM     38  C   UNL     1      -8.347   6.524  -2.033  1.00  0.00     0.049 A 
ATOM     39  N   UNL     1      -7.344   9.138  -3.113  1.00  0.00    -0.248 NA
ATOM     40  C   UNL     1      -5.885   7.960  -4.503  1.00  0.00     0.031 C 
ATOM     41  C   UNL     1      -8.851   5.285  -1.436  1.00  0.00     0.029 A 
ATOM     42  N   UNL     1      -9.032   7.513  -1.371  1.00  0.00    -0.354 N 
ATOM     43  C   UNL     1      -6.565  10.039  -3.829  1.00  0.00     0.074 A 
ATOM     44  C   UNL     1      -5.651   9.258  -4.634  1.00  0.00     0.031 C 
ATOM     45  C   UNL     1      -9.782   5.586  -0.517  1.00  0.00     0.029 A 
ATOM     46  C   UNL     1      -9.920   7.036  -0.437  1.00  0.00     0.049 A 
ATOM     47  H   UNL     1      -8.900   8.472  -1.550  1.00  0.00     0.167 HD
ATOM     48  C   UNL     1      -6.616  11.393  -3.829  1.00  0.00     0.031 A 
ATOM     49  C   UNL     1     -10.754   7.691   0.393  1.00  0.00     0.031 A 
ATOM     50  C   UNL     1      -7.541  12.174  -3.050  1.00  0.00     0.049 A 
ATOM     51  C   UNL     1     -10.811   9.191   0.349  1.00  0.00     0.074 A 
ATOM     52  C   UNL     1      -7.719  13.547  -3.045  1.00  0.00     0.029 A 
ATOM     53  N   UNL     1      -8.441  11.652  -2.135  1.00  0.00    -0.354 N 
ATOM     54  N   UNL     1     -10.128  10.022  -0.399  1.00  0.00    -0.248 NA
ATOM     55  C   UNL     1     -11.768   9.842   1.255  1.00  0.00     0.031 C 
ATOM     56  C   UNL     1      -8.697  13.860  -2.095  1.00  0.00     0.029 A 
ATOM     57  C   UNL     1      -9.160  12.677  -1.543  1.00  0.00     0.049 A 
ATOM     58  H   UNL     1      -8.553  10.694  -1.936  1.00  0.00     0.167 HD
ATOM     59  C   UNL     1     -10.585  11.290  -0.068  1.00  0.00     0.074 A 
ATOM     60  C   UNL     1     -11.620  11.118   0.930  1.00  0.00     0.031 C 
ATOM     61  C   UNL     1     -10.180  12.492  -0.545  1.00  0.00     0.031 A 
BRANCH  48  62
ATOM     62  C   UNL     1      -5.637  12.129  -4.701  1.00  0.00    -0.014 A 
ATOM     63  C   UNL     1      -5.778  12.147  -6.098  1.00  0.00     0.009 A 
ATOM     64  C   UNL     1      -4.596  12.865  -4.114  1.00  0.00     0.009 A 
ATOM     65  C   UNL     1      -4.880  12.865  -6.890  1.00  0.00     0.001 A 
ATOM     66  C   UNL     1      -3.715  13.602  -4.907  1.00  0.00     0.001 A 
ATOM     67  C   UNL     1      -3.853  13.596  -6.294  1.00  0.00     0.000 A 
ENDBRANCH  48  62
BRANCH  49  68
ATOM     68  C   UNL     1     -11.619   6.929   1.330  1.00  0.00    -0.014 A 
ATOM     69  C   UNL     1     -13.004   6.851   1.120  1.00  0.00     0.009 A 
ATOM     70  C   UNL     1     -11.063   6.288   2.448  1.00  0.00     0.009 A 
ATOM     71  C   UNL     1     -13.819   6.170   2.027  1.00  0.00     0.001 A 
ATOM     72  C   UNL     1     -11.878   5.585   3.338  1.00  0.00     0.001 A 
ATOM     73  C   UNL     1     -13.256   5.535   3.132  1.00  0.00     0.000 A 
ENDBRANCH  49  68
BRANCH  61  74
ATOM     74  C   UNL     1     -10.874  13.709  -0.004  1.00  0.00    -0.014 A 
ATOM     75  C   UNL     1     -10.631  14.161   1.302  1.00  0.00     0.009 A 
ATOM     76  C   UNL     1     -11.767  14.423  -0.818  1.00  0.00     0.009 A 
ATOM     77  C   UNL     1     -11.299  15.283   1.796  1.00  0.00     0.001 A 
ATOM     78  C   UNL     1     -12.412  15.560  -0.331  1.00  0.00     0.001 A 
ATOM     79  C   UNL     1     -12.186  15.983   0.979  1.00  0.00     0.000 A 
ENDBRANCH  61  74
ENDBRANCH  35  36
ENDBRANCH  27  30
ENDBRANCH  25  26
ENDBRANCH   1  25
TORSDOF 12
