REMARK SMILES COc1ccc2c(c1)c(CC(=O)NCCCNC(=O)c1ccc(-c3c4nc(c(-c5ccccc5)c5ccc([nH]5)c(-c5ccccc5)c5nc(c(-c6ccccc6)c6ccc3[nH]6)C=C5)C=C4)cc1)c(C)n2C(=O)c1ccc(Cl)cc1
REMARK SMILES IDX 14 1 13 2 11 3 12 4 10 6 9 7 3 8 4 9 8 10 5 11 7 12 6 13
REMARK SMILES IDX 70 14 68 15 69 16 2 17 1 18 71 19 72 20 73 21 74 22 79 23
REMARK SMILES IDX 75 24 78 25 76 26 77 27 15 28 16 29 17 30 18 31 19 33 20 34
REMARK SMILES IDX 21 35 67 36 22 37 66 38 23 39 24 40 25 41 60 42 26 43 65 44
REMARK SMILES IDX 59 45 61 46 27 47 64 48 58 49 57 50 28 52 50 53 35 54 49 55
REMARK SMILES IDX 36 56 39 57 48 58 62 59 37 60 38 61 47 63 63 64 40 65 29 66
REMARK SMILES IDX 30 67 34 68 31 69 33 70 32 71 51 72 52 73 56 74 53 75 55 76
REMARK SMILES IDX 54 77 41 78 42 79 46 80 43 81 45 82 44 83
REMARK H PARENT 13 5 17 32 61 51 39 62
REMARK Flexibility Score: inf
ROOT
ATOM      1  C   UNL     1      -0.441   7.372   3.081  1.00  0.00     0.117 C 
ENDROOT
BRANCH   1   2
ATOM      2  N   UNL     1      -1.387   6.564   2.333  1.00  0.00    -0.356 N 
ATOM      3  C   UNL     1      -1.983   5.386   2.684  1.00  0.00     0.224 C 
ATOM      4  O   UNL     1      -2.810   4.902   1.907  1.00  0.00    -0.275 OA
ATOM      5  H   UNL     1      -1.635   6.916   1.448  1.00  0.00     0.163 HD
BRANCH   3   6
ATOM      6  C   UNL     1      -1.670   4.725   4.017  1.00  0.00     0.138 C 
BRANCH   6   7
ATOM      7  C   UNL     1      -0.252   4.239   4.124  1.00  0.00    -0.009 A 
ATOM      8  C   UNL     1       0.800   1.764   1.406  1.00  0.00     0.119 A 
ATOM      9  C   UNL     1       2.057   1.502   1.927  1.00  0.00     0.048 A 
ATOM     10  C   UNL     1      -0.036   2.673   2.058  1.00  0.00     0.057 A 
ATOM     11  C   UNL     1       2.496   2.138   3.094  1.00  0.00     0.031 A 
ATOM     12  C   UNL     1       0.390   3.337   3.232  1.00  0.00     0.008 A 
ATOM     13  C   UNL     1       1.677   3.098   3.723  1.00  0.00     0.057 A 
ATOM     14  N   UNL     1       1.891   3.965   4.812  1.00  0.00    -0.280 N 
ATOM     15  C   UNL     1       0.647   4.518   5.148  1.00  0.00     0.028 A 
ATOM     16  C   UNL     1       0.364   5.300   6.394  1.00  0.00     0.065 C 
BRANCH   8  17
ATOM     17  O   UNL     1       0.287   1.212   0.265  1.00  0.00    -0.497 OA
ATOM     18  C   UNL     1       0.828  -0.049  -0.114  1.00  0.00     0.278 C 
ENDBRANCH   8  17
BRANCH  14  19
ATOM     19  C   UNL     1       3.140   4.242   5.439  1.00  0.00     0.262 C 
ATOM     20  O   UNL     1       3.180   5.055   6.366  1.00  0.00    -0.268 OA
BRANCH  19  21
ATOM     21  C   UNL     1       4.431   3.647   5.064  1.00  0.00     0.040 A 
ATOM     22  C   UNL     1       5.028   3.949   3.834  1.00  0.00     0.015 A 
ATOM     23  C   UNL     1       5.027   2.738   5.946  1.00  0.00     0.015 A 
ATOM     24  C   UNL     1       6.181   3.261   3.448  1.00  0.00     0.021 A 
ATOM     25  C   UNL     1       6.184   2.063   5.558  1.00  0.00     0.021 A 
ATOM     26  C   UNL     1       6.743   2.311   4.303  1.00  0.00     0.041 A 
ATOM     27  Cl  UNL     1       8.121   1.416   3.795  1.00  0.00    -0.084 Cl
ENDBRANCH  19  21
ENDBRANCH  14  19
ENDBRANCH   6   7
ENDBRANCH   3   6
ENDBRANCH   1   2
BRANCH   1  28
ATOM     28  C   UNL     1       0.975   7.329   2.500  1.00  0.00     0.042 C 
BRANCH  28  29
ATOM     29  C   UNL     1       1.109   8.013   1.140  1.00  0.00     0.118 C 
BRANCH  29  30
ATOM     30  N   UNL     1       0.653   9.390   1.123  1.00  0.00    -0.352 N 
ATOM     31  C   UNL     1       1.203  10.616   1.364  1.00  0.00     0.251 C 
ATOM     32  H   UNL     1      -0.297   9.459   0.874  1.00  0.00     0.163 HD
ATOM     33  O   UNL     1       0.474  11.581   1.115  1.00  0.00    -0.269 OA
BRANCH  31  34
ATOM     34  C   UNL     1       2.550  10.882   1.942  1.00  0.00     0.039 A 
ATOM     35  C   UNL     1       3.521   9.930   2.246  1.00  0.00     0.014 A 
ATOM     36  C   UNL     1       2.823  12.234   2.243  1.00  0.00     0.014 A 
ATOM     37  C   UNL     1       4.692  10.312   2.906  1.00  0.00     0.010 A 
ATOM     38  C   UNL     1       3.989  12.620   2.896  1.00  0.00     0.010 A 
ATOM     39  C   UNL     1       4.911  11.650   3.265  1.00  0.00    -0.014 A 
BRANCH  39  40
ATOM     40  C   UNL     1       6.192  12.013   3.877  1.00  0.00     0.031 A 
ATOM     41  C   UNL     1       7.367  11.730   3.010  1.00  0.00     0.074 A 
ATOM     42  C   UNL     1       6.343  12.647   5.061  1.00  0.00     0.049 A 
ATOM     43  N   UNL     1       8.310  10.873   3.220  1.00  0.00    -0.248 NA
ATOM     44  C   UNL     1       7.433  12.383   1.692  1.00  0.00     0.031 C 
ATOM     45  C   UNL     1       5.299  13.253   5.892  1.00  0.00     0.029 A 
ATOM     46  N   UNL     1       7.491  12.969   5.734  1.00  0.00    -0.354 N 
ATOM     47  C   UNL     1       9.191  10.998   2.148  1.00  0.00     0.074 A 
ATOM     48  C   UNL     1       8.532  11.830   1.175  1.00  0.00     0.031 C 
ATOM     49  C   UNL     1       5.871  14.056   6.821  1.00  0.00     0.029 A 
ATOM     50  C   UNL     1       7.314  13.901   6.754  1.00  0.00     0.049 A 
ATOM     51  H   UNL     1       8.367  12.575   5.516  1.00  0.00     0.167 HD
ATOM     52  C   UNL     1      10.486  10.593   2.250  1.00  0.00     0.031 A 
ATOM     53  C   UNL     1       8.286  14.523   7.468  1.00  0.00     0.031 A 
ATOM     54  C   UNL     1      10.678   9.744   3.396  1.00  0.00     0.049 A 
ATOM     55  C   UNL     1       9.510  13.706   7.372  1.00  0.00     0.074 A 
ATOM     56  C   UNL     1      10.287   8.477   3.767  1.00  0.00     0.029 A 
ATOM     57  N   UNL     1      11.075  10.398   4.532  1.00  0.00    -0.354 N 
ATOM     58  N   UNL     1       9.647  12.538   7.927  1.00  0.00    -0.248 NA
ATOM     59  C   UNL     1      10.513  14.051   6.376  1.00  0.00     0.031 C 
ATOM     60  C   UNL     1      10.157   8.522   5.185  1.00  0.00     0.029 A 
ATOM     61  C   UNL     1      10.539   9.789   5.633  1.00  0.00     0.049 A 
ATOM     62  H   UNL     1      11.660  11.190   4.554  1.00  0.00     0.167 HD
ATOM     63  C   UNL     1      10.446  11.835   7.045  1.00  0.00     0.074 A 
ATOM     64  C   UNL     1      11.084  12.855   6.220  1.00  0.00     0.031 C 
ATOM     65  C   UNL     1      10.274  10.493   6.872  1.00  0.00     0.031 A 
BRANCH  52  66
ATOM     66  C   UNL     1      11.651  11.325   1.617  1.00  0.00    -0.014 A 
ATOM     67  C   UNL     1      11.544  12.596   1.024  1.00  0.00     0.009 A 
ATOM     68  C   UNL     1      12.958  10.864   1.878  1.00  0.00     0.009 A 
ATOM     69  C   UNL     1      12.667  13.379   0.734  1.00  0.00     0.001 A 
ATOM     70  C   UNL     1      14.083  11.660   1.623  1.00  0.00     0.001 A 
ATOM     71  C   UNL     1      13.936  12.921   1.056  1.00  0.00     0.000 A 
ENDBRANCH  52  66
BRANCH  53  72
ATOM     72  C   UNL     1       8.352  15.905   7.998  1.00  0.00    -0.014 A 
ATOM     73  C   UNL     1       7.700  16.945   7.316  1.00  0.00     0.009 A 
ATOM     74  C   UNL     1       9.329  16.256   8.948  1.00  0.00     0.009 A 
ATOM     75  C   UNL     1       8.065  18.282   7.518  1.00  0.00     0.001 A 
ATOM     76  C   UNL     1       9.695  17.595   9.149  1.00  0.00     0.001 A 
ATOM     77  C   UNL     1       9.078  18.605   8.416  1.00  0.00     0.000 A 
ENDBRANCH  53  72
BRANCH  65  78
ATOM     78  C   UNL     1       9.564   9.718   7.955  1.00  0.00    -0.014 A 
ATOM     79  C   UNL     1      10.214   8.581   8.462  1.00  0.00     0.009 A 
ATOM     80  C   UNL     1       8.256   9.985   8.392  1.00  0.00     0.009 A 
ATOM     81  C   UNL     1       9.576   7.724   9.358  1.00  0.00     0.001 A 
ATOM     82  C   UNL     1       7.628   9.144   9.318  1.00  0.00     0.001 A 
ATOM     83  C   UNL     1       8.284   8.008   9.790  1.00  0.00     0.000 A 
ENDBRANCH  65  78
ENDBRANCH  39  40
ENDBRANCH  31  34
ENDBRANCH  29  30
ENDBRANCH  28  29
ENDBRANCH   1  28
TORSDOF 14
