REMARK SMILES C[C@@H](NC(=O)[C@H]1CC=CC[C@@H]1C(=O)NCCCNC(=O)c1ccc(-c2c3nc(c(-c4ccccc4)c4ccc([nH]4)c(-c4ccccc4)c4nc(c(-c5ccccc5)c5ccc2[nH]5)C=C4)C=C3)cc1)c1ccc(-n2ccnc2)cc1
REMARK SMILES IDX 15 1 14 2 12 3 13 4 11 6 6 7 7 8 8 9 10 10 9 11 4 12 3 13
REMARK SMILES IDX 5 15 2 16 1 17 69 18 70 19 79 20 71 21 78 22 72 23 73 24
REMARK SMILES IDX 74 25 77 26 75 27 76 28 16 29 17 30 18 31 19 32 20 34 21 35
REMARK SMILES IDX 22 36 68 37 23 38 67 39 24 40 25 41 26 42 61 43 27 44 66 45
REMARK SMILES IDX 60 46 62 47 28 48 65 49 59 50 58 51 29 53 51 54 36 55 50 56
REMARK SMILES IDX 37 57 40 58 49 59 63 60 38 61 39 62 48 64 64 65 41 66 30 67
REMARK SMILES IDX 31 68 35 69 32 70 34 71 33 72 52 73 53 74 57 75 54 76 56 77
REMARK SMILES IDX 55 78 42 79 43 80 47 81 44 82 46 83 45 84
REMARK H PARENT 14 5 3 14 18 33 62 52 40 63
REMARK Flexibility Score: inf
ROOT
ATOM      1  C   UNL     1      -3.732  -5.708  -0.041  1.00  0.00     0.117 C 
ENDROOT
BRANCH   1   2
ATOM      2  N   UNL     1      -4.126  -4.629  -0.912  1.00  0.00    -0.356 N 
ATOM      3  C   UNL     1      -3.456  -3.580  -1.422  1.00  0.00     0.224 C 
ATOM      4  O   UNL     1      -3.992  -3.040  -2.398  1.00  0.00    -0.275 OA
ATOM      5  H   UNL     1      -5.071  -4.668  -1.187  1.00  0.00     0.163 HD
BRANCH   3   6
ATOM      6  C   UNL     1      -2.130  -3.017  -0.892  1.00  0.00     0.095 C 
ATOM      7  C   UNL     1      -1.285  -3.570   0.775  1.00  0.00     0.095 C 
ATOM      8  C   UNL     1      -1.561  -2.513   2.309  1.00  0.00     0.041 C 
ATOM      9  C   UNL     1      -1.871  -0.723   2.227  1.00  0.00    -0.030 C 
ATOM     10  C   UNL     1      -2.311  -1.016  -1.016  1.00  0.00     0.041 C 
ATOM     11  C   UNL     1      -2.160  -0.015   0.920  1.00  0.00    -0.030 C 
BRANCH   7  12
ATOM     12  C   UNL     1       0.467  -3.490   0.671  1.00  0.00     0.224 C 
ATOM     13  N   UNL     1       1.247  -2.310   0.379  1.00  0.00    -0.349 N 
ATOM     14  H   UNL     1       2.173  -2.436   0.689  1.00  0.00     0.164 HD
ATOM     15  O   UNL     1       1.100  -4.518   0.945  1.00  0.00    -0.275 OA
BRANCH  13  16
ATOM     16  C   UNL     1       1.079  -0.784  -0.323  1.00  0.00     0.109 C 
ATOM     17  C   UNL     1       2.045   0.156   0.378  1.00  0.00     0.036 C 
BRANCH  16  18
ATOM     18  C   UNL     1      -0.349  -0.236  -0.277  1.00  0.00    -0.026 A 
ATOM     19  C   UNL     1      -1.357   1.033  -0.887  1.00  0.00     0.008 A 
ATOM     20  C   UNL     1      -1.163  -1.544   0.335  1.00  0.00     0.008 A 
ATOM     21  C   UNL     1      -3.151   0.998  -0.779  1.00  0.00     0.027 A 
ATOM     22  C   UNL     1      -3.094  -1.706   0.583  1.00  0.00     0.027 A 
ATOM     23  C   UNL     1      -4.046  -0.326   0.003  1.00  0.00     0.046 A 
BRANCH  23  24
ATOM     24  N   UNL     1      -5.437  -0.465  -0.047  1.00  0.00    -0.306 N 
ATOM     25  C   UNL     1      -6.188  -1.301   0.742  1.00  0.00     0.113 A 
ATOM     26  C   UNL     1      -6.297   0.098  -0.950  1.00  0.00     0.204 A 
ATOM     27  C   UNL     1      -7.465  -1.232   0.242  1.00  0.00     0.131 A 
ATOM     28  N   UNL     1      -7.527  -0.353  -0.805  1.00  0.00    -0.245 NA
ENDBRANCH  23  24
ENDBRANCH  16  18
ENDBRANCH  13  16
ENDBRANCH   7  12
ENDBRANCH   3   6
ENDBRANCH   1   2
BRANCH   1  29
ATOM     29  C   UNL     1      -4.168  -5.517   1.409  1.00  0.00     0.042 C 
BRANCH  29  30
ATOM     30  C   UNL     1      -5.659  -5.248   1.600  1.00  0.00     0.118 C 
BRANCH  30  31
ATOM     31  N   UNL     1      -6.484  -6.281   1.003  1.00  0.00    -0.352 N 
ATOM     32  C   UNL     1      -7.175  -7.313   1.579  1.00  0.00     0.251 C 
ATOM     33  H   UNL     1      -6.561  -6.232   0.023  1.00  0.00     0.163 HD
ATOM     34  O   UNL     1      -7.519  -8.264   0.883  1.00  0.00    -0.269 OA
BRANCH  32  35
ATOM     35  C   UNL     1      -7.521  -7.295   3.017  1.00  0.00     0.039 A 
ATOM     36  C   UNL     1      -7.547  -8.509   3.708  1.00  0.00     0.014 A 
ATOM     37  C   UNL     1      -7.916  -6.119   3.663  1.00  0.00     0.014 A 
ATOM     38  C   UNL     1      -7.940  -8.538   5.046  1.00  0.00     0.010 A 
ATOM     39  C   UNL     1      -8.228  -6.136   5.022  1.00  0.00     0.010 A 
ATOM     40  C   UNL     1      -8.263  -7.349   5.722  1.00  0.00    -0.014 A 
BRANCH  40  41
ATOM     41  C   UNL     1      -8.636  -7.387   7.158  1.00  0.00     0.031 A 
ATOM     42  C   UNL     1     -10.018  -6.999   7.608  1.00  0.00     0.074 A 
ATOM     43  C   UNL     1      -7.715  -7.777   8.060  1.00  0.00     0.049 A 
ATOM     44  N   UNL     1     -10.532  -7.036   8.812  1.00  0.00    -0.248 NA
ATOM     45  C   UNL     1     -10.938  -6.486   6.581  1.00  0.00     0.031 C 
ATOM     46  C   UNL     1      -6.326  -8.128   7.751  1.00  0.00     0.029 A 
ATOM     47  N   UNL     1      -7.810  -7.959   9.416  1.00  0.00    -0.354 N 
ATOM     48  C   UNL     1     -11.830  -6.556   8.686  1.00  0.00     0.074 A 
ATOM     49  C   UNL     1     -12.005  -6.174   7.302  1.00  0.00     0.031 C 
ATOM     50  C   UNL     1      -5.715  -8.529   8.876  1.00  0.00     0.029 A 
ATOM     51  C   UNL     1      -6.652  -8.427   9.988  1.00  0.00     0.049 A 
ATOM     52  H   UNL     1      -8.629  -7.773   9.929  1.00  0.00     0.167 HD
ATOM     53  C   UNL     1     -12.797  -6.463   9.630  1.00  0.00     0.031 A 
ATOM     54  C   UNL     1      -6.377  -8.744  11.267  1.00  0.00     0.031 A 
ATOM     55  C   UNL     1     -12.616  -6.835  11.010  1.00  0.00     0.049 A 
ATOM     56  C   UNL     1      -7.464  -8.622  12.296  1.00  0.00     0.074 A 
ATOM     57  C   UNL     1     -13.542  -6.814  12.039  1.00  0.00     0.029 A 
ATOM     58  N   UNL     1     -11.425  -7.291  11.554  1.00  0.00    -0.354 N 
ATOM     59  N   UNL     1      -8.707  -8.235  12.145  1.00  0.00    -0.248 NA
ATOM     60  C   UNL     1      -7.112  -9.000  13.671  1.00  0.00     0.031 C 
ATOM     61  C   UNL     1     -12.895  -7.203  13.217  1.00  0.00     0.029 A 
ATOM     62  C   UNL     1     -11.584  -7.530  12.909  1.00  0.00     0.049 A 
ATOM     63  H   UNL     1     -10.589  -7.425  11.051  1.00  0.00     0.167 HD
ATOM     64  C   UNL     1      -9.291  -8.339  13.400  1.00  0.00     0.074 A 
ATOM     65  C   UNL     1      -8.274  -8.860  14.291  1.00  0.00     0.031 C 
ATOM     66  C   UNL     1     -10.554  -8.027  13.785  1.00  0.00     0.031 A 
BRANCH  53  67
ATOM     67  C   UNL     1     -14.140  -5.934   9.201  1.00  0.00    -0.014 A 
ATOM     68  C   UNL     1     -14.975  -6.677   8.350  1.00  0.00     0.009 A 
ATOM     69  C   UNL     1     -14.595  -4.697   9.683  1.00  0.00     0.009 A 
ATOM     70  C   UNL     1     -16.221  -6.176   7.963  1.00  0.00     0.001 A 
ATOM     71  C   UNL     1     -15.854  -4.213   9.320  1.00  0.00     0.001 A 
ATOM     72  C   UNL     1     -16.662  -4.948   8.453  1.00  0.00     0.000 A 
ENDBRANCH  53  67
BRANCH  54  73
ATOM     73  C   UNL     1      -5.017  -9.217  11.640  1.00  0.00    -0.014 A 
ATOM     74  C   UNL     1      -4.804 -10.540  12.055  1.00  0.00     0.009 A 
ATOM     75  C   UNL     1      -3.922  -8.340  11.587  1.00  0.00     0.009 A 
ATOM     76  C   UNL     1      -3.530 -10.966  12.439  1.00  0.00     0.001 A 
ATOM     77  C   UNL     1      -2.644  -8.777  11.938  1.00  0.00     0.001 A 
ATOM     78  C   UNL     1      -2.451 -10.086  12.375  1.00  0.00     0.000 A 
ENDBRANCH  54  73
BRANCH  66  79
ATOM     79  C   UNL     1     -10.897  -8.259  15.231  1.00  0.00    -0.014 A 
ATOM     80  C   UNL     1     -10.334  -7.473  16.249  1.00  0.00     0.009 A 
ATOM     81  C   UNL     1     -11.797  -9.278  15.579  1.00  0.00     0.009 A 
ATOM     82  C   UNL     1     -10.624  -7.739  17.589  1.00  0.00     0.001 A 
ATOM     83  C   UNL     1     -12.113  -9.518  16.916  1.00  0.00     0.001 A 
ATOM     84  C   UNL     1     -11.514  -8.759  17.921  1.00  0.00     0.000 A 
ENDBRANCH  66  79
ENDBRANCH  40  41
ENDBRANCH  32  35
ENDBRANCH  30  31
ENDBRANCH  29  30
ENDBRANCH   1  29
TORSDOF 14
