REMARK SMILES Cc1cscc1CNC(=O)CC(C)(C)C(=O)NCCCNC(=O)c1ccc(-c2c3nc(c(-c4ccccc4)c4ccc([nH]4)c(-c4ccccc4)c4nc(c(-c5ccccc5)c5ccc2[nH]5)C=C4)C=C3)cc1
REMARK SMILES IDX 18 1 17 2 15 3 16 4 12 6 13 7 14 8 11 9 9 10 8 11 10 13 7 14
REMARK SMILES IDX 6 15 1 16 2 17 3 18 4 19 5 20 19 21 20 22 21 23 22 24 23 26
REMARK SMILES IDX 24 27 25 28 71 29 26 30 70 31 27 32 28 33 29 34 64 35 30 36
REMARK SMILES IDX 69 37 63 38 65 39 31 40 68 41 62 42 61 43 32 45 54 46 39 47
REMARK SMILES IDX 53 48 40 49 43 50 52 51 66 52 41 53 42 54 51 56 67 57 44 58
REMARK SMILES IDX 33 59 34 60 38 61 35 62 37 63 36 64 55 65 56 66 60 67 57 68
REMARK SMILES IDX 59 69 58 70 45 71 46 72 50 73 47 74 49 75 48 76
REMARK H PARENT 17 5 8 12 21 25 65 44 43 55
REMARK Flexibility Score: inf
ROOT
ATOM      1  C   UNL     1      -3.046   2.624   2.286  1.00  0.00     0.117 C 
ENDROOT
BRANCH   1   2
ATOM      2  N   UNL     1      -2.861   3.396   1.075  1.00  0.00    -0.356 N 
ATOM      3  C   UNL     1      -1.870   4.194   0.613  1.00  0.00     0.226 C 
ATOM      4  O   UNL     1      -2.150   4.793  -0.429  1.00  0.00    -0.274 OA
ATOM      5  H   UNL     1      -3.620   3.325   0.452  1.00  0.00     0.163 HD
BRANCH   3   6
ATOM      6  C   UNL     1      -0.547   4.459   1.360  1.00  0.00     0.052 C 
ATOM      7  C   UNL     1       0.062   3.235   2.061  1.00  0.00     0.022 C 
ATOM      8  C   UNL     1      -0.854   5.509   2.450  1.00  0.00     0.022 C 
BRANCH   6   9
ATOM      9  C   UNL     1       0.514   5.063   0.380  1.00  0.00     0.116 C 
BRANCH   9  10
ATOM     10  C   UNL     1       0.543   4.599  -1.075  1.00  0.00     0.221 C 
ATOM     11  N   UNL     1       0.969   3.366  -1.442  1.00  0.00    -0.352 N 
ATOM     12  H   UNL     1       0.760   3.129  -2.374  1.00  0.00     0.163 HD
ATOM     13  O   UNL     1       0.243   5.374  -1.987  1.00  0.00    -0.275 OA
BRANCH  11  14
ATOM     14  C   UNL     1       1.674   2.338  -0.716  1.00  0.00     0.152 C 
BRANCH  14  15
ATOM     15  C   UNL     1       0.855   1.077  -0.631  1.00  0.00    -0.015 A 
ATOM     16  C   UNL     1       2.839  -0.496   0.019  1.00  0.00     0.045 C 
ATOM     17  C   UNL     1       1.397  -0.219  -0.267  1.00  0.00    -0.035 A 
ATOM     18  C   UNL     1       0.409  -1.185  -0.208  1.00  0.00     0.068 A 
ATOM     19  S   UNL     1      -1.135  -0.581  -0.597  1.00  0.00    -0.152 S 
ATOM     20  C   UNL     1      -0.510   0.982  -0.862  1.00  0.00     0.070 A 
ENDBRANCH  14  15
ENDBRANCH  11  14
ENDBRANCH   9  10
ENDBRANCH   6   9
ENDBRANCH   3   6
ENDBRANCH   1   2
BRANCH   1  21
ATOM     21  C   UNL     1      -4.167   3.182   3.151  1.00  0.00     0.042 C 
BRANCH  21  22
ATOM     22  C   UNL     1      -5.545   3.102   2.507  1.00  0.00     0.118 C 
BRANCH  22  23
ATOM     23  N   UNL     1      -5.964   1.730   2.247  1.00  0.00    -0.352 N 
ATOM     24  C   UNL     1      -6.936   0.963   2.835  1.00  0.00     0.251 C 
ATOM     25  H   UNL     1      -5.465   1.278   1.528  1.00  0.00     0.163 HD
ATOM     26  O   UNL     1      -6.971  -0.248   2.605  1.00  0.00    -0.269 OA
BRANCH  24  27
ATOM     27  C   UNL     1      -7.928   1.559   3.753  1.00  0.00     0.039 A 
ATOM     28  C   UNL     1      -8.339   0.825   4.870  1.00  0.00     0.014 A 
ATOM     29  C   UNL     1      -8.485   2.816   3.508  1.00  0.00     0.014 A 
ATOM     30  C   UNL     1      -9.252   1.380   5.769  1.00  0.00     0.010 A 
ATOM     31  C   UNL     1      -9.310   3.410   4.458  1.00  0.00     0.010 A 
ATOM     32  C   UNL     1      -9.714   2.695   5.593  1.00  0.00    -0.014 A 
BRANCH  32  33
ATOM     33  C   UNL     1     -10.620   3.328   6.585  1.00  0.00     0.031 A 
ATOM     34  C   UNL     1     -12.000   3.776   6.183  1.00  0.00     0.074 A 
ATOM     35  C   UNL     1     -10.181   3.540   7.842  1.00  0.00     0.049 A 
ATOM     36  N   UNL     1     -12.925   4.350   6.912  1.00  0.00    -0.248 NA
ATOM     37  C   UNL     1     -12.384   3.580   4.776  1.00  0.00     0.031 C 
ATOM     38  C   UNL     1      -8.847   3.203   8.343  1.00  0.00     0.029 A 
ATOM     39  N   UNL     1     -10.815   4.086   8.929  1.00  0.00    -0.354 N 
ATOM     40  C   UNL     1     -13.987   4.595   6.050  1.00  0.00     0.074 A 
ATOM     41  C   UNL     1     -13.572   4.163   4.734  1.00  0.00     0.031 C 
ATOM     42  C   UNL     1      -8.777   3.507   9.648  1.00  0.00     0.029 A 
ATOM     43  C   UNL     1     -10.043   4.098  10.066  1.00  0.00     0.049 A 
ATOM     44  H   UNL     1     -11.734   4.436   8.898  1.00  0.00     0.167 HD
ATOM     45  C   UNL     1     -15.209   5.108   6.330  1.00  0.00     0.031 A 
ATOM     46  C   UNL     1     -10.324   4.534  11.308  1.00  0.00     0.031 A 
ATOM     47  C   UNL     1     -15.626   5.529   7.641  1.00  0.00     0.049 A 
ATOM     48  C   UNL     1     -11.686   5.103  11.593  1.00  0.00     0.074 A 
ATOM     49  C   UNL     1     -16.861   6.008   8.041  1.00  0.00     0.029 A 
ATOM     50  N   UNL     1     -14.815   5.524   8.766  1.00  0.00    -0.354 N 
ATOM     51  N   UNL     1     -12.706   5.253  10.783  1.00  0.00    -0.248 NA
ATOM     52  C   UNL     1     -11.938   5.550  12.970  1.00  0.00     0.031 C 
ATOM     53  C   UNL     1     -16.780   6.345   9.396  1.00  0.00     0.029 A 
ATOM     54  C   UNL     1     -15.515   6.016   9.854  1.00  0.00     0.049 A 
ATOM     55  H   UNL     1     -13.880   5.216   8.787  1.00  0.00     0.167 HD
ATOM     56  C   UNL     1     -13.728   5.786  11.557  1.00  0.00     0.074 A 
ATOM     57  C   UNL     1     -13.211   5.910  12.905  1.00  0.00     0.031 C 
ATOM     58  C   UNL     1     -14.982   6.142  11.187  1.00  0.00     0.031 A 
BRANCH  45  59
ATOM     59  C   UNL     1     -16.181   5.246   5.190  1.00  0.00    -0.014 A 
ATOM     60  C   UNL     1     -16.746   4.118   4.573  1.00  0.00     0.009 A 
ATOM     61  C   UNL     1     -16.564   6.522   4.747  1.00  0.00     0.009 A 
ATOM     62  C   UNL     1     -17.642   4.264   3.511  1.00  0.00     0.001 A 
ATOM     63  C   UNL     1     -17.484   6.666   3.707  1.00  0.00     0.001 A 
ATOM     64  C   UNL     1     -18.014   5.537   3.083  1.00  0.00     0.000 A 
ENDBRANCH  45  59
BRANCH  46  65
ATOM     65  C   UNL     1      -9.304   4.429  12.385  1.00  0.00    -0.014 A 
ATOM     66  C   UNL     1      -9.478   3.527  13.447  1.00  0.00     0.009 A 
ATOM     67  C   UNL     1      -8.155   5.234  12.362  1.00  0.00     0.009 A 
ATOM     68  C   UNL     1      -8.539   3.456  14.478  1.00  0.00     0.001 A 
ATOM     69  C   UNL     1      -7.201   5.137  13.378  1.00  0.00     0.001 A 
ATOM     70  C   UNL     1      -7.399   4.257  14.440  1.00  0.00     0.000 A 
ENDBRANCH  46  65
BRANCH  58  71
ATOM     71  C   UNL     1     -15.888   6.672  12.263  1.00  0.00    -0.014 A 
ATOM     72  C   UNL     1     -15.676   7.934  12.841  1.00  0.00     0.009 A 
ATOM     73  C   UNL     1     -16.982   5.904  12.690  1.00  0.00     0.009 A 
ATOM     74  C   UNL     1     -16.516   8.396  13.856  1.00  0.00     0.001 A 
ATOM     75  C   UNL     1     -17.840   6.383  13.681  1.00  0.00     0.001 A 
ATOM     76  C   UNL     1     -17.599   7.622  14.272  1.00  0.00     0.000 A 
ENDBRANCH  58  71
ENDBRANCH  32  33
ENDBRANCH  24  27
ENDBRANCH  22  23
ENDBRANCH  21  22
ENDBRANCH   1  21
TORSDOF 14
