REMARK SMILES C[C@]1(O)CC[C@H]2[C@H]3CCC4=C/C(=N/OCC(=O)N[C@@H](CO)C(=O)NCCCNC(=O)c5ccc(-c6c7nc(c(-c8ccccc8)c8ccc([nH]8)c(-c8ccccc8)c8nc(c(-c9ccccc9)c9ccc6[nH]9)C=C8)C=C7)cc5)CC[C@@]4(C)[C@@H]3CC[C@]21C
REMARK SMILES IDX 22 1 23 2 24 3 19 5 18 6 16 7 17 8 15 10 14 11 13 12 82 13
REMARK SMILES IDX 81 14 80 15 10 16 83 17 79 18 11 19 9 20 7 21 84 22 12 23
REMARK SMILES IDX 8 24 6 25 85 26 86 27 5 28 2 29 87 30 4 31 1 32 3 33 20 35
REMARK SMILES IDX 21 36 25 38 26 39 27 40 28 41 29 42 30 44 31 45 32 46 78 47
REMARK SMILES IDX 33 48 77 49 34 50 35 51 36 52 71 53 37 54 76 55 70 56 72 57
REMARK SMILES IDX 38 58 75 59 69 60 68 61 39 63 61 64 46 65 60 66 47 67 50 68
REMARK SMILES IDX 59 69 73 70 48 71 49 72 58 74 74 75 51 76 40 77 41 78 45 79
REMARK SMILES IDX 42 80 44 81 43 82 62 83 63 84 67 85 64 86 66 87 65 88 52 89
REMARK SMILES IDX 53 90 57 91 54 92 56 93 55 94
REMARK H PARENT 24 4 18 9 3 34 21 37 28 43 72 62 50 73
REMARK Flexibility Score: inf
ROOT
ATOM      1  C   UNL     1       4.214   1.351  -1.308  1.00  0.00     0.244 C 
ATOM      2  O   UNL     1       4.080   2.116  -0.345  1.00  0.00    -0.273 OA
ATOM      3  N   UNL     1       5.441   1.292  -1.868  1.00  0.00    -0.354 N 
ATOM      4  H   UNL     1       6.152   1.774  -1.388  1.00  0.00     0.163 HD
ENDROOT
BRANCH   1   5
ATOM      5  C   UNL     1       3.111   0.336  -1.674  1.00  0.00     0.197 C 
BRANCH   5   6
ATOM      6  N   UNL     1       2.536   0.143  -3.001  1.00  0.00    -0.339 N 
ATOM      7  C   UNL     1       1.282  -0.278  -3.377  1.00  0.00     0.261 C 
ATOM      8  O   UNL     1       1.073  -0.225  -4.598  1.00  0.00    -0.271 OA
ATOM      9  H   UNL     1       3.144   0.347  -3.748  1.00  0.00     0.164 HD
BRANCH   7  10
ATOM     10  C   UNL     1       0.079  -0.658  -2.412  1.00  0.00     0.363 C 
BRANCH  10  11
ATOM     11  O   UNL     1      -0.254  -1.878  -1.727  1.00  0.00    -0.385 OA
BRANCH  11  12
ATOM     12  N   UNL     1       0.640  -2.243  -0.688  1.00  0.00    -0.091 NA
ATOM     13  C   UNL     1       0.924   0.590   0.476  1.00  0.00     0.016 C 
ATOM     14  C   UNL     1       0.157   0.245   1.742  1.00  0.00    -0.008 C 
ATOM     15  C   UNL     1      -1.254  -0.341   1.412  1.00  0.00     0.018 C 
ATOM     16  C   UNL     1       1.078  -0.830   2.331  1.00  0.00    -0.062 C 
ATOM     17  C   UNL     1       0.078   1.611   2.495  1.00  0.00     0.002 C 
ATOM     18  C   UNL     1      -1.263  -1.787   0.890  1.00  0.00     0.061 C 
ATOM     19  C   UNL     1       1.087  -2.055   1.725  1.00  0.00     0.027 C 
ATOM     20  C   UNL     1       2.211  -0.339   3.232  1.00  0.00     0.032 C 
ATOM     21  C   UNL     1       1.524   2.139   2.694  1.00  0.00    -0.003 C 
ATOM     22  C   UNL     1      -0.880   2.557   1.733  1.00  0.00     0.005 C 
ATOM     23  C   UNL     1       0.147  -2.159   0.528  1.00  0.00     0.080 C 
ATOM     24  C   UNL     1       2.232   1.173   3.671  1.00  0.00     0.008 C 
ATOM     25  C   UNL     1       1.690   3.658   2.849  1.00  0.00     0.001 C 
ATOM     26  C   UNL     1      -0.649   4.036   1.912  1.00  0.00     0.010 C 
ATOM     27  C   UNL     1       0.827   4.498   1.850  1.00  0.00    -0.001 C 
ATOM     28  C   UNL     1       1.381   4.299   4.186  1.00  0.00     0.007 C 
ATOM     29  C   UNL     1       0.931   5.967   2.415  1.00  0.00     0.068 C 
ATOM     30  C   UNL     1       1.376   4.370   0.410  1.00  0.00     0.015 C 
ATOM     31  C   UNL     1       1.492   5.793   3.846  1.00  0.00     0.036 C 
ATOM     32  C   UNL     1       1.773   6.946   1.587  1.00  0.00     0.042 C 
BRANCH  29  33
ATOM     33  O   UNL     1      -0.361   6.577   2.551  1.00  0.00    -0.390 OA
ATOM     34  H   UNL     1      -0.939   5.997   3.070  1.00  0.00     0.211 HD
ENDBRANCH  29  33
ENDBRANCH  11  12
ENDBRANCH  10  11
ENDBRANCH   7  10
ENDBRANCH   5   6
BRANCH   5  35
ATOM     35  C   UNL     1       3.560  -0.980  -1.018  1.00  0.00     0.191 C 
BRANCH  35  36
ATOM     36  O   UNL     1       4.345  -1.776  -1.908  1.00  0.00    -0.394 OA
ATOM     37  H   UNL     1       3.815  -2.007  -2.688  1.00  0.00     0.210 HD
ENDBRANCH  35  36
ENDBRANCH   5  35
ENDBRANCH   1   5
BRANCH   3  38
ATOM     38  C   UNL     1       5.849   0.618  -3.074  1.00  0.00     0.117 C 
BRANCH  38  39
ATOM     39  C   UNL     1       6.050   1.647  -4.168  1.00  0.00     0.042 C 
BRANCH  39  40
ATOM     40  C   UNL     1       7.098   2.684  -3.787  1.00  0.00     0.118 C 
BRANCH  40  41
ATOM     41  N   UNL     1       8.394   2.075  -3.510  1.00  0.00    -0.352 N 
ATOM     42  C   UNL     1       9.501   1.975  -4.321  1.00  0.00     0.251 C 
ATOM     43  H   UNL     1       8.491   1.678  -2.614  1.00  0.00     0.163 HD
ATOM     44  O   UNL     1      10.399   1.196  -4.062  1.00  0.00    -0.269 OA
BRANCH  42  45
ATOM     45  C   UNL     1       9.561   2.824  -5.525  1.00  0.00     0.039 A 
ATOM     46  C   UNL     1       9.951   2.266  -6.742  1.00  0.00     0.014 A 
ATOM     47  C   UNL     1       9.180   4.164  -5.444  1.00  0.00     0.014 A 
ATOM     48  C   UNL     1       9.878   3.042  -7.898  1.00  0.00     0.010 A 
ATOM     49  C   UNL     1       8.985   4.889  -6.607  1.00  0.00     0.010 A 
ATOM     50  C   UNL     1       9.348   4.342  -7.845  1.00  0.00    -0.014 A 
BRANCH  50  51
ATOM     51  C   UNL     1       9.184   5.167  -9.065  1.00  0.00     0.031 A 
ATOM     52  C   UNL     1       9.899   6.488  -9.170  1.00  0.00     0.074 A 
ATOM     53  C   UNL     1       8.345   4.763 -10.039  1.00  0.00     0.049 A 
ATOM     54  N   UNL     1       9.823   7.394 -10.110  1.00  0.00    -0.248 NA
ATOM     55  C   UNL     1      10.790   6.857  -8.055  1.00  0.00     0.031 C 
ATOM     56  C   UNL     1       7.558   3.526 -10.028  1.00  0.00     0.029 A 
ATOM     57  N   UNL     1       8.010   5.356 -11.229  1.00  0.00    -0.354 N 
ATOM     58  C   UNL     1      10.640   8.436  -9.693  1.00  0.00     0.074 A 
ATOM     59  C   UNL     1      11.146   8.088  -8.386  1.00  0.00     0.031 C 
ATOM     60  C   UNL     1       6.862   3.437 -11.173  1.00  0.00     0.029 A 
ATOM     61  C   UNL     1       7.113   4.629 -11.975  1.00  0.00     0.049 A 
ATOM     62  H   UNL     1       8.378   6.221 -11.522  1.00  0.00     0.167 HD
ATOM     63  C   UNL     1      10.969   9.570 -10.354  1.00  0.00     0.031 A 
ATOM     64  C   UNL     1       6.551   4.900 -13.167  1.00  0.00     0.031 A 
ATOM     65  C   UNL     1      10.479   9.905 -11.662  1.00  0.00     0.049 A 
ATOM     66  C   UNL     1       6.918   6.179 -13.868  1.00  0.00     0.074 A 
ATOM     67  C   UNL     1      10.787  11.007 -12.439  1.00  0.00     0.029 A 
ATOM     68  N   UNL     1       9.583   9.137 -12.387  1.00  0.00    -0.354 N 
ATOM     69  N   UNL     1       7.747   7.122 -13.490  1.00  0.00    -0.248 NA
ATOM     70  C   UNL     1       6.279   6.426 -15.169  1.00  0.00     0.031 C 
ATOM     71  C   UNL     1      10.036  10.931 -13.615  1.00  0.00     0.029 A 
ATOM     72  C   UNL     1       9.310   9.751 -13.596  1.00  0.00     0.049 A 
ATOM     73  H   UNL     1       9.199   8.281 -12.087  1.00  0.00     0.167 HD
ATOM     74  C   UNL     1       7.752   8.056 -14.518  1.00  0.00     0.074 A 
ATOM     75  C   UNL     1       6.862   7.555 -15.544  1.00  0.00     0.031 C 
ATOM     76  C   UNL     1       8.428   9.227 -14.606  1.00  0.00     0.031 A 
BRANCH  63  77
ATOM     77  C   UNL     1      11.914  10.522  -9.676  1.00  0.00    -0.014 A 
ATOM     78  C   UNL     1      13.267  10.193  -9.496  1.00  0.00     0.009 A 
ATOM     79  C   UNL     1      11.460  11.783  -9.259  1.00  0.00     0.009 A 
ATOM     80  C   UNL     1      14.140  11.096  -8.887  1.00  0.00     0.001 A 
ATOM     81  C   UNL     1      12.343  12.696  -8.679  1.00  0.00     0.001 A 
ATOM     82  C   UNL     1      13.680  12.350  -8.487  1.00  0.00     0.000 A 
ENDBRANCH  63  77
BRANCH  64  83
ATOM     83  C   UNL     1       5.582   3.952 -13.780  1.00  0.00    -0.014 A 
ATOM     84  C   UNL     1       5.901   3.269 -14.965  1.00  0.00     0.009 A 
ATOM     85  C   UNL     1       4.316   3.753 -13.207  1.00  0.00     0.009 A 
ATOM     86  C   UNL     1       4.959   2.445 -15.585  1.00  0.00     0.001 A 
ATOM     87  C   UNL     1       3.389   2.900 -13.810  1.00  0.00     0.001 A 
ATOM     88  C   UNL     1       3.705   2.259 -15.006  1.00  0.00     0.000 A 
ENDBRANCH  64  83
BRANCH  76  89
ATOM     89  C   UNL     1       8.265  10.021 -15.870  1.00  0.00    -0.014 A 
ATOM     90  C   UNL     1       7.066  10.688 -16.166  1.00  0.00     0.009 A 
ATOM     91  C   UNL     1       9.347  10.139 -16.757  1.00  0.00     0.009 A 
ATOM     92  C   UNL     1       6.943  11.426 -17.344  1.00  0.00     0.001 A 
ATOM     93  C   UNL     1       9.232  10.906 -17.916  1.00  0.00     0.001 A 
ATOM     94  C   UNL     1       8.027  11.540 -18.214  1.00  0.00     0.000 A 
ENDBRANCH  76  89
ENDBRANCH  50  51
ENDBRANCH  42  45
ENDBRANCH  40  41
ENDBRANCH  39  40
ENDBRANCH  38  39
ENDBRANCH   3  38
TORSDOF 17
