REMARK SMILES CN1C(=O)C[C@@H](C(=O)NCCCNC(=O)c2ccc(-c3c4nc(c(-c5ccccc5)c5ccc([nH]5)c(-c5ccccc5)c5nc(c(-c6ccccc6)c6ccc3[nH]6)C=C5)C=C4)cc2)C12CC[NH+](CCSc1ccccc1)CC2
REMARK SMILES IDX 10 1 9 2 7 3 8 4 6 6 1 7 2 8 3 9 64 10 4 11 5 12 65 13 78 14
REMARK SMILES IDX 66 15 77 16 67 17 68 19 69 20 70 21 71 22 72 23 76 24 73 25
REMARK SMILES IDX 75 26 74 27 11 28 12 29 13 30 14 31 15 33 16 34 17 35 63 36
REMARK SMILES IDX 18 37 62 38 19 39 20 40 21 41 56 42 22 43 61 44 55 45 57 46
REMARK SMILES IDX 23 47 60 48 54 49 53 50 24 52 46 53 31 54 45 55 32 56 35 57
REMARK SMILES IDX 44 58 58 59 33 60 34 61 43 63 59 64 36 65 25 66 26 67 30 68
REMARK SMILES IDX 27 69 29 70 28 71 47 72 48 73 52 74 49 75 51 76 50 77 37 78
REMARK SMILES IDX 38 79 42 80 39 81 41 82 40 83
REMARK H PARENT 9 5 67 18 13 32 57 51 35 62
REMARK Flexibility Score: inf
ROOT
ATOM      1  C   UNL     1      -0.285   1.028  -4.593  1.00  0.00     0.117 C 
ENDROOT
BRANCH   1   2
ATOM      2  N   UNL     1       0.095  -0.199  -5.265  1.00  0.00    -0.356 N 
ATOM      3  C   UNL     1       0.418  -1.424  -4.799  1.00  0.00     0.226 C 
ATOM      4  O   UNL     1       0.995  -2.183  -5.585  1.00  0.00    -0.275 OA
ATOM      5  H   UNL     1       0.123  -0.126  -6.247  1.00  0.00     0.163 HD
BRANCH   3   6
ATOM      6  C   UNL     1       0.109  -1.905  -3.403  1.00  0.00     0.114 C 
ATOM      7  C   UNL     1       1.031   0.245  -0.447  1.00  0.00     0.147 C 
ATOM      8  N   UNL     1       0.456  -0.505  -1.555  1.00  0.00    -0.339 N 
ATOM      9  C   UNL     1      -0.917  -0.494  -1.761  1.00  0.00     0.223 C 
ATOM     10  C   UNL     1       1.117  -1.632  -2.255  1.00  0.00     0.065 C 
ATOM     11  O   UNL     1      -1.734   0.196  -1.164  1.00  0.00    -0.275 OA
ATOM     12  C   UNL     1      -1.258  -1.490  -2.838  1.00  0.00     0.116 C 
ATOM     13  C   UNL     1       2.604  -1.329  -2.604  1.00  0.00     0.091 C 
ATOM     14  C   UNL     1       1.018  -2.883  -1.367  1.00  0.00     0.091 C 
ATOM     15  C   UNL     1       3.583  -2.516  -2.649  1.00  0.00     0.264 C 
ATOM     16  C   UNL     1       1.932  -4.002  -1.829  1.00  0.00     0.264 C 
ATOM     17  N   UNL     1       3.303  -3.598  -1.716  1.00  0.00    -0.334 N 
ATOM     18  H   UNL     1       3.896  -4.363  -2.037  1.00  0.00     0.348 HD
BRANCH  17  19
ATOM     19  C   UNL     1       3.914  -3.614  -0.377  1.00  0.00     0.273 C 
BRANCH  19  20
ATOM     20  C   UNL     1       3.147  -3.410   0.973  1.00  0.00     0.136 C 
BRANCH  20  21
ATOM     21  S   UNL     1       2.336  -4.837   1.864  1.00  0.00    -0.120 SA
BRANCH  21  22
ATOM     22  C   UNL     1       0.812  -5.212   1.007  1.00  0.00     0.007 A 
ATOM     23  C   UNL     1      -0.331  -4.404   1.050  1.00  0.00     0.015 A 
ATOM     24  C   UNL     1       0.758  -6.401   0.263  1.00  0.00     0.015 A 
ATOM     25  C   UNL     1      -1.448  -4.711   0.252  1.00  0.00     0.001 A 
ATOM     26  C   UNL     1      -0.341  -6.692  -0.553  1.00  0.00     0.001 A 
ATOM     27  C   UNL     1      -1.435  -5.833  -0.577  1.00  0.00     0.000 A 
ENDBRANCH  21  22
ENDBRANCH  20  21
ENDBRANCH  19  20
ENDBRANCH  17  19
ENDBRANCH   3   6
ENDBRANCH   1   2
BRANCH   1  28
ATOM     28  C   UNL     1       0.941   1.795  -4.125  1.00  0.00     0.042 C 
BRANCH  28  29
ATOM     29  C   UNL     1       1.858   2.144  -5.286  1.00  0.00     0.118 C 
BRANCH  29  30
ATOM     30  N   UNL     1       1.192   3.053  -6.209  1.00  0.00    -0.352 N 
ATOM     31  C   UNL     1       1.393   4.399  -6.350  1.00  0.00     0.251 C 
ATOM     32  H   UNL     1       0.518   2.650  -6.803  1.00  0.00     0.163 HD
ATOM     33  O   UNL     1       0.526   5.114  -6.847  1.00  0.00    -0.269 OA
BRANCH  31  34
ATOM     34  C   UNL     1       2.681   4.969  -5.921  1.00  0.00     0.039 A 
ATOM     35  C   UNL     1       2.712   6.199  -5.265  1.00  0.00     0.014 A 
ATOM     36  C   UNL     1       3.864   4.280  -6.208  1.00  0.00     0.014 A 
ATOM     37  C   UNL     1       3.940   6.737  -4.886  1.00  0.00     0.010 A 
ATOM     38  C   UNL     1       5.074   4.769  -5.747  1.00  0.00     0.010 A 
ATOM     39  C   UNL     1       5.126   6.022  -5.122  1.00  0.00    -0.014 A 
BRANCH  39  40
ATOM     40  C   UNL     1       6.453   6.595  -4.811  1.00  0.00     0.031 A 
ATOM     41  C   UNL     1       7.408   6.880  -5.939  1.00  0.00     0.074 A 
ATOM     42  C   UNL     1       6.819   6.783  -3.532  1.00  0.00     0.049 A 
ATOM     43  N   UNL     1       8.651   7.281  -5.886  1.00  0.00    -0.248 NA
ATOM     44  C   UNL     1       6.912   6.640  -7.306  1.00  0.00     0.031 C 
ATOM     45  C   UNL     1       5.990   6.497  -2.358  1.00  0.00     0.029 A 
ATOM     46  N   UNL     1       7.992   7.254  -3.006  1.00  0.00    -0.354 N 
ATOM     47  C   UNL     1       9.092   7.304  -7.204  1.00  0.00     0.074 A 
ATOM     48  C   UNL     1       8.005   6.827  -8.028  1.00  0.00     0.031 C 
ATOM     49  C   UNL     1       6.673   6.827  -1.250  1.00  0.00     0.029 A 
ATOM     50  C   UNL     1       7.994   7.314  -1.635  1.00  0.00     0.049 A 
ATOM     51  H   UNL     1       8.761   7.524  -3.559  1.00  0.00     0.167 HD
ATOM     52  C   UNL     1      10.288   7.711  -7.689  1.00  0.00     0.031 A 
ATOM     53  C   UNL     1       8.957   7.719  -0.788  1.00  0.00     0.031 A 
ATOM     54  C   UNL     1      11.347   8.225  -6.867  1.00  0.00     0.049 A 
ATOM     55  C   UNL     1      10.262   8.204  -1.351  1.00  0.00     0.074 A 
ATOM     56  C   UNL     1      12.573   8.733  -7.255  1.00  0.00     0.029 A 
ATOM     57  N   UNL     1      11.294   8.308  -5.484  1.00  0.00    -0.354 N 
ATOM     58  N   UNL     1      10.646   8.276  -2.603  1.00  0.00    -0.248 NA
ATOM     59  C   UNL     1      11.262   8.677  -0.384  1.00  0.00     0.031 C 
ATOM     60  C   UNL     1      13.277   9.094  -6.101  1.00  0.00     0.029 A 
ATOM     61  C   UNL     1      12.471   8.850  -5.000  1.00  0.00     0.049 A 
ATOM     62  H   UNL     1      10.533   8.023  -4.929  1.00  0.00     0.167 HD
ATOM     63  C   UNL     1      11.920   8.825  -2.578  1.00  0.00     0.074 A 
ATOM     64  C   UNL     1      12.238   9.080  -1.187  1.00  0.00     0.031 C 
ATOM     65  C   UNL     1      12.756   9.094  -3.610  1.00  0.00     0.031 A 
BRANCH  52  66
ATOM     66  C   UNL     1      10.501   7.615  -9.173  1.00  0.00    -0.014 A 
ATOM     67  C   UNL     1       9.816   8.459 -10.063  1.00  0.00     0.009 A 
ATOM     68  C   UNL     1      11.405   6.675  -9.690  1.00  0.00     0.009 A 
ATOM     69  C   UNL     1      10.001   8.333 -11.442  1.00  0.00     0.001 A 
ATOM     70  C   UNL     1      11.610   6.572 -11.067  1.00  0.00     0.001 A 
ATOM     71  C   UNL     1      10.900   7.393 -11.942  1.00  0.00     0.000 A 
ENDBRANCH  52  66
BRANCH  53  72
ATOM     72  C   UNL     1       8.706   7.718   0.675  1.00  0.00    -0.014 A 
ATOM     73  C   UNL     1       8.508   8.927   1.359  1.00  0.00     0.009 A 
ATOM     74  C   UNL     1       8.649   6.513   1.393  1.00  0.00     0.009 A 
ATOM     75  C   UNL     1       8.283   8.932   2.737  1.00  0.00     0.001 A 
ATOM     76  C   UNL     1       8.399   6.520   2.767  1.00  0.00     0.001 A 
ATOM     77  C   UNL     1       8.225   7.729   3.439  1.00  0.00     0.000 A 
ENDBRANCH  53  72
BRANCH  65  78
ATOM     78  C   UNL     1      14.075   9.724  -3.272  1.00  0.00    -0.014 A 
ATOM     79  C   UNL     1      15.110   8.973  -2.695  1.00  0.00     0.009 A 
ATOM     80  C   UNL     1      14.297  11.075  -3.579  1.00  0.00     0.009 A 
ATOM     81  C   UNL     1      16.335   9.574  -2.404  1.00  0.00     0.001 A 
ATOM     82  C   UNL     1      15.531  11.666  -3.310  1.00  0.00     0.001 A 
ATOM     83  C   UNL     1      16.546  10.917  -2.716  1.00  0.00     0.000 A 
ENDBRANCH  65  78
ENDBRANCH  39  40
ENDBRANCH  31  34
ENDBRANCH  29  30
ENDBRANCH  28  29
ENDBRANCH   1  28
TORSDOF 14
