REMARK SMILES O=C(NCCCNC(=O)[C@@H]1[C@@H](C(=O)Nc2cccc(C(F)(F)F)c2)[C@@H]2C=C[C@H]1O2)c1ccc(-c2c3nc(c(-c4ccccc4)c4ccc([nH]4)c(-c4ccccc4)c4nc(c(-c5ccccc5)c5ccc2[nH]5)C=C4)C=C3)cc1
REMARK SMILES IDX 5 1 4 2 3 3 1 4 2 5 30 7 31 8 77 9 32 10 76 11 33 12 34 13
REMARK SMILES IDX 35 14 70 15 36 16 75 17 69 18 71 19 37 20 74 21 68 22 67 23
REMARK SMILES IDX 38 25 60 26 45 27 59 28 46 29 49 30 58 31 72 32 47 33 48 34
REMARK SMILES IDX 57 36 73 37 50 38 39 39 40 40 44 41 41 42 43 43 42 44 61 45
REMARK SMILES IDX 62 46 66 47 63 48 65 49 64 50 51 51 52 52 56 53 53 54 55 55
REMARK SMILES IDX 54 56 6 57 7 58 8 59 9 61 10 62 11 63 28 64 25 65 27 66
REMARK SMILES IDX 29 67 26 68 12 69 13 70 14 71 15 73 16 74 24 75 17 76 19 77
REMARK SMILES IDX 18 78 20 79 21 80 22 81 23 82
REMARK H PARENT 3 6 71 24 49 35 7 60 14 72
REMARK Flexibility Score: inf
ROOT
ATOM      1  C   UNL     1       4.839  -1.898   1.738  1.00  0.00     0.042 C 
ENDROOT
BRANCH   1   2
ATOM      2  C   UNL     1       4.530  -1.296   0.375  1.00  0.00     0.118 C 
BRANCH   2   3
ATOM      3  N   UNL     1       3.102  -1.119   0.147  1.00  0.00    -0.352 N 
ATOM      4  O   UNL     1       1.144  -0.012   0.006  1.00  0.00    -0.269 OA
ATOM      5  C   UNL     1       2.371   0.034   0.001  1.00  0.00     0.251 C 
ATOM      6  H   UNL     1       2.582  -1.953   0.090  1.00  0.00     0.163 HD
BRANCH   5   7
ATOM      7  C   UNL     1       3.061   1.332  -0.141  1.00  0.00     0.039 A 
ATOM      8  C   UNL     1       4.180   1.454  -0.967  1.00  0.00     0.014 A 
ATOM      9  C   UNL     1       2.574   2.445   0.550  1.00  0.00     0.014 A 
ATOM     10  C   UNL     1       4.904   2.639  -0.976  1.00  0.00     0.010 A 
ATOM     11  C   UNL     1       3.246   3.666   0.458  1.00  0.00     0.010 A 
ATOM     12  C   UNL     1       4.435   3.764  -0.281  1.00  0.00    -0.014 A 
BRANCH  12  13
ATOM     13  C   UNL     1       5.170   5.046  -0.404  1.00  0.00     0.031 A 
ATOM     14  C   UNL     1       5.830   5.685   0.785  1.00  0.00     0.074 A 
ATOM     15  C   UNL     1       5.264   5.617  -1.621  1.00  0.00     0.049 A 
ATOM     16  N   UNL     1       6.529   6.791   0.838  1.00  0.00    -0.248 NA
ATOM     17  C   UNL     1       5.684   5.004   2.081  1.00  0.00     0.031 C 
ATOM     18  C   UNL     1       4.663   5.089  -2.849  1.00  0.00     0.029 A 
ATOM     19  N   UNL     1       5.918   6.748  -2.031  1.00  0.00    -0.354 N 
ATOM     20  C   UNL     1       6.887   6.951   2.171  1.00  0.00     0.074 A 
ATOM     21  C   UNL     1       6.311   5.840   2.898  1.00  0.00     0.031 C 
ATOM     22  C   UNL     1       5.021   5.864  -3.882  1.00  0.00     0.029 A 
ATOM     23  C   UNL     1       5.816   6.978  -3.381  1.00  0.00     0.049 A 
ATOM     24  H   UNL     1       6.412   7.340  -1.419  1.00  0.00     0.167 HD
ATOM     25  C   UNL     1       7.632   7.933   2.734  1.00  0.00     0.031 A 
ATOM     26  C   UNL     1       6.294   7.983  -4.136  1.00  0.00     0.031 A 
ATOM     27  C   UNL     1       8.205   9.035   2.006  1.00  0.00     0.049 A 
ATOM     28  C   UNL     1       7.087   9.072  -3.480  1.00  0.00     0.074 A 
ATOM     29  C   UNL     1       8.999  10.064   2.485  1.00  0.00     0.029 A 
ATOM     30  N   UNL     1       8.043   9.255   0.647  1.00  0.00    -0.354 N 
ATOM     31  N   UNL     1       7.439   9.192  -2.223  1.00  0.00    -0.248 NA
ATOM     32  C   UNL     1       7.544  10.166  -4.345  1.00  0.00     0.031 C 
ATOM     33  C   UNL     1       9.276  10.933   1.423  1.00  0.00     0.029 A 
ATOM     34  C   UNL     1       8.699  10.417   0.274  1.00  0.00     0.049 A 
ATOM     35  H   UNL     1       7.535   8.672   0.037  1.00  0.00     0.167 HD
ATOM     36  C   UNL     1       8.171  10.368  -2.148  1.00  0.00     0.074 A 
ATOM     37  C   UNL     1       8.232  10.911  -3.490  1.00  0.00     0.031 C 
ATOM     38  C   UNL     1       8.740  10.947  -1.063  1.00  0.00     0.031 A 
BRANCH  25  39
ATOM     39  C   UNL     1       7.846   7.877   4.221  1.00  0.00    -0.014 A 
ATOM     40  C   UNL     1       8.705   6.929   4.801  1.00  0.00     0.009 A 
ATOM     41  C   UNL     1       7.216   8.818   5.051  1.00  0.00     0.009 A 
ATOM     42  C   UNL     1       8.904   6.908   6.184  1.00  0.00     0.001 A 
ATOM     43  C   UNL     1       7.436   8.810   6.429  1.00  0.00     0.001 A 
ATOM     44  C   UNL     1       8.274   7.850   6.996  1.00  0.00     0.000 A 
ENDBRANCH  25  39
BRANCH  26  45
ATOM     45  C   UNL     1       6.016   8.005  -5.595  1.00  0.00    -0.014 A 
ATOM     46  C   UNL     1       7.043   7.778  -6.522  1.00  0.00     0.009 A 
ATOM     47  C   UNL     1       4.713   8.235  -6.065  1.00  0.00     0.009 A 
ATOM     48  C   UNL     1       6.774   7.799  -7.892  1.00  0.00     0.001 A 
ATOM     49  C   UNL     1       4.441   8.226  -7.433  1.00  0.00     0.001 A 
ATOM     50  C   UNL     1       5.473   8.016  -8.346  1.00  0.00     0.000 A 
ENDBRANCH  26  45
BRANCH  38  51
ATOM     51  C   UNL     1       9.496  12.223  -1.296  1.00  0.00    -0.014 A 
ATOM     52  C   UNL     1       8.824  13.427  -1.560  1.00  0.00     0.009 A 
ATOM     53  C   UNL     1      10.897  12.224  -1.228  1.00  0.00     0.009 A 
ATOM     54  C   UNL     1       9.545  14.601  -1.787  1.00  0.00     0.001 A 
ATOM     55  C   UNL     1      11.614  13.405  -1.428  1.00  0.00     0.001 A 
ATOM     56  C   UNL     1      10.938  14.589  -1.716  1.00  0.00     0.000 A 
ENDBRANCH  38  51
ENDBRANCH  12  13
ENDBRANCH   5   7
ENDBRANCH   2   3
ENDBRANCH   1   2
BRANCH   1  57
ATOM     57  C   UNL     1       4.292  -3.303   1.923  1.00  0.00     0.117 C 
BRANCH  57  58
ATOM     58  N   UNL     1       4.831  -4.218   0.936  1.00  0.00    -0.356 N 
ATOM     59  C   UNL     1       5.704  -5.248   1.096  1.00  0.00     0.227 C 
ATOM     60  H   UNL     1       4.518  -4.072   0.013  1.00  0.00     0.163 HD
ATOM     61  O   UNL     1       6.171  -5.760   0.078  1.00  0.00    -0.275 OA
BRANCH  59  62
ATOM     62  C   UNL     1       6.061  -5.707   2.493  1.00  0.00     0.127 C 
ATOM     63  C   UNL     1       7.008  -6.950   2.485  1.00  0.00     0.127 C 
ATOM     64  C   UNL     1       4.841  -6.274   3.240  1.00  0.00     0.155 C 
ATOM     65  C   UNL     1       6.195  -7.961   3.314  1.00  0.00     0.155 C 
ATOM     66  C   UNL     1       4.171  -7.376   2.470  1.00  0.00     0.004 C 
ATOM     67  O   UNL     1       5.519  -7.072   4.242  1.00  0.00    -0.365 OA
ATOM     68  C   UNL     1       5.011  -8.418   2.513  1.00  0.00     0.004 C 
BRANCH  63  69
ATOM     69  C   UNL     1       8.366  -6.708   3.124  1.00  0.00     0.231 C 
ATOM     70  O   UNL     1       8.701  -5.604   3.558  1.00  0.00    -0.274 OA
ATOM     71  N   UNL     1       9.242  -7.758   3.278  1.00  0.00    -0.326 N 
ATOM     72  H   UNL     1      10.023  -7.572   3.846  1.00  0.00     0.169 HD
BRANCH  71  73
ATOM     73  C   UNL     1       9.187  -9.056   2.745  1.00  0.00     0.041 A 
ATOM     74  C   UNL     1       9.593 -10.114   3.559  1.00  0.00     0.026 A 
ATOM     75  C   UNL     1       8.734  -9.325   1.452  1.00  0.00     0.039 A 
ATOM     76  C   UNL     1       9.433 -11.432   3.126  1.00  0.00     0.003 A 
ATOM     77  C   UNL     1       8.560 -10.644   1.005  1.00  0.00     0.058 A 
ATOM     78  C   UNL     1       8.902 -11.697   1.863  1.00  0.00     0.013 A 
BRANCH  77  79
ATOM     79  C   UNL     1       8.001 -10.927  -0.368  1.00  0.00     0.416 C 
ATOM     80  F   UNL     1       8.854 -11.652  -1.141  1.00  0.00    -0.166 F 
ATOM     81  F   UNL     1       6.842 -11.640  -0.314  1.00  0.00    -0.166 F 
ATOM     82  F   UNL     1       7.712  -9.804  -1.081  1.00  0.00    -0.166 F 
ENDBRANCH  77  79
ENDBRANCH  71  73
ENDBRANCH  63  69
ENDBRANCH  59  62
ENDBRANCH  57  58
ENDBRANCH   1  57
TORSDOF 13
