REMARK SMILES C[C@H](Oc1ccc(/C=C2/SC(=S)N(c3ccc(F)c(Cl)c3)C2=O)cc1)C(=O)NCCCNC(=O)c1ccc(-c2c3nc(c(-c4ccccc4)c4ccc([nH]4)c(-c4ccccc4)c4nc(c(-c5ccccc5)c5ccc2[nH]5)C=C4)C=C3)cc1
REMARK SMILES IDX 29 1 28 2 26 3 27 4 2 6 1 7 3 8 4 9 5 10 25 11 6 12 24 13
REMARK SMILES IDX 7 14 8 15 9 16 10 17 22 18 11 19 13 20 23 21 12 22 14 23
REMARK SMILES IDX 15 24 21 25 16 26 19 27 17 28 20 29 18 30 30 31 31 32 32 33
REMARK SMILES IDX 33 34 34 36 35 37 36 38 82 39 37 40 81 41 38 42 39 43 40 44
REMARK SMILES IDX 75 45 41 46 80 47 74 48 76 49 42 50 79 51 73 52 72 53 43 55
REMARK SMILES IDX 65 56 50 57 64 58 51 59 54 60 63 61 77 62 52 63 53 64 62 66
REMARK SMILES IDX 78 67 55 68 44 69 45 70 49 71 46 72 48 73 47 74 66 75 67 76
REMARK SMILES IDX 71 77 68 78 70 79 69 80 56 81 57 82 61 83 58 84 60 85 59 86
REMARK H PARENT 28 5 32 35 76 54 54 65
REMARK Flexibility Score: inf
ROOT
ATOM      1  C   UNL     1      -1.138   0.043   2.174  1.00  0.00     0.118 C 
ENDROOT
BRANCH   1   2
ATOM      2  N   UNL     1      -1.612  -0.632   0.975  1.00  0.00    -0.353 N 
ATOM      3  C   UNL     1      -0.917  -1.435   0.105  1.00  0.00     0.260 C 
ATOM      4  O   UNL     1      -1.540  -1.961  -0.821  1.00  0.00    -0.271 OA
ATOM      5  H   UNL     1      -2.562  -0.493   0.757  1.00  0.00     0.163 HD
BRANCH   3   6
ATOM      6  C   UNL     1       0.584  -1.693   0.315  1.00  0.00     0.258 C 
ATOM      7  C   UNL     1       0.772  -2.443   1.638  1.00  0.00     0.064 C 
BRANCH   6   8
ATOM      8  O   UNL     1       1.161  -0.396   0.152  1.00  0.00    -0.481 OA
BRANCH   8   9
ATOM      9  C   UNL     1       2.393  -0.045   0.592  1.00  0.00     0.120 A 
ATOM     10  C   UNL     1       3.377  -0.879   1.107  1.00  0.00     0.047 A 
ATOM     11  C   UNL     1       2.627   1.331   0.540  1.00  0.00     0.047 A 
ATOM     12  C   UNL     1       4.512  -0.326   1.717  1.00  0.00     0.012 A 
ATOM     13  C   UNL     1       3.775   1.881   1.104  1.00  0.00     0.012 A 
ATOM     14  C   UNL     1       4.686   1.061   1.772  1.00  0.00    -0.024 A 
BRANCH  14  15
ATOM     15  C   UNL     1       5.812   1.632   2.521  1.00  0.00     0.029 C 
ATOM     16  C   UNL     1       5.722   2.563   3.487  1.00  0.00     0.081 C 
ATOM     17  S   UNL     1       7.112   3.248   4.236  1.00  0.00    -0.054 SA
ATOM     18  C   UNL     1       4.489   3.205   4.040  1.00  0.00     0.270 C 
ATOM     19  C   UNL     1       6.173   4.458   5.112  1.00  0.00     0.152 C 
ATOM     20  N   UNL     1       4.823   4.316   4.815  1.00  0.00    -0.261 N 
ATOM     21  O   UNL     1       3.359   2.794   3.807  1.00  0.00    -0.268 OA
ATOM     22  S   UNL     1       6.931   5.487   6.192  1.00  0.00    -0.051 S 
BRANCH  20  23
ATOM     23  C   UNL     1       3.792   5.224   5.232  1.00  0.00     0.052 A 
ATOM     24  C   UNL     1       2.537   4.752   5.658  1.00  0.00     0.030 A 
ATOM     25  C   UNL     1       3.973   6.614   5.134  1.00  0.00     0.050 A 
ATOM     26  C   UNL     1       1.500   5.635   5.979  1.00  0.00     0.043 A 
ATOM     27  C   UNL     1       2.936   7.496   5.455  1.00  0.00     0.078 A 
ATOM     28  C   UNL     1       1.704   7.004   5.872  1.00  0.00     0.141 A 
ATOM     29  Cl  UNL     1       3.194   9.190   5.299  1.00  0.00    -0.081 Cl
ATOM     30  F   UNL     1       0.692   7.833   6.163  1.00  0.00    -0.205 F 
ENDBRANCH  20  23
ENDBRANCH  14  15
ENDBRANCH   8   9
ENDBRANCH   6   8
ENDBRANCH   3   6
ENDBRANCH   1   2
BRANCH   1  31
ATOM     31  C   UNL     1      -1.442   1.534   2.181  1.00  0.00     0.042 C 
BRANCH  31  32
ATOM     32  C   UNL     1      -2.923   1.872   2.301  1.00  0.00     0.118 C 
BRANCH  32  33
ATOM     33  N   UNL     1      -3.501   1.454   3.573  1.00  0.00    -0.352 N 
ATOM     34  C   UNL     1      -4.125   2.190   4.551  1.00  0.00     0.251 C 
ATOM     35  H   UNL     1      -3.433   0.490   3.761  1.00  0.00     0.163 HD
ATOM     36  O   UNL     1      -4.398   1.665   5.627  1.00  0.00    -0.269 OA
BRANCH  34  37
ATOM     37  C   UNL     1      -4.445   3.617   4.332  1.00  0.00     0.039 A 
ATOM     38  C   UNL     1      -4.209   4.527   5.367  1.00  0.00     0.014 A 
ATOM     39  C   UNL     1      -4.985   4.062   3.123  1.00  0.00     0.014 A 
ATOM     40  C   UNL     1      -4.431   5.890   5.160  1.00  0.00     0.010 A 
ATOM     41  C   UNL     1      -5.138   5.427   2.892  1.00  0.00     0.010 A 
ATOM     42  C   UNL     1      -4.854   6.355   3.904  1.00  0.00    -0.014 A 
BRANCH  42  43
ATOM     43  C   UNL     1      -4.975   7.806   3.617  1.00  0.00     0.031 A 
ATOM     44  C   UNL     1      -6.312   8.407   3.282  1.00  0.00     0.074 A 
ATOM     45  C   UNL     1      -3.865   8.568   3.574  1.00  0.00     0.049 A 
ATOM     46  N   UNL     1      -6.597   9.630   2.909  1.00  0.00    -0.248 NA
ATOM     47  C   UNL     1      -7.478   7.513   3.353  1.00  0.00     0.031 C 
ATOM     48  C   UNL     1      -2.501   8.102   3.841  1.00  0.00     0.029 A 
ATOM     49  N   UNL     1      -3.708   9.898   3.276  1.00  0.00    -0.354 N 
ATOM     50  C   UNL     1      -7.966   9.645   2.679  1.00  0.00     0.074 A 
ATOM     51  C   UNL     1      -8.450   8.302   2.919  1.00  0.00     0.031 C 
ATOM     52  C   UNL     1      -1.651   9.134   3.712  1.00  0.00     0.029 A 
ATOM     53  C   UNL     1      -2.402  10.320   3.315  1.00  0.00     0.049 A 
ATOM     54  H   UNL     1      -4.461  10.493   3.055  1.00  0.00     0.167 HD
ATOM     55  C   UNL     1      -8.754  10.685   2.314  1.00  0.00     0.031 A 
ATOM     56  C   UNL     1      -1.865  11.524   3.048  1.00  0.00     0.031 A 
ATOM     57  C   UNL     1      -8.281  12.024   2.091  1.00  0.00     0.049 A 
ATOM     58  C   UNL     1      -2.760  12.658   2.637  1.00  0.00     0.074 A 
ATOM     59  C   UNL     1      -9.014  13.158   1.784  1.00  0.00     0.029 A 
ATOM     60  N   UNL     1      -6.951  12.411   2.149  1.00  0.00    -0.354 N 
ATOM     61  N   UNL     1      -4.060  12.669   2.481  1.00  0.00    -0.248 NA
ATOM     62  C   UNL     1      -2.108  13.949   2.370  1.00  0.00     0.031 C 
ATOM     63  C   UNL     1      -8.122  14.223   1.615  1.00  0.00     0.029 A 
ATOM     64  C   UNL     1      -6.839  13.760   1.859  1.00  0.00     0.049 A 
ATOM     65  H   UNL     1      -6.198  11.814   2.364  1.00  0.00     0.167 HD
ATOM     66  C   UNL     1      -4.385  13.968   2.115  1.00  0.00     0.074 A 
ATOM     67  C   UNL     1      -3.148  14.721   2.089  1.00  0.00     0.031 C 
ATOM     68  C   UNL     1      -5.601  14.491   1.826  1.00  0.00     0.031 A 
BRANCH  55  69
ATOM     69  C   UNL     1     -10.219  10.409   2.127  1.00  0.00    -0.014 A 
ATOM     70  C   UNL     1     -11.059  10.172   3.226  1.00  0.00     0.009 A 
ATOM     71  C   UNL     1     -10.772  10.421   0.837  1.00  0.00     0.009 A 
ATOM     72  C   UNL     1     -12.419   9.921   3.034  1.00  0.00     0.001 A 
ATOM     73  C   UNL     1     -12.137  10.194   0.650  1.00  0.00     0.001 A 
ATOM     74  C   UNL     1     -12.957   9.936   1.747  1.00  0.00     0.000 A 
ENDBRANCH  55  69
BRANCH  56  75
ATOM     75  C   UNL     1      -0.399  11.727   3.158  1.00  0.00    -0.014 A 
ATOM     76  C   UNL     1       0.136  12.458   4.228  1.00  0.00     0.009 A 
ATOM     77  C   UNL     1       0.468  11.208   2.184  1.00  0.00     0.009 A 
ATOM     78  C   UNL     1       1.510  12.691   4.306  1.00  0.00     0.001 A 
ATOM     79  C   UNL     1       1.844  11.423   2.277  1.00  0.00     0.001 A 
ATOM     80  C   UNL     1       2.362  12.175   3.331  1.00  0.00     0.000 A 
ENDBRANCH  56  75
BRANCH  68  81
ATOM     81  C   UNL     1      -5.649  15.949   1.473  1.00  0.00    -0.014 A 
ATOM     82  C   UNL     1      -5.207  16.405   0.221  1.00  0.00     0.009 A 
ATOM     83  C   UNL     1      -6.168  16.873   2.393  1.00  0.00     0.009 A 
ATOM     84  C   UNL     1      -5.257  17.765  -0.090  1.00  0.00     0.001 A 
ATOM     85  C   UNL     1      -6.239  18.228   2.069  1.00  0.00     0.001 A 
ATOM     86  C   UNL     1      -5.776  18.674   0.832  1.00  0.00     0.000 A 
ENDBRANCH  68  81
ENDBRANCH  42  43
ENDBRANCH  34  37
ENDBRANCH  32  33
ENDBRANCH  31  32
ENDBRANCH   1  31
TORSDOF 14
