REMARK SMILES Cc1cc(/C=C2\C(=O)N(Cc3ccco3)C(=O)[NH+]=C2NCCCNC(=O)c2ccc(-c3c4nc(c(-c5ccccc5)c5ccc([nH]5)c(-c5ccccc5)c5nc(c(-c6ccccc6)c6ccc3[nH]6)C=C5)C=C4)cc2)c(C)n1-c1ccc(Cl)c(C(=O)[O-])c1
REMARK SMILES IDX 22 1 21 2 20 3 5 4 6 5 7 6 19 7 8 8 9 9 18 10 16 11 17 14
REMARK SMILES IDX 4 15 1 16 2 17 3 18 77 19 75 20 76 21 78 22 79 23 87 24
REMARK SMILES IDX 80 25 83 26 81 27 82 28 84 29 85 30 86 31 10 32 11 33 12 34
REMARK SMILES IDX 15 35 13 36 14 37 23 38 24 39 25 40 26 42 27 43 28 44 74 45
REMARK SMILES IDX 29 46 73 47 30 48 31 49 32 50 67 51 33 52 72 53 66 54 68 55
REMARK SMILES IDX 34 56 71 57 65 58 64 59 35 61 57 62 42 63 56 64 43 65 46 66
REMARK SMILES IDX 55 67 69 68 44 69 45 70 54 72 70 73 47 74 36 75 37 76 41 77
REMARK SMILES IDX 38 78 40 79 39 80 58 81 59 82 63 83 60 84 62 85 61 86 48 87
REMARK SMILES IDX 49 88 53 89 50 90 52 91 51 92
REMARK H PARENT 18 12 20 13 24 41 68 60 46 71
REMARK Flexibility Score: inf
ROOT
ATOM      1  C   UNL     1      -3.115  -2.894  -5.817  1.00  0.00     0.059 C 
ENDROOT
BRANCH   1   2
ATOM      2  C   UNL     1      -1.870  -2.421  -6.588  1.00  0.00     0.195 C 
BRANCH   2   3
ATOM      3  N   UNL     1      -2.104  -1.155  -7.229  1.00  0.00    -0.305 N 
ATOM      4  C   UNL     1      -1.005   0.166  -4.544  1.00  0.00     0.032 C 
ATOM      5  C   UNL     1      -0.952   0.668  -5.794  1.00  0.00     0.129 C 
ATOM      6  C   UNL     1      -0.228   1.903  -6.179  1.00  0.00     0.323 C 
ATOM      7  C   UNL     1      -1.788   0.141  -6.912  1.00  0.00     0.236 C 
ATOM      8  O   UNL     1       0.956   2.078  -5.925  1.00  0.00    -0.250 OA
ATOM      9  N   UNL     1      -1.055   2.787  -6.841  1.00  0.00    -0.182 N 
ATOM     10  N   UNL     1      -2.292   0.992  -7.769  1.00  0.00    -0.210 N 
ATOM     11  C   UNL     1      -2.121   2.342  -7.600  1.00  0.00     0.444 C 
ATOM     12  H   UNL     1      -2.799   0.658  -8.544  1.00  0.00     0.270 HD
ATOM     13  H   UNL     1      -2.598  -1.236  -8.077  1.00  0.00     0.256 HD
ATOM     14  O   UNL     1      -2.903   3.132  -8.126  1.00  0.00    -0.212 OA
BRANCH   4  15
ATOM     15  C   UNL     1      -0.421   0.591  -3.294  1.00  0.00    -0.003 A 
ATOM     16  C   UNL     1       0.939  -0.105   0.117  1.00  0.00     0.065 C 
ATOM     17  C   UNL     1       0.458   0.405  -1.199  1.00  0.00     0.020 A 
ATOM     18  C   UNL     1      -0.060  -0.314  -2.260  1.00  0.00     0.031 A 
ATOM     19  N   UNL     1       0.399   1.748  -1.531  1.00  0.00    -0.318 N 
ATOM     20  C   UNL     1      -0.174   1.868  -2.802  1.00  0.00     0.027 A 
ATOM     21  C   UNL     1      -0.324   3.191  -3.464  1.00  0.00     0.065 C 
BRANCH  19  22
ATOM     22  C   UNL     1       0.923   2.834  -0.772  1.00  0.00     0.046 A 
ATOM     23  C   UNL     1       0.126   3.950  -0.515  1.00  0.00     0.028 A 
ATOM     24  C   UNL     1       2.288   2.859  -0.463  1.00  0.00     0.038 A 
ATOM     25  C   UNL     1       0.715   5.135  -0.078  1.00  0.00     0.023 A 
ATOM     26  C   UNL     1       2.889   4.049   0.005  1.00  0.00     0.018 A 
ATOM     27  C   UNL     1       2.094   5.198   0.158  1.00  0.00     0.050 A 
ATOM     28  Cl  UNL     1       2.707   6.754   0.596  1.00  0.00    -0.084 Cl
BRANCH  26  29
ATOM     29  C   UNL     1       4.350   4.062   0.268  1.00  0.00     0.073 C 
ATOM     30  O   UNL     1       5.059   5.021   0.567  1.00  0.00    -0.545 OA
ATOM     31  O   UNL     1       4.906   2.845   0.163  1.00  0.00    -0.545 OA
ENDBRANCH  26  29
ENDBRANCH  19  22
ENDBRANCH   4  15
BRANCH   9  32
ATOM     32  C   UNL     1      -0.843   4.217  -6.710  1.00  0.00     0.285 C 
BRANCH  32  33
ATOM     33  C   UNL     1       0.052   4.763  -7.751  1.00  0.00     0.138 A 
ATOM     34  C   UNL     1      -0.098   5.027  -9.095  1.00  0.00     0.049 A 
ATOM     35  O   UNL     1       1.272   5.194  -7.322  1.00  0.00    -0.466 OA
ATOM     36  C   UNL     1       1.107   5.641  -9.513  1.00  0.00     0.042 A 
ATOM     37  C   UNL     1       1.909   5.718  -8.398  1.00  0.00     0.195 A 
ENDBRANCH  32  33
ENDBRANCH   9  32
ENDBRANCH   2   3
ENDBRANCH   1   2
BRANCH   1  38
ATOM     38  C   UNL     1      -4.464  -2.865  -6.575  1.00  0.00     0.119 C 
BRANCH  38  39
ATOM     39  N   UNL     1      -4.856  -4.122  -7.179  1.00  0.00    -0.352 N 
ATOM     40  C   UNL     1      -6.120  -4.550  -7.554  1.00  0.00     0.251 C 
ATOM     41  H   UNL     1      -4.124  -4.759  -7.347  1.00  0.00     0.163 HD
ATOM     42  O   UNL     1      -6.217  -5.693  -8.001  1.00  0.00    -0.269 OA
BRANCH  40  43
ATOM     43  C   UNL     1      -7.378  -3.740  -7.317  1.00  0.00     0.039 A 
ATOM     44  C   UNL     1      -8.213  -4.173  -6.305  1.00  0.00     0.014 A 
ATOM     45  C   UNL     1      -7.908  -2.736  -8.152  1.00  0.00     0.014 A 
ATOM     46  C   UNL     1      -9.493  -3.575  -6.104  1.00  0.00     0.010 A 
ATOM     47  C   UNL     1      -9.276  -2.199  -7.997  1.00  0.00     0.010 A 
ATOM     48  C   UNL     1     -10.143  -2.609  -6.965  1.00  0.00    -0.014 A 
BRANCH  48  49
ATOM     49  C   UNL     1     -11.794  -2.536  -6.859  1.00  0.00     0.031 A 
ATOM     50  C   UNL     1     -12.141  -3.962  -6.615  1.00  0.00     0.074 A 
ATOM     51  C   UNL     1     -12.954  -1.768  -7.048  1.00  0.00     0.049 A 
ATOM     52  N   UNL     1     -11.774  -4.825  -7.513  1.00  0.00    -0.248 NA
ATOM     53  C   UNL     1     -12.458  -4.529  -5.304  1.00  0.00     0.031 C 
ATOM     54  C   UNL     1     -13.084  -0.389  -7.549  1.00  0.00     0.029 A 
ATOM     55  N   UNL     1     -14.352  -2.060  -6.830  1.00  0.00    -0.354 N 
ATOM     56  C   UNL     1     -11.991  -6.070  -6.987  1.00  0.00     0.074 A 
ATOM     57  C   UNL     1     -12.245  -5.826  -5.570  1.00  0.00     0.031 C 
ATOM     58  C   UNL     1     -14.370   0.074  -7.458  1.00  0.00     0.029 A 
ATOM     59  C   UNL     1     -15.281  -0.956  -6.952  1.00  0.00     0.049 A 
ATOM     60  H   UNL     1     -14.659  -2.968  -6.609  1.00  0.00     0.167 HD
ATOM     61  C   UNL     1     -12.586  -6.957  -7.833  1.00  0.00     0.031 A 
ATOM     62  C   UNL     1     -16.666  -0.881  -6.760  1.00  0.00     0.031 A 
ATOM     63  C   UNL     1     -14.007  -6.991  -7.606  1.00  0.00     0.049 A 
ATOM     64  C   UNL     1     -17.191  -2.223  -7.040  1.00  0.00     0.074 A 
ATOM     65  C   UNL     1     -14.763  -7.029  -6.450  1.00  0.00     0.029 A 
ATOM     66  N   UNL     1     -14.807  -6.446  -8.590  1.00  0.00    -0.354 N 
ATOM     67  N   UNL     1     -17.346  -2.630  -8.264  1.00  0.00    -0.248 NA
ATOM     68  C   UNL     1     -17.740  -3.104  -6.016  1.00  0.00     0.031 C 
ATOM     69  C   UNL     1     -15.728  -6.017  -6.640  1.00  0.00     0.029 A 
ATOM     70  C   UNL     1     -15.803  -5.707  -7.994  1.00  0.00     0.049 A 
ATOM     71  H   UNL     1     -14.684  -6.566  -9.559  1.00  0.00     0.167 HD
ATOM     72  C   UNL     1     -17.432  -3.976  -8.112  1.00  0.00     0.074 A 
ATOM     73  C   UNL     1     -17.979  -4.173  -6.781  1.00  0.00     0.031 C 
ATOM     74  C   UNL     1     -16.498  -4.708  -8.769  1.00  0.00     0.031 A 
BRANCH  61  75
ATOM     75  C   UNL     1     -11.963  -6.986  -9.212  1.00  0.00    -0.014 A 
ATOM     76  C   UNL     1     -11.281  -8.132  -9.629  1.00  0.00     0.009 A 
ATOM     77  C   UNL     1     -11.922  -5.848 -10.049  1.00  0.00     0.009 A 
ATOM     78  C   UNL     1     -10.524  -8.111 -10.808  1.00  0.00     0.001 A 
ATOM     79  C   UNL     1     -11.131  -5.811 -11.194  1.00  0.00     0.001 A 
ATOM     80  C   UNL     1     -10.425  -6.945 -11.571  1.00  0.00     0.000 A 
ENDBRANCH  61  75
BRANCH  62  81
ATOM     81  C   UNL     1     -17.910   0.055  -6.628  1.00  0.00    -0.014 A 
ATOM     82  C   UNL     1     -19.157  -0.328  -7.239  1.00  0.00     0.009 A 
ATOM     83  C   UNL     1     -18.051   0.993  -5.595  1.00  0.00     0.009 A 
ATOM     84  C   UNL     1     -20.429   0.075  -6.778  1.00  0.00     0.001 A 
ATOM     85  C   UNL     1     -19.335   1.436  -5.156  1.00  0.00     0.001 A 
ATOM     86  C   UNL     1     -20.519   0.952  -5.716  1.00  0.00     0.000 A 
ENDBRANCH  62  81
BRANCH  74  87
ATOM     87  C   UNL     1     -16.089  -4.231 -10.158  1.00  0.00    -0.014 A 
ATOM     88  C   UNL     1     -15.735  -2.902 -10.489  1.00  0.00     0.009 A 
ATOM     89  C   UNL     1     -16.133  -5.151 -11.213  1.00  0.00     0.009 A 
ATOM     90  C   UNL     1     -15.511  -2.498 -11.812  1.00  0.00     0.001 A 
ATOM     91  C   UNL     1     -15.857  -4.763 -12.531  1.00  0.00     0.001 A 
ATOM     92  C   UNL     1     -15.568  -3.434 -12.834  1.00  0.00     0.000 A 
ENDBRANCH  74  87
ENDBRANCH  48  49
ENDBRANCH  40  43
ENDBRANCH  38  39
ENDBRANCH   1  38
TORSDOF 14
