REMARK SMILES C[C@]([NH2+]Cc1nc(-c2ccsc2)no1)(C(=O)NCCCNC(=O)c1ccc(-c2c3nc(c(-c4ccccc4)c4ccc([nH]4)c(-c4ccccc4)c4nc(c(-c5ccccc5)c5ccc2[nH]5)C=C4)C=C3)cc1)C(F)(F)F
REMARK SMILES IDX 18 1 17 2 15 3 16 4 2 6 1 7 72 8 73 9 74 10 75 11 3 12 4 15
REMARK SMILES IDX 5 16 6 17 14 18 7 19 13 20 8 21 9 22 12 23 10 24 11 25 19 26
REMARK SMILES IDX 20 27 21 28 22 29 23 31 24 32 25 33 71 34 26 35 70 36 27 37
REMARK SMILES IDX 28 38 29 39 64 40 30 41 69 42 63 43 65 44 31 45 68 46 62 47
REMARK SMILES IDX 61 48 32 50 54 51 39 52 53 53 40 54 43 55 52 56 66 57 41 58
REMARK SMILES IDX 42 59 51 61 67 62 44 63 33 64 34 65 38 66 35 67 37 68 36 69
REMARK SMILES IDX 55 70 56 71 60 72 57 73 59 74 58 75 45 76 46 77 50 78 47 79
REMARK SMILES IDX 49 80 48 81
REMARK H PARENT 17 5 3 13 3 14 21 30 65 49 43 60
REMARK Flexibility Score: inf
ROOT
ATOM      1  C   UNL     1      -0.896  -1.565  -1.865  1.00  0.00     0.118 C 
ENDROOT
BRANCH   1   2
ATOM      2  N   UNL     1      -1.379  -0.217  -1.609  1.00  0.00    -0.350 N 
ATOM      3  C   UNL     1      -0.755   0.972  -1.335  1.00  0.00     0.290 C 
ATOM      4  O   UNL     1      -1.511   1.936  -1.198  1.00  0.00    -0.267 OA
ATOM      5  H   UNL     1      -2.360  -0.143  -1.639  1.00  0.00     0.163 HD
BRANCH   3   6
ATOM      6  C   UNL     1       0.787   1.083  -1.212  1.00  0.00     0.268 C 
ATOM      7  C   UNL     1       1.434   0.763  -2.575  1.00  0.00     0.101 C 
BRANCH   6   8
ATOM      8  C   UNL     1       1.081   2.588  -0.917  1.00  0.00     0.453 C 
ATOM      9  F   UNL     1       0.563   3.015   0.255  1.00  0.00    -0.164 F 
ATOM     10  F   UNL     1       2.428   2.786  -0.834  1.00  0.00    -0.164 F 
ATOM     11  F   UNL     1       0.649   3.405  -1.904  1.00  0.00    -0.164 F 
ENDBRANCH   6   8
BRANCH   6  12
ATOM     12  N   UNL     1       1.211   0.166  -0.105  1.00  0.00    -0.318 N 
ATOM     13  H   UNL     1       0.749  -0.731  -0.255  1.00  0.00     0.347 HD
ATOM     14  H   UNL     1       0.946   0.648   0.754  1.00  0.00     0.347 HD
BRANCH  12  15
ATOM     15  C   UNL     1       2.646  -0.093   0.029  1.00  0.00     0.363 C 
BRANCH  15  16
ATOM     16  C   UNL     1       2.873  -1.040   1.163  1.00  0.00     0.282 A 
ATOM     17  N   UNL     1       2.298  -2.202   1.404  1.00  0.00    -0.186 NA
ATOM     18  O   UNL     1       3.718  -0.632   2.152  1.00  0.00    -0.333 OA
ATOM     19  C   UNL     1       2.777  -2.491   2.658  1.00  0.00     0.203 A 
ATOM     20  N   UNL     1       3.647  -1.601   3.154  1.00  0.00    -0.057 NA
BRANCH  19  21
ATOM     21  C   UNL     1       2.288  -3.655   3.397  1.00  0.00     0.033 A 
ATOM     22  C   UNL     1       1.821  -4.846   2.763  1.00  0.00     0.024 A 
ATOM     23  C   UNL     1       2.205  -3.738   4.772  1.00  0.00     0.077 A 
ATOM     24  C   UNL     1       1.407  -5.791   3.679  1.00  0.00     0.065 A 
ATOM     25  S   UNL     1       1.562  -5.237   5.291  1.00  0.00    -0.152 S 
ENDBRANCH  19  21
ENDBRANCH  15  16
ENDBRANCH  12  15
ENDBRANCH   6  12
ENDBRANCH   3   6
ENDBRANCH   1   2
BRANCH   1  26
ATOM     26  C   UNL     1      -1.249  -2.540  -0.746  1.00  0.00     0.042 C 
BRANCH  26  27
ATOM     27  C   UNL     1      -2.743  -2.776  -0.558  1.00  0.00     0.118 C 
BRANCH  27  28
ATOM     28  N   UNL     1      -3.367  -3.376  -1.727  1.00  0.00    -0.352 N 
ATOM     29  C   UNL     1      -4.013  -4.574  -1.883  1.00  0.00     0.251 C 
ATOM     30  H   UNL     1      -3.317  -2.828  -2.543  1.00  0.00     0.163 HD
ATOM     31  O   UNL     1      -4.291  -4.952  -3.023  1.00  0.00    -0.269 OA
BRANCH  29  32
ATOM     32  C   UNL     1      -4.374  -5.425  -0.727  1.00  0.00     0.039 A 
ATOM     33  C   UNL     1      -4.327  -6.815  -0.883  1.00  0.00     0.014 A 
ATOM     34  C   UNL     1      -4.832  -4.883   0.477  1.00  0.00     0.014 A 
ATOM     35  C   UNL     1      -4.703  -7.652   0.170  1.00  0.00     0.010 A 
ATOM     36  C   UNL     1      -5.130  -5.717   1.554  1.00  0.00     0.010 A 
ATOM     37  C   UNL     1      -5.092  -7.110   1.404  1.00  0.00    -0.014 A 
BRANCH  37  38
ATOM     38  C   UNL     1      -5.507  -7.991   2.525  1.00  0.00     0.031 A 
ATOM     39  C   UNL     1      -6.928  -7.968   3.023  1.00  0.00     0.074 A 
ATOM     40  C   UNL     1      -4.601  -8.791   3.120  1.00  0.00     0.049 A 
ATOM     41  N   UNL     1      -7.475  -8.660   3.991  1.00  0.00    -0.248 NA
ATOM     42  C   UNL     1      -7.849  -7.028   2.364  1.00  0.00     0.031 C 
ATOM     43  C   UNL     1      -3.182  -8.876   2.767  1.00  0.00     0.029 A 
ATOM     44  N   UNL     1      -4.744  -9.689   4.147  1.00  0.00    -0.354 N 
ATOM     45  C   UNL     1      -8.791  -8.222   4.072  1.00  0.00     0.074 A 
ATOM     46  C   UNL     1      -8.949  -7.175   3.086  1.00  0.00     0.031 C 
ATOM     47  C   UNL     1      -2.593  -9.802   3.542  1.00  0.00     0.029 A 
ATOM     48  C   UNL     1      -3.584 -10.355   4.460  1.00  0.00     0.049 A 
ATOM     49  H   UNL     1      -5.596  -9.841   4.615  1.00  0.00     0.167 HD
ATOM     50  C   UNL     1      -9.787  -8.661   4.878  1.00  0.00     0.031 A 
ATOM     51  C   UNL     1      -3.349 -11.314   5.374  1.00  0.00     0.031 A 
ATOM     52  C   UNL     1      -9.645  -9.718   5.842  1.00  0.00     0.049 A 
ATOM     53  C   UNL     1      -4.480 -11.817   6.225  1.00  0.00     0.074 A 
ATOM     54  C   UNL     1     -10.607 -10.268   6.670  1.00  0.00     0.029 A 
ATOM     55  N   UNL     1      -8.462 -10.393   6.099  1.00  0.00    -0.354 N 
ATOM     56  N   UNL     1      -5.733 -11.434   6.245  1.00  0.00    -0.248 NA
ATOM     57  C   UNL     1      -4.165 -12.904   7.164  1.00  0.00     0.031 C 
ATOM     58  C   UNL     1     -10.000 -11.259   7.449  1.00  0.00     0.029 A 
ATOM     59  C   UNL     1      -8.669 -11.352   7.076  1.00  0.00     0.049 A 
ATOM     60  H   UNL     1      -7.602 -10.216   5.654  1.00  0.00     0.167 HD
ATOM     61  C   UNL     1      -6.363 -12.251   7.175  1.00  0.00     0.074 A 
ATOM     62  C   UNL     1      -5.356 -13.159   7.686  1.00  0.00     0.031 C 
ATOM     63  C   UNL     1      -7.659 -12.251   7.568  1.00  0.00     0.031 A 
BRANCH  50  64
ATOM     64  C   UNL     1     -11.124  -7.989   4.744  1.00  0.00    -0.014 A 
ATOM     65  C   UNL     1     -11.937  -8.209   3.620  1.00  0.00     0.009 A 
ATOM     66  C   UNL     1     -11.586  -7.141   5.762  1.00  0.00     0.009 A 
ATOM     67  C   UNL     1     -13.168  -7.561   3.500  1.00  0.00     0.001 A 
ATOM     68  C   UNL     1     -12.830  -6.515   5.651  1.00  0.00     0.001 A 
ATOM     69  C   UNL     1     -13.614  -6.717   4.516  1.00  0.00     0.000 A 
ENDBRANCH  50  64
BRANCH  51  70
ATOM     70  C   UNL     1      -1.991 -11.901   5.499  1.00  0.00    -0.014 A 
ATOM     71  C   UNL     1      -1.731 -13.192   5.014  1.00  0.00     0.009 A 
ATOM     72  C   UNL     1      -0.952 -11.178   6.104  1.00  0.00     0.009 A 
ATOM     73  C   UNL     1      -0.463 -13.759   5.157  1.00  0.00     0.001 A 
ATOM     74  C   UNL     1       0.321 -11.739   6.223  1.00  0.00     0.001 A 
ATOM     75  C   UNL     1       0.562 -13.031   5.758  1.00  0.00     0.000 A 
ENDBRANCH  51  70
BRANCH  63  76
ATOM     76  C   UNL     1      -8.069 -13.293   8.568  1.00  0.00    -0.014 A 
ATOM     77  C   UNL     1      -7.700 -13.193   9.918  1.00  0.00     0.009 A 
ATOM     78  C   UNL     1      -8.854 -14.380   8.153  1.00  0.00     0.009 A 
ATOM     79  C   UNL     1      -8.079 -14.183  10.827  1.00  0.00     0.001 A 
ATOM     80  C   UNL     1      -9.252 -15.355   9.069  1.00  0.00     0.001 A 
ATOM     81  C   UNL     1      -8.855 -15.261  10.402  1.00  0.00     0.000 A 
ENDBRANCH  63  76
ENDBRANCH  37  38
ENDBRANCH  29  32
ENDBRANCH  27  28
ENDBRANCH  26  27
ENDBRANCH   1  26
TORSDOF 15
