REMARK SMILES Cc1ccc2c(c1)C=C(C(=O)NCCCNC(=O)c1ccc(-c3c4nc(c(-c5ccccc5)c5ccc([nH]5)c(-c5ccccc5)c5nc(c(-c6ccccc6)c6ccc3[nH]6)C=C5)C=C4)cc1)[C@@H](C(F)(F)F)O2
REMARK SMILES IDX 14 1 13 2 12 3 10 4 11 5 9 7 1 8 2 9 3 10 7 11 4 12 6 13
REMARK SMILES IDX 5 14 8 15 72 16 67 17 68 18 69 19 70 20 71 21 15 22 16 23
REMARK SMILES IDX 17 24 18 26 19 27 20 28 66 29 21 30 65 31 22 32 23 33 24 34
REMARK SMILES IDX 59 35 25 36 64 37 58 38 60 39 26 40 63 41 57 42 56 43 27 45
REMARK SMILES IDX 49 46 34 47 48 48 35 49 38 50 47 51 61 52 36 53 37 54 46 56
REMARK SMILES IDX 62 57 39 58 28 59 29 60 33 61 30 62 32 63 31 64 50 65 51 66
REMARK SMILES IDX 55 67 52 68 54 69 53 70 40 71 41 72 45 73 42 74 44 75 43 76
REMARK H PARENT 12 6 16 25 60 44 38 55
REMARK Flexibility Score: inf
ROOT
ATOM      1  C   UNL     1      -0.091   9.853   0.578  1.00  0.00     0.042 C 
ENDROOT
BRANCH   1   2
ATOM      2  C   UNL     1       0.723   9.136  -0.486  1.00  0.00     0.118 C 
BRANCH   2   3
ATOM      3  N   UNL     1       1.828   8.387   0.091  1.00  0.00    -0.352 N 
ATOM      4  C   UNL     1       2.137   7.088   0.314  1.00  0.00     0.251 C 
ATOM      5  O   UNL     1       3.229   6.898   0.858  1.00  0.00    -0.270 OA
ATOM      6  H   UNL     1       2.544   8.985   0.405  1.00  0.00     0.163 HD
BRANCH   4   7
ATOM      7  C   UNL     1       1.273   5.926  -0.042  1.00  0.00     0.067 C 
ATOM      8  C   UNL     1       1.213  -0.262   0.053  1.00  0.00     0.044 C 
ATOM      9  C   UNL     1       0.677   1.125  -0.146  1.00  0.00    -0.050 A 
ATOM     10  C   UNL     1      -0.642   1.308  -0.579  1.00  0.00     0.007 A 
ATOM     11  C   UNL     1       1.463   2.247   0.156  1.00  0.00     0.015 A 
ATOM     12  C   UNL     1      -1.162   2.592  -0.731  1.00  0.00     0.047 A 
ATOM     13  C   UNL     1       0.948   3.536  -0.005  1.00  0.00     0.017 A 
ATOM     14  C   UNL     1      -0.363   3.697  -0.455  1.00  0.00     0.128 A 
ATOM     15  C   UNL     1       1.736   4.717   0.326  1.00  0.00     0.025 C 
ATOM     16  O   UNL     1      -0.944   4.924  -0.603  1.00  0.00    -0.475 OA
ATOM     17  C   UNL     1      -0.028   6.037  -0.786  1.00  0.00     0.314 C 
BRANCH  17  18
ATOM     18  C   UNL     1       0.170   6.290  -2.294  1.00  0.00     0.429 C 
ATOM     19  F   UNL     1      -0.969   6.791  -2.839  1.00  0.00    -0.167 F 
ATOM     20  F   UNL     1       1.143   7.199  -2.547  1.00  0.00    -0.167 F 
ATOM     21  F   UNL     1       0.492   5.173  -2.981  1.00  0.00    -0.167 F 
ENDBRANCH  17  18
ENDBRANCH   4   7
ENDBRANCH   2   3
ENDBRANCH   1   2
BRANCH   1  22
ATOM     22  C   UNL     1       0.588  11.125   1.064  1.00  0.00     0.118 C 
BRANCH  22  23
ATOM     23  N   UNL     1       0.683  12.137   0.012  1.00  0.00    -0.352 N 
ATOM     24  C   UNL     1       0.044  13.344  -0.133  1.00  0.00     0.251 C 
ATOM     25  H   UNL     1       1.311  11.917  -0.713  1.00  0.00     0.163 HD
ATOM     26  O   UNL     1       0.093  13.935  -1.209  1.00  0.00    -0.269 OA
BRANCH  24  27
ATOM     27  C   UNL     1      -0.716  13.924   0.992  1.00  0.00     0.039 A 
ATOM     28  C   UNL     1      -0.239  13.806   2.296  1.00  0.00     0.014 A 
ATOM     29  C   UNL     1      -1.915  14.599   0.746  1.00  0.00     0.014 A 
ATOM     30  C   UNL     1      -1.054  14.159   3.359  1.00  0.00     0.010 A 
ATOM     31  C   UNL     1      -2.675  15.077   1.818  1.00  0.00     0.010 A 
ATOM     32  C   UNL     1      -2.276  14.813   3.136  1.00  0.00    -0.014 A 
BRANCH  32  33
ATOM     33  C   UNL     1      -3.089  15.223   4.309  1.00  0.00     0.031 A 
ATOM     34  C   UNL     1      -4.470  14.668   4.528  1.00  0.00     0.074 A 
ATOM     35  C   UNL     1      -2.537  16.048   5.222  1.00  0.00     0.049 A 
ATOM     36  N   UNL     1      -5.287  14.879   5.529  1.00  0.00    -0.248 NA
ATOM     37  C   UNL     1      -5.011  13.766   3.497  1.00  0.00     0.031 C 
ATOM     38  C   UNL     1      -1.199  16.637   5.120  1.00  0.00     0.029 A 
ATOM     39  N   UNL     1      -3.005  16.497   6.430  1.00  0.00    -0.354 N 
ATOM     40  C   UNL     1      -6.439  14.159   5.239  1.00  0.00     0.074 A 
ATOM     41  C   UNL     1      -6.232  13.527   3.956  1.00  0.00     0.031 C 
ATOM     42  C   UNL     1      -0.923  17.299   6.251  1.00  0.00     0.029 A 
ATOM     43  C   UNL     1      -2.093  17.260   7.120  1.00  0.00     0.049 A 
ATOM     44  H   UNL     1      -3.906  16.293   6.770  1.00  0.00     0.167 HD
ATOM     45  C   UNL     1      -7.562  14.030   5.984  1.00  0.00     0.031 A 
ATOM     46  C   UNL     1      -2.184  17.876   8.314  1.00  0.00     0.031 A 
ATOM     47  C   UNL     1      -7.751  14.648   7.271  1.00  0.00     0.049 A 
ATOM     48  C   UNL     1      -3.455  17.746   9.100  1.00  0.00     0.074 A 
ATOM     49  C   UNL     1      -8.846  14.554   8.112  1.00  0.00     0.029 A 
ATOM     50  N   UNL     1      -6.829  15.469   7.902  1.00  0.00    -0.354 N 
ATOM     51  N   UNL     1      -4.528  17.049   8.816  1.00  0.00    -0.248 NA
ATOM     52  C   UNL     1      -3.531  18.483  10.368  1.00  0.00     0.031 C 
ATOM     53  C   UNL     1      -8.616  15.372   9.219  1.00  0.00     0.029 A 
ATOM     54  C   UNL     1      -7.345  15.913   9.108  1.00  0.00     0.049 A 
ATOM     55  H   UNL     1      -5.941  15.700   7.547  1.00  0.00     0.167 HD
ATOM     56  C   UNL     1      -5.405  17.256   9.872  1.00  0.00     0.074 A 
ATOM     57  C   UNL     1      -4.726  18.120  10.816  1.00  0.00     0.031 C 
ATOM     58  C   UNL     1      -6.661  16.777  10.037  1.00  0.00     0.031 A 
BRANCH  45  59
ATOM     59  C   UNL     1      -8.693  13.201   5.436  1.00  0.00    -0.014 A 
ATOM     60  C   UNL     1      -9.904  13.823   5.090  1.00  0.00     0.009 A 
ATOM     61  C   UNL     1      -8.607  11.803   5.368  1.00  0.00     0.009 A 
ATOM     62  C   UNL     1     -11.011  13.063   4.708  1.00  0.00     0.001 A 
ATOM     63  C   UNL     1      -9.707  11.046   4.956  1.00  0.00     0.001 A 
ATOM     64  C   UNL     1     -10.910  11.675   4.639  1.00  0.00     0.000 A 
ENDBRANCH  45  59
BRANCH  46  65
ATOM     65  C   UNL     1      -1.029  18.668   8.815  1.00  0.00    -0.014 A 
ATOM     66  C   UNL     1      -0.612  19.826   8.136  1.00  0.00     0.009 A 
ATOM     67  C   UNL     1      -0.293  18.236   9.928  1.00  0.00     0.009 A 
ATOM     68  C   UNL     1       0.536  20.512   8.536  1.00  0.00     0.001 A 
ATOM     69  C   UNL     1       0.835  18.947  10.348  1.00  0.00     0.001 A 
ATOM     70  C   UNL     1       1.256  20.075   9.645  1.00  0.00     0.000 A 
ENDBRANCH  46  65
BRANCH  58  71
ATOM     71  C   UNL     1      -7.399  17.164  11.289  1.00  0.00    -0.014 A 
ATOM     72  C   UNL     1      -7.707  16.184  12.246  1.00  0.00     0.009 A 
ATOM     73  C   UNL     1      -7.881  18.468  11.471  1.00  0.00     0.009 A 
ATOM     74  C   UNL     1      -8.500  16.497  13.351  1.00  0.00     0.001 A 
ATOM     75  C   UNL     1      -8.645  18.787  12.596  1.00  0.00     0.001 A 
ATOM     76  C   UNL     1      -8.963  17.799  13.527  1.00  0.00     0.000 A 
ENDBRANCH  58  71
ENDBRANCH  32  33
ENDBRANCH  24  27
ENDBRANCH  22  23
ENDBRANCH   1  22
TORSDOF 11
