REMARK SMILES Cc1ccc(CC(=O)NCCCNC(=O)c2ccc(-c3c4nc(c(-c5ccccc5)c5ccc([nH]5)c(-c5ccccc5)c5nc(c(-c6ccccc6)c6ccc3[nH]6)C=C5)C=C4)cc2)n1-c1ccc(F)cc1
REMARK SMILES IDX 11 1 10 2 9 3 7 4 8 5 6 7 5 8 1 9 2 10 3 11 64 12 4 13 65 14
REMARK SMILES IDX 66 15 71 16 67 17 70 18 68 19 69 20 12 21 13 22 14 23 15 25
REMARK SMILES IDX 16 26 17 27 63 28 18 29 62 30 19 31 20 32 21 33 56 34 22 35
REMARK SMILES IDX 61 36 55 37 57 38 23 39 60 40 54 41 53 42 24 44 46 45 31 46
REMARK SMILES IDX 45 47 32 48 35 49 44 50 58 51 33 52 34 53 43 55 59 56 36 57
REMARK SMILES IDX 25 58 26 59 30 60 27 61 29 62 28 63 47 64 48 65 52 66 49 67
REMARK SMILES IDX 51 68 50 69 37 70 38 71 42 72 39 73 41 74 40 75
REMARK H PARENT 9 6 13 24 57 43 35 54
REMARK Flexibility Score: inf
ROOT
ATOM      1  C   UNL     1      -2.204   3.335  -1.855  1.00  0.00     0.042 C 
ENDROOT
BRANCH   1   2
ATOM      2  C   UNL     1      -1.344   4.586  -2.085  1.00  0.00     0.117 C 
BRANCH   2   3
ATOM      3  N   UNL     1      -1.456   5.565  -1.018  1.00  0.00    -0.356 N 
ATOM      4  C   UNL     1      -0.705   5.750   0.106  1.00  0.00     0.225 C 
ATOM      5  O   UNL     1      -1.093   6.586   0.925  1.00  0.00    -0.275 OA
ATOM      6  H   UNL     1      -2.198   6.203  -1.125  1.00  0.00     0.163 HD
BRANCH   4   7
ATOM      7  C   UNL     1       0.602   5.001   0.305  1.00  0.00     0.154 C 
BRANCH   7   8
ATOM      8  C   UNL     1       0.389   3.562   0.678  1.00  0.00     0.032 A 
ATOM      9  C   UNL     1       0.927  -0.044   0.097  1.00  0.00     0.065 C 
ATOM     10  C   UNL     1       0.487   1.314   0.527  1.00  0.00     0.020 A 
ATOM     11  C   UNL     1      -0.439   1.633   1.503  1.00  0.00     0.023 A 
ATOM     12  N   UNL     1       1.041   2.499   0.060  1.00  0.00    -0.318 N 
ATOM     13  C   UNL     1      -0.483   3.036   1.615  1.00  0.00     0.024 A 
BRANCH  12  14
ATOM     14  C   UNL     1       2.069   2.622  -0.912  1.00  0.00     0.046 A 
ATOM     15  C   UNL     1       3.194   3.411  -0.631  1.00  0.00     0.029 A 
ATOM     16  C   UNL     1       1.923   2.008  -2.162  1.00  0.00     0.029 A 
ATOM     17  C   UNL     1       4.166   3.599  -1.613  1.00  0.00     0.041 A 
ATOM     18  C   UNL     1       2.893   2.214  -3.143  1.00  0.00     0.041 A 
ATOM     19  C   UNL     1       4.002   3.007  -2.862  1.00  0.00     0.123 A 
ATOM     20  F   UNL     1       4.922   3.212  -3.813  1.00  0.00    -0.207 F 
ENDBRANCH  12  14
ENDBRANCH   7   8
ENDBRANCH   4   7
ENDBRANCH   2   3
ENDBRANCH   1   2
BRANCH   1  21
ATOM     21  C   UNL     1      -3.663   3.579  -1.443  1.00  0.00     0.118 C 
BRANCH  21  22
ATOM     22  N   UNL     1      -4.573   3.687  -2.564  1.00  0.00    -0.352 N 
ATOM     23  C   UNL     1      -5.945   3.571  -2.554  1.00  0.00     0.251 C 
ATOM     24  H   UNL     1      -4.160   3.864  -3.440  1.00  0.00     0.163 HD
ATOM     25  O   UNL     1      -6.569   3.771  -3.591  1.00  0.00    -0.269 OA
BRANCH  23  26
ATOM     26  C   UNL     1      -6.680   3.141  -1.329  1.00  0.00     0.039 A 
ATOM     27  C   UNL     1      -6.879   1.782  -1.132  1.00  0.00     0.014 A 
ATOM     28  C   UNL     1      -7.391   4.048  -0.526  1.00  0.00     0.014 A 
ATOM     29  C   UNL     1      -7.795   1.344  -0.157  1.00  0.00     0.010 A 
ATOM     30  C   UNL     1      -8.360   3.600   0.423  1.00  0.00     0.010 A 
ATOM     31  C   UNL     1      -8.623   2.233   0.592  1.00  0.00    -0.014 A 
BRANCH  31  32
ATOM     32  C   UNL     1      -9.962   1.660   1.060  1.00  0.00     0.031 A 
ATOM     33  C   UNL     1     -10.536   0.888  -0.079  1.00  0.00     0.074 A 
ATOM     34  C   UNL     1     -10.787   1.708   2.151  1.00  0.00     0.049 A 
ATOM     35  N   UNL     1     -10.778   1.414  -1.244  1.00  0.00    -0.248 NA
ATOM     36  C   UNL     1     -10.615  -0.573  -0.019  1.00  0.00     0.031 C 
ATOM     37  C   UNL     1     -10.599   2.417   3.418  1.00  0.00     0.029 A 
ATOM     38  N   UNL     1     -12.021   1.072   2.364  1.00  0.00    -0.354 N 
ATOM     39  C   UNL     1     -11.297   0.389  -1.997  1.00  0.00     0.074 A 
ATOM     40  C   UNL     1     -10.997  -0.830  -1.269  1.00  0.00     0.031 C 
ATOM     41  C   UNL     1     -11.598   2.104   4.288  1.00  0.00     0.029 A 
ATOM     42  C   UNL     1     -12.555   1.201   3.658  1.00  0.00     0.049 A 
ATOM     43  H   UNL     1     -12.482   0.570   1.654  1.00  0.00     0.167 HD
ATOM     44  C   UNL     1     -12.315   0.620  -2.868  1.00  0.00     0.031 A 
ATOM     45  C   UNL     1     -13.695   0.656   4.182  1.00  0.00     0.031 A 
ATOM     46  C   UNL     1     -13.493  -0.144  -2.562  1.00  0.00     0.049 A 
ATOM     47  C   UNL     1     -14.547   0.104   3.111  1.00  0.00     0.074 A 
ATOM     48  C   UNL     1     -13.784  -1.468  -2.303  1.00  0.00     0.029 A 
ATOM     49  N   UNL     1     -14.546   0.584  -2.047  1.00  0.00    -0.354 N 
ATOM     50  N   UNL     1     -15.337   0.855   2.410  1.00  0.00    -0.248 NA
ATOM     51  C   UNL     1     -14.642  -1.325   2.833  1.00  0.00     0.031 C 
ATOM     52  C   UNL     1     -14.744  -1.449  -1.247  1.00  0.00     0.029 A 
ATOM     53  C   UNL     1     -15.093  -0.127  -0.997  1.00  0.00     0.049 A 
ATOM     54  H   UNL     1     -14.854   1.461  -2.372  1.00  0.00     0.167 HD
ATOM     55  C   UNL     1     -15.650   0.084   1.328  1.00  0.00     0.074 A 
ATOM     56  C   UNL     1     -15.427  -1.282   1.753  1.00  0.00     0.031 C 
ATOM     57  C   UNL     1     -15.637   0.647   0.095  1.00  0.00     0.031 A 
BRANCH  44  58
ATOM     58  C   UNL     1     -12.380   1.971  -3.515  1.00  0.00    -0.014 A 
ATOM     59  C   UNL     1     -12.301   2.063  -4.909  1.00  0.00     0.009 A 
ATOM     60  C   UNL     1     -12.492   3.160  -2.770  1.00  0.00     0.009 A 
ATOM     61  C   UNL     1     -12.281   3.313  -5.536  1.00  0.00     0.001 A 
ATOM     62  C   UNL     1     -12.453   4.407  -3.393  1.00  0.00     0.001 A 
ATOM     63  C   UNL     1     -12.340   4.483  -4.777  1.00  0.00     0.000 A 
ENDBRANCH  44  58
BRANCH  45  64
ATOM     64  C   UNL     1     -14.388   0.562   5.508  1.00  0.00    -0.014 A 
ATOM     65  C   UNL     1     -15.796   0.752   5.543  1.00  0.00     0.009 A 
ATOM     66  C   UNL     1     -13.810  -0.103   6.593  1.00  0.00     0.009 A 
ATOM     67  C   UNL     1     -16.601   0.199   6.544  1.00  0.00     0.001 A 
ATOM     68  C   UNL     1     -14.619  -0.630   7.619  1.00  0.00     0.001 A 
ATOM     69  C   UNL     1     -16.011  -0.512   7.577  1.00  0.00     0.000 A 
ENDBRANCH  45  64
BRANCH  57  70
ATOM     70  C   UNL     1     -15.865   2.155   0.020  1.00  0.00    -0.014 A 
ATOM     71  C   UNL     1     -15.233   3.100   0.860  1.00  0.00     0.009 A 
ATOM     72  C   UNL     1     -16.771   2.654  -0.925  1.00  0.00     0.009 A 
ATOM     73  C   UNL     1     -15.577   4.455   0.843  1.00  0.00     0.001 A 
ATOM     74  C   UNL     1     -17.074   4.022  -0.985  1.00  0.00     0.001 A 
ATOM     75  C   UNL     1     -16.501   4.917  -0.083  1.00  0.00     0.000 A 
ENDBRANCH  57  70
ENDBRANCH  31  32
ENDBRANCH  23  26
ENDBRANCH  21  22
ENDBRANCH   1  21
TORSDOF 12
