REMARK SMILES O=C1C[C@@H](c2cccc(O)c2)c2c(c(C(=O)NCCCNC(=O)c3ccc(-c4c5nc(c(-c6ccccc6)c6ccc([nH]6)c(-c6ccccc6)c6nc(c(-c7ccccc7)c7ccc4[nH]7)C=C6)C=C5)cc3)cn2-c2cccc(C(F)(F)F)c2)N1
REMARK SMILES IDX 19 1 18 2 17 3 15 4 16 5 14 7 1 8 2 9 3 10 84 11 4 12 13 13
REMARK SMILES IDX 12 15 73 16 72 17 5 18 6 19 11 20 7 21 9 22 8 23 10 24 74 26
REMARK SMILES IDX 75 27 83 28 76 29 78 30 77 31 79 32 80 33 81 34 82 35 20 36
REMARK SMILES IDX 21 37 22 38 23 40 24 41 25 42 71 43 26 44 70 45 27 46 28 47
REMARK SMILES IDX 29 48 64 49 30 50 69 51 63 52 65 53 31 54 68 55 62 56 61 57
REMARK SMILES IDX 32 59 54 60 39 61 53 62 40 63 43 64 52 65 66 66 41 67 42 68
REMARK SMILES IDX 51 70 67 71 44 72 33 73 34 74 38 75 35 76 37 77 36 78 55 79
REMARK SMILES IDX 56 80 60 81 57 82 59 83 58 84 45 85 46 86 50 87 47 88 49 89
REMARK SMILES IDX 48 90
REMARK H PARENT 17 6 84 14 10 25 21 39 65 58 43 69
REMARK Flexibility Score: inf
ROOT
ATOM      1  C   UNL     1       6.883  -3.395   4.632  1.00  0.00     0.042 C 
ENDROOT
BRANCH   1   2
ATOM      2  C   UNL     1       7.126  -3.530   3.120  1.00  0.00     0.118 C 
BRANCH   2   3
ATOM      3  N   UNL     1       5.928  -3.917   2.392  1.00  0.00    -0.352 N 
ATOM      4  C   UNL     1       4.938  -3.164   1.808  1.00  0.00     0.254 C 
ATOM      5  O   UNL     1       4.073  -3.764   1.165  1.00  0.00    -0.269 OA
ATOM      6  H   UNL     1       5.805  -4.890   2.301  1.00  0.00     0.163 HD
BRANCH   4   7
ATOM      7  C   UNL     1       4.906  -1.711   1.927  1.00  0.00     0.081 A 
ATOM      8  O   UNL     1       1.459  -0.405  -1.134  1.00  0.00    -0.275 OA
ATOM      9  C   UNL     1       2.413  -0.130  -0.407  1.00  0.00     0.225 C 
ATOM     10  C   UNL     1       2.987   1.281  -0.335  1.00  0.00     0.115 C 
ATOM     11  N   UNL     1       3.086  -1.111   0.279  1.00  0.00    -0.324 N 
ATOM     12  C   UNL     1       3.583   1.661   1.035  1.00  0.00     0.078 C 
ATOM     13  C   UNL     1       4.054  -0.826   1.213  1.00  0.00     0.076 A 
ATOM     14  H   UNL     1       2.867  -2.053   0.096  1.00  0.00     0.170 HD
ATOM     15  C   UNL     1       4.287   0.471   1.613  1.00  0.00     0.055 A 
ATOM     16  N   UNL     1       5.283   0.442   2.561  1.00  0.00    -0.317 N 
ATOM     17  C   UNL     1       5.638  -0.879   2.752  1.00  0.00     0.107 A 
BRANCH  12  18
ATOM     18  C   UNL     1       2.523   2.227   1.964  1.00  0.00    -0.035 A 
ATOM     19  C   UNL     1       1.494   1.431   2.495  1.00  0.00     0.005 A 
ATOM     20  C   UNL     1       2.612   3.568   2.369  1.00  0.00     0.050 A 
ATOM     21  C   UNL     1       0.611   1.951   3.444  1.00  0.00     0.004 A 
ATOM     22  C   UNL     1       1.749   4.064   3.339  1.00  0.00     0.115 A 
ATOM     23  C   UNL     1       0.747   3.267   3.880  1.00  0.00     0.046 A 
BRANCH  22  24
ATOM     24  O   UNL     1       1.957   5.339   3.773  1.00  0.00    -0.508 OA
ATOM     25  H   UNL     1       1.396   5.709   4.426  1.00  0.00     0.293 HD
ENDBRANCH  22  24
ENDBRANCH  12  18
BRANCH  16  26
ATOM     26  C   UNL     1       5.844   1.470   3.350  1.00  0.00     0.046 A 
ATOM     27  C   UNL     1       7.238   1.571   3.440  1.00  0.00     0.026 A 
ATOM     28  C   UNL     1       5.027   2.224   4.193  1.00  0.00     0.039 A 
ATOM     29  C   UNL     1       7.810   2.475   4.333  1.00  0.00     0.003 A 
ATOM     30  C   UNL     1       5.595   3.126   5.104  1.00  0.00     0.058 A 
ATOM     31  C   UNL     1       6.993   3.253   5.155  1.00  0.00     0.013 A 
BRANCH  30  32
ATOM     32  C   UNL     1       4.730   3.928   6.047  1.00  0.00     0.416 C 
ATOM     33  F   UNL     1       5.133   3.805   7.344  1.00  0.00    -0.166 F 
ATOM     34  F   UNL     1       4.755   5.261   5.776  1.00  0.00    -0.166 F 
ATOM     35  F   UNL     1       3.417   3.564   6.040  1.00  0.00    -0.166 F 
ENDBRANCH  30  32
ENDBRANCH  16  26
ENDBRANCH   4   7
ENDBRANCH   2   3
ENDBRANCH   1   2
BRANCH   1  36
ATOM     36  C   UNL     1       7.028  -4.729   5.339  1.00  0.00     0.118 C 
BRANCH  36  37
ATOM     37  N   UNL     1       8.419  -5.231   5.334  1.00  0.00    -0.352 N 
ATOM     38  C   UNL     1       8.925  -6.450   5.760  1.00  0.00     0.251 C 
ATOM     39  H   UNL     1       9.088  -4.605   4.973  1.00  0.00     0.163 HD
ATOM     40  O   UNL     1      10.132  -6.595   5.979  1.00  0.00    -0.269 OA
BRANCH  38  41
ATOM     41  C   UNL     1       8.004  -7.579   5.931  1.00  0.00     0.039 A 
ATOM     42  C   UNL     1       8.081  -8.546   6.938  1.00  0.00     0.014 A 
ATOM     43  C   UNL     1       6.935  -7.578   5.066  1.00  0.00     0.014 A 
ATOM     44  C   UNL     1       7.044  -9.477   7.024  1.00  0.00     0.010 A 
ATOM     45  C   UNL     1       5.778  -8.066   5.558  1.00  0.00     0.010 A 
ATOM     46  C   UNL     1       5.892  -9.230   6.275  1.00  0.00    -0.014 A 
BRANCH  46  47
ATOM     47  C   UNL     1       4.727 -10.086   6.186  1.00  0.00     0.031 A 
ATOM     48  C   UNL     1       3.995 -10.245   7.454  1.00  0.00     0.074 A 
ATOM     49  C   UNL     1       4.177 -10.423   4.994  1.00  0.00     0.049 A 
ATOM     50  N   UNL     1       3.951 -11.293   8.200  1.00  0.00    -0.248 NA
ATOM     51  C   UNL     1       3.366  -9.053   8.043  1.00  0.00     0.031 C 
ATOM     52  C   UNL     1       4.556 -10.013   3.629  1.00  0.00     0.029 A 
ATOM     53  N   UNL     1       3.043 -11.130   4.770  1.00  0.00    -0.354 N 
ATOM     54  C   UNL     1       3.115 -10.963   9.257  1.00  0.00     0.074 A 
ATOM     55  C   UNL     1       2.967  -9.530   9.223  1.00  0.00     0.031 C 
ATOM     56  C   UNL     1       3.540 -10.277   2.774  1.00  0.00     0.029 A 
ATOM     57  C   UNL     1       2.522 -11.025   3.487  1.00  0.00     0.049 A 
ATOM     58  H   UNL     1       2.618 -11.680   5.467  1.00  0.00     0.167 HD
ATOM     59  C   UNL     1       2.396 -11.915   9.912  1.00  0.00     0.031 A 
ATOM     60  C   UNL     1       1.316 -11.488   3.073  1.00  0.00     0.031 A 
ATOM     61  C   UNL     1       2.813 -13.246   9.543  1.00  0.00     0.049 A 
ATOM     62  C   UNL     1       0.887 -12.513   4.061  1.00  0.00     0.074 A 
ATOM     63  C   UNL     1       4.008 -13.937   9.603  1.00  0.00     0.029 A 
ATOM     64  N   UNL     1       2.052 -13.900   8.598  1.00  0.00    -0.354 N 
ATOM     65  N   UNL     1       1.529 -13.635   4.243  1.00  0.00    -0.248 NA
ATOM     66  C   UNL     1       0.081 -12.069   5.190  1.00  0.00     0.031 C 
ATOM     67  C   UNL     1       4.095 -14.619   8.351  1.00  0.00     0.029 A 
ATOM     68  C   UNL     1       2.915 -14.377   7.642  1.00  0.00     0.049 A 
ATOM     69  H   UNL     1       1.073 -14.006   8.607  1.00  0.00     0.167 HD
ATOM     70  C   UNL     1       1.567 -13.808   5.621  1.00  0.00     0.074 A 
ATOM     71  C   UNL     1       0.584 -12.857   6.147  1.00  0.00     0.031 C 
ATOM     72  C   UNL     1       2.595 -14.472   6.232  1.00  0.00     0.031 A 
BRANCH  59  73
ATOM     73  C   UNL     1       1.063 -11.654  10.557  1.00  0.00    -0.014 A 
ATOM     74  C   UNL     1       0.480 -12.672  11.329  1.00  0.00     0.009 A 
ATOM     75  C   UNL     1       0.243 -10.560  10.221  1.00  0.00     0.009 A 
ATOM     76  C   UNL     1      -0.871 -12.625  11.690  1.00  0.00     0.001 A 
ATOM     77  C   UNL     1      -1.094 -10.489  10.615  1.00  0.00     0.001 A 
ATOM     78  C   UNL     1      -1.659 -11.537  11.326  1.00  0.00     0.000 A 
ENDBRANCH  59  73
BRANCH  60  79
ATOM     79  C   UNL     1       0.390 -10.849   2.109  1.00  0.00    -0.014 A 
ATOM     80  C   UNL     1      -0.670 -11.560   1.525  1.00  0.00     0.009 A 
ATOM     81  C   UNL     1       0.392  -9.448   1.956  1.00  0.00     0.009 A 
ATOM     82  C   UNL     1      -1.699 -10.892   0.842  1.00  0.00     0.001 A 
ATOM     83  C   UNL     1      -0.633  -8.781   1.277  1.00  0.00     0.001 A 
ATOM     84  C   UNL     1      -1.687  -9.502   0.730  1.00  0.00     0.000 A 
ENDBRANCH  60  79
BRANCH  72  85
ATOM     85  C   UNL     1       3.630 -15.145   5.355  1.00  0.00    -0.014 A 
ATOM     86  C   UNL     1       4.458 -14.437   4.463  1.00  0.00     0.009 A 
ATOM     87  C   UNL     1       3.900 -16.504   5.561  1.00  0.00     0.009 A 
ATOM     88  C   UNL     1       5.504 -15.075   3.783  1.00  0.00     0.001 A 
ATOM     89  C   UNL     1       4.954 -17.138   4.896  1.00  0.00     0.001 A 
ATOM     90  C   UNL     1       5.753 -16.426   4.004  1.00  0.00     0.000 A 
ENDBRANCH  72  85
ENDBRANCH  46  47
ENDBRANCH  38  41
ENDBRANCH  36  37
ENDBRANCH   1  36
TORSDOF 14
