REMARK SMILES O=C(NCCCNC(=O)c1cc(S(=O)(=O)Nc2ccc(F)c(C(F)(F)F)c2)c[nH]1)c1ccc(-c2c3nc(c(-c4ccccc4)c4ccc([nH]4)c(-c4ccccc4)c4nc(c(-c5ccccc5)c5ccc2[nH]5)C=C4)C=C3)cc1
REMARK SMILES IDX 6 1 5 2 4 3 3 4 1 5 2 6 30 8 31 9 77 10 32 11 76 12 33 13
REMARK SMILES IDX 34 14 35 15 70 16 36 17 75 18 69 19 71 20 37 21 74 22 68 23
REMARK SMILES IDX 67 24 38 26 60 27 45 28 59 29 46 30 49 31 58 32 72 33 47 34
REMARK SMILES IDX 48 35 57 37 73 38 50 39 39 40 40 41 44 42 41 43 43 44 42 45
REMARK SMILES IDX 61 46 62 47 66 48 63 49 65 50 64 51 51 52 52 53 56 54 53 55
REMARK SMILES IDX 55 56 54 57 7 58 8 59 9 61 10 62 11 63 29 64 12 65 28 66
REMARK SMILES IDX 13 68 14 69 15 70 16 71 17 73 18 74 27 75 19 76 22 77 20 78
REMARK SMILES IDX 21 79 23 80 24 81 25 82 26 83
REMARK H PARENT 3 7 71 25 49 36 7 60 29 67 16 72
REMARK Flexibility Score: inf
ROOT
ATOM      1  C   UNL     1       4.435   3.355   0.448  1.00  0.00     0.118 C 
ENDROOT
BRANCH   1   2
ATOM      2  C   UNL     1       4.926   2.002  -0.041  1.00  0.00     0.042 C 
BRANCH   2   3
ATOM      3  C   UNL     1       4.539   0.845   0.873  1.00  0.00     0.118 C 
BRANCH   3   4
ATOM      4  N   UNL     1       3.115   0.566   0.945  1.00  0.00    -0.352 N 
ATOM      5  O   UNL     1       1.078  -0.212   0.528  1.00  0.00    -0.269 OA
ATOM      6  C   UNL     1       2.202   0.021   0.081  1.00  0.00     0.251 C 
ATOM      7  H   UNL     1       2.718   0.827   1.807  1.00  0.00     0.163 HD
BRANCH   6   8
ATOM      8  C   UNL     1       2.460  -0.232  -1.363  1.00  0.00     0.039 A 
ATOM      9  C   UNL     1       3.724  -0.414  -1.922  1.00  0.00     0.014 A 
ATOM     10  C   UNL     1       1.334  -0.289  -2.207  1.00  0.00     0.014 A 
ATOM     11  C   UNL     1       3.874  -0.538  -3.298  1.00  0.00     0.010 A 
ATOM     12  C   UNL     1       1.471  -0.457  -3.586  1.00  0.00     0.010 A 
ATOM     13  C   UNL     1       2.750  -0.565  -4.132  1.00  0.00    -0.014 A 
BRANCH  13  14
ATOM     14  C   UNL     1       2.987  -0.898  -5.553  1.00  0.00     0.031 A 
ATOM     15  C   UNL     1       3.265  -2.399  -5.739  1.00  0.00     0.074 A 
ATOM     16  C   UNL     1       3.069   0.149  -6.428  1.00  0.00     0.049 A 
ATOM     17  N   UNL     1       4.027  -3.004  -6.597  1.00  0.00    -0.248 NA
ATOM     18  C   UNL     1       2.664  -3.366  -4.778  1.00  0.00     0.031 C 
ATOM     19  C   UNL     1       2.709   1.549  -6.104  1.00  0.00     0.029 A 
ATOM     20  N   UNL     1       3.482   0.272  -7.739  1.00  0.00    -0.354 N 
ATOM     21  C   UNL     1       3.903  -4.395  -6.380  1.00  0.00     0.074 A 
ATOM     22  C   UNL     1       3.109  -4.553  -5.199  1.00  0.00     0.031 C 
ATOM     23  C   UNL     1       2.993   2.372  -7.138  1.00  0.00     0.029 A 
ATOM     24  C   UNL     1       3.572   1.604  -8.222  1.00  0.00     0.049 A 
ATOM     25  H   UNL     1       3.699  -0.508  -8.299  1.00  0.00     0.167 HD
ATOM     26  C   UNL     1       4.390  -5.339  -7.238  1.00  0.00     0.031 A 
ATOM     27  C   UNL     1       4.128   2.066  -9.385  1.00  0.00     0.031 A 
ATOM     28  C   UNL     1       5.138  -4.728  -8.281  1.00  0.00     0.049 A 
ATOM     29  C   UNL     1       4.562   0.876 -10.128  1.00  0.00     0.074 A 
ATOM     30  C   UNL     1       6.378  -4.147  -8.319  1.00  0.00     0.029 A 
ATOM     31  N   UNL     1       4.445  -4.373  -9.410  1.00  0.00    -0.354 N 
ATOM     32  N   UNL     1       3.771   0.064 -10.756  1.00  0.00    -0.248 NA
ATOM     33  C   UNL     1       5.989   0.528 -10.141  1.00  0.00     0.031 C 
ATOM     34  C   UNL     1       6.210  -3.071  -9.218  1.00  0.00     0.029 A 
ATOM     35  C   UNL     1       4.946  -3.159  -9.810  1.00  0.00     0.049 A 
ATOM     36  H   UNL     1       3.729  -4.888  -9.848  1.00  0.00     0.167 HD
ATOM     37  C   UNL     1       4.547  -1.060 -10.880  1.00  0.00     0.074 A 
ATOM     38  C   UNL     1       5.923  -0.622 -10.807  1.00  0.00     0.031 C 
ATOM     39  C   UNL     1       4.048  -2.262 -10.496  1.00  0.00     0.031 A 
BRANCH  26  40
ATOM     40  C   UNL     1       4.109  -6.810  -7.362  1.00  0.00    -0.014 A 
ATOM     41  C   UNL     1       4.980  -7.582  -8.171  1.00  0.00     0.009 A 
ATOM     42  C   UNL     1       2.895  -7.398  -6.993  1.00  0.00     0.009 A 
ATOM     43  C   UNL     1       4.613  -8.832  -8.673  1.00  0.00     0.001 A 
ATOM     44  C   UNL     1       2.540  -8.670  -7.470  1.00  0.00     0.001 A 
ATOM     45  C   UNL     1       3.381  -9.370  -8.334  1.00  0.00     0.000 A 
ENDBRANCH  26  40
BRANCH  27  46
ATOM     46  C   UNL     1       4.482   3.386 -10.026  1.00  0.00    -0.014 A 
ATOM     47  C   UNL     1       4.140   4.654  -9.552  1.00  0.00     0.009 A 
ATOM     48  C   UNL     1       5.287   3.375 -11.203  1.00  0.00     0.009 A 
ATOM     49  C   UNL     1       4.647   5.823 -10.164  1.00  0.00     0.001 A 
ATOM     50  C   UNL     1       5.827   4.523 -11.787  1.00  0.00     0.001 A 
ATOM     51  C   UNL     1       5.515   5.757 -11.254  1.00  0.00     0.000 A 
ENDBRANCH  27  46
BRANCH  39  52
ATOM     52  C   UNL     1       2.527  -2.324 -10.423  1.00  0.00    -0.014 A 
ATOM     53  C   UNL     1       1.755  -2.085 -11.570  1.00  0.00     0.009 A 
ATOM     54  C   UNL     1       1.834  -2.483  -9.209  1.00  0.00     0.009 A 
ATOM     55  C   UNL     1       0.358  -1.987 -11.501  1.00  0.00     0.001 A 
ATOM     56  C   UNL     1       0.437  -2.391  -9.135  1.00  0.00     0.001 A 
ATOM     57  C   UNL     1      -0.301  -2.138 -10.284  1.00  0.00     0.000 A 
ENDBRANCH  39  52
ENDBRANCH  13  14
ENDBRANCH   6   8
ENDBRANCH   3   4
ENDBRANCH   2   3
ENDBRANCH   1   2
BRANCH   1  58
ATOM     58  N   UNL     1       5.178   3.813   1.613  1.00  0.00    -0.351 N 
ATOM     59  C   UNL     1       6.166   4.759   1.727  1.00  0.00     0.267 C 
ATOM     60  H   UNL     1       4.931   3.372   2.457  1.00  0.00     0.163 HD
ATOM     61  O   UNL     1       6.868   4.738   2.737  1.00  0.00    -0.268 OA
BRANCH  59  62
ATOM     62  C   UNL     1       6.335   5.763   0.704  1.00  0.00     0.105 A 
ATOM     63  C   UNL     1       5.432   6.292  -0.196  1.00  0.00     0.055 A 
ATOM     64  N   UNL     1       7.495   6.497   0.545  1.00  0.00    -0.356 N 
ATOM     65  C   UNL     1       6.022   7.378  -0.874  1.00  0.00     0.106 A 
ATOM     66  C   UNL     1       7.324   7.458  -0.424  1.00  0.00     0.105 A 
ATOM     67  H   UNL     1       8.325   6.353   1.054  1.00  0.00     0.166 HD
BRANCH  65  68
ATOM     68  S   UNL     1       5.202   8.445  -1.965  1.00  0.00     0.263 S 
ATOM     69  O   UNL     1       5.195   9.716  -1.281  1.00  0.00    -0.201 OA
ATOM     70  O   UNL     1       5.893   8.265  -3.225  1.00  0.00    -0.201 OA
BRANCH  68  71
ATOM     71  N   UNL     1       3.601   7.971  -2.221  1.00  0.00    -0.280 N 
ATOM     72  H   UNL     1       3.263   7.941  -3.145  1.00  0.00     0.180 HD
BRANCH  71  73
ATOM     73  C   UNL     1       2.715   7.612  -1.163  1.00  0.00     0.050 A 
ATOM     74  C   UNL     1       2.817   8.086   0.145  1.00  0.00     0.030 A 
ATOM     75  C   UNL     1       1.740   6.656  -1.474  1.00  0.00     0.043 A 
ATOM     76  C   UNL     1       2.058   7.491   1.157  1.00  0.00     0.042 A 
ATOM     77  C   UNL     1       0.959   6.064  -0.464  1.00  0.00     0.093 A 
ATOM     78  C   UNL     1       1.152   6.478   0.850  1.00  0.00     0.135 A 
ATOM     79  F   UNL     1       0.482   5.898   1.852  1.00  0.00    -0.206 F 
BRANCH  77  80
ATOM     80  C   UNL     1      -0.042   5.002  -0.810  1.00  0.00     0.419 C 
ATOM     81  F   UNL     1      -1.083   5.501  -1.532  1.00  0.00    -0.166 F 
ATOM     82  F   UNL     1       0.508   4.025  -1.588  1.00  0.00    -0.166 F 
ATOM     83  F   UNL     1      -0.593   4.358   0.251  1.00  0.00    -0.166 F 
ENDBRANCH  77  80
ENDBRANCH  71  73
ENDBRANCH  68  71
ENDBRANCH  65  68
ENDBRANCH  59  62
ENDBRANCH   1  58
TORSDOF 14
