REMARK SMILES C[C@@H]1CCC/C(=C\Nc2ccc(C(=O)NCCCNC(=O)c3ccc(-c4c5nc(c(-c6ccccc6)c6ccc([nH]6)c(-c6ccccc6)c6nc(c(-c7ccccc7)c7ccc4[nH]7)C=C6)C=C5)cc3)c(O)c2)C1=O
REMARK SMILES IDX 17 1 16 2 15 3 13 4 14 5 12 7 9 8 10 9 72 10 11 11 70 12
REMARK SMILES IDX 8 13 7 15 1 16 2 17 3 18 73 19 4 20 6 21 74 22 5 23 71 24
REMARK SMILES IDX 18 26 19 27 20 28 21 30 22 31 23 32 69 33 24 34 68 35 25 36
REMARK SMILES IDX 26 37 27 38 62 39 28 40 67 41 61 42 63 43 29 44 66 45 60 46
REMARK SMILES IDX 59 47 30 49 52 50 37 51 51 52 38 53 41 54 50 55 64 56 39 57
REMARK SMILES IDX 40 58 49 60 65 61 42 62 31 63 32 64 36 65 33 66 35 67 34 68
REMARK SMILES IDX 53 69 54 70 58 71 55 72 57 73 56 74 43 75 44 76 48 77 45 78
REMARK SMILES IDX 47 79 46 80
REMARK H PARENT 15 6 8 14 71 25 19 29 63 48 41 59
REMARK Flexibility Score: inf
ROOT
ATOM      1  C   UNL     1      -3.698   8.124  -5.422  1.00  0.00     0.042 C 
ENDROOT
BRANCH   1   2
ATOM      2  C   UNL     1      -2.494   7.225  -5.643  1.00  0.00     0.118 C 
BRANCH   2   3
ATOM      3  N   UNL     1      -1.233   7.778  -5.159  1.00  0.00    -0.352 N 
ATOM      4  C   UNL     1      -0.205   7.174  -4.474  1.00  0.00     0.255 C 
ATOM      5  O   UNL     1       0.758   7.848  -4.120  1.00  0.00    -0.269 OA
ATOM      6  H   UNL     1      -1.098   8.734  -5.354  1.00  0.00     0.163 HD
BRANCH   4   7
ATOM      7  C   UNL     1      -0.266   5.739  -4.124  1.00  0.00     0.081 A 
ATOM      8  C   UNL     1      -0.635   3.096  -3.218  1.00  0.00     0.042 A 
ATOM      9  C   UNL     1      -0.097   4.070  -2.370  1.00  0.00     0.027 A 
ATOM     10  C   UNL     1      -0.900   3.448  -4.548  1.00  0.00     0.073 A 
ATOM     11  C   UNL     1       0.083   5.385  -2.816  1.00  0.00     0.020 A 
ATOM     12  C   UNL     1      -0.669   4.740  -5.010  1.00  0.00     0.130 A 
BRANCH   8  13
ATOM     13  N   UNL     1      -0.943   1.790  -2.813  1.00  0.00    -0.361 N 
ATOM     14  H   UNL     1      -1.219   1.177  -3.533  1.00  0.00     0.166 HD
BRANCH  13  15
ATOM     15  C   UNL     1      -0.915   1.247  -1.558  1.00  0.00     0.090 C 
ATOM     16  C   UNL     1       1.787  -0.315   0.362  1.00  0.00     0.016 C 
ATOM     17  C   UNL     1       0.569  -1.236   0.427  1.00  0.00     0.058 C 
ATOM     18  C   UNL     1       0.651  -2.403  -0.571  1.00  0.00     0.012 C 
ATOM     19  C   UNL     1      -0.679  -0.408   0.174  1.00  0.00     0.163 C 
ATOM     20  C   UNL     1       0.411  -1.992  -2.028  1.00  0.00     0.006 C 
ATOM     21  C   UNL     1      -0.917  -0.057  -1.253  1.00  0.00     0.011 C 
ATOM     22  O   UNL     1      -1.397   0.018   1.072  1.00  0.00    -0.294 OA
ATOM     23  C   UNL     1      -0.899  -1.222  -2.189  1.00  0.00     0.041 C 
ENDBRANCH  13  15
ENDBRANCH   8  13
BRANCH  12  24
ATOM     24  O   UNL     1      -0.856   4.934  -6.350  1.00  0.00    -0.507 OA
ATOM     25  H   UNL     1      -0.718   5.782  -6.725  1.00  0.00     0.293 HD
ENDBRANCH  12  24
ENDBRANCH   4   7
ENDBRANCH   2   3
ENDBRANCH   1   2
BRANCH   1  26
ATOM     26  C   UNL     1      -3.592   9.505  -6.051  1.00  0.00     0.118 C 
BRANCH  26  27
ATOM     27  N   UNL     1      -3.495   9.487  -7.506  1.00  0.00    -0.352 N 
ATOM     28  C   UNL     1      -4.405   9.804  -8.487  1.00  0.00     0.251 C 
ATOM     29  H   UNL     1      -2.619   9.195  -7.848  1.00  0.00     0.163 HD
ATOM     30  O   UNL     1      -4.118   9.593  -9.664  1.00  0.00    -0.269 OA
BRANCH  28  31
ATOM     31  C   UNL     1      -5.738  10.350  -8.149  1.00  0.00     0.039 A 
ATOM     32  C   UNL     1      -6.852   9.919  -8.877  1.00  0.00     0.014 A 
ATOM     33  C   UNL     1      -5.906  11.286  -7.130  1.00  0.00     0.014 A 
ATOM     34  C   UNL     1      -8.133  10.346  -8.512  1.00  0.00     0.010 A 
ATOM     35  C   UNL     1      -7.184  11.610  -6.688  1.00  0.00     0.010 A 
ATOM     36  C   UNL     1      -8.315  11.150  -7.376  1.00  0.00    -0.014 A 
BRANCH  36  37
ATOM     37  C   UNL     1      -9.668  11.537  -6.893  1.00  0.00     0.031 A 
ATOM     38  C   UNL     1     -10.037  12.993  -6.767  1.00  0.00     0.074 A 
ATOM     39  C   UNL     1     -10.537  10.587  -6.491  1.00  0.00     0.049 A 
ATOM     40  N   UNL     1     -11.119  13.531  -6.265  1.00  0.00    -0.248 NA
ATOM     41  C   UNL     1      -9.043  13.974  -7.236  1.00  0.00     0.031 C 
ATOM     42  C   UNL     1     -10.293   9.143  -6.513  1.00  0.00     0.029 A 
ATOM     43  N   UNL     1     -11.804  10.698  -5.973  1.00  0.00    -0.354 N 
ATOM     44  C   UNL     1     -10.925  14.906  -6.338  1.00  0.00     0.074 A 
ATOM     45  C   UNL     1      -9.597  15.119  -6.869  1.00  0.00     0.031 C 
ATOM     46  C   UNL     1     -11.384   8.504  -6.063  1.00  0.00     0.029 A 
ATOM     47  C   UNL     1     -12.386   9.489  -5.673  1.00  0.00     0.049 A 
ATOM     48  H   UNL     1     -12.253  11.562  -5.830  1.00  0.00     0.167 HD
ATOM     49  C   UNL     1     -11.782  15.905  -6.022  1.00  0.00     0.031 A 
ATOM     50  C   UNL     1     -13.588   9.206  -5.136  1.00  0.00     0.031 A 
ATOM     51  C   UNL     1     -13.111  15.699  -5.513  1.00  0.00     0.049 A 
ATOM     52  C   UNL     1     -14.517  10.334  -4.780  1.00  0.00     0.074 A 
ATOM     53  C   UNL     1     -14.073  16.645  -5.204  1.00  0.00     0.029 A 
ATOM     54  N   UNL     1     -13.666  14.458  -5.245  1.00  0.00    -0.354 N 
ATOM     55  N   UNL     1     -14.338  11.626  -4.912  1.00  0.00    -0.248 NA
ATOM     56  C   UNL     1     -15.820   9.962  -4.211  1.00  0.00     0.031 C 
ATOM     57  C   UNL     1     -15.197  15.977  -4.707  1.00  0.00     0.029 A 
ATOM     58  C   UNL     1     -14.954  14.614  -4.760  1.00  0.00     0.049 A 
ATOM     59  H   UNL     1     -13.213  13.594  -5.379  1.00  0.00     0.167 HD
ATOM     60  C   UNL     1     -15.515  12.218  -4.473  1.00  0.00     0.074 A 
ATOM     61  C   UNL     1     -16.407  11.144  -4.089  1.00  0.00     0.031 C 
ATOM     62  C   UNL     1     -15.830  13.533  -4.393  1.00  0.00     0.031 A 
BRANCH  49  63
ATOM     63  C   UNL     1     -11.306  17.316  -6.232  1.00  0.00    -0.014 A 
ATOM     64  C   UNL     1     -11.107  17.828  -7.526  1.00  0.00     0.009 A 
ATOM     65  C   UNL     1     -11.080  18.155  -5.130  1.00  0.00     0.009 A 
ATOM     66  C   UNL     1     -10.654  19.136  -7.709  1.00  0.00     0.001 A 
ATOM     67  C   UNL     1     -10.658  19.473  -5.317  1.00  0.00     0.001 A 
ATOM     68  C   UNL     1     -10.435  19.958  -6.605  1.00  0.00     0.000 A 
ENDBRANCH  49  63
BRANCH  50  69
ATOM     69  C   UNL     1     -13.995   7.794  -4.906  1.00  0.00    -0.014 A 
ATOM     70  C   UNL     1     -15.027   7.217  -5.663  1.00  0.00     0.009 A 
ATOM     71  C   UNL     1     -13.375   7.023  -3.910  1.00  0.00     0.009 A 
ATOM     72  C   UNL     1     -15.454   5.913  -5.403  1.00  0.00     0.001 A 
ATOM     73  C   UNL     1     -13.783   5.708  -3.674  1.00  0.00     0.001 A 
ATOM     74  C   UNL     1     -14.831   5.159  -4.411  1.00  0.00     0.000 A 
ENDBRANCH  50  69
BRANCH  62  75
ATOM     75  C   UNL     1     -17.212  13.882  -3.915  1.00  0.00    -0.014 A 
ATOM     76  C   UNL     1     -17.583  13.722  -2.571  1.00  0.00     0.009 A 
ATOM     77  C   UNL     1     -18.142  14.416  -4.821  1.00  0.00     0.009 A 
ATOM     78  C   UNL     1     -18.871  14.058  -2.152  1.00  0.00     0.001 A 
ATOM     79  C   UNL     1     -19.419  14.780  -4.391  1.00  0.00     0.001 A 
ATOM     80  C   UNL     1     -19.785  14.592  -3.060  1.00  0.00     0.000 A 
ENDBRANCH  62  75
ENDBRANCH  36  37
ENDBRANCH  28  31
ENDBRANCH  26  27
ENDBRANCH   1  26
TORSDOF 13
