REMARK SMILES COc1cccc([C@H]2CC(c3ccc(S(C)(=O)=O)cc3)=NN2c2ccc(C(=O)NCCCNC(=O)c3ccc(-c4c5nc(c(-c6ccccc6)c6ccc([nH]6)c(-c6ccccc6)c6nc(c(-c7ccccc7)c7ccc4[nH]7)C=C6)C=C5)cc3)cc2)c1
REMARK SMILES IDX 30 1 29 2 27 3 28 4 26 6 23 7 24 8 85 9 25 10 84 11 22 12
REMARK SMILES IDX 8 13 9 14 10 15 21 16 7 17 3 18 4 19 86 20 5 21 6 22 2 23
REMARK SMILES IDX 1 24 11 25 12 26 20 27 13 28 19 29 14 30 15 31 16 32 17 33
REMARK SMILES IDX 18 34 31 35 32 36 33 37 34 38 35 40 36 41 37 42 83 43 38 44
REMARK SMILES IDX 82 45 39 46 40 47 41 48 76 49 42 50 81 51 75 52 77 53 43 54
REMARK SMILES IDX 80 55 74 56 73 57 44 59 66 60 51 61 65 62 52 63 55 64 64 65
REMARK SMILES IDX 78 66 53 67 54 68 63 70 79 71 56 72 45 73 46 74 50 75 47 76
REMARK SMILES IDX 49 77 48 78 67 79 68 80 72 81 69 82 71 83 70 84 57 85 58 86
REMARK SMILES IDX 62 87 59 88 61 89 60 90
REMARK H PARENT 29 5 33 39 77 58 55 69
REMARK Flexibility Score: inf
ROOT
ATOM      1  C   UNL     1       4.100   9.435  -0.099  1.00  0.00     0.118 C 
ENDROOT
BRANCH   1   2
ATOM      2  N   UNL     1       4.338   8.802  -1.382  1.00  0.00    -0.352 N 
ATOM      3  C   UNL     1       4.654   7.516  -1.738  1.00  0.00     0.251 C 
ATOM      4  O   UNL     1       4.765   7.279  -2.941  1.00  0.00    -0.269 OA
ATOM      5  H   UNL     1       4.255   9.415  -2.147  1.00  0.00     0.163 HD
BRANCH   3   6
ATOM      6  C   UNL     1       4.817   6.405  -0.759  1.00  0.00     0.039 A 
ATOM      7  C   UNL     1       5.017   4.170   0.966  1.00  0.00     0.060 A 
ATOM      8  C   UNL     1       4.671   4.008  -0.379  1.00  0.00     0.029 A 
ATOM      9  C   UNL     1       5.314   5.456   1.422  1.00  0.00     0.029 A 
ATOM     10  C   UNL     1       4.551   5.111  -1.227  1.00  0.00     0.016 A 
ATOM     11  C   UNL     1       5.253   6.557   0.559  1.00  0.00     0.016 A 
BRANCH   7  12
ATOM     12  N   UNL     1       5.061   3.075   1.810  1.00  0.00    -0.257 N 
ATOM     13  C   UNL     1       4.215   2.899   2.988  1.00  0.00     0.144 C 
ATOM     14  C   UNL     1       4.696   1.551   3.545  1.00  0.00     0.091 C 
ATOM     15  C   UNL     1       5.799   1.244   2.571  1.00  0.00     0.071 C 
ATOM     16  N   UNL     1       5.974   2.097   1.612  1.00  0.00    -0.176 NA
BRANCH  13  17
ATOM     17  C   UNL     1       2.739   2.906   2.620  1.00  0.00    -0.019 A 
ATOM     18  C   UNL     1       0.873   2.052   1.298  1.00  0.00     0.119 A 
ATOM     19  C   UNL     1       0.043   3.020   1.863  1.00  0.00     0.046 A 
ATOM     20  C   UNL     1       2.217   2.002   1.672  1.00  0.00     0.052 A 
ATOM     21  C   UNL     1       0.539   3.918   2.806  1.00  0.00     0.004 A 
ATOM     22  C   UNL     1       1.881   3.861   3.185  1.00  0.00     0.006 A 
BRANCH  18  23
ATOM     23  O   UNL     1       0.266   1.239   0.380  1.00  0.00    -0.497 OA
ATOM     24  C   UNL     1       0.972   0.061   0.008  1.00  0.00     0.278 C 
ENDBRANCH  18  23
ENDBRANCH  13  17
BRANCH  15  25
ATOM     25  C   UNL     1       6.654   0.068   2.736  1.00  0.00    -0.002 A 
ATOM     26  C   UNL     1       8.034   0.264   2.860  1.00  0.00     0.011 A 
ATOM     27  C   UNL     1       6.105  -1.216   2.734  1.00  0.00     0.011 A 
ATOM     28  C   UNL     1       8.878  -0.836   2.997  1.00  0.00     0.021 A 
ATOM     29  C   UNL     1       6.952  -2.321   2.844  1.00  0.00     0.021 A 
ATOM     30  C   UNL     1       8.333  -2.124   2.971  1.00  0.00     0.067 A 
BRANCH  30  31
ATOM     31  S   UNL     1       9.422  -3.522   3.115  1.00  0.00     0.175 S 
ATOM     32  C   UNL     1      10.480  -3.396   1.697  1.00  0.00     0.163 C 
ATOM     33  O   UNL     1      10.219  -3.307   4.306  1.00  0.00    -0.224 OA
ATOM     34  O   UNL     1       8.618  -4.720   2.958  1.00  0.00    -0.224 OA
ENDBRANCH  30  31
ENDBRANCH  15  25
ENDBRANCH   7  12
ENDBRANCH   3   6
ENDBRANCH   1   2
BRANCH   1  35
ATOM     35  C   UNL     1       5.340  10.195   0.373  1.00  0.00     0.042 C 
BRANCH  35  36
ATOM     36  C   UNL     1       5.594  11.481  -0.411  1.00  0.00     0.118 C 
BRANCH  36  37
ATOM     37  N   UNL     1       4.610  12.508  -0.102  1.00  0.00    -0.352 N 
ATOM     38  C   UNL     1       4.787  13.787   0.358  1.00  0.00     0.251 C 
ATOM     39  H   UNL     1       3.673  12.243  -0.246  1.00  0.00     0.163 HD
ATOM     40  O   UNL     1       3.818  14.422   0.768  1.00  0.00    -0.269 OA
BRANCH  38  41
ATOM     41  C   UNL     1       6.129  14.410   0.377  1.00  0.00     0.039 A 
ATOM     42  C   UNL     1       6.485  15.200   1.474  1.00  0.00     0.014 A 
ATOM     43  C   UNL     1       7.011  14.274  -0.700  1.00  0.00     0.014 A 
ATOM     44  C   UNL     1       7.738  15.816   1.514  1.00  0.00     0.010 A 
ATOM     45  C   UNL     1       8.283  14.842  -0.634  1.00  0.00     0.010 A 
ATOM     46  C   UNL     1       8.656  15.624   0.470  1.00  0.00    -0.014 A 
BRANCH  46  47
ATOM     47  C   UNL     1      10.006  16.239   0.514  1.00  0.00     0.031 A 
ATOM     48  C   UNL     1      10.386  17.306  -0.477  1.00  0.00     0.074 A 
ATOM     49  C   UNL     1      10.908  15.804   1.415  1.00  0.00     0.049 A 
ATOM     50  N   UNL     1      11.538  17.904  -0.644  1.00  0.00    -0.248 NA
ATOM     51  C   UNL     1       9.338  17.745  -1.413  1.00  0.00     0.031 C 
ATOM     52  C   UNL     1      10.674  14.761   2.415  1.00  0.00     0.029 A 
ATOM     53  N   UNL     1      12.210  16.182   1.629  1.00  0.00    -0.354 N 
ATOM     54  C   UNL     1      11.358  18.781  -1.706  1.00  0.00     0.074 A 
ATOM     55  C   UNL     1       9.999  18.607  -2.173  1.00  0.00     0.031 C 
ATOM     56  C   UNL     1      11.789  14.593   3.145  1.00  0.00     0.029 A 
ATOM     57  C   UNL     1      12.826  15.487   2.641  1.00  0.00     0.049 A 
ATOM     58  H   UNL     1      12.660  16.885   1.106  1.00  0.00     0.167 HD
ATOM     59  C   UNL     1      12.238  19.665  -2.235  1.00  0.00     0.031 A 
ATOM     60  C   UNL     1      14.088  15.555   3.104  1.00  0.00     0.031 A 
ATOM     61  C   UNL     1      13.586  19.846  -1.770  1.00  0.00     0.049 A 
ATOM     62  C   UNL     1      15.049  16.530   2.484  1.00  0.00     0.074 A 
ATOM     63  C   UNL     1      14.545  20.733  -2.230  1.00  0.00     0.029 A 
ATOM     64  N   UNL     1      14.165  19.132  -0.734  1.00  0.00    -0.354 N 
ATOM     65  N   UNL     1      14.849  17.377   1.504  1.00  0.00    -0.248 NA
ATOM     66  C   UNL     1      16.408  16.564   3.043  1.00  0.00     0.031 C 
ATOM     67  C   UNL     1      15.716  20.533  -1.491  1.00  0.00     0.029 A 
ATOM     68  C   UNL     1      15.470  19.553  -0.544  1.00  0.00     0.049 A 
ATOM     69  H   UNL     1      13.715  18.430  -0.210  1.00  0.00     0.167 HD
ATOM     70  C   UNL     1      16.046  18.064   1.349  1.00  0.00     0.074 A 
ATOM     71  C   UNL     1      16.961  17.546   2.346  1.00  0.00     0.031 C 
ATOM     72  C   UNL     1      16.362  19.035   0.459  1.00  0.00     0.031 A 
BRANCH  59  73
ATOM     73  C   UNL     1      11.764  20.513  -3.381  1.00  0.00    -0.014 A 
ATOM     74  C   UNL     1      10.863  21.569  -3.170  1.00  0.00     0.009 A 
ATOM     75  C   UNL     1      12.263  20.293  -4.674  1.00  0.00     0.009 A 
ATOM     76  C   UNL     1      10.451  22.371  -4.236  1.00  0.00     0.001 A 
ATOM     77  C   UNL     1      11.868  21.112  -5.734  1.00  0.00     0.001 A 
ATOM     78  C   UNL     1      10.958  22.145  -5.515  1.00  0.00     0.000 A 
ENDBRANCH  59  73
BRANCH  60  79
ATOM     79  C   UNL     1      14.526  14.673   4.217  1.00  0.00    -0.014 A 
ATOM     80  C   UNL     1      14.796  15.208   5.486  1.00  0.00     0.009 A 
ATOM     81  C   UNL     1      14.707  13.297   4.008  1.00  0.00     0.009 A 
ATOM     82  C   UNL     1      15.273  14.389   6.512  1.00  0.00     0.001 A 
ATOM     83  C   UNL     1      15.156  12.476   5.044  1.00  0.00     0.001 A 
ATOM     84  C   UNL     1      15.450  13.025   6.291  1.00  0.00     0.000 A 
ENDBRANCH  60  79
BRANCH  72  85
ATOM     85  C   UNL     1      17.737  19.630   0.554  1.00  0.00    -0.014 A 
ATOM     86  C   UNL     1      18.867  18.922   0.118  1.00  0.00     0.009 A 
ATOM     87  C   UNL     1      17.897  20.930   1.056  1.00  0.00     0.009 A 
ATOM     88  C   UNL     1      20.137  19.495   0.213  1.00  0.00     0.001 A 
ATOM     89  C   UNL     1      19.164  21.510   1.126  1.00  0.00     0.001 A 
ATOM     90  C   UNL     1      20.283  20.789   0.714  1.00  0.00     0.000 A 
ENDBRANCH  72  85
ENDBRANCH  46  47
ENDBRANCH  38  41
ENDBRANCH  36  37
ENDBRANCH  35  36
ENDBRANCH   1  35
TORSDOF 15
