REMARK SMILES O=C(C/C(=C/c1ccc(N2CCOCC2)c(F)c1)c1nc2ccccc2s1)NCCCNC(=O)c1ccc(-c2c3nc(c(-c4ccccc4)c4ccc([nH]4)c(-c4ccccc4)c4nc(c(-c5ccccc5)c5ccc2[nH]5)C=C4)C=C3)cc1
REMARK SMILES IDX 29 1 28 2 1 3 2 4 3 6 4 7 5 8 19 9 20 10 27 11 21 12 26 13
REMARK SMILES IDX 22 14 25 15 23 16 24 17 6 18 7 19 18 20 8 21 16 22 9 23
REMARK SMILES IDX 17 24 10 25 11 26 15 27 12 28 14 29 13 30 30 31 31 32 32 33
REMARK SMILES IDX 33 34 34 36 35 37 36 38 82 39 37 40 81 41 38 42 39 43 40 44
REMARK SMILES IDX 75 45 41 46 80 47 74 48 76 49 42 50 79 51 73 52 72 53 43 55
REMARK SMILES IDX 65 56 50 57 64 58 51 59 54 60 63 61 77 62 52 63 53 64 62 66
REMARK SMILES IDX 78 67 55 68 44 69 45 70 49 71 46 72 48 73 47 74 66 75 67 76
REMARK SMILES IDX 71 77 68 78 70 79 69 80 56 81 57 82 61 83 58 84 60 85 59 86
REMARK H PARENT 28 5 32 35 76 54 54 65
REMARK Flexibility Score: inf
ROOT
ATOM      1  C   UNL     1       2.087   1.698  -1.753  1.00  0.00     0.117 C 
ENDROOT
BRANCH   1   2
ATOM      2  N   UNL     1       2.798   0.830  -0.837  1.00  0.00    -0.356 N 
ATOM      3  O   UNL     1       1.026   0.521   0.584  1.00  0.00    -0.275 OA
ATOM      4  C   UNL     1       2.163   0.223   0.226  1.00  0.00     0.224 C 
ATOM      5  H   UNL     1       3.759   0.668  -0.977  1.00  0.00     0.163 HD
BRANCH   4   6
ATOM      6  C   UNL     1       2.988  -0.821   0.966  1.00  0.00     0.138 C 
BRANCH   6   7
ATOM      7  C   UNL     1       3.697  -1.819   0.057  1.00  0.00    -0.002 C 
ATOM      8  C   UNL     1       5.052  -1.858   0.107  1.00  0.00     0.015 C 
BRANCH   7   9
ATOM      9  C   UNL     1       2.997  -2.774  -0.770  1.00  0.00     0.121 A 
ATOM     10  N   UNL     1       3.173  -4.081  -0.771  1.00  0.00    -0.236 NA
ATOM     11  S   UNL     1       1.830  -2.229  -1.927  1.00  0.00    -0.114 S 
ATOM     12  C   UNL     1       2.397  -4.689  -1.744  1.00  0.00     0.082 A 
ATOM     13  C   UNL     1       1.584  -3.831  -2.478  1.00  0.00     0.055 A 
ATOM     14  C   UNL     1       2.367  -6.066  -2.043  1.00  0.00     0.030 A 
ATOM     15  C   UNL     1       0.732  -4.293  -3.495  1.00  0.00     0.021 A 
ATOM     16  C   UNL     1       1.525  -6.540  -3.056  1.00  0.00     0.002 A 
ATOM     17  C   UNL     1       0.716  -5.662  -3.770  1.00  0.00     0.002 A 
ENDBRANCH   7   9
BRANCH   8  18
ATOM     18  C   UNL     1       5.949  -2.785  -0.600  1.00  0.00    -0.022 A 
ATOM     19  C   UNL     1       6.046  -2.818  -1.993  1.00  0.00     0.010 A 
ATOM     20  C   UNL     1       6.725  -3.665   0.153  1.00  0.00     0.049 A 
ATOM     21  C   UNL     1       6.879  -3.754  -2.624  1.00  0.00     0.029 A 
ATOM     22  C   UNL     1       7.537  -4.598  -0.487  1.00  0.00     0.147 A 
ATOM     23  C   UNL     1       7.627  -4.684  -1.888  1.00  0.00     0.073 A 
ATOM     24  F   UNL     1       8.276  -5.413   0.285  1.00  0.00    -0.205 F 
BRANCH  23  25
ATOM     25  N   UNL     1       8.400  -5.636  -2.517  1.00  0.00    -0.365 N 
ATOM     26  C   UNL     1       8.403  -7.037  -2.078  1.00  0.00     0.145 C 
ATOM     27  C   UNL     1       9.253  -5.342  -3.670  1.00  0.00     0.145 C 
ATOM     28  C   UNL     1       9.848  -7.510  -1.877  1.00  0.00     0.181 C 
ATOM     29  C   UNL     1      10.665  -5.898  -3.400  1.00  0.00     0.181 C 
ATOM     30  O   UNL     1      10.638  -7.297  -3.063  1.00  0.00    -0.378 OA
ENDBRANCH  23  25
ENDBRANCH   8  18
ENDBRANCH   6   7
ENDBRANCH   4   6
ENDBRANCH   1   2
BRANCH   1  31
ATOM     31  C   UNL     1       2.325   3.175  -1.478  1.00  0.00     0.042 C 
BRANCH  31  32
ATOM     32  C   UNL     1       3.783   3.609  -1.580  1.00  0.00     0.118 C 
BRANCH  32  33
ATOM     33  N   UNL     1       4.357   3.397  -2.901  1.00  0.00    -0.352 N 
ATOM     34  C   UNL     1       5.076   4.244  -3.704  1.00  0.00     0.251 C 
ATOM     35  H   UNL     1       4.205   2.501  -3.279  1.00  0.00     0.163 HD
ATOM     36  O   UNL     1       5.367   3.883  -4.846  1.00  0.00    -0.269 OA
BRANCH  34  37
ATOM     37  C   UNL     1       5.491   5.586  -3.238  1.00  0.00     0.039 A 
ATOM     38  C   UNL     1       5.447   6.648  -4.148  1.00  0.00     0.014 A 
ATOM     39  C   UNL     1       5.968   5.803  -1.943  1.00  0.00     0.014 A 
ATOM     40  C   UNL     1       5.837   7.929  -3.749  1.00  0.00     0.010 A 
ATOM     41  C   UNL     1       6.288   7.095  -1.524  1.00  0.00     0.010 A 
ATOM     42  C   UNL     1       6.241   8.168  -2.426  1.00  0.00    -0.014 A 
BRANCH  42  43
ATOM     43  C   UNL     1       6.647   9.526  -1.984  1.00  0.00     0.031 A 
ATOM     44  C   UNL     1       8.069   9.793  -1.570  1.00  0.00     0.074 A 
ATOM     45  C   UNL     1       5.732  10.512  -1.914  1.00  0.00     0.049 A 
ATOM     46  N   UNL     1       8.605  10.902  -1.123  1.00  0.00    -0.248 NA
ATOM     47  C   UNL     1       9.006   8.661  -1.645  1.00  0.00     0.031 C 
ATOM     48  C   UNL     1       4.314  10.381  -2.251  1.00  0.00     0.029 A 
ATOM     49  N   UNL     1       5.864  11.824  -1.532  1.00  0.00    -0.354 N 
ATOM     50  C   UNL     1       9.931  10.595  -0.845  1.00  0.00     0.074 A 
ATOM     51  C   UNL     1      10.108   9.187  -1.131  1.00  0.00     0.031 C 
ATOM     52  C   UNL     1       3.712  11.570  -2.087  1.00  0.00     0.029 A 
ATOM     53  C   UNL     1       4.693  12.538  -1.605  1.00  0.00     0.049 A 
ATOM     54  H   UNL     1       6.716  12.216  -1.233  1.00  0.00     0.167 HD
ATOM     55  C   UNL     1      10.920  11.411  -0.410  1.00  0.00     0.031 A 
ATOM     56  C   UNL     1       4.438  13.829  -1.319  1.00  0.00     0.031 A 
ATOM     57  C   UNL     1      10.758  12.815  -0.146  1.00  0.00     0.049 A 
ATOM     58  C   UNL     1       5.554  14.718  -0.851  1.00  0.00     0.074 A 
ATOM     59  C   UNL     1      11.714  13.735   0.248  1.00  0.00     0.029 A 
ATOM     60  N   UNL     1       9.560  13.503  -0.254  1.00  0.00    -0.354 N 
ATOM     61  N   UNL     1       6.816  14.425  -0.650  1.00  0.00    -0.248 NA
ATOM     62  C   UNL     1       5.213  16.123  -0.586  1.00  0.00     0.031 C 
ATOM     63  C   UNL     1      11.086  14.975   0.413  1.00  0.00     0.029 A 
ATOM     64  C   UNL     1       9.750  14.834   0.077  1.00  0.00     0.049 A 
ATOM     65  H   UNL     1       8.702  13.105  -0.525  1.00  0.00     0.167 HD
ATOM     66  C   UNL     1       7.424  15.613  -0.266  1.00  0.00     0.074 A 
ATOM     67  C   UNL     1       6.396  16.633  -0.273  1.00  0.00     0.031 C 
ATOM     68  C   UNL     1       8.720  15.839   0.059  1.00  0.00     0.031 A 
BRANCH  55  69
ATOM     69  C   UNL     1      12.274  10.796  -0.191  1.00  0.00    -0.014 A 
ATOM     70  C   UNL     1      13.073  10.396  -1.274  1.00  0.00     0.009 A 
ATOM     71  C   UNL     1      12.766  10.637   1.113  1.00  0.00     0.009 A 
ATOM     72  C   UNL     1      14.323   9.814  -1.052  1.00  0.00     0.001 A 
ATOM     73  C   UNL     1      14.028  10.079   1.330  1.00  0.00     0.001 A 
ATOM     74  C   UNL     1      14.800   9.659   0.248  1.00  0.00     0.000 A 
ENDBRANCH  55  69
BRANCH  56  75
ATOM     75  C   UNL     1       3.067  14.372  -1.500  1.00  0.00    -0.014 A 
ATOM     76  C   UNL     1       2.784  15.243  -2.563  1.00  0.00     0.009 A 
ATOM     77  C   UNL     1       2.039  14.031  -0.608  1.00  0.00     0.009 A 
ATOM     78  C   UNL     1       1.505  15.783  -2.715  1.00  0.00     0.001 A 
ATOM     79  C   UNL     1       0.755  14.552  -0.777  1.00  0.00     0.001 A 
ATOM     80  C   UNL     1       0.491  15.434  -1.824  1.00  0.00     0.000 A 
ENDBRANCH  56  75
BRANCH  68  81
ATOM     81  C   UNL     1       9.107  17.251   0.392  1.00  0.00    -0.014 A 
ATOM     82  C   UNL     1       8.741  17.840   1.611  1.00  0.00     0.009 A 
ATOM     83  C   UNL     1       9.882  17.988  -0.517  1.00  0.00     0.009 A 
ATOM     84  C   UNL     1       9.116  19.154   1.899  1.00  0.00     0.001 A 
ATOM     85  C   UNL     1      10.276  19.293  -0.216  1.00  0.00     0.001 A 
ATOM     86  C   UNL     1       9.886  19.877   0.987  1.00  0.00     0.000 A 
ENDBRANCH  68  81
ENDBRANCH  42  43
ENDBRANCH  34  37
ENDBRANCH  32  33
ENDBRANCH  31  32
ENDBRANCH   1  31
TORSDOF 14
