REMARK SMILES O=C(NCCCNC(=O)[C@@H]1CCC(=O)N1C(=O)/C=C/c1ccccc1)c1ccc(-c2c3nc(c(-c4ccccc4)c4ccc([nH]4)c(-c4ccccc4)c4nc(c(-c5ccccc5)c5ccc2[nH]5)C=C4)C=C3)cc1
REMARK SMILES IDX 5 1 4 2 3 3 1 4 2 5 26 7 27 8 73 9 28 10 72 11 29 12 30 13
REMARK SMILES IDX 31 14 66 15 32 16 71 17 65 18 67 19 33 20 70 21 64 22 63 23
REMARK SMILES IDX 34 25 56 26 41 27 55 28 42 29 45 30 54 31 68 32 43 33 44 34
REMARK SMILES IDX 53 36 69 37 46 38 35 39 36 40 40 41 37 42 39 43 38 44 57 45
REMARK SMILES IDX 58 46 62 47 59 48 61 49 60 50 47 51 48 52 52 53 49 54 51 55
REMARK SMILES IDX 50 56 6 57 7 58 8 59 9 61 10 62 11 63 15 64 12 65 13 66
REMARK SMILES IDX 14 67 16 68 17 69 18 70 19 71 20 72 21 73 25 74 22 75 24 76
REMARK SMILES IDX 23 77
REMARK H PARENT 3 6 67 24 45 35 7 60
REMARK Flexibility Score: inf
ROOT
ATOM      1  C   UNL     1       4.776  -1.971   1.772  1.00  0.00     0.042 C 
ENDROOT
BRANCH   1   2
ATOM      2  C   UNL     1       4.535  -1.287   0.430  1.00  0.00     0.118 C 
BRANCH   2   3
ATOM      3  N   UNL     1       3.120  -1.078   0.155  1.00  0.00    -0.352 N 
ATOM      4  O   UNL     1       1.193   0.061  -0.071  1.00  0.00    -0.269 OA
ATOM      5  C   UNL     1       2.420   0.086  -0.039  1.00  0.00     0.251 C 
ATOM      6  H   UNL     1       2.582  -1.901   0.100  1.00  0.00     0.163 HD
BRANCH   5   7
ATOM      7  C   UNL     1       3.132   1.373  -0.193  1.00  0.00     0.039 A 
ATOM      8  C   UNL     1       4.276   1.470  -0.987  1.00  0.00     0.014 A 
ATOM      9  C   UNL     1       2.616   2.511   0.435  1.00  0.00     0.014 A 
ATOM     10  C   UNL     1       4.979   2.669  -1.044  1.00  0.00     0.010 A 
ATOM     11  C   UNL     1       3.279   3.735   0.311  1.00  0.00     0.010 A 
ATOM     12  C   UNL     1       4.481   3.817  -0.407  1.00  0.00    -0.014 A 
BRANCH  12  13
ATOM     13  C   UNL     1       5.204   5.104  -0.557  1.00  0.00     0.031 A 
ATOM     14  C   UNL     1       5.856   5.772   0.620  1.00  0.00     0.074 A 
ATOM     15  C   UNL     1       5.292   5.657  -1.782  1.00  0.00     0.049 A 
ATOM     16  N   UNL     1       6.551   6.881   0.653  1.00  0.00    -0.248 NA
ATOM     17  C   UNL     1       5.706   5.118   1.929  1.00  0.00     0.031 C 
ATOM     18  C   UNL     1       4.695   5.106  -3.002  1.00  0.00     0.029 A 
ATOM     19  N   UNL     1       5.934   6.790  -2.208  1.00  0.00    -0.354 N 
ATOM     20  C   UNL     1       6.904   7.069   1.984  1.00  0.00     0.074 A 
ATOM     21  C   UNL     1       6.330   5.970   2.731  1.00  0.00     0.031 C 
ATOM     22  C   UNL     1       5.040   5.875  -4.045  1.00  0.00     0.029 A 
ATOM     23  C   UNL     1       5.832   7.000  -3.562  1.00  0.00     0.049 A 
ATOM     24  H   UNL     1       6.421   7.396  -1.603  1.00  0.00     0.167 HD
ATOM     25  C   UNL     1       7.643   8.064   2.531  1.00  0.00     0.031 A 
ATOM     26  C   UNL     1       6.312   7.992  -4.332  1.00  0.00     0.031 A 
ATOM     27  C   UNL     1       8.217   9.155   1.787  1.00  0.00     0.049 A 
ATOM     28  C   UNL     1       7.106   9.093  -3.695  1.00  0.00     0.074 A 
ATOM     29  C   UNL     1       9.007  10.193   2.251  1.00  0.00     0.029 A 
ATOM     30  N   UNL     1       8.058   9.351   0.424  1.00  0.00    -0.354 N 
ATOM     31  N   UNL     1       7.457   9.236  -2.441  1.00  0.00    -0.248 NA
ATOM     32  C   UNL     1       7.569  10.169  -4.582  1.00  0.00     0.031 C 
ATOM     33  C   UNL     1       9.292  11.041   1.174  1.00  0.00     0.029 A 
ATOM     34  C   UNL     1       8.716  10.505   0.034  1.00  0.00     0.049 A 
ATOM     35  H   UNL     1       7.552   8.758  -0.177  1.00  0.00     0.167 HD
ATOM     36  C   UNL     1       8.190  10.413  -2.387  1.00  0.00     0.074 A 
ATOM     37  C   UNL     1       8.252  10.931  -3.739  1.00  0.00     0.031 C 
ATOM     38  C   UNL     1       8.758  11.012  -1.313  1.00  0.00     0.031 A 
BRANCH  25  39
ATOM     39  C   UNL     1       7.854   8.032   4.018  1.00  0.00    -0.014 A 
ATOM     40  C   UNL     1       8.739   7.117   4.609  1.00  0.00     0.009 A 
ATOM     41  C   UNL     1       7.192   8.962   4.835  1.00  0.00     0.009 A 
ATOM     42  C   UNL     1       8.936   7.117   5.992  1.00  0.00     0.001 A 
ATOM     43  C   UNL     1       7.408   8.974   6.214  1.00  0.00     0.001 A 
ATOM     44  C   UNL     1       8.274   8.047   6.792  1.00  0.00     0.000 A 
ENDBRANCH  25  39
BRANCH  26  45
ATOM     45  C   UNL     1       6.042   7.987  -5.791  1.00  0.00    -0.014 A 
ATOM     46  C   UNL     1       7.068   7.708  -6.705  1.00  0.00     0.009 A 
ATOM     47  C   UNL     1       4.749   8.240  -6.274  1.00  0.00     0.009 A 
ATOM     48  C   UNL     1       6.807   7.697  -8.077  1.00  0.00     0.001 A 
ATOM     49  C   UNL     1       4.485   8.203  -7.644  1.00  0.00     0.001 A 
ATOM     50  C   UNL     1       5.515   7.938  -8.544  1.00  0.00     0.000 A 
ENDBRANCH  26  45
BRANCH  38  51
ATOM     51  C   UNL     1       9.509  12.286  -1.566  1.00  0.00    -0.014 A 
ATOM     52  C   UNL     1       8.830  13.488  -1.819  1.00  0.00     0.009 A 
ATOM     53  C   UNL     1      10.912  12.287  -1.530  1.00  0.00     0.009 A 
ATOM     54  C   UNL     1       9.544  14.662  -2.062  1.00  0.00     0.001 A 
ATOM     55  C   UNL     1      11.622  13.468  -1.750  1.00  0.00     0.001 A 
ATOM     56  C   UNL     1      10.939  14.652  -2.024  1.00  0.00     0.000 A 
ENDBRANCH  38  51
ENDBRANCH  12  13
ENDBRANCH   5   7
ENDBRANCH   2   3
ENDBRANCH   1   2
BRANCH   1  57
ATOM     57  C   UNL     1       4.238  -3.394   1.837  1.00  0.00     0.117 C 
BRANCH  57  58
ATOM     58  N   UNL     1       4.920  -4.261   0.894  1.00  0.00    -0.354 N 
ATOM     59  C   UNL     1       5.802  -5.275   1.115  1.00  0.00     0.243 C 
ATOM     60  H   UNL     1       4.713  -4.089  -0.053  1.00  0.00     0.163 HD
ATOM     61  O   UNL     1       6.266  -5.859   0.132  1.00  0.00    -0.273 OA
BRANCH  59  62
ATOM     62  C   UNL     1       6.233  -5.630   2.546  1.00  0.00     0.183 C 
ATOM     63  C   UNL     1       7.667  -5.167   2.757  1.00  0.00     0.046 C 
ATOM     64  N   UNL     1       6.271  -7.074   2.676  1.00  0.00    -0.266 N 
ATOM     65  C   UNL     1       8.301  -6.284   3.556  1.00  0.00     0.103 C 
ATOM     66  C   UNL     1       7.524  -7.504   3.136  1.00  0.00     0.230 C 
ATOM     67  O   UNL     1       7.944  -8.643   3.268  1.00  0.00    -0.274 OA
BRANCH  64  68
ATOM     68  C   UNL     1       5.072  -7.767   2.562  1.00  0.00     0.253 C 
ATOM     69  O   UNL     1       3.988  -7.199   2.429  1.00  0.00    -0.269 OA
BRANCH  68  70
ATOM     70  C   UNL     1       5.102  -9.243   2.570  1.00  0.00     0.072 C 
ATOM     71  C   UNL     1       5.353  -9.922   3.699  1.00  0.00     0.014 C 
BRANCH  71  72
ATOM     72  C   UNL     1       5.389 -11.388   3.829  1.00  0.00    -0.025 A 
ATOM     73  C   UNL     1       5.856 -11.934   5.035  1.00  0.00     0.008 A 
ATOM     74  C   UNL     1       4.979 -12.268   2.818  1.00  0.00     0.008 A 
ATOM     75  C   UNL     1       5.917 -13.317   5.223  1.00  0.00     0.001 A 
ATOM     76  C   UNL     1       5.043 -13.653   3.004  1.00  0.00     0.001 A 
ATOM     77  C   UNL     1       5.512 -14.176   4.206  1.00  0.00     0.000 A 
ENDBRANCH  71  72
ENDBRANCH  68  70
ENDBRANCH  64  68
ENDBRANCH  59  62
ENDBRANCH  57  58
ENDBRANCH   1  57
TORSDOF 13
