REMARK SMILES Cc1c(C)c2c(c(C)c1O)CC[C@@](C)(C(=O)NCCCNC(=O)c1ccc(-c3c4nc(c(-c5ccccc5)c5ccc([nH]5)c(-c5ccccc5)c5nc(c(-c6ccccc6)c6ccc3[nH]6)C=C5)C=C4)cc1)O2
REMARK SMILES IDX 19 1 18 2 17 3 15 4 16 5 13 7 1 8 2 9 3 10 9 11 4 12 5 13
REMARK SMILES IDX 7 14 6 15 72 16 8 17 11 18 12 19 14 20 10 21 20 23 21 24
REMARK SMILES IDX 22 25 23 27 24 28 25 29 71 30 26 31 70 32 27 33 28 34 29 35
REMARK SMILES IDX 64 36 30 37 69 38 63 39 65 40 31 41 68 42 62 43 61 44 32 46
REMARK SMILES IDX 54 47 39 48 53 49 40 50 43 51 52 52 66 53 41 54 42 55 51 57
REMARK SMILES IDX 67 58 44 59 33 60 34 61 38 62 35 63 37 64 36 65 55 66 56 67
REMARK SMILES IDX 60 68 57 69 59 70 58 71 45 72 46 73 50 74 47 75 49 76 48 77
REMARK H PARENT 17 6 10 22 21 26 65 45 43 56
REMARK Flexibility Score: inf
ROOT
ATOM      1  C   UNL     1      -0.561  -8.441  -5.133  1.00  0.00     0.042 C 
ENDROOT
BRANCH   1   2
ATOM      2  C   UNL     1      -1.035  -8.062  -3.735  1.00  0.00     0.118 C 
BRANCH   2   3
ATOM      3  N   UNL     1       0.065  -7.942  -2.788  1.00  0.00    -0.353 N 
ATOM      4  C   UNL     1       0.588  -6.858  -2.130  1.00  0.00     0.263 C 
ATOM      5  O   UNL     1       1.542  -7.086  -1.380  1.00  0.00    -0.270 OA
ATOM      6  H   UNL     1       0.514  -8.794  -2.582  1.00  0.00     0.163 HD
BRANCH   4   7
ATOM      7  C   UNL     1      -0.006  -5.436  -2.325  1.00  0.00     0.184 C 
ATOM      8  C   UNL     1       0.972   0.102   0.149  1.00  0.00     0.049 C 
ATOM      9  C   UNL     1       0.551  -0.864  -0.931  1.00  0.00    -0.002 A 
ATOM     10  C   UNL     1       0.837  -2.245  -0.759  1.00  0.00    -0.002 A 
ATOM     11  C   UNL     1      -0.083  -0.445  -2.118  1.00  0.00     0.122 A 
ATOM     12  C   UNL     1       1.486  -2.737   0.514  1.00  0.00     0.049 C 
ATOM     13  C   UNL     1       0.489  -3.156  -1.773  1.00  0.00     0.127 A 
ATOM     14  C   UNL     1      -0.421  -1.350  -3.136  1.00  0.00    -0.002 A 
ATOM     15  C   UNL     1      -0.102  -2.712  -2.971  1.00  0.00     0.001 A 
ATOM     16  O   UNL     1       0.749  -4.491  -1.532  1.00  0.00    -0.477 OA
ATOM     17  C   UNL     1      -1.118  -0.888  -4.392  1.00  0.00     0.049 C 
ATOM     18  C   UNL     1      -0.435  -3.693  -4.060  1.00  0.00     0.044 C 
ATOM     19  C   UNL     1       0.195  -5.036  -3.789  1.00  0.00     0.063 C 
ATOM     20  C   UNL     1      -1.438  -5.440  -1.749  1.00  0.00     0.067 C 
BRANCH  11  21
ATOM     21  O   UNL     1      -0.397   0.868  -2.353  1.00  0.00    -0.507 OA
ATOM     22  H   UNL     1      -0.196   1.520  -1.711  1.00  0.00     0.293 HD
ENDBRANCH  11  21
ENDBRANCH   4   7
ENDBRANCH   2   3
ENDBRANCH   1   2
BRANCH   1  23
ATOM     23  C   UNL     1      -0.031  -9.861  -5.226  1.00  0.00     0.118 C 
BRANCH  23  24
ATOM     24  N   UNL     1      -1.069 -10.854  -4.983  1.00  0.00    -0.352 N 
ATOM     25  C   UNL     1      -1.669 -11.737  -5.843  1.00  0.00     0.251 C 
ATOM     26  H   UNL     1      -1.391 -10.897  -4.054  1.00  0.00     0.163 HD
ATOM     27  O   UNL     1      -2.685 -12.335  -5.489  1.00  0.00    -0.269 OA
BRANCH  25  28
ATOM     28  C   UNL     1      -1.118 -11.962  -7.194  1.00  0.00     0.039 A 
ATOM     29  C   UNL     1      -1.999 -12.104  -8.270  1.00  0.00     0.014 A 
ATOM     30  C   UNL     1       0.260 -12.062  -7.402  1.00  0.00     0.014 A 
ATOM     31  C   UNL     1      -1.494 -12.281  -9.559  1.00  0.00     0.010 A 
ATOM     32  C   UNL     1       0.763 -12.143  -8.695  1.00  0.00     0.010 A 
ATOM     33  C   UNL     1      -0.108 -12.267  -9.786  1.00  0.00    -0.014 A 
BRANCH  33  34
ATOM     34  C   UNL     1       0.450 -12.403 -11.153  1.00  0.00     0.031 A 
ATOM     35  C   UNL     1       1.302 -13.592 -11.502  1.00  0.00     0.074 A 
ATOM     36  C   UNL     1       0.233 -11.434 -12.064  1.00  0.00     0.049 A 
ATOM     37  N   UNL     1       1.921 -13.861 -12.624  1.00  0.00    -0.248 NA
ATOM     38  C   UNL     1       1.504 -14.603 -10.450  1.00  0.00     0.031 C 
ATOM     39  C   UNL     1      -0.551 -10.217 -11.837  1.00  0.00     0.029 A 
ATOM     40  N   UNL     1       0.655 -11.318 -13.364  1.00  0.00    -0.354 N 
ATOM     41  C   UNL     1       2.591 -15.058 -12.406  1.00  0.00     0.074 A 
ATOM     42  C   UNL     1       2.349 -15.439 -11.034  1.00  0.00     0.031 C 
ATOM     43  C   UNL     1      -0.580  -9.496 -12.969  1.00  0.00     0.029 A 
ATOM     44  C   UNL     1       0.219 -10.173 -13.986  1.00  0.00     0.049 A 
ATOM     45  H   UNL     1       1.217 -11.992 -13.810  1.00  0.00     0.167 HD
ATOM     46  C   UNL     1       3.323 -15.787 -13.280  1.00  0.00     0.031 A 
ATOM     47  C   UNL     1       0.443  -9.714 -15.232  1.00  0.00     0.031 A 
ATOM     48  C   UNL     1       3.549 -15.415 -14.650  1.00  0.00     0.049 A 
ATOM     49  C   UNL     1       1.283 -10.530 -16.174  1.00  0.00     0.074 A 
ATOM     50  C   UNL     1       4.233 -16.116 -15.628  1.00  0.00     0.029 A 
ATOM     51  N   UNL     1       3.098 -14.243 -15.236  1.00  0.00    -0.354 N 
ATOM     52  N   UNL     1       1.858 -11.691 -15.971  1.00  0.00    -0.248 NA
ATOM     53  C   UNL     1       1.499  -9.979 -17.519  1.00  0.00     0.031 C 
ATOM     54  C   UNL     1       4.248 -15.340 -16.789  1.00  0.00     0.029 A 
ATOM     55  C   UNL     1       3.516 -14.187 -16.554  1.00  0.00     0.049 A 
ATOM     56  H   UNL     1       2.561 -13.554 -14.783  1.00  0.00     0.167 HD
ATOM     57  C   UNL     1       2.484 -12.019 -17.167  1.00  0.00     0.074 A 
ATOM     58  C   UNL     1       2.201 -10.945 -18.096  1.00  0.00     0.031 C 
ATOM     59  C   UNL     1       3.228 -13.110 -17.466  1.00  0.00     0.031 A 
BRANCH  46  60
ATOM     60  C   UNL     1       3.934 -17.069 -12.788  1.00  0.00    -0.014 A 
ATOM     61  C   UNL     1       3.138 -18.192 -12.512  1.00  0.00     0.009 A 
ATOM     62  C   UNL     1       5.329 -17.180 -12.676  1.00  0.00     0.009 A 
ATOM     63  C   UNL     1       3.727 -19.396 -12.117  1.00  0.00     0.001 A 
ATOM     64  C   UNL     1       5.915 -18.392 -12.309  1.00  0.00     0.001 A 
ATOM     65  C   UNL     1       5.114 -19.497 -12.025  1.00  0.00     0.000 A 
ENDBRANCH  46  60
BRANCH  47  66
ATOM     66  C   UNL     1      -0.150  -8.420 -15.663  1.00  0.00    -0.014 A 
ATOM     67  C   UNL     1      -1.178  -8.389 -16.618  1.00  0.00     0.009 A 
ATOM     68  C   UNL     1       0.300  -7.208 -15.115  1.00  0.00     0.009 A 
ATOM     69  C   UNL     1      -1.727  -7.172 -17.030  1.00  0.00     0.001 A 
ATOM     70  C   UNL     1      -0.273  -5.995 -15.505  1.00  0.00     0.001 A 
ATOM     71  C   UNL     1      -1.280  -5.978 -16.468  1.00  0.00     0.000 A 
ENDBRANCH  47  66
BRANCH  59  72
ATOM     72  C   UNL     1       3.780 -13.217 -18.860  1.00  0.00    -0.014 A 
ATOM     73  C   UNL     1       4.834 -12.397 -19.289  1.00  0.00     0.009 A 
ATOM     74  C   UNL     1       3.290 -14.206 -19.728  1.00  0.00     0.009 A 
ATOM     75  C   UNL     1       5.372 -12.551 -20.568  1.00  0.00     0.001 A 
ATOM     76  C   UNL     1       3.852 -14.379 -20.994  1.00  0.00     0.001 A 
ATOM     77  C   UNL     1       4.887 -13.547 -21.415  1.00  0.00     0.000 A 
ENDBRANCH  59  72
ENDBRANCH  33  34
ENDBRANCH  25  28
ENDBRANCH  23  24
ENDBRANCH   1  23
TORSDOF 11
