REMARK SMILES COC(=O)CNC(=O)N1[C@@H](C(=O)NCCCNC(=O)c2ccc(-c3c4nc(c(-c5ccccc5)c5ccc([nH]5)c(-c5ccccc5)c5nc(c(-c6ccccc6)c6ccc3[nH]6)C=C5)C=C4)cc2)CC[C@@H]2CCCC[C@H]21
REMARK SMILES IDX 14 1 13 2 11 3 12 4 10 6 9 7 75 8 68 9 70 10 74 11 69 12
REMARK SMILES IDX 71 13 73 14 72 15 7 16 6 17 8 19 5 20 3 21 4 22 2 23 1 24
REMARK SMILES IDX 15 25 16 26 17 27 18 28 19 30 20 31 21 32 67 33 22 34 66 35
REMARK SMILES IDX 23 36 24 37 25 38 60 39 26 40 65 41 59 42 61 43 27 44 64 45
REMARK SMILES IDX 58 46 57 47 28 49 50 50 35 51 49 52 36 53 39 54 48 55 62 56
REMARK SMILES IDX 37 57 38 58 47 60 63 61 40 62 29 63 30 64 34 65 31 66 33 67
REMARK SMILES IDX 32 68 51 69 52 70 56 71 53 72 55 73 54 74 41 75 42 76 46 77
REMARK SMILES IDX 43 78 45 79 44 80
REMARK H PARENT 13 5 6 18 17 29 61 48 39 59
REMARK Flexibility Score: inf
ROOT
ATOM      1  C   UNL     1      -0.369  -5.591   4.964  1.00  0.00     0.117 C 
ENDROOT
BRANCH   1   2
ATOM      2  N   UNL     1      -0.480  -5.843   3.538  1.00  0.00    -0.354 N 
ATOM      3  C   UNL     1      -1.266  -5.237   2.610  1.00  0.00     0.242 C 
ATOM      4  O   UNL     1      -1.330  -5.759   1.491  1.00  0.00    -0.273 OA
ATOM      5  H   UNL     1       0.099  -6.560   3.193  1.00  0.00     0.163 HD
BRANCH   3   6
ATOM      6  C   UNL     1      -2.151  -4.019   2.957  1.00  0.00     0.176 C 
ATOM      7  N   UNL     1      -1.514  -2.936   3.752  1.00  0.00    -0.310 N 
ATOM      8  C   UNL     1      -2.452  -1.947   4.364  1.00  0.00     0.091 C 
ATOM      9  C   UNL     1      -3.383  -4.638   3.654  1.00  0.00     0.036 C 
ATOM     10  C   UNL     1      -3.589  -2.646   5.145  1.00  0.00     0.012 C 
ATOM     11  C   UNL     1      -1.822  -0.836   5.232  1.00  0.00     0.025 C 
ATOM     12  C   UNL     1      -4.337  -3.613   4.228  1.00  0.00     0.008 C 
ATOM     13  C   UNL     1      -4.595  -1.650   5.744  1.00  0.00     0.006 C 
ATOM     14  C   UNL     1      -2.855   0.148   5.769  1.00  0.00     0.002 C 
ATOM     15  C   UNL     1      -3.921  -0.572   6.580  1.00  0.00     0.000 C 
BRANCH   7  16
ATOM     16  C   UNL     1      -0.166  -2.676   3.759  1.00  0.00     0.318 C 
ATOM     17  N   UNL     1       0.644  -2.963   2.730  1.00  0.00    -0.327 N 
ATOM     18  H   UNL     1       1.589  -3.022   3.002  1.00  0.00     0.166 HD
ATOM     19  O   UNL     1       0.413  -2.227   4.752  1.00  0.00    -0.249 OA
BRANCH  17  20
ATOM     20  C   UNL     1       0.461  -3.209   1.304  1.00  0.00     0.240 C 
BRANCH  20  21
ATOM     21  C   UNL     1       1.048  -2.134   0.402  1.00  0.00     0.325 C 
ATOM     22  O   UNL     1       1.398  -2.344  -0.754  1.00  0.00    -0.250 OA
BRANCH  21  23
ATOM     23  O   UNL     1       0.972  -0.902   0.977  1.00  0.00    -0.468 OA
ATOM     24  C   UNL     1       1.272   0.173   0.086  1.00  0.00     0.282 C 
ENDBRANCH  21  23
ENDBRANCH  20  21
ENDBRANCH  17  20
ENDBRANCH   7  16
ENDBRANCH   3   6
ENDBRANCH   1   2
BRANCH   1  25
ATOM     25  C   UNL     1      -0.775  -6.819   5.759  1.00  0.00     0.042 C 
BRANCH  25  26
ATOM     26  C   UNL     1       0.144  -8.006   5.530  1.00  0.00     0.118 C 
BRANCH  26  27
ATOM     27  N   UNL     1       1.496  -7.765   6.015  1.00  0.00    -0.352 N 
ATOM     28  C   UNL     1       2.232  -8.499   6.907  1.00  0.00     0.251 C 
ATOM     29  H   UNL     1       1.941  -6.966   5.652  1.00  0.00     0.163 HD
ATOM     30  O   UNL     1       3.287  -8.057   7.356  1.00  0.00    -0.269 OA
BRANCH  28  31
ATOM     31  C   UNL     1       1.738  -9.819   7.341  1.00  0.00     0.039 A 
ATOM     32  C   UNL     1       1.801 -10.157   8.694  1.00  0.00     0.014 A 
ATOM     33  C   UNL     1       1.202 -10.716   6.412  1.00  0.00     0.014 A 
ATOM     34  C   UNL     1       1.285 -11.380   9.121  1.00  0.00     0.010 A 
ATOM     35  C   UNL     1       0.598 -11.885   6.852  1.00  0.00     0.010 A 
ATOM     36  C   UNL     1       0.657 -12.242   8.207  1.00  0.00    -0.014 A 
BRANCH  36  37
ATOM     37  C   UNL     1       0.106 -13.551   8.632  1.00  0.00     0.031 A 
ATOM     38  C   UNL     1       0.686 -14.819   8.066  1.00  0.00     0.074 A 
ATOM     39  C   UNL     1      -0.936 -13.599   9.483  1.00  0.00     0.049 A 
ATOM     40  N   UNL     1       0.310 -16.058   8.258  1.00  0.00    -0.248 NA
ATOM     41  C   UNL     1       1.823 -14.676   7.139  1.00  0.00     0.031 C 
ATOM     42  C   UNL     1      -1.606 -12.440  10.078  1.00  0.00     0.029 A 
ATOM     43  N   UNL     1      -1.616 -14.674   9.997  1.00  0.00    -0.354 N 
ATOM     44  C   UNL     1       1.149 -16.832   7.466  1.00  0.00     0.074 A 
ATOM     45  C   UNL     1       2.010 -15.925   6.742  1.00  0.00     0.031 C 
ATOM     46  C   UNL     1      -2.577 -12.868  10.902  1.00  0.00     0.029 A 
ATOM     47  C   UNL     1      -2.627 -14.326  10.860  1.00  0.00     0.049 A 
ATOM     48  H   UNL     1      -1.400 -15.607   9.769  1.00  0.00     0.167 HD
ATOM     49  C   UNL     1       1.220 -18.180   7.371  1.00  0.00     0.031 A 
ATOM     50  C   UNL     1      -3.496 -15.098  11.539  1.00  0.00     0.031 A 
ATOM     51  C   UNL     1       0.376 -19.084   8.103  1.00  0.00     0.049 A 
ATOM     52  C   UNL     1      -3.411 -16.593  11.395  1.00  0.00     0.074 A 
ATOM     53  C   UNL     1       0.390 -20.467   8.105  1.00  0.00     0.029 A 
ATOM     54  N   UNL     1      -0.632 -18.689   8.969  1.00  0.00    -0.354 N 
ATOM     55  N   UNL     1      -2.577 -17.311  10.682  1.00  0.00    -0.248 NA
ATOM     56  C   UNL     1      -4.380 -17.384  12.166  1.00  0.00     0.031 C 
ATOM     57  C   UNL     1      -0.641 -20.911   8.938  1.00  0.00     0.029 A 
ATOM     58  C   UNL     1      -1.255 -19.804   9.503  1.00  0.00     0.049 A 
ATOM     59  H   UNL     1      -0.868 -17.756   9.175  1.00  0.00     0.167 HD
ATOM     60  C   UNL     1      -2.894 -18.637  10.951  1.00  0.00     0.074 A 
ATOM     61  C   UNL     1      -3.986 -18.622  11.902  1.00  0.00     0.031 C 
ATOM     62  C   UNL     1      -2.331 -19.767  10.459  1.00  0.00     0.031 A 
BRANCH  49  63
ATOM     63  C   UNL     1       2.254 -18.755   6.441  1.00  0.00    -0.014 A 
ATOM     64  C   UNL     1       3.625 -18.658   6.730  1.00  0.00     0.009 A 
ATOM     65  C   UNL     1       1.853 -19.431   5.279  1.00  0.00     0.009 A 
ATOM     66  C   UNL     1       4.573 -19.193   5.856  1.00  0.00     0.001 A 
ATOM     67  C   UNL     1       2.802 -19.994   4.423  1.00  0.00     0.001 A 
ATOM     68  C   UNL     1       4.160 -19.866   4.708  1.00  0.00     0.000 A 
ENDBRANCH  49  63
BRANCH  50  69
ATOM     69  C   UNL     1      -4.513 -14.482  12.432  1.00  0.00    -0.014 A 
ATOM     70  C   UNL     1      -4.437 -14.657  13.823  1.00  0.00     0.009 A 
ATOM     71  C   UNL     1      -5.584 -13.748  11.901  1.00  0.00     0.009 A 
ATOM     72  C   UNL     1      -5.434 -14.146  14.658  1.00  0.00     0.001 A 
ATOM     73  C   UNL     1      -6.561 -13.209  12.741  1.00  0.00     0.001 A 
ATOM     74  C   UNL     1      -6.493 -13.421  14.117  1.00  0.00     0.000 A 
ENDBRANCH  50  69
BRANCH  62  75
ATOM     75  C   UNL     1      -2.843 -21.078  10.988  1.00  0.00    -0.014 A 
ATOM     76  C   UNL     1      -4.118 -21.559  10.653  1.00  0.00     0.009 A 
ATOM     77  C   UNL     1      -2.015 -21.858  11.811  1.00  0.00     0.009 A 
ATOM     78  C   UNL     1      -4.568 -22.776  11.167  1.00  0.00     0.001 A 
ATOM     79  C   UNL     1      -2.455 -23.090  12.295  1.00  0.00     0.001 A 
ATOM     80  C   UNL     1      -3.736 -23.542  11.983  1.00  0.00     0.000 A 
ENDBRANCH  62  75
ENDBRANCH  36  37
ENDBRANCH  28  31
ENDBRANCH  26  27
ENDBRANCH  25  26
ENDBRANCH   1  25
TORSDOF 14
