REMARK SMILES CCc1ccnc(C(=O)c2[nH]c3ccc(OC(F)(F)F)cc3c2CC(=O)NCCCNC(=O)c2ccc(-c3c4nc(c(-c5ccccc5)c5ccc([nH]5)c(-c5ccccc5)c5nc(c(-c6ccccc6)c6ccc3[nH]6)C=C5)C=C4)cc2)c1
REMARK SMILES IDX 28 1 27 2 25 3 26 4 24 6 23 7 10 8 11 9 12 10 22 12 13 13
REMARK SMILES IDX 21 14 14 15 15 16 8 17 9 18 7 19 3 20 4 21 82 22 5 23 6 24
REMARK SMILES IDX 2 25 1 26 16 27 17 28 18 29 19 30 20 31 29 32 30 33 31 34
REMARK SMILES IDX 32 35 33 37 34 38 35 39 81 40 36 41 80 42 37 43 38 44 39 45
REMARK SMILES IDX 74 46 40 47 79 48 73 49 75 50 41 51 78 52 72 53 71 54 42 56
REMARK SMILES IDX 64 57 49 58 63 59 50 60 53 61 62 62 76 63 51 64 52 65 61 67
REMARK SMILES IDX 77 68 54 69 43 70 44 71 48 72 45 73 47 74 46 75 65 76 66 77
REMARK SMILES IDX 70 78 67 79 69 80 68 81 55 82 56 83 60 84 57 85 59 86 58 87
REMARK H PARENT 27 5 11 11 31 36 75 55 53 66
REMARK Flexibility Score: inf
ROOT
ATOM      1  C   UNL     1      -2.061  10.154   1.290  1.00  0.00     0.117 C 
ENDROOT
BRANCH   1   2
ATOM      2  N   UNL     1      -1.616   9.661   0.000  1.00  0.00    -0.356 N 
ATOM      3  C   UNL     1      -1.706   8.408  -0.533  1.00  0.00     0.224 C 
ATOM      4  O   UNL     1      -1.355   8.241  -1.704  1.00  0.00    -0.275 OA
ATOM      5  H   UNL     1      -1.183  10.332  -0.577  1.00  0.00     0.163 HD
BRANCH   3   6
ATOM      6  C   UNL     1      -2.301   7.265   0.269  1.00  0.00     0.138 C 
BRANCH   6   7
ATOM      7  C   UNL     1      -1.450   6.799   1.415  1.00  0.00    -0.002 A 
ATOM      8  C   UNL     1      -0.118   6.399   1.380  1.00  0.00     0.093 A 
ATOM      9  N   UNL     1       0.263   6.104   2.668  1.00  0.00    -0.352 N 
ATOM     10  C   UNL     1      -0.798   6.231   3.529  1.00  0.00     0.046 A 
ATOM     11  H   UNL     1       1.172   5.837   2.936  1.00  0.00     0.167 HD
ATOM     12  C   UNL     1      -1.888   6.659   2.777  1.00  0.00     0.008 A 
ATOM     13  C   UNL     1      -0.866   6.016   4.908  1.00  0.00     0.030 A 
ATOM     14  C   UNL     1      -3.109   6.883   3.446  1.00  0.00     0.057 A 
ATOM     15  C   UNL     1      -2.090   6.251   5.547  1.00  0.00     0.049 A 
ATOM     16  C   UNL     1      -3.205   6.684   4.832  1.00  0.00     0.130 A 
BRANCH   8  17
ATOM     17  C   UNL     1       0.821   6.351   0.272  1.00  0.00     0.227 C 
ATOM     18  O   UNL     1       1.406   7.366  -0.091  1.00  0.00    -0.285 OA
BRANCH  17  19
ATOM     19  C   UNL     1       1.133   5.002  -0.336  1.00  0.00     0.113 A 
ATOM     20  C   UNL     1       0.867   2.596  -0.463  1.00  0.00    -0.044 A 
ATOM     21  C   UNL     1       1.867   2.596  -1.438  1.00  0.00     0.024 A 
ATOM     22  C   UNL     1       0.483   3.834   0.076  1.00  0.00     0.036 A 
ATOM     23  C   UNL     1       2.454   3.800  -1.801  1.00  0.00     0.112 A 
ATOM     24  N   UNL     1       2.123   4.991  -1.264  1.00  0.00    -0.253 NA
BRANCH  20  25
ATOM     25  C   UNL     1       0.163   1.346   0.017  1.00  0.00     0.032 C 
ATOM     26  C   UNL     1       0.828   0.018  -0.331  1.00  0.00     0.009 C 
ENDBRANCH  20  25
ENDBRANCH  17  19
ENDBRANCH   8  17
BRANCH  16  27
ATOM     27  O   UNL     1      -4.442   6.955   5.348  1.00  0.00    -0.406 OA
BRANCH  27  28
ATOM     28  C   UNL     1      -4.614   6.844   6.750  1.00  0.00     0.573 C 
ATOM     29  F   UNL     1      -4.406   5.577   7.167  1.00  0.00    -0.132 F 
ATOM     30  F   UNL     1      -3.784   7.679   7.411  1.00  0.00    -0.132 F 
ATOM     31  F   UNL     1      -5.885   7.185   7.059  1.00  0.00    -0.132 F 
ENDBRANCH  27  28
ENDBRANCH  16  27
ENDBRANCH   6   7
ENDBRANCH   3   6
ENDBRANCH   1   2
BRANCH   1  32
ATOM     32  C   UNL     1      -0.951  10.223   2.337  1.00  0.00     0.042 C 
BRANCH  32  33
ATOM     33  C   UNL     1       0.211  11.150   1.987  1.00  0.00     0.118 C 
BRANCH  33  34
ATOM     34  N   UNL     1      -0.174  12.553   1.980  1.00  0.00    -0.352 N 
ATOM     35  C   UNL     1       0.350  13.622   2.663  1.00  0.00     0.251 C 
ATOM     36  H   UNL     1      -0.933  12.771   1.392  1.00  0.00     0.163 HD
ATOM     37  O   UNL     1      -0.236  14.701   2.633  1.00  0.00    -0.269 OA
BRANCH  35  38
ATOM     38  C   UNL     1       1.602  13.501   3.447  1.00  0.00     0.039 A 
ATOM     39  C   UNL     1       1.663  14.130   4.697  1.00  0.00     0.014 A 
ATOM     40  C   UNL     1       2.735  12.858   2.938  1.00  0.00     0.014 A 
ATOM     41  C   UNL     1       2.837  14.079   5.453  1.00  0.00     0.010 A 
ATOM     42  C   UNL     1       3.901  12.783   3.706  1.00  0.00     0.010 A 
ATOM     43  C   UNL     1       3.961  13.395   4.967  1.00  0.00    -0.014 A 
BRANCH  43  44
ATOM     44  C   UNL     1       5.211  13.331   5.761  1.00  0.00     0.031 A 
ATOM     45  C   UNL     1       6.395  14.172   5.381  1.00  0.00     0.074 A 
ATOM     46  C   UNL     1       5.298  12.490   6.808  1.00  0.00     0.049 A 
ATOM     47  N   UNL     1       7.604  14.165   5.883  1.00  0.00    -0.248 NA
ATOM     48  C   UNL     1       6.197  15.136   4.287  1.00  0.00     0.031 C 
ATOM     49  C   UNL     1       4.232  11.607   7.281  1.00  0.00     0.029 A 
ATOM     50  N   UNL     1       6.346  12.240   7.659  1.00  0.00    -0.354 N 
ATOM     51  C   UNL     1       8.324  15.091   5.141  1.00  0.00     0.074 A 
ATOM     52  C   UNL     1       7.411  15.657   4.169  1.00  0.00     0.031 C 
ATOM     53  C   UNL     1       4.679  10.915   8.343  1.00  0.00     0.029 A 
ATOM     54  C   UNL     1       6.063  11.295   8.612  1.00  0.00     0.049 A 
ATOM     55  H   UNL     1       7.216  12.695   7.591  1.00  0.00     0.167 HD
ATOM     56  C   UNL     1       9.630  15.431   5.247  1.00  0.00     0.031 A 
ATOM     57  C   UNL     1       6.835  10.783   9.587  1.00  0.00     0.031 A 
ATOM     58  C   UNL     1      10.541  14.909   6.228  1.00  0.00     0.049 A 
ATOM     59  C   UNL     1       8.256  11.238   9.738  1.00  0.00     0.074 A 
ATOM     60  C   UNL     1      11.884  15.196   6.401  1.00  0.00     0.029 A 
ATOM     61  N   UNL     1      10.194  14.004   7.216  1.00  0.00    -0.354 N 
ATOM     62  N   UNL     1       8.930  12.086   9.003  1.00  0.00    -0.248 NA
ATOM     63  C   UNL     1       9.021  10.659  10.852  1.00  0.00     0.031 C 
ATOM     64  C   UNL     1      12.349  14.469   7.505  1.00  0.00     0.029 A 
ATOM     65  C   UNL     1      11.292  13.732   8.013  1.00  0.00     0.049 A 
ATOM     66  H   UNL     1       9.298  13.612   7.335  1.00  0.00     0.167 HD
ATOM     67  C   UNL     1      10.201  12.134   9.556  1.00  0.00     0.074 A 
ATOM     68  C   UNL     1      10.202  11.241  10.696  1.00  0.00     0.031 C 
ATOM     69  C   UNL     1      11.276  12.848   9.145  1.00  0.00     0.031 A 
BRANCH  56  70
ATOM     70  C   UNL     1      10.153  16.415   4.247  1.00  0.00    -0.014 A 
ATOM     71  C   UNL     1      10.099  17.793   4.503  1.00  0.00     0.009 A 
ATOM     72  C   UNL     1      10.716  15.956   3.046  1.00  0.00     0.009 A 
ATOM     73  C   UNL     1      10.589  18.698   3.560  1.00  0.00     0.001 A 
ATOM     74  C   UNL     1      11.207  16.864   2.108  1.00  0.00     0.001 A 
ATOM     75  C   UNL     1      11.141  18.234   2.365  1.00  0.00     0.000 A 
ENDBRANCH  56  70
BRANCH  57  76
ATOM     76  C   UNL     1       6.279   9.759  10.499  1.00  0.00    -0.014 A 
ATOM     77  C   UNL     1       5.661  10.143  11.698  1.00  0.00     0.009 A 
ATOM     78  C   UNL     1       6.367   8.399  10.171  1.00  0.00     0.009 A 
ATOM     79  C   UNL     1       5.144   9.175  12.561  1.00  0.00     0.001 A 
ATOM     80  C   UNL     1       5.847   7.434  11.035  1.00  0.00     0.001 A 
ATOM     81  C   UNL     1       5.238   7.823  12.229  1.00  0.00     0.000 A 
ENDBRANCH  57  76
BRANCH  69  82
ATOM     82  C   UNL     1      12.537  12.683   9.934  1.00  0.00    -0.014 A 
ATOM     83  C   UNL     1      13.462  11.688   9.587  1.00  0.00     0.009 A 
ATOM     84  C   UNL     1      12.811  13.532  11.016  1.00  0.00     0.009 A 
ATOM     85  C   UNL     1      14.640  11.537  10.320  1.00  0.00     0.001 A 
ATOM     86  C   UNL     1      13.990  13.378  11.748  1.00  0.00     0.001 A 
ATOM     87  C   UNL     1      14.901  12.380  11.401  1.00  0.00     0.000 A 
ENDBRANCH  69  82
ENDBRANCH  43  44
ENDBRANCH  35  38
ENDBRANCH  33  34
ENDBRANCH  32  33
ENDBRANCH   1  32
TORSDOF 16
