REMARK SMILES C[N@H+]1C[C@@H](Oc2cccc3cccnc23)C[C@H]1C(=O)NCCCNC(=O)c1ccc(-c2c3nc(c(-c4ccccc4)c4ccc([nH]4)c(-c4ccccc4)c4nc(c(-c5ccccc5)c5ccc2[nH]5)C=C4)C=C3)cc1
REMARK SMILES IDX 22 1 21 2 20 3 18 4 19 5 17 7 1 8 2 9 3 10 4 12 16 13 5 14
REMARK SMILES IDX 6 15 7 16 15 17 8 18 10 19 14 20 9 21 11 22 13 23 12 24
REMARK SMILES IDX 23 25 24 26 25 27 26 29 27 30 28 31 74 32 29 33 73 34 30 35
REMARK SMILES IDX 31 36 32 37 67 38 33 39 72 40 66 41 68 42 34 43 71 44 65 45
REMARK SMILES IDX 64 46 35 48 57 49 42 50 56 51 43 52 46 53 55 54 69 55 44 56
REMARK SMILES IDX 45 57 54 59 70 60 47 61 36 62 37 63 41 64 38 65 40 66 39 67
REMARK SMILES IDX 58 68 59 69 63 70 60 71 62 72 61 73 48 74 49 75 53 76 50 77
REMARK SMILES IDX 52 78 51 79
REMARK H PARENT 20 6 2 11 24 28 68 47 46 58
REMARK Flexibility Score: inf
ROOT
ATOM      1  C   UNL     1      -0.934   1.646   3.111  1.00  0.00     0.042 C 
ENDROOT
BRANCH   1   2
ATOM      2  C   UNL     1      -0.121   0.389   2.850  1.00  0.00     0.118 C 
BRANCH   2   3
ATOM      3  N   UNL     1      -0.878  -0.780   2.488  1.00  0.00    -0.351 N 
ATOM      4  C   UNL     1      -0.799  -1.553   1.370  1.00  0.00     0.278 C 
ATOM      5  O   UNL     1      -1.257  -2.698   1.492  1.00  0.00    -0.268 OA
ATOM      6  H   UNL     1      -1.553  -1.062   3.146  1.00  0.00     0.163 HD
BRANCH   4   7
ATOM      7  C   UNL     1      -0.167  -1.137   0.015  1.00  0.00     0.278 C 
ATOM      8  C   UNL     1      -1.925   0.556  -0.436  1.00  0.00     0.333 C 
ATOM      9  N   UNL     1      -0.546   0.154  -0.559  1.00  0.00    -0.324 N 
ATOM     10  C   UNL     1       0.508   1.139  -0.351  1.00  0.00     0.308 C 
ATOM     11  H   UNL     1      -0.589   0.036  -1.571  1.00  0.00     0.348 HD
ATOM     12  C   UNL     1       1.807   0.303  -0.250  1.00  0.00     0.234 C 
ATOM     13  C   UNL     1       1.354  -1.149  -0.029  1.00  0.00     0.126 C 
BRANCH  12  14
ATOM     14  O   UNL     1       2.870   0.885   0.527  1.00  0.00    -0.482 OA
BRANCH  14  15
ATOM     15  C   UNL     1       3.023   0.668   1.875  1.00  0.00     0.146 A 
ATOM     16  C   UNL     1       3.335  -0.607   2.365  1.00  0.00     0.049 A 
ATOM     17  C   UNL     1       3.008   1.778   2.745  1.00  0.00     0.112 A 
ATOM     18  C   UNL     1       3.459  -0.838   3.732  1.00  0.00     0.005 A 
ATOM     19  C   UNL     1       3.212   1.532   4.128  1.00  0.00     0.004 A 
ATOM     20  N   UNL     1       2.800   3.039   2.297  1.00  0.00    -0.252 NA
ATOM     21  C   UNL     1       3.389   0.230   4.615  1.00  0.00     0.010 A 
ATOM     22  C   UNL     1       3.242   2.615   5.013  1.00  0.00     0.012 A 
ATOM     23  C   UNL     1       2.853   4.062   3.183  1.00  0.00     0.112 A 
ATOM     24  C   UNL     1       3.074   3.904   4.535  1.00  0.00     0.021 A 
ENDBRANCH  14  15
ENDBRANCH  12  14
ENDBRANCH   4   7
ENDBRANCH   2   3
ENDBRANCH   1   2
BRANCH   1  25
ATOM     25  C   UNL     1      -1.472   1.729   4.529  1.00  0.00     0.118 C 
BRANCH  25  26
ATOM     26  N   UNL     1      -0.416   1.850   5.530  1.00  0.00    -0.352 N 
ATOM     27  C   UNL     1      -0.106   2.884   6.377  1.00  0.00     0.251 C 
ATOM     28  H   UNL     1       0.169   1.062   5.610  1.00  0.00     0.163 HD
ATOM     29  O   UNL     1       0.896   2.835   7.083  1.00  0.00    -0.269 OA
BRANCH  27  30
ATOM     30  C   UNL     1      -0.983   4.065   6.451  1.00  0.00     0.039 A 
ATOM     31  C   UNL     1      -0.416   5.346   6.449  1.00  0.00     0.014 A 
ATOM     32  C   UNL     1      -2.362   3.900   6.579  1.00  0.00     0.014 A 
ATOM     33  C   UNL     1      -1.242   6.467   6.535  1.00  0.00     0.010 A 
ATOM     34  C   UNL     1      -3.187   5.012   6.583  1.00  0.00     0.010 A 
ATOM     35  C   UNL     1      -2.632   6.302   6.592  1.00  0.00    -0.014 A 
BRANCH  35  36
ATOM     36  C   UNL     1      -3.563   7.435   6.779  1.00  0.00     0.031 A 
ATOM     37  C   UNL     1      -4.357   7.494   8.053  1.00  0.00     0.074 A 
ATOM     38  C   UNL     1      -3.794   8.298   5.777  1.00  0.00     0.049 A 
ATOM     39  N   UNL     1      -5.422   8.195   8.336  1.00  0.00    -0.248 NA
ATOM     40  C   UNL     1      -3.921   6.589   9.131  1.00  0.00     0.031 C 
ATOM     41  C   UNL     1      -3.095   8.318   4.492  1.00  0.00     0.029 A 
ATOM     42  N   UNL     1      -4.719   9.304   5.674  1.00  0.00    -0.354 N 
ATOM     43  C   UNL     1      -5.822   7.766   9.595  1.00  0.00     0.074 A 
ATOM     44  C   UNL     1      -4.902   6.729  10.008  1.00  0.00     0.031 C 
ATOM     45  C   UNL     1      -3.622   9.287   3.724  1.00  0.00     0.029 A 
ATOM     46  C   UNL     1      -4.720   9.920   4.447  1.00  0.00     0.049 A 
ATOM     47  H   UNL     1      -5.323   9.560   6.408  1.00  0.00     0.167 HD
ATOM     48  C   UNL     1      -6.866   8.200  10.340  1.00  0.00     0.031 A 
ATOM     49  C   UNL     1      -5.538  10.869   3.957  1.00  0.00     0.031 A 
ATOM     50  C   UNL     1      -7.745   9.260   9.930  1.00  0.00     0.049 A 
ATOM     51  C   UNL     1      -6.652  11.384   4.823  1.00  0.00     0.074 A 
ATOM     52  C   UNL     1      -8.795   9.833  10.623  1.00  0.00     0.029 A 
ATOM     53  N   UNL     1      -7.659   9.918   8.711  1.00  0.00    -0.354 N 
ATOM     54  N   UNL     1      -7.014  10.989   6.021  1.00  0.00    -0.248 NA
ATOM     55  C   UNL     1      -7.463  12.479   4.276  1.00  0.00     0.031 C 
ATOM     56  C   UNL     1      -9.360  10.824   9.812  1.00  0.00     0.029 A 
ATOM     57  C   UNL     1      -8.636  10.892   8.630  1.00  0.00     0.049 A 
ATOM     58  H   UNL     1      -6.998   9.720   8.008  1.00  0.00     0.167 HD
ATOM     59  C   UNL     1      -8.085  11.797   6.379  1.00  0.00     0.074 A 
ATOM     60  C   UNL     1      -8.302  12.713   5.276  1.00  0.00     0.031 C 
ATOM     61  C   UNL     1      -8.824  11.785   7.515  1.00  0.00     0.031 A 
BRANCH  48  62
ATOM     62  C   UNL     1      -7.108   7.503  11.650  1.00  0.00    -0.014 A 
ATOM     63  C   UNL     1      -6.217   7.636  12.728  1.00  0.00     0.009 A 
ATOM     64  C   UNL     1      -8.232   6.676  11.800  1.00  0.00     0.009 A 
ATOM     65  C   UNL     1      -6.415   6.910  13.905  1.00  0.00     0.001 A 
ATOM     66  C   UNL     1      -8.445   5.977  12.989  1.00  0.00     0.001 A 
ATOM     67  C   UNL     1      -7.529   6.082  14.035  1.00  0.00     0.000 A 
ENDBRANCH  48  62
BRANCH  49  68
ATOM     68  C   UNL     1      -5.313  11.395   2.588  1.00  0.00    -0.014 A 
ATOM     69  C   UNL     1      -4.720  12.652   2.404  1.00  0.00     0.009 A 
ATOM     70  C   UNL     1      -5.641  10.626   1.460  1.00  0.00     0.009 A 
ATOM     71  C   UNL     1      -4.467  13.135   1.118  1.00  0.00     0.001 A 
ATOM     72  C   UNL     1      -5.367  11.102   0.175  1.00  0.00     0.001 A 
ATOM     73  C   UNL     1      -4.784  12.357   0.005  1.00  0.00     0.000 A 
ENDBRANCH  49  68
BRANCH  61  74
ATOM     74  C   UNL     1      -9.912  12.811   7.627  1.00  0.00    -0.014 A 
ATOM     75  C   UNL     1     -11.122  12.661   6.934  1.00  0.00     0.009 A 
ATOM     76  C   UNL     1      -9.738  13.915   8.475  1.00  0.00     0.009 A 
ATOM     77  C   UNL     1     -12.130  13.616   7.068  1.00  0.00     0.001 A 
ATOM     78  C   UNL     1     -10.757  14.857   8.623  1.00  0.00     0.001 A 
ATOM     79  C   UNL     1     -11.948  14.710   7.915  1.00  0.00     0.000 A 
ENDBRANCH  61  74
ENDBRANCH  35  36
ENDBRANCH  27  30
ENDBRANCH  25  26
ENDBRANCH   1  25
TORSDOF 12
