REMARK SMILES CSCC[C@H](C(=O)NCCCNC(=O)c1ccc(-c2c3nc(c(-c4ccccc4)c4ccc([nH]4)c(-c4ccccc4)c4nc(c(-c5ccccc5)c5ccc2[nH]5)C=C4)C=C3)cc1)N1C(=O)/C(=C/c2cn(C)c3ccccc23)SC1=S
REMARK SMILES IDX 9 1 8 2 6 3 7 4 5 6 4 7 3 8 2 9 1 10 63 11 64 12 79 13 65 14
REMARK SMILES IDX 66 15 78 16 80 17 67 18 68 19 69 20 77 21 70 22 72 23 76 24
REMARK SMILES IDX 71 25 73 26 75 27 74 28 10 29 11 30 12 31 13 32 14 34 15 35
REMARK SMILES IDX 16 36 62 37 17 38 61 39 18 40 19 41 20 42 55 43 21 44 60 45
REMARK SMILES IDX 54 46 56 47 22 48 59 49 53 50 52 51 23 53 45 54 30 55 44 56
REMARK SMILES IDX 31 57 34 58 43 59 57 60 32 61 33 62 42 64 58 65 35 66 24 67
REMARK SMILES IDX 25 68 29 69 26 70 28 71 27 72 46 73 47 74 51 75 48 76 50 77
REMARK SMILES IDX 49 78 36 79 37 80 41 81 38 82 40 83 39 84
REMARK H PARENT 8 5 12 33 56 52 34 63
REMARK Flexibility Score: inf
ROOT
ATOM      1  C   UNL     1      -2.385   0.329  -3.472  1.00  0.00     0.117 C 
ENDROOT
BRANCH   1   2
ATOM      2  N   UNL     1      -1.258  -0.570  -3.512  1.00  0.00    -0.354 N 
ATOM      3  C   UNL     1       0.077  -0.353  -3.450  1.00  0.00     0.243 C 
ATOM      4  O   UNL     1       0.767  -1.283  -3.889  1.00  0.00    -0.273 OA
ATOM      5  H   UNL     1      -1.505  -1.519  -3.600  1.00  0.00     0.163 HD
BRANCH   3   6
ATOM      6  C   UNL     1       0.733   0.933  -2.785  1.00  0.00     0.182 C 
BRANCH   6   7
ATOM      7  C   UNL     1       2.057   0.211  -2.158  1.00  0.00     0.046 C 
BRANCH   7   8
ATOM      8  C   UNL     1       2.971   0.725  -1.029  1.00  0.00     0.072 C 
BRANCH   8   9
ATOM      9  S   UNL     1       2.506   0.416   0.716  1.00  0.00    -0.165 SA
ATOM     10  C   UNL     1       0.742   0.784   0.757  1.00  0.00     0.085 C 
ENDBRANCH   8   9
ENDBRANCH   7   8
ENDBRANCH   6   7
BRANCH   6  11
ATOM     11  N   UNL     1       0.903   2.416  -3.787  1.00  0.00    -0.280 N 
ATOM     12  C   UNL     1       0.529   1.951  -4.948  1.00  0.00     0.266 C 
ATOM     13  C   UNL     1       1.957   4.093  -3.420  1.00  0.00     0.149 C 
ATOM     14  O   UNL     1       0.253   0.973  -5.573  1.00  0.00    -0.268 OA
ATOM     15  C   UNL     1       0.432   3.309  -5.072  1.00  0.00     0.081 C 
ATOM     16  S   UNL     1       2.002   5.147  -4.469  1.00  0.00    -0.054 SA
ATOM     17  S   UNL     1       3.156   4.851  -2.046  1.00  0.00    -0.052 S 
ATOM     18  C   UNL     1      -0.375   3.389  -6.260  1.00  0.00     0.031 C 
BRANCH  18  19
ATOM     19  C   UNL     1      -0.104   4.593  -6.914  1.00  0.00     0.001 A 
ATOM     20  C   UNL     1      -0.738   5.815  -6.619  1.00  0.00     0.094 A 
ATOM     21  C   UNL     1       1.066   4.615  -6.131  1.00  0.00     0.007 A 
ATOM     22  N   UNL     1      -0.756   6.098  -5.239  1.00  0.00    -0.350 N 
ATOM     23  C   UNL     1      -0.110   5.049  -4.600  1.00  0.00     0.048 A 
ATOM     24  C   UNL     1       2.410   3.267  -5.503  1.00  0.00     0.011 A 
ATOM     25  C   UNL     1      -0.714   7.442  -4.688  1.00  0.00     0.149 C 
ATOM     26  C   UNL     1       0.102   4.191  -2.874  1.00  0.00     0.027 A 
ATOM     27  C   UNL     1       2.747   2.507  -3.716  1.00  0.00     0.001 A 
ATOM     28  C   UNL     1       1.488   2.963  -2.207  1.00  0.00     0.002 A 
ENDBRANCH  18  19
ENDBRANCH   6  11
ENDBRANCH   3   6
ENDBRANCH   1   2
BRANCH   1  29
ATOM     29  C   UNL     1      -2.879   0.687  -4.875  1.00  0.00     0.042 C 
BRANCH  29  30
ATOM     30  C   UNL     1      -3.079  -0.496  -5.824  1.00  0.00     0.118 C 
BRANCH  30  31
ATOM     31  N   UNL     1      -4.308  -1.214  -5.529  1.00  0.00    -0.352 N 
ATOM     32  C   UNL     1      -5.517  -1.149  -6.180  1.00  0.00     0.251 C 
ATOM     33  H   UNL     1      -4.270  -1.829  -4.761  1.00  0.00     0.163 HD
ATOM     34  O   UNL     1      -6.535  -1.549  -5.622  1.00  0.00    -0.269 OA
BRANCH  32  35
ATOM     35  C   UNL     1      -5.598  -0.586  -7.547  1.00  0.00     0.039 A 
ATOM     36  C   UNL     1      -6.649   0.278  -7.863  1.00  0.00     0.014 A 
ATOM     37  C   UNL     1      -4.663  -0.936  -8.526  1.00  0.00     0.014 A 
ATOM     38  C   UNL     1      -6.730   0.833  -9.143  1.00  0.00     0.010 A 
ATOM     39  C   UNL     1      -4.702  -0.324  -9.777  1.00  0.00     0.010 A 
ATOM     40  C   UNL     1      -5.739   0.563 -10.102  1.00  0.00    -0.014 A 
BRANCH  40  41
ATOM     41  C   UNL     1      -5.771   1.206 -11.442  1.00  0.00     0.031 A 
ATOM     42  C   UNL     1      -5.929   0.374 -12.686  1.00  0.00     0.074 A 
ATOM     43  C   UNL     1      -5.610   2.540 -11.544  1.00  0.00     0.049 A 
ATOM     44  N   UNL     1      -5.934   0.754 -13.939  1.00  0.00    -0.248 NA
ATOM     45  C   UNL     1      -6.083  -1.078 -12.500  1.00  0.00     0.031 C 
ATOM     46  C   UNL     1      -5.422   3.459 -10.419  1.00  0.00     0.029 A 
ATOM     47  N   UNL     1      -5.573   3.356 -12.648  1.00  0.00    -0.354 N 
ATOM     48  C   UNL     1      -6.079  -0.408 -14.688  1.00  0.00     0.074 A 
ATOM     49  C   UNL     1      -6.108  -1.511 -13.752  1.00  0.00     0.031 C 
ATOM     50  C   UNL     1      -5.320   4.713 -10.888  1.00  0.00     0.029 A 
ATOM     51  C   UNL     1      -5.380   4.683 -12.346  1.00  0.00     0.049 A 
ATOM     52  H   UNL     1      -5.676   3.022 -13.568  1.00  0.00     0.167 HD
ATOM     53  C   UNL     1      -6.194  -0.545 -16.031  1.00  0.00     0.031 A 
ATOM     54  C   UNL     1      -5.250   5.755 -13.150  1.00  0.00     0.031 A 
ATOM     55  C   UNL     1      -6.157   0.552 -16.963  1.00  0.00     0.049 A 
ATOM     56  C   UNL     1      -5.326   5.568 -14.641  1.00  0.00     0.074 A 
ATOM     57  C   UNL     1      -6.310   0.519 -18.338  1.00  0.00     0.029 A 
ATOM     58  N   UNL     1      -5.937   1.877 -16.617  1.00  0.00    -0.354 N 
ATOM     59  N   UNL     1      -5.536   4.471 -15.328  1.00  0.00    -0.248 NA
ATOM     60  C   UNL     1      -5.154   6.772 -15.467  1.00  0.00     0.031 C 
ATOM     61  C   UNL     1      -6.111   1.812 -18.831  1.00  0.00     0.029 A 
ATOM     62  C   UNL     1      -5.911   2.664 -17.757  1.00  0.00     0.049 A 
ATOM     63  H   UNL     1      -5.818   2.208 -15.698  1.00  0.00     0.167 HD
ATOM     64  C   UNL     1      -5.546   4.856 -16.662  1.00  0.00     0.074 A 
ATOM     65  C   UNL     1      -5.347   6.290 -16.686  1.00  0.00     0.031 C 
ATOM     66  C   UNL     1      -5.704   4.090 -17.769  1.00  0.00     0.031 A 
BRANCH  53  67
ATOM     67  C   UNL     1      -6.351  -1.939 -16.578  1.00  0.00    -0.014 A 
ATOM     68  C   UNL     1      -7.518  -2.688 -16.350  1.00  0.00     0.009 A 
ATOM     69  C   UNL     1      -5.334  -2.497 -17.368  1.00  0.00     0.009 A 
ATOM     70  C   UNL     1      -7.644  -3.979 -16.869  1.00  0.00     0.001 A 
ATOM     71  C   UNL     1      -5.477  -3.774 -17.914  1.00  0.00     0.001 A 
ATOM     72  C   UNL     1      -6.627  -4.518 -17.655  1.00  0.00     0.000 A 
ENDBRANCH  53  67
BRANCH  54  73
ATOM     73  C   UNL     1      -5.022   7.104 -12.566  1.00  0.00    -0.014 A 
ATOM     74  C   UNL     1      -5.998   8.107 -12.678  1.00  0.00     0.009 A 
ATOM     75  C   UNL     1      -3.819   7.403 -11.906  1.00  0.00     0.009 A 
ATOM     76  C   UNL     1      -5.761   9.387 -12.171  1.00  0.00     0.001 A 
ATOM     77  C   UNL     1      -3.600   8.673 -11.368  1.00  0.00     0.001 A 
ATOM     78  C   UNL     1      -4.565   9.667 -11.512  1.00  0.00     0.000 A 
ENDBRANCH  54  73
BRANCH  66  79
ATOM     79  C   UNL     1      -5.697   4.791 -19.101  1.00  0.00    -0.014 A 
ATOM     80  C   UNL     1      -4.523   5.356 -19.624  1.00  0.00     0.009 A 
ATOM     81  C   UNL     1      -6.876   4.853 -19.860  1.00  0.00     0.009 A 
ATOM     82  C   UNL     1      -4.541   6.001 -20.863  1.00  0.00     0.001 A 
ATOM     83  C   UNL     1      -6.882   5.466 -21.114  1.00  0.00     0.001 A 
ATOM     84  C   UNL     1      -5.718   6.050 -21.609  1.00  0.00     0.000 A 
ENDBRANCH  66  79
ENDBRANCH  40  41
ENDBRANCH  32  35
ENDBRANCH  30  31
ENDBRANCH  29  30
ENDBRANCH   1  29
TORSDOF 15
