REMARK SMILES CC(C)[C@H](C)n1c(SCC(=O)NCCCNC(=O)c2ccc(-c3c4nc(c(-c5ccccc5)c5ccc([nH]5)c(-c5ccccc5)c5nc(c(-c6ccccc6)c6ccc3[nH]6)C=C5)C=C4)cc2)nc2cc(Br)cnc21
REMARK SMILES IDX 13 1 12 2 10 3 11 4 9 6 8 7 7 8 6 9 74 10 67 11 68 12 73 13
REMARK SMILES IDX 69 14 72 15 70 16 71 17 4 18 5 19 2 20 1 21 3 22 14 23 15 24
REMARK SMILES IDX 16 25 17 26 18 28 19 29 20 30 66 31 21 32 65 33 22 34 23 35
REMARK SMILES IDX 24 36 59 37 25 38 64 39 58 40 60 41 26 42 63 43 57 44 56 45
REMARK SMILES IDX 27 47 49 48 34 49 48 50 35 51 38 52 47 53 61 54 36 55 37 56
REMARK SMILES IDX 46 58 62 59 39 60 28 61 29 62 33 63 30 64 32 65 31 66 50 67
REMARK SMILES IDX 51 68 55 69 52 70 54 71 53 72 40 73 41 74 45 75 42 76 44 77
REMARK SMILES IDX 43 78
REMARK H PARENT 12 5 16 27 60 46 38 57
REMARK Flexibility Score: inf
ROOT
ATOM      1  C   UNL     1       3.203  -3.468   0.778  1.00  0.00     0.117 C 
ENDROOT
BRANCH   1   2
ATOM      2  N   UNL     1       2.619  -2.139   0.642  1.00  0.00    -0.355 N 
ATOM      3  C   UNL     1       1.419  -1.647   1.058  1.00  0.00     0.230 C 
ATOM      4  O   UNL     1       1.272  -0.421   1.004  1.00  0.00    -0.274 OA
ATOM      5  H   UNL     1       3.188  -1.488   0.171  1.00  0.00     0.163 HD
BRANCH   3   6
ATOM      6  C   UNL     1       0.313  -2.522   1.617  1.00  0.00     0.178 C 
BRANCH   6   7
ATOM      7  S   UNL     1      -0.152  -3.901   0.594  1.00  0.00    -0.078 SA
BRANCH   7   8
ATOM      8  C   UNL     1      -1.239  -3.552  -0.711  1.00  0.00     0.171 A 
ATOM      9  N   UNL     1      -1.610  -2.369  -1.366  1.00  0.00    -0.301 N 
ATOM     10  C   UNL     1      -2.433  -2.772  -2.406  1.00  0.00     0.161 A 
ATOM     11  N   UNL     1      -1.713  -4.617  -1.331  1.00  0.00    -0.221 NA
ATOM     12  C   UNL     1      -2.430  -4.159  -2.382  1.00  0.00     0.110 A 
ATOM     13  N   UNL     1      -3.071  -2.016  -3.314  1.00  0.00    -0.235 NA
ATOM     14  C   UNL     1      -3.096  -4.862  -3.394  1.00  0.00     0.049 A 
ATOM     15  C   UNL     1      -3.771  -2.724  -4.231  1.00  0.00     0.129 A 
ATOM     16  C   UNL     1      -3.791  -4.107  -4.331  1.00  0.00     0.038 A 
ATOM     17  Br  UNL     1      -4.734  -4.951  -5.729  1.00  0.00    -0.049 Br
BRANCH   9  18
ATOM     18  C   UNL     1      -0.952  -1.069  -1.239  1.00  0.00     0.091 C 
ATOM     19  C   UNL     1       0.400  -1.147  -1.978  1.00  0.00     0.032 C 
BRANCH  18  20
ATOM     20  C   UNL     1      -1.585   0.356  -1.535  1.00  0.00     0.006 C 
ATOM     21  C   UNL     1      -2.923   0.502  -2.244  1.00  0.00     0.009 C 
ATOM     22  C   UNL     1      -1.647   1.201  -0.249  1.00  0.00     0.009 C 
ENDBRANCH  18  20
ENDBRANCH   9  18
ENDBRANCH   7   8
ENDBRANCH   6   7
ENDBRANCH   3   6
ENDBRANCH   1   2
BRANCH   1  23
ATOM     23  C   UNL     1       3.198  -4.301  -0.508  1.00  0.00     0.042 C 
BRANCH  23  24
ATOM     24  C   UNL     1       3.991  -3.672  -1.635  1.00  0.00     0.118 C 
BRANCH  24  25
ATOM     25  N   UNL     1       5.442  -3.675  -1.456  1.00  0.00    -0.352 N 
ATOM     26  C   UNL     1       6.431  -3.455  -2.406  1.00  0.00     0.251 C 
ATOM     27  H   UNL     1       5.760  -3.856  -0.542  1.00  0.00     0.163 HD
ATOM     28  O   UNL     1       7.598  -3.712  -2.155  1.00  0.00    -0.269 OA
BRANCH  26  29
ATOM     29  C   UNL     1       6.057  -2.908  -3.732  1.00  0.00     0.039 A 
ATOM     30  C   UNL     1       6.774  -3.213  -4.893  1.00  0.00     0.014 A 
ATOM     31  C   UNL     1       4.954  -2.066  -3.807  1.00  0.00     0.014 A 
ATOM     32  C   UNL     1       6.338  -2.682  -6.108  1.00  0.00     0.010 A 
ATOM     33  C   UNL     1       4.384  -1.766  -5.007  1.00  0.00     0.010 A 
ATOM     34  C   UNL     1       5.136  -1.956  -6.147  1.00  0.00    -0.014 A 
BRANCH  34  35
ATOM     35  C   UNL     1       4.579  -1.418  -7.374  1.00  0.00     0.031 A 
ATOM     36  C   UNL     1       4.338  -2.440  -8.413  1.00  0.00     0.074 A 
ATOM     37  C   UNL     1       4.118  -0.152  -7.490  1.00  0.00     0.049 A 
ATOM     38  N   UNL     1       5.017  -2.610  -9.494  1.00  0.00    -0.248 NA
ATOM     39  C   UNL     1       3.342  -3.490  -8.151  1.00  0.00     0.031 C 
ATOM     40  C   UNL     1       3.982   0.887  -6.459  1.00  0.00     0.029 A 
ATOM     41  N   UNL     1       3.567   0.446  -8.578  1.00  0.00    -0.354 N 
ATOM     42  C   UNL     1       4.409  -3.663 -10.161  1.00  0.00     0.074 A 
ATOM     43  C   UNL     1       3.515  -4.280  -9.212  1.00  0.00     0.031 C 
ATOM     44  C   UNL     1       3.189   1.885  -6.916  1.00  0.00     0.029 A 
ATOM     45  C   UNL     1       2.914   1.647  -8.320  1.00  0.00     0.049 A 
ATOM     46  H   UNL     1       3.624   0.058  -9.481  1.00  0.00     0.167 HD
ATOM     47  C   UNL     1       4.504  -3.776 -11.513  1.00  0.00     0.031 A 
ATOM     48  C   UNL     1       2.195   2.377  -9.209  1.00  0.00     0.031 A 
ATOM     49  C   UNL     1       5.522  -2.902 -12.045  1.00  0.00     0.049 A 
ATOM     50  C   UNL     1       2.639   1.965 -10.560  1.00  0.00     0.074 A 
ATOM     51  C   UNL     1       6.886  -2.778 -11.868  1.00  0.00     0.029 A 
ATOM     52  N   UNL     1       5.096  -1.702 -12.564  1.00  0.00    -0.354 N 
ATOM     53  N   UNL     1       3.834   2.195 -11.020  1.00  0.00    -0.248 NA
ATOM     54  C   UNL     1       1.908   0.895 -11.218  1.00  0.00     0.031 C 
ATOM     55  C   UNL     1       7.125  -1.372 -11.836  1.00  0.00     0.029 A 
ATOM     56  C   UNL     1       5.915  -0.717 -12.074  1.00  0.00     0.049 A 
ATOM     57  H   UNL     1       4.339  -1.572 -13.179  1.00  0.00     0.167 HD
ATOM     58  C   UNL     1       4.178   1.034 -11.695  1.00  0.00     0.074 A 
ATOM     59  C   UNL     1       2.918   0.310 -11.869  1.00  0.00     0.031 C 
ATOM     60  C   UNL     1       5.481   0.635 -11.792  1.00  0.00     0.031 A 
BRANCH  47  61
ATOM     61  C   UNL     1       3.410  -4.341 -12.380  1.00  0.00    -0.014 A 
ATOM     62  C   UNL     1       3.640  -4.447 -13.763  1.00  0.00     0.009 A 
ATOM     63  C   UNL     1       2.084  -4.512 -11.942  1.00  0.00     0.009 A 
ATOM     64  C   UNL     1       2.585  -4.641 -14.662  1.00  0.00     0.001 A 
ATOM     65  C   UNL     1       1.034  -4.747 -12.833  1.00  0.00     0.001 A 
ATOM     66  C   UNL     1       1.282  -4.784 -14.197  1.00  0.00     0.000 A 
ENDBRANCH  47  61
BRANCH  48  67
ATOM     67  C   UNL     1       0.961   3.169  -9.008  1.00  0.00    -0.014 A 
ATOM     68  C   UNL     1       0.520   4.064  -9.998  1.00  0.00     0.009 A 
ATOM     69  C   UNL     1       0.050   2.813  -7.998  1.00  0.00     0.009 A 
ATOM     70  C   UNL     1      -0.801   4.534 -10.012  1.00  0.00     0.001 A 
ATOM     71  C   UNL     1      -1.269   3.284  -8.011  1.00  0.00     0.001 A 
ATOM     72  C   UNL     1      -1.700   4.129  -9.030  1.00  0.00     0.000 A 
ENDBRANCH  48  67
BRANCH  60  73
ATOM     73  C   UNL     1       6.553   1.601 -11.339  1.00  0.00    -0.014 A 
ATOM     74  C   UNL     1       6.677   2.055 -10.013  1.00  0.00     0.009 A 
ATOM     75  C   UNL     1       7.569   1.930 -12.248  1.00  0.00     0.009 A 
ATOM     76  C   UNL     1       7.777   2.828  -9.618  1.00  0.00     0.001 A 
ATOM     77  C   UNL     1       8.675   2.683 -11.850  1.00  0.00     0.001 A 
ATOM     78  C   UNL     1       8.779   3.134 -10.536  1.00  0.00     0.000 A 
ENDBRANCH  60  73
ENDBRANCH  34  35
ENDBRANCH  26  29
ENDBRANCH  24  25
ENDBRANCH  23  24
ENDBRANCH   1  23
TORSDOF 14
