REMARK SMILES C[C@@H]1CC[C@H](C)[N@H+]1Cc1cc2c(cc1Cl)C=C(C(=O)NCCCNC(=O)c1ccc(-c3c4nc(c(-c5ccccc5)c5ccc([nH]5)c(-c5ccccc5)c5nc(c(-c6ccccc6)c6ccc3[nH]6)C=C5)C=C4)cc1)[C@@H](C(F)(F)F)O2
REMARK SMILES IDX 22 1 21 2 20 3 18 4 19 5 17 7 9 8 10 9 14 10 11 11 13 12
REMARK SMILES IDX 15 13 12 14 80 15 16 16 75 17 8 18 7 19 6 20 5 21 4 22 3 23
REMARK SMILES IDX 2 24 1 26 76 27 77 28 78 29 79 30 23 31 24 32 25 33 26 35
REMARK SMILES IDX 27 36 28 37 74 38 29 39 73 40 30 41 31 42 32 43 67 44 33 45
REMARK SMILES IDX 72 46 66 47 68 48 34 49 71 50 65 51 64 52 35 54 57 55 42 56
REMARK SMILES IDX 56 57 43 58 46 59 55 60 69 61 44 62 45 63 54 65 70 66 47 67
REMARK SMILES IDX 36 68 37 69 41 70 38 71 40 72 39 73 58 74 59 75 63 76 60 77
REMARK SMILES IDX 62 78 61 79 48 80 49 81 53 82 50 83 52 84 51 85
REMARK H PARENT 20 6 7 25 24 34 68 53 46 64
REMARK Flexibility Score: inf
ROOT
ATOM      1  C   UNL     1      -9.159   0.189   2.062  1.00  0.00     0.042 C 
ENDROOT
BRANCH   1   2
ATOM      2  C   UNL     1      -8.634   0.863   3.320  1.00  0.00     0.118 C 
BRANCH   2   3
ATOM      3  N   UNL     1      -8.137  -0.117   4.272  1.00  0.00    -0.352 N 
ATOM      4  C   UNL     1      -6.937  -0.548   4.717  1.00  0.00     0.251 C 
ATOM      5  O   UNL     1      -6.983  -1.480   5.526  1.00  0.00    -0.270 OA
ATOM      6  H   UNL     1      -8.876  -0.597   4.712  1.00  0.00     0.163 HD
BRANCH   4   7
ATOM      7  C   UNL     1      -5.622   0.014   4.311  1.00  0.00     0.067 C 
ATOM      8  C   UNL     1      -0.696   0.972   3.829  1.00  0.00     0.029 A 
ATOM      9  C   UNL     1      -1.817   1.117   2.988  1.00  0.00     0.058 A 
ATOM     10  C   UNL     1      -0.910   0.483   5.130  1.00  0.00     0.050 A 
ATOM     11  C   UNL     1      -3.076   0.703   3.407  1.00  0.00     0.128 A 
ATOM     12  C   UNL     1      -2.165  -0.006   5.515  1.00  0.00     0.033 A 
ATOM     13  Cl  UNL     1       0.302   0.526   6.362  1.00  0.00    -0.084 Cl
ATOM     14  C   UNL     1      -3.246   0.085   4.644  1.00  0.00     0.019 A 
ATOM     15  O   UNL     1      -4.130   0.915   2.558  1.00  0.00    -0.475 OA
ATOM     16  C   UNL     1      -4.556  -0.447   4.992  1.00  0.00     0.025 C 
ATOM     17  C   UNL     1      -5.414   1.047   3.240  1.00  0.00     0.314 C 
BRANCH   8  18
ATOM     18  C   UNL     1       0.670   1.327   3.268  1.00  0.00     0.301 C 
BRANCH  18  19
ATOM     19  N   UNL     1       1.408   0.244   2.595  1.00  0.00    -0.327 N 
ATOM     20  C   UNL     1       1.124   0.261   0.135  1.00  0.00     0.075 C 
ATOM     21  C   UNL     1       0.746  -0.403   1.452  1.00  0.00     0.181 C 
ATOM     22  C   UNL     1       1.197  -1.862   1.502  1.00  0.00     0.071 C 
ATOM     23  C   UNL     1       1.382  -2.102   2.984  1.00  0.00     0.071 C 
ATOM     24  C   UNL     1       1.964  -0.785   3.481  1.00  0.00     0.181 C 
ATOM     25  H   UNL     1       2.179   0.792   2.213  1.00  0.00     0.348 HD
ATOM     26  C   UNL     1       3.488  -0.750   3.381  1.00  0.00     0.075 C 
ENDBRANCH  18  19
ENDBRANCH   8  18
BRANCH  17  27
ATOM     27  C   UNL     1      -5.599   2.486   3.771  1.00  0.00     0.429 C 
ATOM     28  F   UNL     1      -5.797   3.348   2.743  1.00  0.00    -0.167 F 
ATOM     29  F   UNL     1      -6.679   2.600   4.582  1.00  0.00    -0.167 F 
ATOM     30  F   UNL     1      -4.538   2.935   4.478  1.00  0.00    -0.167 F 
ENDBRANCH  17  27
ENDBRANCH   4   7
ENDBRANCH   2   3
ENDBRANCH   1   2
BRANCH   1  31
ATOM     31  C   UNL     1     -10.487  -0.514   2.307  1.00  0.00     0.118 C 
BRANCH  31  32
ATOM     32  N   UNL     1     -11.578   0.435   2.512  1.00  0.00    -0.352 N 
ATOM     33  C   UNL     1     -12.582   0.826   1.655  1.00  0.00     0.251 C 
ATOM     34  H   UNL     1     -11.598   0.861   3.400  1.00  0.00     0.163 HD
ATOM     35  O   UNL     1     -13.264   1.807   1.904  1.00  0.00    -0.269 OA
BRANCH  33  36
ATOM     36  C   UNL     1     -12.805   0.058   0.413  1.00  0.00     0.039 A 
ATOM     37  C   UNL     1     -12.804  -1.335   0.451  1.00  0.00     0.014 A 
ATOM     38  C   UNL     1     -12.978   0.733  -0.797  1.00  0.00     0.014 A 
ATOM     39  C   UNL     1     -12.755  -2.050  -0.736  1.00  0.00     0.010 A 
ATOM     40  C   UNL     1     -13.044   0.003  -1.987  1.00  0.00     0.010 A 
ATOM     41  C   UNL     1     -12.874  -1.390  -1.970  1.00  0.00    -0.014 A 
BRANCH  41  42
ATOM     42  C   UNL     1     -12.808  -2.184  -3.222  1.00  0.00     0.031 A 
ATOM     43  C   UNL     1     -11.700  -1.962  -4.216  1.00  0.00     0.074 A 
ATOM     44  C   UNL     1     -13.715  -3.160  -3.426  1.00  0.00     0.049 A 
ATOM     45  N   UNL     1     -11.493  -2.564  -5.361  1.00  0.00    -0.248 NA
ATOM     46  C   UNL     1     -10.694  -0.937  -3.891  1.00  0.00     0.031 C 
ATOM     47  C   UNL     1     -14.812  -3.492  -2.513  1.00  0.00     0.029 A 
ATOM     48  N   UNL     1     -13.839  -4.074  -4.440  1.00  0.00    -0.354 N 
ATOM     49  C   UNL     1     -10.359  -1.971  -5.902  1.00  0.00     0.074 A 
ATOM     50  C   UNL     1      -9.928  -0.951  -4.973  1.00  0.00     0.031 C 
ATOM     51  C   UNL     1     -15.453  -4.575  -2.973  1.00  0.00     0.029 A 
ATOM     52  C   UNL     1     -14.871  -4.961  -4.253  1.00  0.00     0.049 A 
ATOM     53  H   UNL     1     -13.246  -4.092  -5.226  1.00  0.00     0.167 HD
ATOM     54  C   UNL     1      -9.735  -2.257  -7.069  1.00  0.00     0.031 A 
ATOM     55  C   UNL     1     -15.320  -5.962  -5.032  1.00  0.00     0.031 A 
ATOM     56  C   UNL     1     -10.156  -3.290  -7.978  1.00  0.00     0.049 A 
ATOM     57  C   UNL     1     -14.637  -6.228  -6.340  1.00  0.00     0.074 A 
ATOM     58  C   UNL     1      -9.579  -3.661  -9.180  1.00  0.00     0.029 A 
ATOM     59  N   UNL     1     -11.249  -4.119  -7.782  1.00  0.00    -0.354 N 
ATOM     60  N   UNL     1     -13.581  -5.641  -6.848  1.00  0.00    -0.248 NA
ATOM     61  C   UNL     1     -15.211  -7.282  -7.188  1.00  0.00     0.031 C 
ATOM     62  C   UNL     1     -10.353  -4.680  -9.737  1.00  0.00     0.029 A 
ATOM     63  C   UNL     1     -11.376  -4.986  -8.854  1.00  0.00     0.049 A 
ATOM     64  H   UNL     1     -11.845  -4.095  -6.999  1.00  0.00     0.167 HD
ATOM     65  C   UNL     1     -13.357  -6.256  -8.071  1.00  0.00     0.074 A 
ATOM     66  C   UNL     1     -14.376  -7.277  -8.220  1.00  0.00     0.031 C 
ATOM     67  C   UNL     1     -12.397  -5.993  -8.988  1.00  0.00     0.031 A 
BRANCH  54  68
ATOM     68  C   UNL     1      -8.537  -1.434  -7.455  1.00  0.00    -0.014 A 
ATOM     69  C   UNL     1      -8.630  -0.541  -8.535  1.00  0.00     0.009 A 
ATOM     70  C   UNL     1      -7.296  -1.611  -6.825  1.00  0.00     0.009 A 
ATOM     71  C   UNL     1      -7.502   0.146  -8.987  1.00  0.00     0.001 A 
ATOM     72  C   UNL     1      -6.175  -0.902  -7.263  1.00  0.00     0.001 A 
ATOM     73  C   UNL     1      -6.276  -0.033  -8.349  1.00  0.00     0.000 A 
ENDBRANCH  54  68
BRANCH  55  74
ATOM     74  C   UNL     1     -16.489  -6.762  -4.583  1.00  0.00    -0.014 A 
ATOM     75  C   UNL     1     -17.761  -6.172  -4.491  1.00  0.00     0.009 A 
ATOM     76  C   UNL     1     -16.328  -8.093  -4.172  1.00  0.00     0.009 A 
ATOM     77  C   UNL     1     -18.839  -6.884  -3.964  1.00  0.00     0.001 A 
ATOM     78  C   UNL     1     -17.417  -8.814  -3.674  1.00  0.00     0.001 A 
ATOM     79  C   UNL     1     -18.667  -8.206  -3.559  1.00  0.00     0.000 A 
ENDBRANCH  55  74
BRANCH  67  80
ATOM     80  C   UNL     1     -12.381  -6.822 -10.240  1.00  0.00    -0.014 A 
ATOM     81  C   UNL     1     -11.353  -7.756 -10.442  1.00  0.00     0.009 A 
ATOM     82  C   UNL     1     -13.315  -6.601 -11.262  1.00  0.00     0.009 A 
ATOM     83  C   UNL     1     -11.251  -8.443 -11.651  1.00  0.00     0.001 A 
ATOM     84  C   UNL     1     -13.225  -7.309 -12.462  1.00  0.00     0.001 A 
ATOM     85  C   UNL     1     -12.188  -8.221 -12.659  1.00  0.00     0.000 A 
ENDBRANCH  67  80
ENDBRANCH  41  42
ENDBRANCH  33  36
ENDBRANCH  31  32
ENDBRANCH   1  31
TORSDOF 13
