REMARK SMILES Cc1nn(C)c(=O)c(C(=O)N[C@H](C)CC(=O)NCCCNC(=O)c2ccc(-c3c4nc(c(-c5ccccc5)c5ccc([nH]5)c(-c5ccccc5)c5nc(c(-c6ccccc6)c6ccc3[nH]6)C=C5)C=C4)cc2)c1C
REMARK SMILES IDX 18 1 17 2 15 3 16 4 14 6 12 7 13 8 11 9 9 10 10 11 8 13 1 14
REMARK SMILES IDX 2 15 3 16 72 17 4 18 73 19 5 20 6 21 7 22 19 23 20 24 21 25
REMARK SMILES IDX 22 26 23 28 24 29 25 30 71 31 26 32 70 33 27 34 28 35 29 36
REMARK SMILES IDX 64 37 30 38 69 39 63 40 65 41 31 42 68 43 62 44 61 45 32 47
REMARK SMILES IDX 54 48 39 49 53 50 40 51 43 52 52 53 66 54 41 55 42 56 51 58
REMARK SMILES IDX 67 59 44 60 33 61 34 62 38 63 35 64 37 65 36 66 55 67 56 68
REMARK SMILES IDX 60 69 57 70 59 71 58 72 45 73 46 74 50 75 47 76 49 77 48 78
REMARK H PARENT 17 5 11 12 21 27 65 46 43 57
REMARK Flexibility Score: inf
ROOT
ATOM      1  C   UNL     1       0.182   6.255   2.915  1.00  0.00     0.117 C 
ENDROOT
BRANCH   1   2
ATOM      2  N   UNL     1      -0.012   4.822   3.075  1.00  0.00    -0.356 N 
ATOM      3  C   UNL     1       0.903   3.815   3.192  1.00  0.00     0.222 C 
ATOM      4  O   UNL     1       0.485   2.659   3.259  1.00  0.00    -0.275 OA
ATOM      5  H   UNL     1      -0.952   4.532   3.103  1.00  0.00     0.163 HD
BRANCH   3   6
ATOM      6  C   UNL     1       2.391   4.117   3.268  1.00  0.00     0.124 C 
BRANCH   6   7
ATOM      7  C   UNL     1       2.957   4.630   1.935  1.00  0.00     0.088 C 
ATOM      8  C   UNL     1       3.685   5.971   2.090  1.00  0.00     0.031 C 
BRANCH   7   9
ATOM      9  N   UNL     1       3.815   3.646   1.266  1.00  0.00    -0.349 N 
ATOM     10  C   UNL     1       4.242   3.629  -0.039  1.00  0.00     0.257 C 
ATOM     11  O   UNL     1       4.956   2.721  -0.450  1.00  0.00    -0.269 OA
ATOM     12  H   UNL     1       4.126   2.899   1.827  1.00  0.00     0.164 HD
BRANCH  10  13
ATOM     13  C   UNL     1       3.774   4.710  -0.939  1.00  0.00     0.111 A 
ATOM     14  C   UNL     1       0.645   6.166  -2.441  1.00  0.00     0.069 C 
ATOM     15  C   UNL     1       2.112   5.890  -2.186  1.00  0.00     0.062 A 
ATOM     16  N   UNL     1       2.932   6.800  -2.607  1.00  0.00    -0.175 NA
ATOM     17  C   UNL     1       2.517   4.682  -1.416  1.00  0.00    -0.010 A 
ATOM     18  N   UNL     1       4.254   6.684  -2.272  1.00  0.00    -0.232 N 
ATOM     19  C   UNL     1       1.541   3.559  -1.235  1.00  0.00     0.047 C 
ATOM     20  C   UNL     1       5.137   7.689  -2.838  1.00  0.00     0.178 C 
ATOM     21  C   UNL     1       4.736   5.764  -1.350  1.00  0.00     0.279 A 
ATOM     22  O   UNL     1       5.874   5.793  -0.889  1.00  0.00    -0.267 OA
ENDBRANCH  10  13
ENDBRANCH   7   9
ENDBRANCH   6   7
ENDBRANCH   3   6
ENDBRANCH   1   2
BRANCH   1  23
ATOM     23  C   UNL     1       0.039   6.684   1.453  1.00  0.00     0.042 C 
BRANCH  23  24
ATOM     24  C   UNL     1      -1.410   6.835   0.995  1.00  0.00     0.118 C 
BRANCH  24  25
ATOM     25  N   UNL     1      -1.918   8.165   1.277  1.00  0.00    -0.352 N 
ATOM     26  C   UNL     1      -2.238   9.198   0.431  1.00  0.00     0.251 C 
ATOM     27  H   UNL     1      -2.055   8.359   2.233  1.00  0.00     0.163 HD
ATOM     28  O   UNL     1      -2.389  10.321   0.908  1.00  0.00    -0.269 OA
BRANCH  26  29
ATOM     29  C   UNL     1      -2.414   9.005  -1.032  1.00  0.00     0.039 A 
ATOM     30  C   UNL     1      -2.046  10.054  -1.885  1.00  0.00     0.014 A 
ATOM     31  C   UNL     1      -3.042   7.878  -1.571  1.00  0.00     0.014 A 
ATOM     32  C   UNL     1      -2.292   9.971  -3.260  1.00  0.00     0.010 A 
ATOM     33  C   UNL     1      -3.236   7.770  -2.954  1.00  0.00     0.010 A 
ATOM     34  C   UNL     1      -2.885   8.824  -3.811  1.00  0.00    -0.014 A 
BRANCH  34  35
ATOM     35  C   UNL     1      -3.186   8.745  -5.266  1.00  0.00     0.031 A 
ATOM     36  C   UNL     1      -4.613   8.741  -5.752  1.00  0.00     0.074 A 
ATOM     37  C   UNL     1      -2.184   8.674  -6.163  1.00  0.00     0.049 A 
ATOM     38  N   UNL     1      -5.069   8.649  -6.977  1.00  0.00    -0.248 NA
ATOM     39  C   UNL     1      -5.665   8.845  -4.728  1.00  0.00     0.031 C 
ATOM     40  C   UNL     1      -0.756   8.677  -5.841  1.00  0.00     0.029 A 
ATOM     41  N   UNL     1      -2.217   8.592  -7.534  1.00  0.00    -0.354 N 
ATOM     42  C   UNL     1      -6.454   8.675  -6.870  1.00  0.00     0.074 A 
ATOM     43  C   UNL     1      -6.766   8.752  -5.459  1.00  0.00     0.031 C 
ATOM     44  C   UNL     1      -0.051   8.632  -6.983  1.00  0.00     0.029 A 
ATOM     45  C   UNL     1      -0.972   8.560  -8.114  1.00  0.00     0.049 A 
ATOM     46  H   UNL     1      -3.054   8.560  -8.052  1.00  0.00     0.167 HD
ATOM     47  C   UNL     1      -7.385   8.655  -7.854  1.00  0.00     0.031 A 
ATOM     48  C   UNL     1      -0.609   8.479  -9.409  1.00  0.00     0.031 A 
ATOM     49  C   UNL     1      -7.091   8.594  -9.261  1.00  0.00     0.049 A 
ATOM     50  C   UNL     1      -1.661   8.409 -10.479  1.00  0.00     0.074 A 
ATOM     51  C   UNL     1      -7.976   8.601 -10.326  1.00  0.00     0.029 A 
ATOM     52  N   UNL     1      -5.818   8.519  -9.799  1.00  0.00    -0.354 N 
ATOM     53  N   UNL     1      -2.965   8.452 -10.359  1.00  0.00    -0.248 NA
ATOM     54  C   UNL     1      -1.188   8.280 -11.867  1.00  0.00     0.031 C 
ATOM     55  C   UNL     1      -7.239   8.488 -11.509  1.00  0.00     0.029 A 
ATOM     56  C   UNL     1      -5.894   8.457 -11.180  1.00  0.00     0.049 A 
ATOM     57  H   UNL     1      -4.983   8.511  -9.277  1.00  0.00     0.167 HD
ATOM     58  C   UNL     1      -3.467   8.373 -11.652  1.00  0.00     0.074 A 
ATOM     59  C   UNL     1      -2.329   8.293 -12.543  1.00  0.00     0.031 C 
ATOM     60  C   UNL     1      -4.758   8.370 -12.060  1.00  0.00     0.031 A 
BRANCH  47  61
ATOM     61  C   UNL     1      -8.830   8.700  -7.442  1.00  0.00    -0.014 A 
ATOM     62  C   UNL     1      -9.412   9.889  -6.977  1.00  0.00     0.009 A 
ATOM     63  C   UNL     1      -9.632   7.556  -7.579  1.00  0.00     0.009 A 
ATOM     64  C   UNL     1     -10.764   9.925  -6.631  1.00  0.00     0.001 A 
ATOM     65  C   UNL     1     -10.989   7.602  -7.254  1.00  0.00     0.001 A 
ATOM     66  C   UNL     1     -11.552   8.784  -6.775  1.00  0.00     0.000 A 
ENDBRANCH  47  61
BRANCH  48  67
ATOM     67  C   UNL     1       0.832   8.475  -9.770  1.00  0.00    -0.014 A 
ATOM     68  C   UNL     1       1.417   9.608 -10.356  1.00  0.00     0.009 A 
ATOM     69  C   UNL     1       1.628   7.346  -9.524  1.00  0.00     0.009 A 
ATOM     70  C   UNL     1       2.770   9.605 -10.700  1.00  0.00     0.001 A 
ATOM     71  C   UNL     1       2.986   7.356  -9.848  1.00  0.00     0.001 A 
ATOM     72  C   UNL     1       3.554   8.482 -10.441  1.00  0.00     0.000 A 
ENDBRANCH  48  67
BRANCH  60  73
ATOM     73  C   UNL     1      -5.020   8.290 -13.536  1.00  0.00    -0.014 A 
ATOM     74  C   UNL     1      -4.875   7.080 -14.232  1.00  0.00     0.009 A 
ATOM     75  C   UNL     1      -5.479   9.423 -14.227  1.00  0.00     0.009 A 
ATOM     76  C   UNL     1      -5.167   7.012 -15.596  1.00  0.00     0.001 A 
ATOM     77  C   UNL     1      -5.791   9.346 -15.585  1.00  0.00     0.001 A 
ATOM     78  C   UNL     1      -5.630   8.142 -16.269  1.00  0.00     0.000 A 
ENDBRANCH  60  73
ENDBRANCH  34  35
ENDBRANCH  26  29
ENDBRANCH  24  25
ENDBRANCH  23  24
ENDBRANCH   1  23
TORSDOF 13
