REMARK SMILES COCCNC(=O)NC(=O)C[N@H+]1CC[C@H](C(=O)NCCCNC(=O)c2ccc(-c3c4nc(c(-c5ccccc5)c5ccc([nH]5)c(-c5ccccc5)c5nc(c(-c6ccccc6)c6ccc3[nH]6)C=C5)C=C4)cc2)[C@@H]1C
REMARK SMILES IDX 16 1 17 2 18 3 15 5 12 6 13 7 73 8 14 10 74 11 11 12 9 13
REMARK SMILES IDX 5 14 6 15 7 17 8 18 10 20 4 21 3 22 2 23 1 24 19 25 20 26
REMARK SMILES IDX 21 27 22 28 23 29 24 31 25 32 26 33 72 34 27 35 71 36 28 37
REMARK SMILES IDX 29 38 30 39 65 40 31 41 70 42 64 43 66 44 32 45 69 46 63 47
REMARK SMILES IDX 62 48 33 50 55 51 40 52 54 53 41 54 44 55 53 56 67 57 42 58
REMARK SMILES IDX 43 59 52 61 68 62 45 63 34 64 35 65 39 66 36 67 38 68 37 69
REMARK SMILES IDX 56 70 57 71 61 72 58 73 60 74 59 75 46 76 47 77 51 78 48 79
REMARK SMILES IDX 50 80 49 81
REMARK H PARENT 18 4 12 9 5 16 8 19 22 30 66 49 44 60
REMARK Flexibility Score: inf
ROOT
ATOM      1  C   UNL     1       3.579   3.765   2.777  1.00  0.00     0.229 C 
ATOM      2  O   UNL     1       3.222   4.124   1.656  1.00  0.00    -0.275 OA
ATOM      3  N   UNL     1       4.871   3.996   3.149  1.00  0.00    -0.356 N 
ATOM      4  H   UNL     1       5.442   4.385   2.447  1.00  0.00     0.163 HD
ENDROOT
BRANCH   1   5
ATOM      5  C   UNL     1       2.656   3.030   3.732  1.00  0.00     0.142 C 
ATOM      6  N   UNL     1       1.319   1.039   3.316  1.00  0.00    -0.324 N 
ATOM      7  C   UNL     1       0.572   2.228   2.867  1.00  0.00     0.263 C 
ATOM      8  C   UNL     1       2.704   1.498   3.573  1.00  0.00     0.194 C 
ATOM      9  H   UNL     1       1.324   0.306   2.606  1.00  0.00     0.348 HD
ATOM     10  C   UNL     1       1.195   3.420   3.551  1.00  0.00     0.081 C 
ATOM     11  C   UNL     1       3.563   0.942   2.435  1.00  0.00     0.076 C 
BRANCH   6  12
ATOM     12  C   UNL     1       0.684   0.402   4.474  1.00  0.00     0.364 C 
BRANCH  12  13
ATOM     13  C   UNL     1       1.408  -0.852   4.947  1.00  0.00     0.283 C 
ATOM     14  N   UNL     1       0.907  -2.138   1.900  1.00  0.00    -0.335 N 
ATOM     15  C   UNL     1       1.758  -2.413   2.887  1.00  0.00     0.321 C 
ATOM     16  H   UNL     1       1.221  -2.467   1.027  1.00  0.00     0.165 HD
ATOM     17  O   UNL     1       2.696  -3.173   2.622  1.00  0.00    -0.248 OA
ATOM     18  N   UNL     1       1.653  -1.972   4.172  1.00  0.00    -0.273 N 
ATOM     19  H   UNL     1       1.812  -2.735   4.774  1.00  0.00     0.175 HD
ATOM     20  O   UNL     1       1.842  -0.888   6.109  1.00  0.00    -0.268 OA
BRANCH  14  21
ATOM     21  C   UNL     1      -0.373  -1.467   1.814  1.00  0.00     0.146 C 
BRANCH  21  22
ATOM     22  C   UNL     1      -0.308  -0.270   0.863  1.00  0.00     0.181 C 
BRANCH  22  23
ATOM     23  O   UNL     1      -0.459  -0.658  -0.506  1.00  0.00    -0.383 OA
ATOM     24  C   UNL     1       0.782  -0.752  -1.197  1.00  0.00     0.194 C 
ENDBRANCH  22  23
ENDBRANCH  21  22
ENDBRANCH  14  21
ENDBRANCH  12  13
ENDBRANCH   6  12
ENDBRANCH   1   5
BRANCH   3  25
ATOM     25  C   UNL     1       5.535   3.758   4.420  1.00  0.00     0.117 C 
BRANCH  25  26
ATOM     26  C   UNL     1       6.585   2.656   4.350  1.00  0.00     0.042 C 
BRANCH  26  27
ATOM     27  C   UNL     1       7.667   2.886   3.300  1.00  0.00     0.118 C 
BRANCH  27  28
ATOM     28  N   UNL     1       8.377   4.139   3.507  1.00  0.00    -0.352 N 
ATOM     29  C   UNL     1       9.676   4.377   3.868  1.00  0.00     0.251 C 
ATOM     30  H   UNL     1       7.835   4.949   3.364  1.00  0.00     0.163 HD
ATOM     31  O   UNL     1      10.003   5.509   4.227  1.00  0.00    -0.269 OA
BRANCH  29  32
ATOM     32  C   UNL     1      10.688   3.301   3.836  1.00  0.00     0.039 A 
ATOM     33  C   UNL     1      11.661   3.267   4.839  1.00  0.00     0.014 A 
ATOM     34  C   UNL     1      10.727   2.370   2.794  1.00  0.00     0.014 A 
ATOM     35  C   UNL     1      12.646   2.279   4.817  1.00  0.00     0.010 A 
ATOM     36  C   UNL     1      11.660   1.336   2.817  1.00  0.00     0.010 A 
ATOM     37  C   UNL     1      12.642   1.293   3.816  1.00  0.00    -0.014 A 
BRANCH  37  38
ATOM     38  C   UNL     1      13.672   0.227   3.808  1.00  0.00     0.031 A 
ATOM     39  C   UNL     1      14.680   0.143   2.696  1.00  0.00     0.074 A 
ATOM     40  C   UNL     1      13.675  -0.695   4.789  1.00  0.00     0.049 A 
ATOM     41  N   UNL     1      15.687  -0.683   2.557  1.00  0.00    -0.248 NA
ATOM     42  C   UNL     1      14.521   1.087   1.579  1.00  0.00     0.031 C 
ATOM     43  C   UNL     1      12.700  -0.774   5.878  1.00  0.00     0.029 A 
ATOM     44  N   UNL     1      14.531  -1.739   5.028  1.00  0.00    -0.354 N 
ATOM     45  C   UNL     1      16.265  -0.372   1.333  1.00  0.00     0.074 A 
ATOM     46  C   UNL     1      15.467   0.682   0.746  1.00  0.00     0.031 C 
ATOM     47  C   UNL     1      13.034  -1.790   6.690  1.00  0.00     0.029 A 
ATOM     48  C   UNL     1      14.233  -2.439   6.171  1.00  0.00     0.049 A 
ATOM     49  H   UNL     1      15.286  -1.964   4.438  1.00  0.00     0.167 HD
ATOM     50  C   UNL     1      17.371  -0.900   0.757  1.00  0.00     0.031 A 
ATOM     51  C   UNL     1      14.867  -3.475   6.749  1.00  0.00     0.031 A 
ATOM     52  C   UNL     1      18.174  -1.936   1.349  1.00  0.00     0.049 A 
ATOM     53  C   UNL     1      16.134  -3.997   6.136  1.00  0.00     0.074 A 
ATOM     54  C   UNL     1      19.360  -2.482   0.889  1.00  0.00     0.029 A 
ATOM     55  N   UNL     1      17.867  -2.587   2.534  1.00  0.00    -0.354 N 
ATOM     56  N   UNL     1      16.732  -3.618   5.032  1.00  0.00    -0.248 NA
ATOM     57  C   UNL     1      16.827  -5.067   6.864  1.00  0.00     0.031 C 
ATOM     58  C   UNL     1      19.750  -3.491   1.777  1.00  0.00     0.029 A 
ATOM     59  C   UNL     1      18.831  -3.542   2.813  1.00  0.00     0.049 A 
ATOM     60  H   UNL     1      17.081  -2.398   3.095  1.00  0.00     0.167 HD
ATOM     61  C   UNL     1      17.881  -4.391   4.941  1.00  0.00     0.074 A 
ATOM     62  C   UNL     1      17.905  -5.245   6.113  1.00  0.00     0.031 C 
ATOM     63  C   UNL     1      18.832  -4.393   3.975  1.00  0.00     0.031 A 
BRANCH  50  64
ATOM     64  C   UNL     1      17.765  -0.361  -0.590  1.00  0.00    -0.014 A 
ATOM     65  C   UNL     1      18.267   0.943  -0.735  1.00  0.00     0.009 A 
ATOM     66  C   UNL     1      17.633  -1.167  -1.731  1.00  0.00     0.009 A 
ATOM     67  C   UNL     1      18.580   1.445  -2.000  1.00  0.00     0.001 A 
ATOM     68  C   UNL     1      17.974  -0.672  -2.991  1.00  0.00     0.001 A 
ATOM     69  C   UNL     1      18.435   0.637  -3.127  1.00  0.00     0.000 A 
ENDBRANCH  50  64
BRANCH  51  70
ATOM     70  C   UNL     1      14.335  -4.040   8.013  1.00  0.00    -0.014 A 
ATOM     71  C   UNL     1      14.953  -3.748   9.238  1.00  0.00     0.009 A 
ATOM     72  C   UNL     1      13.179  -4.837   8.006  1.00  0.00     0.009 A 
ATOM     73  C   UNL     1      14.432  -4.254  10.431  1.00  0.00     0.001 A 
ATOM     74  C   UNL     1      12.649  -5.323   9.202  1.00  0.00     0.001 A 
ATOM     75  C   UNL     1      13.278  -5.035  10.413  1.00  0.00     0.000 A 
ENDBRANCH  51  70
BRANCH  63  76
ATOM     76  C   UNL     1      19.983  -5.340   4.156  1.00  0.00    -0.014 A 
ATOM     77  C   UNL     1      19.822  -6.722   3.973  1.00  0.00     0.009 A 
ATOM     78  C   UNL     1      21.250  -4.839   4.492  1.00  0.00     0.009 A 
ATOM     79  C   UNL     1      20.900  -7.588   4.161  1.00  0.00     0.001 A 
ATOM     80  C   UNL     1      22.332  -5.705   4.654  1.00  0.00     0.001 A 
ATOM     81  C   UNL     1      22.154  -7.080   4.499  1.00  0.00     0.000 A 
ENDBRANCH  63  76
ENDBRANCH  37  38
ENDBRANCH  29  32
ENDBRANCH  27  28
ENDBRANCH  26  27
ENDBRANCH  25  26
ENDBRANCH   3  25
TORSDOF 15
