REMARK SMILES C[C@@H]1[C@@H](C(=O)NCCCNC(=O)c2ccc(-c3c4nc(c(-c5ccccc5)c5ccc([nH]5)c(-c5ccccc5)c5nc(c(-c6ccccc6)c6ccc3[nH]6)C=C5)C=C4)cc2)CCN1C(=O)NC[C@@H]1COCCO1
REMARK SMILES IDX 7 1 6 2 4 3 5 4 3 6 1 7 2 8 63 9 61 10 62 11 64 12 65 13
REMARK SMILES IDX 66 14 67 16 68 17 69 18 73 19 70 20 72 21 71 22 8 23 9 24
REMARK SMILES IDX 10 25 11 26 12 28 13 29 14 30 60 31 15 32 59 33 16 34 17 35
REMARK SMILES IDX 18 36 53 37 19 38 58 39 52 40 54 41 20 42 57 43 51 44 50 45
REMARK SMILES IDX 21 47 43 48 28 49 42 50 29 51 32 52 41 53 55 54 30 55 31 56
REMARK SMILES IDX 40 58 56 59 33 60 22 61 23 62 27 63 24 64 26 65 25 66 44 67
REMARK SMILES IDX 45 68 49 69 46 70 48 71 47 72 34 73 35 74 39 75 36 76 38 77
REMARK SMILES IDX 37 78
REMARK H PARENT 6 5 66 15 10 27 54 46 32 57
REMARK Flexibility Score: inf
ROOT
ATOM      1  C   UNL     1      -2.749   2.750  -0.749  1.00  0.00     0.117 C 
ENDROOT
BRANCH   1   2
ATOM      2  N   UNL     1      -1.966   2.059  -1.754  1.00  0.00    -0.356 N 
ATOM      3  C   UNL     1      -0.874   1.264  -1.613  1.00  0.00     0.225 C 
ATOM      4  O   UNL     1      -0.347   0.856  -2.648  1.00  0.00    -0.275 OA
ATOM      5  H   UNL     1      -2.273   2.186  -2.681  1.00  0.00     0.163 HD
BRANCH   3   6
ATOM      6  C   UNL     1      -0.305   0.998  -0.224  1.00  0.00     0.102 C 
ATOM      7  C   UNL     1       1.843   0.173   0.809  1.00  0.00     0.032 C 
ATOM      8  C   UNL     1       0.813  -0.066  -0.296  1.00  0.00     0.096 C 
ATOM      9  N   UNL     1       0.112  -1.347  -0.119  1.00  0.00    -0.321 N 
ATOM     10  C   UNL     1      -1.293   0.351   0.748  1.00  0.00     0.037 C 
ATOM     11  C   UNL     1      -1.230  -1.116   0.386  1.00  0.00     0.122 C 
BRANCH   9  12
ATOM     12  C   UNL     1       0.408  -2.627  -0.467  1.00  0.00     0.317 C 
ATOM     13  O   UNL     1      -0.388  -3.544  -0.236  1.00  0.00    -0.249 OA
ATOM     14  N   UNL     1       1.541  -2.995  -1.077  1.00  0.00    -0.335 N 
ATOM     15  H   UNL     1       1.552  -3.962  -1.263  1.00  0.00     0.165 HD
BRANCH  14  16
ATOM     16  C   UNL     1       2.757  -2.351  -1.539  1.00  0.00     0.152 C 
BRANCH  16  17
ATOM     17  C   UNL     1       3.911  -2.570  -0.557  1.00  0.00     0.163 C 
ATOM     18  C   UNL     1       5.006  -1.517  -0.777  1.00  0.00     0.194 C 
ATOM     19  O   UNL     1       4.449  -3.894  -0.766  1.00  0.00    -0.372 OA
ATOM     20  O   UNL     1       6.117  -1.749   0.101  1.00  0.00    -0.376 OA
ATOM     21  C   UNL     1       5.556  -4.118   0.118  1.00  0.00     0.189 C 
ATOM     22  C   UNL     1       6.641  -3.068  -0.115  1.00  0.00     0.188 C 
ENDBRANCH  16  17
ENDBRANCH  14  16
ENDBRANCH   9  12
ENDBRANCH   3   6
ENDBRANCH   1   2
BRANCH   1  23
ATOM     23  C   UNL     1      -3.051   4.186  -1.132  1.00  0.00     0.042 C 
BRANCH  23  24
ATOM     24  C   UNL     1      -3.760   4.338  -2.468  1.00  0.00     0.118 C 
BRANCH  24  25
ATOM     25  N   UNL     1      -5.078   3.720  -2.494  1.00  0.00    -0.352 N 
ATOM     26  C   UNL     1      -6.330   4.292  -2.531  1.00  0.00     0.251 C 
ATOM     27  H   UNL     1      -5.074   2.735  -2.485  1.00  0.00     0.163 HD
ATOM     28  O   UNL     1      -7.326   3.600  -2.380  1.00  0.00    -0.269 OA
BRANCH  26  29
ATOM     29  C   UNL     1      -6.464   5.754  -2.712  1.00  0.00     0.039 A 
ATOM     30  C   UNL     1      -7.383   6.453  -1.926  1.00  0.00     0.014 A 
ATOM     31  C   UNL     1      -5.672   6.437  -3.635  1.00  0.00     0.014 A 
ATOM     32  C   UNL     1      -7.437   7.847  -2.003  1.00  0.00     0.010 A 
ATOM     33  C   UNL     1      -5.639   7.825  -3.620  1.00  0.00     0.010 A 
ATOM     34  C   UNL     1      -6.527   8.547  -2.812  1.00  0.00    -0.014 A 
BRANCH  34  35
ATOM     35  C   UNL     1      -6.492  10.031  -2.842  1.00  0.00     0.031 A 
ATOM     36  C   UNL     1      -6.729  10.764  -4.136  1.00  0.00     0.074 A 
ATOM     37  C   UNL     1      -6.177  10.719  -1.726  1.00  0.00     0.049 A 
ATOM     38  N   UNL     1      -6.664  12.048  -4.383  1.00  0.00    -0.248 NA
ATOM     39  C   UNL     1      -7.048   9.943  -5.317  1.00  0.00     0.031 C 
ATOM     40  C   UNL     1      -5.879  10.129  -0.418  1.00  0.00     0.029 A 
ATOM     41  N   UNL     1      -6.049  12.069  -1.516  1.00  0.00    -0.354 N 
ATOM     42  C   UNL     1      -6.911  12.182  -5.743  1.00  0.00     0.074 A 
ATOM     43  C   UNL     1      -7.063  10.849  -6.282  1.00  0.00     0.031 C 
ATOM     44  C   UNL     1      -5.645  11.113   0.465  1.00  0.00     0.029 A 
ATOM     45  C   UNL     1      -5.725  12.398  -0.221  1.00  0.00     0.049 A 
ATOM     46  H   UNL     1      -6.178  12.739  -2.225  1.00  0.00     0.167 HD
ATOM     47  C   UNL     1      -7.028  13.313  -6.478  1.00  0.00     0.031 A 
ATOM     48  C   UNL     1      -5.513  13.599   0.349  1.00  0.00     0.031 A 
ATOM     49  C   UNL     1      -6.895  14.640  -5.941  1.00  0.00     0.049 A 
ATOM     50  C   UNL     1      -5.633  14.840  -0.491  1.00  0.00     0.074 A 
ATOM     51  C   UNL     1      -7.052  15.852  -6.590  1.00  0.00     0.029 A 
ATOM     52  N   UNL     1      -6.572  14.928  -4.624  1.00  0.00    -0.354 N 
ATOM     53  N   UNL     1      -5.933  14.952  -1.763  1.00  0.00    -0.248 NA
ATOM     54  C   UNL     1      -5.395  16.122   0.187  1.00  0.00     0.031 C 
ATOM     55  C   UNL     1      -6.771  16.873  -5.677  1.00  0.00     0.029 A 
ATOM     56  C   UNL     1      -6.502  16.299  -4.445  1.00  0.00     0.049 A 
ATOM     57  H   UNL     1      -6.417  14.257  -3.920  1.00  0.00     0.167 HD
ATOM     58  C   UNL     1      -5.951  16.315  -2.028  1.00  0.00     0.074 A 
ATOM     59  C   UNL     1      -5.648  16.989  -0.783  1.00  0.00     0.031 C 
ATOM     60  C   UNL     1      -6.199  16.952  -3.199  1.00  0.00     0.031 A 
BRANCH  47  61
ATOM     61  C   UNL     1      -7.314  13.158  -7.946  1.00  0.00    -0.014 A 
ATOM     62  C   UNL     1      -8.552  12.673  -8.400  1.00  0.00     0.009 A 
ATOM     63  C   UNL     1      -6.344  13.527  -8.891  1.00  0.00     0.009 A 
ATOM     64  C   UNL     1      -8.797  12.523  -9.767  1.00  0.00     0.001 A 
ATOM     65  C   UNL     1      -6.604  13.407 -10.258  1.00  0.00     0.001 A 
ATOM     66  C   UNL     1      -7.825  12.895 -10.694  1.00  0.00     0.000 A 
ENDBRANCH  47  61
BRANCH  48  67
ATOM     67  C   UNL     1      -5.182  13.692   1.796  1.00  0.00    -0.014 A 
ATOM     68  C   UNL     1      -6.106  14.237   2.702  1.00  0.00     0.009 A 
ATOM     69  C   UNL     1      -3.941  13.250   2.278  1.00  0.00     0.009 A 
ATOM     70  C   UNL     1      -5.781  14.364   4.054  1.00  0.00     0.001 A 
ATOM     71  C   UNL     1      -3.631  13.349   3.637  1.00  0.00     0.001 A 
ATOM     72  C   UNL     1      -4.547  13.916   4.521  1.00  0.00     0.000 A 
ENDBRANCH  48  67
BRANCH  60  73
ATOM     73  C   UNL     1      -6.193  18.455  -3.179  1.00  0.00    -0.014 A 
ATOM     74  C   UNL     1      -5.000  19.180  -3.040  1.00  0.00     0.009 A 
ATOM     75  C   UNL     1      -7.399  19.154  -3.346  1.00  0.00     0.009 A 
ATOM     76  C   UNL     1      -5.020  20.577  -3.034  1.00  0.00     0.001 A 
ATOM     77  C   UNL     1      -7.412  20.549  -3.372  1.00  0.00     0.001 A 
ATOM     78  C   UNL     1      -6.225  21.259  -3.206  1.00  0.00     0.000 A 
ENDBRANCH  60  73
ENDBRANCH  34  35
ENDBRANCH  26  29
ENDBRANCH  24  25
ENDBRANCH  23  24
ENDBRANCH   1  23
TORSDOF 13
