REMARK SMILES O=C(CSc1ccc(NC(=O)c2cccc3ccccc23)cc1)NCCCNC(=O)c1ccc(-c2c3nc(c(-c4ccccc4)c4ccc([nH]4)c(-c4ccccc4)c4nc(c(-c5ccccc5)c5ccc2[nH]5)C=C4)C=C3)cc1
REMARK SMILES IDX 25 1 24 2 1 3 2 4 3 6 4 7 5 8 6 9 23 10 7 11 22 12 8 13 9 14
REMARK SMILES IDX 10 15 11 17 12 18 13 19 21 20 14 21 16 22 20 23 15 24 17 25
REMARK SMILES IDX 19 26 18 27 26 28 27 29 28 30 29 31 30 33 31 34 32 35 78 36
REMARK SMILES IDX 33 37 77 38 34 39 35 40 36 41 71 42 37 43 76 44 70 45 72 46
REMARK SMILES IDX 38 47 75 48 69 49 68 50 39 52 61 53 46 54 60 55 47 56 50 57
REMARK SMILES IDX 59 58 73 59 48 60 49 61 58 63 74 64 51 65 40 66 41 67 45 68
REMARK SMILES IDX 42 69 44 70 43 71 62 72 63 73 67 74 64 75 66 76 65 77 52 78
REMARK SMILES IDX 53 79 57 80 54 81 56 82 55 83
REMARK H PARENT 24 5 9 16 28 32 72 51 50 62
REMARK Flexibility Score: inf
ROOT
ATOM      1  C   UNL     1       2.202  -0.282   2.518  1.00  0.00     0.117 C 
ENDROOT
BRANCH   1   2
ATOM      2  N   UNL     1       2.842  -0.158   1.230  1.00  0.00    -0.355 N 
ATOM      3  O   UNL     1       1.094  -0.966  -0.008  1.00  0.00    -0.274 OA
ATOM      4  C   UNL     1       2.207  -0.447   0.045  1.00  0.00     0.230 C 
ATOM      5  H   UNL     1       3.777   0.147   1.198  1.00  0.00     0.163 HD
BRANCH   4   6
ATOM      6  C   UNL     1       2.976  -0.091  -1.220  1.00  0.00     0.174 C 
BRANCH   6   7
ATOM      7  S   UNL     1       4.228   1.220  -0.965  1.00  0.00    -0.116 SA
BRANCH   7   8
ATOM      8  C   UNL     1       3.266   2.672  -0.548  1.00  0.00     0.008 A 
ATOM      9  C   UNL     1       3.987   3.853  -0.330  1.00  0.00     0.017 A 
ATOM     10  C   UNL     1       1.875   2.722  -0.444  1.00  0.00     0.017 A 
ATOM     11  C   UNL     1       3.334   5.070  -0.109  1.00  0.00     0.027 A 
ATOM     12  C   UNL     1       1.221   3.936  -0.217  1.00  0.00     0.027 A 
ATOM     13  C   UNL     1       1.946   5.126  -0.144  1.00  0.00     0.041 A 
BRANCH  13  14
ATOM     14  N   UNL     1       1.198   6.306  -0.217  1.00  0.00    -0.322 N 
ATOM     15  C   UNL     1       1.493   7.581  -0.629  1.00  0.00     0.256 C 
ATOM     16  H   UNL     1       0.269   6.199   0.091  1.00  0.00     0.170 HD
ATOM     17  O   UNL     1       0.601   8.430  -0.541  1.00  0.00    -0.269 OA
BRANCH  15  18
ATOM     18  C   UNL     1       2.797   8.021  -1.183  1.00  0.00     0.048 A 
ATOM     19  C   UNL     1       3.315   9.166  -0.552  1.00  0.00     0.014 A 
ATOM     20  C   UNL     1       3.457   7.453  -2.315  1.00  0.00    -0.006 A 
ATOM     21  C   UNL     1       4.469   9.774  -1.023  1.00  0.00     0.001 A 
ATOM     22  C   UNL     1       4.641   8.092  -2.773  1.00  0.00    -0.018 A 
ATOM     23  C   UNL     1       3.050   6.290  -3.021  1.00  0.00     0.009 A 
ATOM     24  C   UNL     1       5.115   9.249  -2.136  1.00  0.00     0.009 A 
ATOM     25  C   UNL     1       5.359   7.569  -3.860  1.00  0.00     0.009 A 
ATOM     26  C   UNL     1       3.828   5.730  -4.040  1.00  0.00     0.001 A 
ATOM     27  C   UNL     1       4.977   6.377  -4.468  1.00  0.00     0.001 A 
ENDBRANCH  15  18
ENDBRANCH  13  14
ENDBRANCH   7   8
ENDBRANCH   6   7
ENDBRANCH   4   6
ENDBRANCH   1   2
BRANCH   1  28
ATOM     28  C   UNL     1       2.539  -1.594   3.209  1.00  0.00     0.042 C 
BRANCH  28  29
ATOM     29  C   UNL     1       4.026  -1.786   3.491  1.00  0.00     0.118 C 
BRANCH  29  30
ATOM     30  N   UNL     1       4.570  -0.796   4.411  1.00  0.00    -0.352 N 
ATOM     31  C   UNL     1       5.261  -0.955   5.587  1.00  0.00     0.251 C 
ATOM     32  H   UNL     1       4.416   0.139   4.146  1.00  0.00     0.163 HD
ATOM     33  O   UNL     1       5.505   0.028   6.279  1.00  0.00    -0.269 OA
BRANCH  31  34
ATOM     34  C   UNL     1       5.691  -2.296   6.045  1.00  0.00     0.039 A 
ATOM     35  C   UNL     1       5.584  -2.598   7.406  1.00  0.00     0.014 A 
ATOM     36  C   UNL     1       6.217  -3.244   5.164  1.00  0.00     0.014 A 
ATOM     37  C   UNL     1       5.937  -3.868   7.867  1.00  0.00     0.010 A 
ATOM     38  C   UNL     1       6.490  -4.537   5.611  1.00  0.00     0.010 A 
ATOM     39  C   UNL     1       6.352  -4.864   6.968  1.00  0.00    -0.014 A 
BRANCH  39  40
ATOM     40  C   UNL     1       6.606  -6.252   7.437  1.00  0.00     0.031 A 
ATOM     41  C   UNL     1       7.975  -6.868   7.330  1.00  0.00     0.074 A 
ATOM     42  C   UNL     1       5.583  -6.978   7.931  1.00  0.00     0.049 A 
ATOM     43  N   UNL     1       8.374  -8.060   7.701  1.00  0.00    -0.248 NA
ATOM     44  C   UNL     1       9.028  -6.051   6.707  1.00  0.00     0.031 C 
ATOM     45  C   UNL     1       4.197  -6.519   8.045  1.00  0.00     0.029 A 
ATOM     46  N   UNL     1       5.552  -8.255   8.434  1.00  0.00    -0.354 N 
ATOM     47  C   UNL     1       9.716  -8.137   7.351  1.00  0.00     0.074 A 
ATOM     48  C   UNL     1      10.050  -6.895   6.689  1.00  0.00     0.031 C 
ATOM     49  C   UNL     1       3.461  -7.482   8.623  1.00  0.00     0.029 A 
ATOM     50  C   UNL     1       4.310  -8.640   8.879  1.00  0.00     0.049 A 
ATOM     51  H   UNL     1       6.343  -8.839   8.473  1.00  0.00     0.167 HD
ATOM     52  C   UNL     1      10.598  -9.142   7.577  1.00  0.00     0.031 A 
ATOM     53  C   UNL     1       3.897  -9.796   9.432  1.00  0.00     0.031 A 
ATOM     54  C   UNL     1      10.266 -10.381   8.231  1.00  0.00     0.049 A 
ATOM     55  C   UNL     1       4.891 -10.900   9.657  1.00  0.00     0.074 A 
ATOM     56  C   UNL     1      11.102 -11.438   8.550  1.00  0.00     0.029 A 
ATOM     57  N   UNL     1       8.996 -10.735   8.660  1.00  0.00    -0.354 N 
ATOM     58  N   UNL     1       6.174 -10.926   9.389  1.00  0.00    -0.248 NA
ATOM     59  C   UNL     1       4.379 -12.130  10.277  1.00  0.00     0.031 C 
ATOM     60  C   UNL     1      10.327 -12.456   9.115  1.00  0.00     0.029 A 
ATOM     61  C   UNL     1       9.021 -12.005   9.214  1.00  0.00     0.049 A 
ATOM     62  H   UNL     1       8.195 -10.168   8.581  1.00  0.00     0.167 HD
ATOM     63  C   UNL     1       6.628 -12.160   9.836  1.00  0.00     0.074 A 
ATOM     64  C   UNL     1       5.488 -12.842  10.412  1.00  0.00     0.031 C 
ATOM     65  C   UNL     1       7.879 -12.680   9.776  1.00  0.00     0.031 A 
BRANCH  52  66
ATOM     66  C   UNL     1      12.012  -8.944   7.099  1.00  0.00    -0.014 A 
ATOM     67  C   UNL     1      12.860  -8.000   7.701  1.00  0.00     0.009 A 
ATOM     68  C   UNL     1      12.518  -9.742   6.061  1.00  0.00     0.009 A 
ATOM     69  C   UNL     1      14.171  -7.834   7.248  1.00  0.00     0.001 A 
ATOM     70  C   UNL     1      13.838  -9.597   5.632  1.00  0.00     0.001 A 
ATOM     71  C   UNL     1      14.661  -8.636   6.218  1.00  0.00     0.000 A 
ENDBRANCH  52  66
BRANCH  53  72
ATOM     72  C   UNL     1       2.474  -9.964   9.833  1.00  0.00    -0.014 A 
ATOM     73  C   UNL     1       2.119 -10.046  11.188  1.00  0.00     0.009 A 
ATOM     74  C   UNL     1       1.465 -10.054   8.862  1.00  0.00     0.009 A 
ATOM     75  C   UNL     1       0.787 -10.248  11.561  1.00  0.00     0.001 A 
ATOM     76  C   UNL     1       0.131 -10.221   9.238  1.00  0.00     0.001 A 
ATOM     77  C   UNL     1      -0.205 -10.330  10.586  1.00  0.00     0.000 A 
ENDBRANCH  53  72
BRANCH  65  78
ATOM     78  C   UNL     1       8.083 -14.041  10.386  1.00  0.00    -0.014 A 
ATOM     79  C   UNL     1       7.529 -15.196   9.811  1.00  0.00     0.009 A 
ATOM     80  C   UNL     1       8.853 -14.168  11.553  1.00  0.00     0.009 A 
ATOM     81  C   UNL     1       7.699 -16.441  10.422  1.00  0.00     0.001 A 
ATOM     82  C   UNL     1       9.051 -15.418  12.141  1.00  0.00     0.001 A 
ATOM     83  C   UNL     1       8.462 -16.551  11.584  1.00  0.00     0.000 A 
ENDBRANCH  65  78
ENDBRANCH  39  40
ENDBRANCH  31  34
ENDBRANCH  29  30
ENDBRANCH  28  29
ENDBRANCH   1  28
TORSDOF 14
