REMARK SMILES O=C(Cn1nc(-c2ccc(Br)cc2)ccc1=O)N[C@H](C(=O)NCCCNC(=O)c1ccc(-c2c3nc(c(-c4ccccc4)c4ccc([nH]4)c(-c4ccccc4)c4nc(c(-c5ccccc5)c5ccc2[nH]5)C=C4)C=C3)cc1)c1ccccc1
REMARK SMILES IDX 23 1 22 2 20 3 21 4 19 6 18 7 1 8 2 9 3 11 4 12 5 13 16 14
REMARK SMILES IDX 6 15 15 16 17 17 14 18 7 19 8 20 13 21 9 22 12 23 10 24
REMARK SMILES IDX 11 25 77 26 78 27 82 28 79 29 81 30 80 31 24 32 25 33 26 34
REMARK SMILES IDX 27 35 28 37 29 38 30 39 76 40 31 41 75 42 32 43 33 44 34 45
REMARK SMILES IDX 69 46 35 47 74 48 68 49 70 50 36 51 73 52 67 53 66 54 37 56
REMARK SMILES IDX 59 57 44 58 58 59 45 60 48 61 57 62 71 63 46 64 47 65 56 67
REMARK SMILES IDX 72 68 49 69 38 70 39 71 43 72 40 73 42 74 41 75 60 76 61 77
REMARK SMILES IDX 65 78 62 79 64 80 63 81 50 82 51 83 55 84 52 85 54 86 53 87
REMARK H PARENT 22 5 18 10 26 36 70 55 48 66
REMARK Flexibility Score: inf
ROOT
ATOM      1  C   UNL     1       1.646   1.809  -0.985  1.00  0.00     0.117 C 
ENDROOT
BRANCH   1   2
ATOM      2  N   UNL     1       2.761   0.920  -0.731  1.00  0.00    -0.354 N 
ATOM      3  C   UNL     1       3.173  -0.199  -1.410  1.00  0.00     0.247 C 
ATOM      4  O   UNL     1       4.032  -0.883  -0.849  1.00  0.00    -0.272 OA
ATOM      5  H   UNL     1       3.309   1.155   0.052  1.00  0.00     0.163 HD
BRANCH   3   6
ATOM      6  C   UNL     1       2.506  -0.562  -2.773  1.00  0.00     0.202 C 
BRANCH   6   7
ATOM      7  N   UNL     1       2.866   0.415  -3.811  1.00  0.00    -0.339 N 
ATOM      8  O   UNL     1       5.133   0.192  -3.592  1.00  0.00    -0.273 OA
ATOM      9  C   UNL     1       4.167   0.614  -4.224  1.00  0.00     0.242 C 
ATOM     10  H   UNL     1       2.151   0.948  -4.228  1.00  0.00     0.164 HD
BRANCH   9  11
ATOM     11  C   UNL     1       4.365   1.529  -5.436  1.00  0.00     0.248 C 
BRANCH  11  12
ATOM     12  N   UNL     1       3.193   1.675  -6.299  1.00  0.00    -0.220 N 
ATOM     13  N   UNL     1       2.648   2.941  -6.380  1.00  0.00    -0.169 NA
ATOM     14  C   UNL     1       2.866   0.649  -7.177  1.00  0.00     0.267 A 
ATOM     15  C   UNL     1       1.700   3.126  -7.244  1.00  0.00     0.091 A 
ATOM     16  C   UNL     1       1.677   0.874  -8.024  1.00  0.00     0.075 A 
ATOM     17  O   UNL     1       3.463  -0.418  -7.266  1.00  0.00    -0.268 OA
ATOM     18  C   UNL     1       1.087   2.068  -8.069  1.00  0.00     0.036 A 
BRANCH  15  19
ATOM     19  C   UNL     1       1.219   4.494  -7.508  1.00  0.00     0.002 A 
ATOM     20  C   UNL     1       2.109   5.393  -8.109  1.00  0.00     0.011 A 
ATOM     21  C   UNL     1      -0.085   4.880  -7.194  1.00  0.00     0.011 A 
ATOM     22  C   UNL     1       1.687   6.687  -8.410  1.00  0.00     0.016 A 
ATOM     23  C   UNL     1      -0.500   6.182  -7.487  1.00  0.00     0.016 A 
ATOM     24  C   UNL     1       0.385   7.076  -8.096  1.00  0.00     0.018 A 
ATOM     25  Br  UNL     1      -0.186   8.833  -8.497  1.00  0.00    -0.051 Br
ENDBRANCH  15  19
ENDBRANCH  11  12
ENDBRANCH   9  11
ENDBRANCH   6   7
BRANCH   6  26
ATOM     26  C   UNL     1       2.633  -2.025  -3.207  1.00  0.00    -0.016 A 
ATOM     27  C   UNL     1       2.773  -2.389  -4.557  1.00  0.00     0.006 A 
ATOM     28  C   UNL     1       2.516  -3.068  -2.272  1.00  0.00     0.006 A 
ATOM     29  C   UNL     1       2.853  -3.726  -4.953  1.00  0.00     0.000 A 
ATOM     30  C   UNL     1       2.593  -4.409  -2.665  1.00  0.00     0.000 A 
ATOM     31  C   UNL     1       2.767  -4.738  -4.005  1.00  0.00     0.000 A 
ENDBRANCH   6  26
ENDBRANCH   3   6
ENDBRANCH   1   2
BRANCH   1  32
ATOM     32  C   UNL     1       0.488   1.550  -0.023  1.00  0.00     0.042 C 
BRANCH  32  33
ATOM     33  C   UNL     1       0.814   1.800   1.449  1.00  0.00     0.118 C 
BRANCH  33  34
ATOM     34  N   UNL     1       1.099   3.197   1.753  1.00  0.00    -0.352 N 
ATOM     35  C   UNL     1       0.574   4.021   2.721  1.00  0.00     0.251 C 
ATOM     36  H   UNL     1       1.775   3.617   1.173  1.00  0.00     0.163 HD
ATOM     37  O   UNL     1       0.871   5.214   2.730  1.00  0.00    -0.269 OA
BRANCH  35  38
ATOM     38  C   UNL     1      -0.381   3.498   3.724  1.00  0.00     0.039 A 
ATOM     39  C   UNL     1      -0.176   2.265   4.345  1.00  0.00     0.014 A 
ATOM     40  C   UNL     1      -1.509   4.259   4.045  1.00  0.00     0.014 A 
ATOM     41  C   UNL     1      -1.182   1.715   5.134  1.00  0.00     0.010 A 
ATOM     42  C   UNL     1      -2.481   3.741   4.907  1.00  0.00     0.010 A 
ATOM     43  C   UNL     1      -2.355   2.438   5.410  1.00  0.00    -0.014 A 
BRANCH  43  44
ATOM     44  C   UNL     1      -3.438   1.800   6.205  1.00  0.00     0.031 A 
ATOM     45  C   UNL     1      -4.775   1.495   5.583  1.00  0.00     0.074 A 
ATOM     46  C   UNL     1      -3.196   1.432   7.477  1.00  0.00     0.049 A 
ATOM     47  N   UNL     1      -5.800   0.866   6.103  1.00  0.00    -0.248 NA
ATOM     48  C   UNL     1      -4.997   1.958   4.204  1.00  0.00     0.031 C 
ATOM     49  C   UNL     1      -1.942   1.665   8.195  1.00  0.00     0.029 A 
ATOM     50  N   UNL     1      -3.978   0.755   8.380  1.00  0.00    -0.354 N 
ATOM     51  C   UNL     1      -6.789   0.876   5.128  1.00  0.00     0.074 A 
ATOM     52  C   UNL     1      -6.256   1.599   3.994  1.00  0.00     0.031 C 
ATOM     53  C   UNL     1      -2.016   1.085   9.402  1.00  0.00     0.029 A 
ATOM     54  C   UNL     1      -3.339   0.489   9.566  1.00  0.00     0.049 A 
ATOM     55  H   UNL     1      -4.907   0.486   8.195  1.00  0.00     0.167 HD
ATOM     56  C   UNL     1      -8.025   0.324   5.167  1.00  0.00     0.031 A 
ATOM     57  C   UNL     1      -3.761  -0.162  10.667  1.00  0.00     0.031 A 
ATOM     58  C   UNL     1      -8.551  -0.411   6.287  1.00  0.00     0.049 A 
ATOM     59  C   UNL     1      -5.143  -0.746  10.698  1.00  0.00     0.074 A 
ATOM     60  C   UNL     1      -9.774  -1.050   6.393  1.00  0.00     0.029 A 
ATOM     61  N   UNL     1      -7.893  -0.601   7.492  1.00  0.00    -0.354 N 
ATOM     62  N   UNL     1      -6.050  -0.759   9.752  1.00  0.00    -0.248 NA
ATOM     63  C   UNL     1      -5.560  -1.404  11.944  1.00  0.00     0.031 C 
ATOM     64  C   UNL     1      -9.883  -1.572   7.685  1.00  0.00     0.029 A 
ATOM     65  C   UNL     1      -8.700  -1.316   8.360  1.00  0.00     0.049 A 
ATOM     66  H   UNL     1      -6.987  -0.276   7.699  1.00  0.00     0.167 HD
ATOM     67  C   UNL     1      -7.143  -1.431  10.284  1.00  0.00     0.074 A 
ATOM     68  C   UNL     1      -6.778  -1.828  11.628  1.00  0.00     0.031 C 
ATOM     69  C   UNL     1      -8.339  -1.693   9.704  1.00  0.00     0.031 A 
BRANCH  56  70
ATOM     70  C   UNL     1      -8.915   0.505   3.968  1.00  0.00    -0.014 A 
ATOM     71  C   UNL     1     -10.061   1.310   4.071  1.00  0.00     0.009 A 
ATOM     72  C   UNL     1      -8.671  -0.176   2.765  1.00  0.00     0.009 A 
ATOM     73  C   UNL     1     -10.946   1.428   2.997  1.00  0.00     0.001 A 
ATOM     74  C   UNL     1      -9.543  -0.034   1.683  1.00  0.00     0.001 A 
ATOM     75  C   UNL     1     -10.682   0.761   1.802  1.00  0.00     0.000 A 
ENDBRANCH  56  70
BRANCH  57  76
ATOM     76  C   UNL     1      -2.830  -0.304  11.816  1.00  0.00    -0.014 A 
ATOM     77  C   UNL     1      -2.469   0.817  12.581  1.00  0.00     0.009 A 
ATOM     78  C   UNL     1      -2.228  -1.540  12.095  1.00  0.00     0.009 A 
ATOM     79  C   UNL     1      -1.496   0.712  13.576  1.00  0.00     0.001 A 
ATOM     80  C   UNL     1      -1.276  -1.647  13.111  1.00  0.00     0.001 A 
ATOM     81  C   UNL     1      -0.901  -0.520  13.841  1.00  0.00     0.000 A 
ENDBRANCH  57  76
BRANCH  69  82
ATOM     82  C   UNL     1      -9.362  -2.443  10.509  1.00  0.00    -0.014 A 
ATOM     83  C   UNL     1      -9.709  -3.756  10.150  1.00  0.00     0.009 A 
ATOM     84  C   UNL     1     -10.059  -1.817  11.554  1.00  0.00     0.009 A 
ATOM     85  C   UNL     1     -10.743  -4.421  10.810  1.00  0.00     0.001 A 
ATOM     86  C   UNL     1     -11.075  -2.496  12.231  1.00  0.00     0.001 A 
ATOM     87  C   UNL     1     -11.423  -3.792  11.851  1.00  0.00     0.000 A 
ENDBRANCH  69  82
ENDBRANCH  43  44
ENDBRANCH  35  38
ENDBRANCH  33  34
ENDBRANCH  32  33
ENDBRANCH   1  32
TORSDOF 15
