REMARK SMILES C[NH+]1CCN(C(=O)c2ccc3c(c2)N(CC(=O)NCCCNC(=O)c2ccc(-c4c5nc(c(-c6ccccc6)c6ccc([nH]6)c(-c6ccccc6)c6nc(c(-c7ccccc7)c7ccc4[nH]7)C=C6)C=C5)cc2)C(=O)CO3)CC1
REMARK SMILES IDX 20 1 19 2 18 3 16 4 17 5 15 7 14 8 8 9 9 10 13 11 10 12
REMARK SMILES IDX 12 13 11 14 76 15 73 16 75 17 74 18 6 19 1 20 2 21 3 22
REMARK SMILES IDX 78 23 4 25 77 26 5 27 7 28 21 29 22 30 23 31 24 33 25 34
REMARK SMILES IDX 26 35 72 36 27 37 71 38 28 39 29 40 30 41 65 42 31 43 70 44
REMARK SMILES IDX 64 45 66 46 32 47 69 48 63 49 62 50 33 52 55 53 40 54 54 55
REMARK SMILES IDX 41 56 44 57 53 58 67 59 42 60 43 61 52 63 68 64 45 65 34 66
REMARK SMILES IDX 35 67 39 68 36 69 38 70 37 71 56 72 57 73 61 74 58 75 60 76
REMARK SMILES IDX 59 77 46 78 47 79 51 80 48 81 50 82 49 83
REMARK H PARENT 18 6 2 24 22 32 66 51 44 62
REMARK Flexibility Score: inf
ROOT
ATOM      1  C   UNL     1      -2.407  -6.875   0.603  1.00  0.00     0.042 C 
ENDROOT
BRANCH   1   2
ATOM      2  C   UNL     1      -1.369  -6.719   1.710  1.00  0.00     0.117 C 
BRANCH   2   3
ATOM      3  N   UNL     1      -0.709  -5.429   1.675  1.00  0.00    -0.354 N 
ATOM      4  C   UNL     1      -0.885  -4.346   2.483  1.00  0.00     0.240 C 
ATOM      5  O   UNL     1      -0.123  -3.389   2.323  1.00  0.00    -0.273 OA
ATOM      6  H   UNL     1      -0.037  -5.319   0.964  1.00  0.00     0.163 HD
BRANCH   4   7
ATOM      7  C   UNL     1      -1.950  -4.326   3.586  1.00  0.00     0.225 C 
BRANCH   7   8
ATOM      8  N   UNL     1      -3.330  -4.410   3.105  1.00  0.00    -0.296 N 
ATOM      9  C   UNL     1      -3.771  -1.303   1.048  1.00  0.00     0.042 A 
ATOM     10  C   UNL     1      -4.994  -1.566   0.429  1.00  0.00     0.018 A 
ATOM     11  C   UNL     1      -3.230  -2.204   1.976  1.00  0.00     0.044 A 
ATOM     12  C   UNL     1      -5.660  -2.756   0.708  1.00  0.00     0.049 A 
ATOM     13  C   UNL     1      -3.882  -3.415   2.248  1.00  0.00     0.087 A 
ATOM     14  C   UNL     1      -5.111  -3.666   1.614  1.00  0.00     0.143 A 
ATOM     15  O   UNL     1      -5.817  -4.827   1.777  1.00  0.00    -0.482 OA
ATOM     16  C   UNL     1      -4.109  -5.493   3.494  1.00  0.00     0.265 C 
ATOM     17  C   UNL     1      -5.555  -5.453   3.018  1.00  0.00     0.330 C 
ATOM     18  O   UNL     1      -3.708  -6.397   4.227  1.00  0.00    -0.270 OA
BRANCH   9  19
ATOM     19  C   UNL     1      -3.097  -0.022   0.747  1.00  0.00     0.254 C 
ATOM     20  C   UNL     1       2.454   0.120   0.047  1.00  0.00     0.332 C 
ATOM     21  N   UNL     1       1.046   0.098  -0.349  1.00  0.00    -0.334 N 
ATOM     22  C   UNL     1       0.328   1.256   0.228  1.00  0.00     0.283 C 
ATOM     23  C   UNL     1       0.405  -1.151   0.115  1.00  0.00     0.283 C 
ATOM     24  H   UNL     1       1.002   0.147  -1.367  1.00  0.00     0.347 HD
ATOM     25  C   UNL     1      -1.176   1.246  -0.110  1.00  0.00     0.181 C 
ATOM     26  C   UNL     1      -1.083  -1.205  -0.277  1.00  0.00     0.181 C 
ATOM     27  N   UNL     1      -1.812  -0.032   0.221  1.00  0.00    -0.327 N 
ATOM     28  O   UNL     1      -3.737   1.005   0.966  1.00  0.00    -0.269 OA
ENDBRANCH   9  19
ENDBRANCH   7   8
ENDBRANCH   4   7
ENDBRANCH   2   3
ENDBRANCH   1   2
BRANCH   1  29
ATOM     29  C   UNL     1      -1.828  -6.876  -0.812  1.00  0.00     0.118 C 
BRANCH  29  30
ATOM     30  N   UNL     1      -0.927  -7.995  -1.054  1.00  0.00    -0.352 N 
ATOM     31  C   UNL     1      -0.968  -8.987  -2.000  1.00  0.00     0.251 C 
ATOM     32  H   UNL     1      -0.163  -8.047  -0.436  1.00  0.00     0.163 HD
ATOM     33  O   UNL     1      -0.186  -9.933  -1.910  1.00  0.00    -0.269 OA
BRANCH  31  34
ATOM     34  C   UNL     1      -1.938  -8.951  -3.115  1.00  0.00     0.039 A 
ATOM     35  C   UNL     1      -2.556 -10.146  -3.502  1.00  0.00     0.014 A 
ATOM     36  C   UNL     1      -2.204  -7.773  -3.819  1.00  0.00     0.014 A 
ATOM     37  C   UNL     1      -3.482 -10.148  -4.549  1.00  0.00     0.010 A 
ATOM     38  C   UNL     1      -3.172  -7.764  -4.823  1.00  0.00     0.010 A 
ATOM     39  C   UNL     1      -3.821  -8.951  -5.198  1.00  0.00    -0.014 A 
BRANCH  39  40
ATOM     40  C   UNL     1      -4.859  -8.920  -6.260  1.00  0.00     0.031 A 
ATOM     41  C   UNL     1      -4.492  -8.569  -7.676  1.00  0.00     0.074 A 
ATOM     42  C   UNL     1      -6.147  -9.143  -5.937  1.00  0.00     0.049 A 
ATOM     43  N   UNL     1      -5.272  -8.417  -8.717  1.00  0.00    -0.248 NA
ATOM     44  C   UNL     1      -3.066  -8.338  -7.954  1.00  0.00     0.031 C 
ATOM     45  C   UNL     1      -6.643  -9.461  -4.596  1.00  0.00     0.029 A 
ATOM     46  N   UNL     1      -7.279  -9.125  -6.713  1.00  0.00    -0.354 N 
ATOM     47  C   UNL     1      -4.437  -8.053  -9.765  1.00  0.00     0.074 A 
ATOM     48  C   UNL     1      -3.096  -7.972  -9.228  1.00  0.00     0.031 C 
ATOM     49  C   UNL     1      -7.975  -9.626  -4.648  1.00  0.00     0.029 A 
ATOM     50  C   UNL     1      -8.431  -9.387  -6.013  1.00  0.00     0.049 A 
ATOM     51  H   UNL     1      -7.266  -8.941  -7.681  1.00  0.00     0.167 HD
ATOM     52  C   UNL     1      -4.755  -7.819 -11.061  1.00  0.00     0.031 A 
ATOM     53  C   UNL     1      -9.714  -9.423  -6.420  1.00  0.00     0.031 A 
ATOM     54  C   UNL     1      -6.084  -7.914 -11.604  1.00  0.00     0.049 A 
ATOM     55  C   UNL     1     -10.039  -9.155  -7.862  1.00  0.00     0.074 A 
ATOM     56  C   UNL     1      -6.493  -7.751 -12.916  1.00  0.00     0.029 A 
ATOM     57  N   UNL     1      -7.220  -8.197 -10.863  1.00  0.00    -0.354 N 
ATOM     58  N   UNL     1      -9.229  -8.869  -8.852  1.00  0.00    -0.248 NA
ATOM     59  C   UNL     1     -11.458  -9.225  -8.243  1.00  0.00     0.031 C 
ATOM     60  C   UNL     1      -7.883  -7.896 -12.963  1.00  0.00     0.029 A 
ATOM     61  C   UNL     1      -8.333  -8.194 -11.687  1.00  0.00     0.049 A 
ATOM     62  H   UNL     1      -7.234  -8.374  -9.895  1.00  0.00     0.167 HD
ATOM     63  C   UNL     1     -10.035  -8.749  -9.976  1.00  0.00     0.074 A 
ATOM     64  C   UNL     1     -11.395  -9.008  -9.550  1.00  0.00     0.031 C 
ATOM     65  C   UNL     1      -9.679  -8.453 -11.249  1.00  0.00     0.031 A 
BRANCH  52  66
ATOM     66  C   UNL     1      -3.638  -7.426 -11.987  1.00  0.00    -0.014 A 
ATOM     67  C   UNL     1      -2.677  -8.362 -12.403  1.00  0.00     0.009 A 
ATOM     68  C   UNL     1      -3.570  -6.115 -12.483  1.00  0.00     0.009 A 
ATOM     69  C   UNL     1      -1.652  -7.983 -13.272  1.00  0.00     0.001 A 
ATOM     70  C   UNL     1      -2.558  -5.746 -13.371  1.00  0.00     0.001 A 
ATOM     71  C   UNL     1      -1.595  -6.677 -13.758  1.00  0.00     0.000 A 
ENDBRANCH  52  66
BRANCH  53  72
ATOM     72  C   UNL     1     -10.793  -9.736  -5.449  1.00  0.00    -0.014 A 
ATOM     73  C   UNL     1     -11.454 -10.973  -5.495  1.00  0.00     0.009 A 
ATOM     74  C   UNL     1     -11.171  -8.798  -4.476  1.00  0.00     0.009 A 
ATOM     75  C   UNL     1     -12.490 -11.254  -4.603  1.00  0.00     0.001 A 
ATOM     76  C   UNL     1     -12.191  -9.093  -3.568  1.00  0.00     0.001 A 
ATOM     77  C   UNL     1     -12.855 -10.316  -3.638  1.00  0.00     0.000 A 
ENDBRANCH  53  72
BRANCH  65  78
ATOM     78  C   UNL     1     -10.772  -8.425 -12.278  1.00  0.00    -0.014 A 
ATOM     79  C   UNL     1     -11.690  -7.365 -12.335  1.00  0.00     0.009 A 
ATOM     80  C   UNL     1     -10.861  -9.457 -13.225  1.00  0.00     0.009 A 
ATOM     81  C   UNL     1     -12.695  -7.355 -13.305  1.00  0.00     0.001 A 
ATOM     82  C   UNL     1     -11.851  -9.432 -14.208  1.00  0.00     0.001 A 
ATOM     83  C   UNL     1     -12.772  -8.386 -14.242  1.00  0.00     0.000 A 
ENDBRANCH  65  78
ENDBRANCH  39  40
ENDBRANCH  31  34
ENDBRANCH  29  30
ENDBRANCH   1  29
TORSDOF 12
