REMARK SMILES Cc1cc(Cl)c2c(c1)C=C(C(=O)NCCCNC(=O)c1ccc(-c3c4nc(c(-c5ccccc5)c5ccc([nH]5)c(-c5ccccc5)c5nc(c(-c6ccccc6)c6ccc3[nH]6)C=C5)C=C4)cc1)[C@@H](C(F)(F)F)O2
REMARK SMILES IDX 15 1 14 2 13 3 11 4 12 5 10 7 1 8 2 9 3 10 8 11 4 12 7 13
REMARK SMILES IDX 5 14 6 15 9 16 73 17 68 18 69 19 70 20 71 21 72 22 16 23
REMARK SMILES IDX 17 24 18 25 19 27 20 28 21 29 67 30 22 31 66 32 23 33 24 34
REMARK SMILES IDX 25 35 60 36 26 37 65 38 59 39 61 40 27 41 64 42 58 43 57 44
REMARK SMILES IDX 28 46 50 47 35 48 49 49 36 50 39 51 48 52 62 53 37 54 38 55
REMARK SMILES IDX 47 57 63 58 40 59 29 60 30 61 34 62 31 63 33 64 32 65 51 66
REMARK SMILES IDX 52 67 56 68 53 69 55 70 54 71 41 72 42 73 46 74 43 75 45 76
REMARK SMILES IDX 44 77
REMARK H PARENT 13 6 17 26 61 45 39 56
REMARK Flexibility Score: inf
ROOT
ATOM      1  C   UNL     1      -1.210   0.332   9.850  1.00  0.00     0.042 C 
ENDROOT
BRANCH   1   2
ATOM      2  C   UNL     1      -2.225   0.476   8.728  1.00  0.00     0.118 C 
BRANCH   2   3
ATOM      3  N   UNL     1      -1.949   1.635   7.892  1.00  0.00    -0.352 N 
ATOM      4  C   UNL     1      -1.494   1.869   6.640  1.00  0.00     0.251 C 
ATOM      5  O   UNL     1      -1.411   3.060   6.325  1.00  0.00    -0.270 OA
ATOM      6  H   UNL     1      -2.146   2.475   8.366  1.00  0.00     0.163 HD
BRANCH   4   7
ATOM      7  C   UNL     1      -1.099   0.815   5.661  1.00  0.00     0.067 C 
ATOM      8  C   UNL     1       1.006   0.155  -0.126  1.00  0.00     0.044 C 
ATOM      9  C   UNL     1       0.578  -0.272   1.246  1.00  0.00    -0.049 A 
ATOM     10  C   UNL     1       0.645  -1.624   1.607  1.00  0.00     0.028 A 
ATOM     11  C   UNL     1       0.169   0.673   2.199  1.00  0.00     0.015 A 
ATOM     12  C   UNL     1       0.295  -2.026   2.896  1.00  0.00     0.084 A 
ATOM     13  C   UNL     1      -0.190   0.272   3.491  1.00  0.00     0.019 A 
ATOM     14  Cl  UNL     1       0.395  -3.703   3.295  1.00  0.00    -0.080 Cl
ATOM     15  C   UNL     1      -0.129  -1.081   3.835  1.00  0.00     0.146 A 
ATOM     16  C   UNL     1      -0.584   1.252   4.497  1.00  0.00     0.025 C 
ATOM     17  O   UNL     1      -0.420  -1.514   5.099  1.00  0.00    -0.474 OA
ATOM     18  C   UNL     1      -1.273  -0.657   5.899  1.00  0.00     0.314 C 
BRANCH  18  19
ATOM     19  C   UNL     1      -2.738  -1.113   5.757  1.00  0.00     0.429 C 
ATOM     20  F   UNL     1      -2.921  -2.311   6.366  1.00  0.00    -0.167 F 
ATOM     21  F   UNL     1      -3.610  -0.253   6.338  1.00  0.00    -0.167 F 
ATOM     22  F   UNL     1      -3.122  -1.245   4.469  1.00  0.00    -0.167 F 
ENDBRANCH  18  19
ENDBRANCH   4   7
ENDBRANCH   2   3
ENDBRANCH   1   2
BRANCH   1  23
ATOM     23  C   UNL     1      -1.490   1.288  11.001  1.00  0.00     0.118 C 
BRANCH  23  24
ATOM     24  N   UNL     1      -2.770   1.000  11.644  1.00  0.00    -0.352 N 
ATOM     25  C   UNL     1      -3.041   0.404  12.848  1.00  0.00     0.251 C 
ATOM     26  H   UNL     1      -3.563   1.277  11.131  1.00  0.00     0.163 HD
ATOM     27  O   UNL     1      -4.175  -0.011  13.086  1.00  0.00    -0.269 OA
BRANCH  25  28
ATOM     28  C   UNL     1      -1.977   0.262  13.857  1.00  0.00     0.039 A 
ATOM     29  C   UNL     1      -1.904  -0.907  14.619  1.00  0.00     0.014 A 
ATOM     30  C   UNL     1      -1.067   1.299  14.071  1.00  0.00     0.014 A 
ATOM     31  C   UNL     1      -0.878  -1.056  15.552  1.00  0.00     0.010 A 
ATOM     32  C   UNL     1       0.011   1.109  14.923  1.00  0.00     0.010 A 
ATOM     33  C   UNL     1       0.106  -0.062  15.685  1.00  0.00    -0.014 A 
BRANCH  33  34
ATOM     34  C   UNL     1       1.227  -0.209  16.642  1.00  0.00     0.031 A 
ATOM     35  C   UNL     1       1.369   0.767  17.778  1.00  0.00     0.074 A 
ATOM     36  C   UNL     1       2.143  -1.178  16.452  1.00  0.00     0.049 A 
ATOM     37  N   UNL     1       2.314   0.848  18.679  1.00  0.00    -0.248 NA
ATOM     38  C   UNL     1       0.332   1.806  17.907  1.00  0.00     0.031 C 
ATOM     39  C   UNL     1       2.132  -2.155  15.360  1.00  0.00     0.029 A 
ATOM     40  N   UNL     1       3.267  -1.499  17.172  1.00  0.00    -0.354 N 
ATOM     41  C   UNL     1       1.994   1.949  19.463  1.00  0.00     0.074 A 
ATOM     42  C   UNL     1       0.800   2.540  18.905  1.00  0.00     0.031 C 
ATOM     43  C   UNL     1       3.179  -2.984  15.501  1.00  0.00     0.029 A 
ATOM     44  C   UNL     1       3.958  -2.572  16.664  1.00  0.00     0.049 A 
ATOM     45  H   UNL     1       3.550  -1.006  17.976  1.00  0.00     0.167 HD
ATOM     46  C   UNL     1       2.624   2.409  20.567  1.00  0.00     0.031 A 
ATOM     47  C   UNL     1       5.097  -3.154  17.085  1.00  0.00     0.031 A 
ATOM     48  C   UNL     1       3.790   1.796  21.139  1.00  0.00     0.049 A 
ATOM     49  C   UNL     1       5.779  -2.616  18.313  1.00  0.00     0.074 A 
ATOM     50  C   UNL     1       4.462   2.147  22.296  1.00  0.00     0.029 A 
ATOM     51  N   UNL     1       4.453   0.705  20.600  1.00  0.00    -0.354 N 
ATOM     52  N   UNL     1       5.419  -1.619  19.086  1.00  0.00    -0.248 NA
ATOM     53  C   UNL     1       7.016  -3.288  18.735  1.00  0.00     0.031 C 
ATOM     54  C   UNL     1       5.567   1.304  22.427  1.00  0.00     0.029 A 
ATOM     55  C   UNL     1       5.546   0.389  21.386  1.00  0.00     0.049 A 
ATOM     56  H   UNL     1       4.186   0.228  19.781  1.00  0.00     0.167 HD
ATOM     57  C   UNL     1       6.372  -1.559  20.094  1.00  0.00     0.074 A 
ATOM     58  C   UNL     1       7.311  -2.633  19.849  1.00  0.00     0.031 C 
ATOM     59  C   UNL     1       6.465  -0.688  21.128  1.00  0.00     0.031 A 
BRANCH  46  60
ATOM     60  C   UNL     1       2.063   3.623  21.251  1.00  0.00    -0.014 A 
ATOM     61  C   UNL     1       0.870   3.552  21.987  1.00  0.00     0.009 A 
ATOM     62  C   UNL     1       2.790   4.824  21.245  1.00  0.00     0.009 A 
ATOM     63  C   UNL     1       0.412   4.663  22.697  1.00  0.00     0.001 A 
ATOM     64  C   UNL     1       2.343   5.924  21.978  1.00  0.00     0.001 A 
ATOM     65  C   UNL     1       1.154   5.844  22.701  1.00  0.00     0.000 A 
ENDBRANCH  46  60
BRANCH  47  66
ATOM     66  C   UNL     1       5.662  -4.315  16.345  1.00  0.00    -0.014 A 
ATOM     67  C   UNL     1       5.677  -5.593  16.924  1.00  0.00     0.009 A 
ATOM     68  C   UNL     1       6.195  -4.150  15.057  1.00  0.00     0.009 A 
ATOM     69  C   UNL     1       6.240  -6.674  16.241  1.00  0.00     0.001 A 
ATOM     70  C   UNL     1       6.728  -5.239  14.363  1.00  0.00     0.001 A 
ATOM     71  C   UNL     1       6.760  -6.497  14.960  1.00  0.00     0.000 A 
ENDBRANCH  47  66
BRANCH  59  72
ATOM     72  C   UNL     1       7.606  -0.864  22.087  1.00  0.00    -0.014 A 
ATOM     73  C   UNL     1       8.918  -0.530  21.720  1.00  0.00     0.009 A 
ATOM     74  C   UNL     1       7.350  -1.282  23.403  1.00  0.00     0.009 A 
ATOM     75  C   UNL     1       9.956  -0.632  22.648  1.00  0.00     0.001 A 
ATOM     76  C   UNL     1       8.384  -1.352  24.337  1.00  0.00     0.001 A 
ATOM     77  C   UNL     1       9.686  -1.032  23.957  1.00  0.00     0.000 A 
ENDBRANCH  59  72
ENDBRANCH  33  34
ENDBRANCH  25  28
ENDBRANCH  23  24
ENDBRANCH   1  23
TORSDOF 11
