REMARK SMILES C[C@H](C(=O)NCCCNC(=O)c1ccc(-c2c3nc(c(-c4ccccc4)c4ccc([nH]4)c(-c4ccccc4)c4nc(c(-c5ccccc5)c5ccc2[nH]5)C=C4)C=C3)cc1)[C@H](C)[S@@](=O)C(C)(C)C
REMARK SMILES IDX 6 1 5 2 3 3 4 4 2 6 1 7 60 8 61 9 62 10 63 11 64 12 65 13
REMARK SMILES IDX 66 14 67 15 7 16 8 17 9 18 10 19 11 21 12 22 13 23 59 24
REMARK SMILES IDX 14 25 58 26 15 27 16 28 17 29 52 30 18 31 57 32 51 33 53 34
REMARK SMILES IDX 19 35 56 36 50 37 49 38 20 40 42 41 27 42 41 43 28 44 31 45
REMARK SMILES IDX 40 46 54 47 29 48 30 49 39 51 55 52 32 53 21 54 22 55 26 56
REMARK SMILES IDX 23 57 25 58 24 59 43 60 44 61 48 62 45 63 47 64 46 65 33 66
REMARK SMILES IDX 34 67 38 68 35 69 37 70 36 71
REMARK H PARENT 5 5 9 20 53 39 31 50
REMARK Flexibility Score: inf
ROOT
ATOM      1  C   UNL     1      -3.595   2.103   2.341  1.00  0.00     0.117 C 
ENDROOT
BRANCH   1   2
ATOM      2  N   UNL     1      -3.822   0.849   1.688  1.00  0.00    -0.356 N 
ATOM      3  C   UNL     1      -3.011  -0.175   1.385  1.00  0.00     0.224 C 
ATOM      4  O   UNL     1      -3.659  -1.229   1.264  1.00  0.00    -0.275 OA
ATOM      5  H   UNL     1      -4.755   0.713   1.406  1.00  0.00     0.163 HD
BRANCH   3   6
ATOM      6  C   UNL     1      -1.452  -0.216   1.314  1.00  0.00     0.090 C 
ATOM      7  C   UNL     1      -1.184  -1.422   0.329  1.00  0.00     0.019 C 
BRANCH   6   8
ATOM      8  C   UNL     1      -0.494   0.930   0.864  1.00  0.00     0.089 C 
ATOM      9  C   UNL     1       0.963   0.448   0.613  1.00  0.00     0.023 C 
BRANCH   8  10
ATOM     10  S   UNL     1      -0.231   2.506   1.717  1.00  0.00     0.030 S 
ATOM     11  O   UNL     1      -1.172   3.560   1.240  1.00  0.00    -0.259 OA
BRANCH  10  12
ATOM     12  C   UNL     1      -0.115   2.394   3.535  1.00  0.00     0.038 C 
ATOM     13  C   UNL     1      -0.663   1.130   4.191  1.00  0.00     0.025 C 
ATOM     14  C   UNL     1       1.376   2.501   3.904  1.00  0.00     0.025 C 
ATOM     15  C   UNL     1      -0.818   3.631   4.149  1.00  0.00     0.025 C 
ENDBRANCH  10  12
ENDBRANCH   8  10
ENDBRANCH   6   8
ENDBRANCH   3   6
ENDBRANCH   1   2
BRANCH   1  16
ATOM     16  C   UNL     1      -4.024   3.289   1.505  1.00  0.00     0.042 C 
BRANCH  16  17
ATOM     17  C   UNL     1      -5.448   3.700   1.815  1.00  0.00     0.118 C 
BRANCH  17  18
ATOM     18  N   UNL     1      -5.527   4.425   3.085  1.00  0.00    -0.352 N 
ATOM     19  C   UNL     1      -5.669   5.772   3.329  1.00  0.00     0.251 C 
ATOM     20  H   UNL     1      -5.469   3.861   3.890  1.00  0.00     0.163 HD
ATOM     21  O   UNL     1      -5.437   6.221   4.445  1.00  0.00    -0.269 OA
BRANCH  19  22
ATOM     22  C   UNL     1      -6.089   6.679   2.238  1.00  0.00     0.039 A 
ATOM     23  C   UNL     1      -5.528   7.955   2.139  1.00  0.00     0.014 A 
ATOM     24  C   UNL     1      -7.039   6.264   1.305  1.00  0.00     0.014 A 
ATOM     25  C   UNL     1      -5.855   8.772   1.053  1.00  0.00     0.010 A 
ATOM     26  C   UNL     1      -7.261   7.018   0.163  1.00  0.00     0.010 A 
ATOM     27  C   UNL     1      -6.682   8.287   0.027  1.00  0.00    -0.014 A 
BRANCH  27  28
ATOM     28  C   UNL     1      -6.979   9.074  -1.197  1.00  0.00     0.031 A 
ATOM     29  C   UNL     1      -8.409   9.389  -1.552  1.00  0.00     0.074 A 
ATOM     30  C   UNL     1      -5.981   9.402  -2.043  1.00  0.00     0.049 A 
ATOM     31  N   UNL     1      -8.890   9.928  -2.643  1.00  0.00    -0.248 NA
ATOM     32  C   UNL     1      -9.440   9.011  -0.568  1.00  0.00     0.031 C 
ATOM     33  C   UNL     1      -4.560   9.107  -1.840  1.00  0.00     0.029 A 
ATOM     34  N   UNL     1      -6.014  10.040  -3.258  1.00  0.00    -0.354 N 
ATOM     35  C   UNL     1     -10.272   9.913  -2.492  1.00  0.00     0.074 A 
ATOM     36  C   UNL     1     -10.557   9.273  -1.229  1.00  0.00     0.031 C 
ATOM     37  C   UNL     1      -3.858   9.585  -2.880  1.00  0.00     0.029 A 
ATOM     38  C   UNL     1      -4.779  10.167  -3.849  1.00  0.00     0.049 A 
ATOM     39  H   UNL     1      -6.845  10.375  -3.668  1.00  0.00     0.167 HD
ATOM     40  C   UNL     1     -11.218  10.405  -3.325  1.00  0.00     0.031 A 
ATOM     41  C   UNL     1      -4.431  10.675  -5.047  1.00  0.00     0.031 A 
ATOM     42  C   UNL     1     -10.928  11.079  -4.560  1.00  0.00     0.049 A 
ATOM     43  C   UNL     1      -5.506  11.213  -5.952  1.00  0.00     0.074 A 
ATOM     44  C   UNL     1     -11.808  11.706  -5.423  1.00  0.00     0.029 A 
ATOM     45  N   UNL     1      -9.662  11.212  -5.106  1.00  0.00    -0.354 N 
ATOM     46  N   UNL     1      -6.800  11.283  -5.747  1.00  0.00    -0.248 NA
ATOM     47  C   UNL     1      -5.073  11.742  -7.253  1.00  0.00     0.031 C 
ATOM     48  C   UNL     1     -11.082  12.161  -6.527  1.00  0.00     0.029 A 
ATOM     49  C   UNL     1      -9.743  11.872  -6.319  1.00  0.00     0.049 A 
ATOM     50  H   UNL     1      -8.829  10.885  -4.693  1.00  0.00     0.167 HD
ATOM     51  C   UNL     1      -7.329  11.885  -6.881  1.00  0.00     0.074 A 
ATOM     52  C   UNL     1      -6.217  12.181  -7.759  1.00  0.00     0.031 C 
ATOM     53  C   UNL     1      -8.623  12.164  -7.173  1.00  0.00     0.031 A 
BRANCH  40  54
ATOM     54  C   UNL     1     -12.660  10.230  -2.937  1.00  0.00    -0.014 A 
ATOM     55  C   UNL     1     -13.222  10.939  -1.864  1.00  0.00     0.009 A 
ATOM     56  C   UNL     1     -13.486   9.391  -3.702  1.00  0.00     0.009 A 
ATOM     57  C   UNL     1     -14.574  10.790  -1.548  1.00  0.00     0.001 A 
ATOM     58  C   UNL     1     -14.844   9.267  -3.403  1.00  0.00     0.001 A 
ATOM     59  C   UNL     1     -15.385   9.961  -2.322  1.00  0.00     0.000 A 
ENDBRANCH  40  54
BRANCH  41  60
ATOM     60  C   UNL     1      -3.006  10.688  -5.477  1.00  0.00    -0.014 A 
ATOM     61  C   UNL     1      -2.319  11.902  -5.630  1.00  0.00     0.009 A 
ATOM     62  C   UNL     1      -2.335   9.491  -5.769  1.00  0.00     0.009 A 
ATOM     63  C   UNL     1      -1.004  11.919  -6.104  1.00  0.00     0.001 A 
ATOM     64  C   UNL     1      -1.009   9.508  -6.210  1.00  0.00     0.001 A 
ATOM     65  C   UNL     1      -0.350  10.722  -6.391  1.00  0.00     0.000 A 
ENDBRANCH  41  60
BRANCH  53  66
ATOM     66  C   UNL     1      -8.905  12.846  -8.480  1.00  0.00    -0.014 A 
ATOM     67  C   UNL     1      -8.806  12.154  -9.697  1.00  0.00     0.009 A 
ATOM     68  C   UNL     1      -9.343  14.180  -8.487  1.00  0.00     0.009 A 
ATOM     69  C   UNL     1      -9.118  12.793 -10.898  1.00  0.00     0.001 A 
ATOM     70  C   UNL     1      -9.684  14.806  -9.686  1.00  0.00     0.001 A 
ATOM     71  C   UNL     1      -9.564  14.114 -10.890  1.00  0.00     0.000 A 
ENDBRANCH  53  66
ENDBRANCH  27  28
ENDBRANCH  19  22
ENDBRANCH  17  18
ENDBRANCH  16  17
ENDBRANCH   1  16
TORSDOF 13
