REMARK SMILES NC(=O)CC[C@H](C(=O)NCCCNC(=O)c1ccc(-c2c3nc(c(-c4ccccc4)c4ccc([nH]4)c(-c4ccccc4)c4nc(c(-c5ccccc5)c5ccc2[nH]5)C=C4)C=C3)cc1)N1C(=O)/C(=C/c2ccc(O)c(O)c2)SC1=S
REMARK SMILES IDX 10 1 9 2 7 3 8 4 6 6 5 7 4 8 2 9 1 10 3 13 64 14 65 15 78 16
REMARK SMILES IDX 66 17 67 18 77 19 79 20 68 21 69 22 70 23 76 24 71 25 74 26
REMARK SMILES IDX 72 27 75 28 73 30 11 32 12 33 13 34 14 35 15 37 16 38 17 39
REMARK SMILES IDX 63 40 18 41 62 42 19 43 20 44 21 45 56 46 22 47 61 48 55 49
REMARK SMILES IDX 57 50 23 51 60 52 54 53 53 54 24 56 46 57 31 58 45 59 32 60
REMARK SMILES IDX 35 61 44 62 58 63 33 64 34 65 43 67 59 68 36 69 25 70 26 71
REMARK SMILES IDX 30 72 27 73 29 74 28 75 47 76 48 77 52 78 49 79 51 80 50 81
REMARK SMILES IDX 37 82 38 83 42 84 39 85 41 86 40 87
REMARK H PARENT 9 5 1 11 1 12 75 29 73 31 13 36 57 55 35 66
REMARK Flexibility Score: inf
ROOT
ATOM      1  C   UNL     1       0.406  -0.979   3.273  1.00  0.00     0.117 C 
ENDROOT
BRANCH   1   2
ATOM      2  N   UNL     1       0.896   0.358   3.532  1.00  0.00    -0.354 N 
ATOM      3  C   UNL     1       2.078   0.945   3.195  1.00  0.00     0.243 C 
ATOM      4  O   UNL     1       2.353   1.992   3.777  1.00  0.00    -0.273 OA
ATOM      5  H   UNL     1       0.275   0.936   4.032  1.00  0.00     0.163 HD
BRANCH   3   6
ATOM      6  C   UNL     1       3.013   0.277   2.165  1.00  0.00     0.181 C 
BRANCH   6   7
ATOM      7  C   UNL     1       3.753   1.310   1.295  1.00  0.00     0.045 C 
BRANCH   7   8
ATOM      8  C   UNL     1       2.857   1.940   0.218  1.00  0.00     0.102 C 
BRANCH   8   9
ATOM      9  C   UNL     1       1.894   2.973   0.761  1.00  0.00     0.217 C 
ATOM     10  N   UNL     1       0.641   2.519   1.045  1.00  0.00    -0.370 N 
ATOM     11  H   UNL     1      -0.038   3.137   1.401  1.00  0.00     0.159 HD
ATOM     12  H   UNL     1       0.414   1.573   0.893  1.00  0.00     0.159 HD
ATOM     13  O   UNL     1       2.197   4.145   0.944  1.00  0.00    -0.275 OA
ENDBRANCH   8   9
ENDBRANCH   7   8
ENDBRANCH   6   7
BRANCH   6  14
ATOM     14  N   UNL     1       3.907  -0.653   2.890  1.00  0.00    -0.280 N 
ATOM     15  C   UNL     1       4.819  -0.155   3.810  1.00  0.00     0.266 C 
ATOM     16  C   UNL     1       3.950  -2.019   2.695  1.00  0.00     0.149 C 
ATOM     17  O   UNL     1       5.108   1.015   3.992  1.00  0.00    -0.268 OA
ATOM     18  C   UNL     1       5.471  -1.268   4.551  1.00  0.00     0.081 C 
ATOM     19  S   UNL     1       4.931  -2.774   3.941  1.00  0.00    -0.054 SA
ATOM     20  S   UNL     1       3.249  -2.928   1.484  1.00  0.00    -0.052 S 
ATOM     21  C   UNL     1       6.324  -1.030   5.557  1.00  0.00     0.029 C 
BRANCH  21  22
ATOM     22  C   UNL     1       7.027  -2.022   6.383  1.00  0.00    -0.020 A 
ATOM     23  C   UNL     1       7.023  -1.864   7.779  1.00  0.00     0.012 A 
ATOM     24  C   UNL     1       7.753  -3.079   5.814  1.00  0.00     0.058 A 
ATOM     25  C   UNL     1       7.705  -2.766   8.600  1.00  0.00     0.051 A 
ATOM     26  C   UNL     1       8.418  -3.979   6.639  1.00  0.00     0.157 A 
ATOM     27  C   UNL     1       8.393  -3.820   8.021  1.00  0.00     0.157 A 
BRANCH  26  28
ATOM     28  O   UNL     1       9.116  -5.040   6.132  1.00  0.00    -0.504 OA
ATOM     29  H   UNL     1       9.556  -5.632   6.711  1.00  0.00     0.293 HD
ENDBRANCH  26  28
BRANCH  27  30
ATOM     30  O   UNL     1       9.059  -4.703   8.819  1.00  0.00    -0.504 OA
ATOM     31  H   UNL     1       9.044  -4.597   9.750  1.00  0.00     0.293 HD
ENDBRANCH  27  30
ENDBRANCH  21  22
ENDBRANCH   6  14
ENDBRANCH   3   6
ENDBRANCH   1   2
BRANCH   1  32
ATOM     32  C   UNL     1       0.528  -1.845   4.521  1.00  0.00     0.042 C 
BRANCH  32  33
ATOM     33  C   UNL     1      -0.410  -1.407   5.642  1.00  0.00     0.118 C 
BRANCH  33  34
ATOM     34  N   UNL     1      -1.810  -1.524   5.261  1.00  0.00    -0.352 N 
ATOM     35  C   UNL     1      -2.842  -2.172   5.885  1.00  0.00     0.251 C 
ATOM     36  H   UNL     1      -2.052  -1.066   4.424  1.00  0.00     0.163 HD
ATOM     37  O   UNL     1      -3.900  -2.335   5.285  1.00  0.00    -0.269 OA
BRANCH  35  38
ATOM     38  C   UNL     1      -2.687  -2.683   7.262  1.00  0.00     0.039 A 
ATOM     39  C   UNL     1      -3.264  -3.913   7.583  1.00  0.00     0.014 A 
ATOM     40  C   UNL     1      -2.011  -1.948   8.242  1.00  0.00     0.014 A 
ATOM     41  C   UNL     1      -3.123  -4.427   8.872  1.00  0.00     0.010 A 
ATOM     42  C   UNL     1      -1.798  -2.501   9.502  1.00  0.00     0.010 A 
ATOM     43  C   UNL     1      -2.358  -3.742   9.832  1.00  0.00    -0.014 A 
BRANCH  43  44
ATOM     44  C   UNL     1      -2.129  -4.338  11.172  1.00  0.00     0.031 A 
ATOM     45  C   UNL     1      -2.650  -3.668  12.413  1.00  0.00     0.074 A 
ATOM     46  C   UNL     1      -1.421  -5.481  11.266  1.00  0.00     0.049 A 
ATOM     47  N   UNL     1      -2.571  -4.069  13.658  1.00  0.00    -0.248 NA
ATOM     48  C   UNL     1      -3.328  -2.374  12.243  1.00  0.00     0.031 C 
ATOM     49  C   UNL     1      -0.817  -6.197  10.139  1.00  0.00     0.029 A 
ATOM     50  N   UNL     1      -1.098  -6.246  12.357  1.00  0.00    -0.354 N 
ATOM     51  C   UNL     1      -3.179  -3.076  14.415  1.00  0.00     0.074 A 
ATOM     52  C   UNL     1      -3.575  -2.029  13.499  1.00  0.00     0.031 C 
ATOM     53  C   UNL     1      -0.236  -7.319  10.593  1.00  0.00     0.029 A 
ATOM     54  C   UNL     1      -0.387  -7.379  12.042  1.00  0.00     0.049 A 
ATOM     55  H   UNL     1      -1.351  -6.007  13.278  1.00  0.00     0.167 HD
ATOM     56  C   UNL     1      -3.405  -3.047  15.750  1.00  0.00     0.031 A 
ATOM     57  C   UNL     1       0.091  -8.359  12.831  1.00  0.00     0.031 A 
ATOM     58  C   UNL     1      -3.010  -4.090  16.660  1.00  0.00     0.049 A 
ATOM     59  C   UNL     1      -0.166  -8.295  14.310  1.00  0.00     0.074 A 
ATOM     60  C   UNL     1      -3.248  -4.182  18.020  1.00  0.00     0.029 A 
ATOM     61  N   UNL     1      -2.285  -5.216  16.304  1.00  0.00    -0.354 N 
ATOM     62  N   UNL     1      -0.824  -7.394  14.998  1.00  0.00    -0.248 NA
ATOM     63  C   UNL     1       0.375  -9.395  15.120  1.00  0.00     0.031 C 
ATOM     64  C   UNL     1      -2.609  -5.330  18.499  1.00  0.00     0.029 A 
ATOM     65  C   UNL     1      -2.036  -5.992  17.425  1.00  0.00     0.049 A 
ATOM     66  H   UNL     1      -1.990  -5.434  15.390  1.00  0.00     0.167 HD
ATOM     67  C   UNL     1      -0.796  -7.829  16.316  1.00  0.00     0.074 A 
ATOM     68  C   UNL     1      -0.082  -9.089  16.325  1.00  0.00     0.031 C 
ATOM     69  C   UNL     1      -1.312  -7.237  17.421  1.00  0.00     0.031 A 
BRANCH  56  70
ATOM     70  C   UNL     1      -4.104  -1.839  16.314  1.00  0.00    -0.014 A 
ATOM     71  C   UNL     1      -5.458  -1.584  16.041  1.00  0.00     0.009 A 
ATOM     72  C   UNL     1      -3.413  -0.970  17.173  1.00  0.00     0.009 A 
ATOM     73  C   UNL     1      -6.094  -0.468  16.590  1.00  0.00     0.001 A 
ATOM     74  C   UNL     1      -4.059   0.127  17.745  1.00  0.00     0.001 A 
ATOM     75  C   UNL     1      -5.396   0.382  17.447  1.00  0.00     0.000 A 
ENDBRANCH  56  70
BRANCH  57  76
ATOM     76  C   UNL     1       0.856  -9.488  12.238  1.00  0.00    -0.014 A 
ATOM     77  C   UNL     1       0.328 -10.788  12.233  1.00  0.00     0.009 A 
ATOM     78  C   UNL     1       2.128  -9.272  11.684  1.00  0.00     0.009 A 
ATOM     79  C   UNL     1       1.071 -11.853  11.717  1.00  0.00     0.001 A 
ATOM     80  C   UNL     1       2.854 -10.332  11.137  1.00  0.00     0.001 A 
ATOM     81  C   UNL     1       2.330 -11.623  11.165  1.00  0.00     0.000 A 
ENDBRANCH  57  76
BRANCH  69  82
ATOM     82  C   UNL     1      -1.143  -7.964  18.727  1.00  0.00    -0.014 A 
ATOM     83  C   UNL     1       0.116  -8.096  19.334  1.00  0.00     0.009 A 
ATOM     84  C   UNL     1      -2.266  -8.511  19.369  1.00  0.00     0.009 A 
ATOM     85  C   UNL     1       0.253  -8.801  20.531  1.00  0.00     0.001 A 
ATOM     86  C   UNL     1      -2.132  -9.183  20.584  1.00  0.00     0.001 A 
ATOM     87  C   UNL     1      -0.871  -9.340  21.157  1.00  0.00     0.000 A 
ENDBRANCH  69  82
ENDBRANCH  43  44
ENDBRANCH  35  38
ENDBRANCH  33  34
ENDBRANCH  32  33
ENDBRANCH   1  32
TORSDOF 17
