REMARK SMILES CSCCC(=O)N1[C@H](C)CCC[C@@H]1C(=O)NCCCNC(=O)c1ccc(-c2c3nc(c(-c4ccccc4)c4ccc([nH]4)c(-c4ccccc4)c4nc(c(-c5ccccc5)c5ccc2[nH]5)C=C4)C=C3)cc1
REMARK SMILES IDX 17 1 16 2 14 3 15 4 13 6 7 7 8 8 9 9 10 10 12 11 11 12 5 13
REMARK SMILES IDX 6 14 4 15 3 16 2 17 1 18 18 19 19 20 20 21 21 22 22 24 23 25
REMARK SMILES IDX 24 26 70 27 25 28 69 29 26 30 27 31 28 32 63 33 29 34 68 35
REMARK SMILES IDX 62 36 64 37 30 38 67 39 61 40 60 41 31 43 53 44 38 45 52 46
REMARK SMILES IDX 39 47 42 48 51 49 65 50 40 51 41 52 50 54 66 55 43 56 32 57
REMARK SMILES IDX 33 58 37 59 34 60 36 61 35 62 54 63 55 64 59 65 56 66 58 67
REMARK SMILES IDX 57 68 44 69 45 70 49 71 46 72 48 73 47 74
REMARK H PARENT 16 5 20 23 64 42 42 53
REMARK Flexibility Score: inf
ROOT
ATOM      1  C   UNL     1      -1.705   1.752   1.765  1.00  0.00     0.117 C 
ENDROOT
BRANCH   1   2
ATOM      2  N   UNL     1      -1.919   2.761   0.752  1.00  0.00    -0.354 N 
ATOM      3  C   UNL     1      -1.457   2.961  -0.511  1.00  0.00     0.242 C 
ATOM      4  O   UNL     1      -2.229   3.615  -1.228  1.00  0.00    -0.273 OA
ATOM      5  H   UNL     1      -2.542   3.465   1.044  1.00  0.00     0.163 HD
BRANCH   3   6
ATOM      6  C   UNL     1      -0.057   2.549  -1.071  1.00  0.00     0.174 C 
ATOM      7  N   UNL     1       0.229   1.159  -1.515  1.00  0.00    -0.328 N 
ATOM      8  C   UNL     1       0.656   0.197  -0.512  1.00  0.00     0.082 C 
ATOM      9  C   UNL     1      -0.443  -0.788  -0.118  1.00  0.00     0.031 C 
ATOM     10  C   UNL     1       1.472   0.828   0.626  1.00  0.00     0.025 C 
ATOM     11  C   UNL     1       1.093   3.156  -0.249  1.00  0.00     0.035 C 
ATOM     12  C   UNL     1       2.132   2.130   0.188  1.00  0.00     0.005 C 
BRANCH   7  13
ATOM     13  C   UNL     1       0.531   0.913  -2.864  1.00  0.00     0.224 C 
ATOM     14  O   UNL     1       0.769   1.823  -3.660  1.00  0.00    -0.275 OA
BRANCH  13  15
ATOM     15  C   UNL     1       0.548  -0.540  -3.361  1.00  0.00     0.111 C 
BRANCH  15  16
ATOM     16  C   UNL     1       1.903  -1.258  -3.289  1.00  0.00     0.079 C 
BRANCH  16  17
ATOM     17  S   UNL     1       1.912  -2.787  -2.248  1.00  0.00    -0.165 SA
ATOM     18  C   UNL     1       3.019  -2.296  -0.885  1.00  0.00     0.085 C 
ENDBRANCH  16  17
ENDBRANCH  15  16
ENDBRANCH  13  15
ENDBRANCH   7  13
ENDBRANCH   3   6
ENDBRANCH   1   2
BRANCH   1  19
ATOM     19  C   UNL     1      -1.009   2.232   3.027  1.00  0.00     0.042 C 
BRANCH  19  20
ATOM     20  C   UNL     1      -1.480   1.473   4.263  1.00  0.00     0.118 C 
BRANCH  20  21
ATOM     21  N   UNL     1      -1.431   0.017   4.210  1.00  0.00    -0.352 N 
ATOM     22  C   UNL     1      -1.429  -0.888   5.263  1.00  0.00     0.251 C 
ATOM     23  H   UNL     1      -1.395  -0.377   3.309  1.00  0.00     0.163 HD
ATOM     24  O   UNL     1      -1.411  -2.083   5.038  1.00  0.00    -0.269 OA
BRANCH  22  25
ATOM     25  C   UNL     1      -1.382  -0.392   6.666  1.00  0.00     0.039 A 
ATOM     26  C   UNL     1      -0.581  -1.059   7.598  1.00  0.00     0.014 A 
ATOM     27  C   UNL     1      -2.075   0.752   7.055  1.00  0.00     0.014 A 
ATOM     28  C   UNL     1      -0.404  -0.518   8.877  1.00  0.00     0.010 A 
ATOM     29  C   UNL     1      -1.786   1.364   8.265  1.00  0.00     0.010 A 
ATOM     30  C   UNL     1      -0.965   0.727   9.202  1.00  0.00    -0.014 A 
BRANCH  30  31
ATOM     31  C   UNL     1      -0.751   1.375  10.520  1.00  0.00     0.031 A 
ATOM     32  C   UNL     1      -1.937   1.718  11.386  1.00  0.00     0.074 A 
ATOM     33  C   UNL     1       0.491   1.736  10.898  1.00  0.00     0.049 A 
ATOM     34  N   UNL     1      -1.970   2.356  12.528  1.00  0.00    -0.248 NA
ATOM     35  C   UNL     1      -3.266   1.337  10.878  1.00  0.00     0.031 C 
ATOM     36  C   UNL     1       1.714   1.534  10.115  1.00  0.00     0.029 A 
ATOM     37  N   UNL     1       0.931   2.352  12.042  1.00  0.00    -0.354 N 
ATOM     38  C   UNL     1      -3.317   2.482  12.848  1.00  0.00     0.074 A 
ATOM     39  C   UNL     1      -4.070   1.925  11.749  1.00  0.00     0.031 C 
ATOM     40  C   UNL     1       2.768   1.970  10.824  1.00  0.00     0.029 A 
ATOM     41  C   UNL     1       2.295   2.515  12.091  1.00  0.00     0.049 A 
ATOM     42  H   UNL     1       0.327   2.650  12.760  1.00  0.00     0.167 HD
ATOM     43  C   UNL     1      -3.882   2.982  13.972  1.00  0.00     0.031 A 
ATOM     44  C   UNL     1       3.075   3.035  13.057  1.00  0.00     0.031 A 
ATOM     45  C   UNL     1      -3.130   3.491  15.085  1.00  0.00     0.049 A 
ATOM     46  C   UNL     1       2.431   3.534  14.320  1.00  0.00     0.074 A 
ATOM     47  C   UNL     1      -3.594   3.947  16.305  1.00  0.00     0.029 A 
ATOM     48  N   UNL     1      -1.748   3.595  15.113  1.00  0.00    -0.354 N 
ATOM     49  N   UNL     1       1.160   3.574  14.640  1.00  0.00    -0.248 NA
ATOM     50  C   UNL     1       3.333   4.043  15.362  1.00  0.00     0.031 C 
ATOM     51  C   UNL     1      -2.491   4.364  17.060  1.00  0.00     0.029 A 
ATOM     52  C   UNL     1      -1.340   4.120  16.326  1.00  0.00     0.049 A 
ATOM     53  H   UNL     1      -1.146   3.334  14.379  1.00  0.00     0.167 HD
ATOM     54  C   UNL     1       1.110   4.089  15.929  1.00  0.00     0.074 A 
ATOM     55  C   UNL     1       2.480   4.324  16.338  1.00  0.00     0.031 C 
ATOM     56  C   UNL     1       0.029   4.346  16.706  1.00  0.00     0.031 A 
BRANCH  43  57
ATOM     57  C   UNL     1      -5.385   2.983  14.048  1.00  0.00    -0.014 A 
ATOM     58  C   UNL     1      -6.111   1.784  14.140  1.00  0.00     0.009 A 
ATOM     59  C   UNL     1      -6.087   4.198  14.031  1.00  0.00     0.009 A 
ATOM     60  C   UNL     1      -7.507   1.798  14.164  1.00  0.00     0.001 A 
ATOM     61  C   UNL     1      -7.482   4.212  14.089  1.00  0.00     0.001 A 
ATOM     62  C   UNL     1      -8.191   3.012  14.142  1.00  0.00     0.000 A 
ENDBRANCH  43  57
BRANCH  44  63
ATOM     63  C   UNL     1       4.552   3.061  12.892  1.00  0.00    -0.014 A 
ATOM     64  C   UNL     1       5.364   2.199  13.646  1.00  0.00     0.009 A 
ATOM     65  C   UNL     1       5.159   3.943  11.986  1.00  0.00     0.009 A 
ATOM     66  C   UNL     1       6.755   2.240  13.517  1.00  0.00     0.001 A 
ATOM     67  C   UNL     1       6.549   3.962  11.838  1.00  0.00     0.001 A 
ATOM     68  C   UNL     1       7.345   3.118  12.610  1.00  0.00     0.000 A 
ENDBRANCH  44  63
BRANCH  56  69
ATOM     69  C   UNL     1       0.295   4.884  18.082  1.00  0.00    -0.014 A 
ATOM     70  C   UNL     1       0.740   6.200  18.276  1.00  0.00     0.009 A 
ATOM     71  C   UNL     1       0.066   4.068  19.201  1.00  0.00     0.009 A 
ATOM     72  C   UNL     1       0.989   6.677  19.564  1.00  0.00     0.001 A 
ATOM     73  C   UNL     1       0.288   4.557  20.489  1.00  0.00     0.001 A 
ATOM     74  C   UNL     1       0.760   5.856  20.668  1.00  0.00     0.000 A 
ENDBRANCH  56  69
ENDBRANCH  30  31
ENDBRANCH  22  25
ENDBRANCH  20  21
ENDBRANCH  19  20
ENDBRANCH   1  19
TORSDOF 14
