REMARK SMILES COc1cc([C@H]2CC(c3ccc(S(C)(=O)=O)cc3)=NN2c2ccc(C(=O)NCCCNC(=O)c3ccc(-c4c5nc(c(-c6ccccc6)c6ccc([nH]6)c(-c6ccccc6)c6nc(c(-c7ccccc7)c7ccc4[nH]7)C=C6)C=C5)cc3)cc2)cc(OC)c1OC
REMARK SMILES IDX 28 1 27 2 25 3 26 4 24 6 21 7 22 8 83 9 23 10 82 11 20 12
REMARK SMILES IDX 6 13 7 14 8 15 19 16 5 17 3 18 4 19 88 20 85 21 84 22 2 23
REMARK SMILES IDX 1 24 89 25 90 26 86 27 87 28 9 29 10 30 18 31 11 32 17 33
REMARK SMILES IDX 12 34 13 35 14 36 15 37 16 38 29 39 30 40 31 41 32 42 33 44
REMARK SMILES IDX 34 45 35 46 81 47 36 48 80 49 37 50 38 51 39 52 74 53 40 54
REMARK SMILES IDX 79 55 73 56 75 57 41 58 78 59 72 60 71 61 42 63 64 64 49 65
REMARK SMILES IDX 63 66 50 67 53 68 62 69 76 70 51 71 52 72 61 74 77 75 54 76
REMARK SMILES IDX 43 77 44 78 48 79 45 80 47 81 46 82 65 83 66 84 70 85 67 86
REMARK SMILES IDX 69 87 68 88 55 89 56 90 60 91 57 92 59 93 58 94
REMARK H PARENT 27 5 31 43 75 62 53 73
REMARK Flexibility Score: inf
ROOT
ATOM      1  C   UNL     1      -0.472  -7.885  -1.352  1.00  0.00     0.118 C 
ENDROOT
BRANCH   1   2
ATOM      2  N   UNL     1       0.646  -8.417  -2.105  1.00  0.00    -0.352 N 
ATOM      3  C   UNL     1       1.281  -7.983  -3.240  1.00  0.00     0.251 C 
ATOM      4  O   UNL     1       2.243  -8.643  -3.633  1.00  0.00    -0.269 OA
ATOM      5  H   UNL     1       1.021  -9.247  -1.731  1.00  0.00     0.163 HD
BRANCH   3   6
ATOM      6  C   UNL     1       0.893  -6.748  -3.977  1.00  0.00     0.039 A 
ATOM      7  C   UNL     1       0.342  -4.391  -5.440  1.00  0.00     0.060 A 
ATOM      8  C   UNL     1       1.620  -4.960  -5.449  1.00  0.00     0.029 A 
ATOM      9  C   UNL     1      -0.663  -5.033  -4.719  1.00  0.00     0.029 A 
ATOM     10  C   UNL     1       1.901  -6.112  -4.712  1.00  0.00     0.016 A 
ATOM     11  C   UNL     1      -0.399  -6.220  -4.026  1.00  0.00     0.016 A 
BRANCH   7  12
ATOM     12  N   UNL     1       0.090  -3.247  -6.170  1.00  0.00    -0.257 N 
ATOM     13  C   UNL     1      -0.443  -1.993  -5.638  1.00  0.00     0.144 C 
ATOM     14  C   UNL     1      -0.583  -1.133  -6.910  1.00  0.00     0.091 C 
ATOM     15  C   UNL     1      -0.177  -2.138  -7.955  1.00  0.00     0.071 C 
ATOM     16  N   UNL     1       0.200  -3.295  -7.517  1.00  0.00    -0.176 NA
BRANCH  13  17
ATOM     17  C   UNL     1       0.493  -1.431  -4.578  1.00  0.00    -0.015 A 
ATOM     18  C   UNL     1       1.055  -1.035  -2.232  1.00  0.00     0.164 A 
ATOM     19  C   UNL     1       0.132  -1.417  -3.225  1.00  0.00     0.056 A 
ATOM     20  C   UNL     1       2.379  -0.682  -2.560  1.00  0.00     0.203 A 
ATOM     21  C   UNL     1       2.737  -0.675  -3.924  1.00  0.00     0.164 A 
ATOM     22  C   UNL     1       1.797  -1.039  -4.904  1.00  0.00     0.056 A 
BRANCH  18  23
ATOM     23  O   UNL     1       0.641  -1.151  -0.927  1.00  0.00    -0.493 OA
ATOM     24  C   UNL     1      -0.185  -0.053  -0.535  1.00  0.00     0.278 C 
ENDBRANCH  18  23
BRANCH  20  25
ATOM     25  O   UNL     1       3.372  -0.362  -1.676  1.00  0.00    -0.490 OA
ATOM     26  C   UNL     1       3.105  -0.191  -0.297  1.00  0.00     0.278 C 
ENDBRANCH  20  25
BRANCH  21  27
ATOM     27  O   UNL     1       3.943  -0.346  -4.493  1.00  0.00    -0.493 OA
ATOM     28  C   UNL     1       5.093  -0.250  -3.667  1.00  0.00     0.278 C 
ENDBRANCH  21  27
ENDBRANCH  13  17
BRANCH  15  29
ATOM     29  C   UNL     1      -0.253  -1.856  -9.393  1.00  0.00    -0.002 A 
ATOM     30  C   UNL     1      -0.964  -2.753 -10.200  1.00  0.00     0.011 A 
ATOM     31  C   UNL     1       0.425  -0.772  -9.951  1.00  0.00     0.011 A 
ATOM     32  C   UNL     1      -1.015  -2.558 -11.579  1.00  0.00     0.021 A 
ATOM     33  C   UNL     1       0.398  -0.590 -11.338  1.00  0.00     0.021 A 
ATOM     34  C   UNL     1      -0.319  -1.486 -12.142  1.00  0.00     0.067 A 
BRANCH  34  35
ATOM     35  S   UNL     1      -0.370  -1.256 -13.905  1.00  0.00     0.175 S 
ATOM     36  C   UNL     1       0.368  -2.730 -14.565  1.00  0.00     0.163 C 
ATOM     37  O   UNL     1      -1.774  -1.241 -14.280  1.00  0.00    -0.224 OA
ATOM     38  O   UNL     1       0.501  -0.147 -14.230  1.00  0.00    -0.224 OA
ENDBRANCH  34  35
ENDBRANCH  15  29
ENDBRANCH   7  12
ENDBRANCH   3   6
ENDBRANCH   1   2
BRANCH   1  39
ATOM     39  C   UNL     1      -1.771  -8.595  -1.732  1.00  0.00     0.042 C 
BRANCH  39  40
ATOM     40  C   UNL     1      -1.864 -10.008  -1.168  1.00  0.00     0.118 C 
BRANCH  40  41
ATOM     41  N   UNL     1      -2.090 -10.001   0.270  1.00  0.00    -0.352 N 
ATOM     42  C   UNL     1      -3.091 -10.592   0.998  1.00  0.00     0.251 C 
ATOM     43  H   UNL     1      -1.427  -9.499   0.797  1.00  0.00     0.163 HD
ATOM     44  O   UNL     1      -3.246 -10.295   2.178  1.00  0.00    -0.269 OA
BRANCH  42  45
ATOM     45  C   UNL     1      -3.990 -11.580   0.363  1.00  0.00     0.039 A 
ATOM     46  C   UNL     1      -5.356 -11.538   0.659  1.00  0.00     0.014 A 
ATOM     47  C   UNL     1      -3.484 -12.571  -0.481  1.00  0.00     0.014 A 
ATOM     48  C   UNL     1      -6.222 -12.466   0.076  1.00  0.00     0.010 A 
ATOM     49  C   UNL     1      -4.355 -13.454  -1.112  1.00  0.00     0.010 A 
ATOM     50  C   UNL     1      -5.729 -13.418  -0.828  1.00  0.00    -0.014 A 
BRANCH  50  51
ATOM     51  C   UNL     1      -6.616 -14.423  -1.462  1.00  0.00     0.031 A 
ATOM     52  C   UNL     1      -6.440 -15.880  -1.138  1.00  0.00     0.074 A 
ATOM     53  C   UNL     1      -7.523 -14.038  -2.379  1.00  0.00     0.049 A 
ATOM     54  N   UNL     1      -7.021 -16.924  -1.672  1.00  0.00    -0.248 NA
ATOM     55  C   UNL     1      -5.460 -16.206  -0.089  1.00  0.00     0.031 C 
ATOM     56  C   UNL     1      -7.787 -12.657  -2.786  1.00  0.00     0.029 A 
ATOM     57  N   UNL     1      -8.384 -14.783  -3.144  1.00  0.00    -0.354 N 
ATOM     58  C   UNL     1      -6.456 -18.028  -1.047  1.00  0.00     0.074 A 
ATOM     59  C   UNL     1      -5.460 -17.529  -0.124  1.00  0.00     0.031 C 
ATOM     60  C   UNL     1      -8.762 -12.653  -3.710  1.00  0.00     0.029 A 
ATOM     61  C   UNL     1      -9.157 -14.029  -3.992  1.00  0.00     0.049 A 
ATOM     62  H   UNL     1      -8.443 -15.764  -3.090  1.00  0.00     0.167 HD
ATOM     63  C   UNL     1      -6.748 -19.340  -1.215  1.00  0.00     0.031 A 
ATOM     64  C   UNL     1     -10.073 -14.407  -4.903  1.00  0.00     0.031 A 
ATOM     65  C   UNL     1      -7.746 -19.834  -2.125  1.00  0.00     0.049 A 
ATOM     66  C   UNL     1     -10.359 -15.870  -5.097  1.00  0.00     0.074 A 
ATOM     67  C   UNL     1      -8.146 -21.140  -2.342  1.00  0.00     0.029 A 
ATOM     68  N   UNL     1      -8.504 -19.036  -2.968  1.00  0.00    -0.354 N 
ATOM     69  N   UNL     1      -9.839 -16.902  -4.478  1.00  0.00    -0.248 NA
ATOM     70  C   UNL     1     -11.361 -16.217  -6.114  1.00  0.00     0.031 C 
ATOM     71  C   UNL     1      -9.121 -21.136  -3.346  1.00  0.00     0.029 A 
ATOM     72  C   UNL     1      -9.361 -19.823  -3.717  1.00  0.00     0.049 A 
ATOM     73  H   UNL     1      -8.442 -18.055  -3.024  1.00  0.00     0.167 HD
ATOM     74  C   UNL     1     -10.476 -18.018  -5.003  1.00  0.00     0.074 A 
ATOM     75  C   UNL     1     -11.420 -17.537  -5.991  1.00  0.00     0.031 C 
ATOM     76  C   UNL     1     -10.301 -19.324  -4.688  1.00  0.00     0.031 A 
BRANCH  63  77
ATOM     77  C   UNL     1      -5.957 -20.326  -0.403  1.00  0.00    -0.014 A 
ATOM     78  C   UNL     1      -6.131 -20.431   0.987  1.00  0.00     0.009 A 
ATOM     79  C   UNL     1      -5.022 -21.161  -1.034  1.00  0.00     0.009 A 
ATOM     80  C   UNL     1      -5.349 -21.315   1.733  1.00  0.00     0.001 A 
ATOM     81  C   UNL     1      -4.263 -22.066  -0.289  1.00  0.00     0.001 A 
ATOM     82  C   UNL     1      -4.418 -22.133   1.095  1.00  0.00     0.000 A 
ENDBRANCH  63  77
BRANCH  64  83
ATOM     83  C   UNL     1     -10.811 -13.379  -5.680  1.00  0.00    -0.014 A 
ATOM     84  C   UNL     1     -12.158 -13.114  -5.392  1.00  0.00     0.009 A 
ATOM     85  C   UNL     1     -10.176 -12.651  -6.697  1.00  0.00     0.009 A 
ATOM     86  C   UNL     1     -12.861 -12.151  -6.119  1.00  0.00     0.001 A 
ATOM     87  C   UNL     1     -10.876 -11.672  -7.407  1.00  0.00     0.001 A 
ATOM     88  C   UNL     1     -12.218 -11.427  -7.122  1.00  0.00     0.000 A 
ENDBRANCH  64  83
BRANCH  76  89
ATOM     89  C   UNL     1     -11.184 -20.323  -5.377  1.00  0.00    -0.014 A 
ATOM     90  C   UNL     1     -10.967 -20.692  -6.713  1.00  0.00     0.009 A 
ATOM     91  C   UNL     1     -12.217 -20.943  -4.656  1.00  0.00     0.009 A 
ATOM     92  C   UNL     1     -11.783 -21.650  -7.319  1.00  0.00     0.001 A 
ATOM     93  C   UNL     1     -13.015 -21.916  -5.258  1.00  0.00     0.001 A 
ATOM     94  C   UNL     1     -12.801 -22.264  -6.590  1.00  0.00     0.000 A 
ENDBRANCH  76  89
ENDBRANCH  50  51
ENDBRANCH  42  45
ENDBRANCH  40  41
ENDBRANCH  39  40
ENDBRANCH   1  39
TORSDOF 17
