REMARK SMILES O=C(/C=C/c1ccc(S(=O)(=O)Nc2ccc3c(c2)OCCO3)cc1)NCCCNC(=O)c1ccc(-c2c3nc(c(-c4ccccc4)c4ccc([nH]4)c(-c4ccccc4)c4nc(c(-c5ccccc5)c5ccc2[nH]5)C=C4)C=C3)cc1
REMARK SMILES IDX 26 1 25 2 1 3 2 4 3 6 4 7 5 8 6 9 24 10 7 11 23 12 8 13 9 14
REMARK SMILES IDX 10 15 11 16 12 17 13 19 14 20 18 21 15 22 17 23 16 24 19 25
REMARK SMILES IDX 22 26 20 27 21 28 27 29 28 30 29 31 30 32 31 34 32 35 33 36
REMARK SMILES IDX 79 37 34 38 78 39 35 40 36 41 37 42 72 43 38 44 77 45 71 46
REMARK SMILES IDX 73 47 39 48 76 49 70 50 69 51 40 53 62 54 47 55 61 56 48 57
REMARK SMILES IDX 51 58 60 59 74 60 49 61 50 62 59 64 75 65 52 66 41 67 42 68
REMARK SMILES IDX 46 69 43 70 45 71 44 72 63 73 64 74 68 75 65 76 67 77 66 78
REMARK SMILES IDX 53 79 54 80 58 81 55 82 57 83 56 84
REMARK H PARENT 25 5 12 18 29 33 73 52 51 63
REMARK Flexibility Score: inf
ROOT
ATOM      1  C   UNL     1       2.265   0.440  -2.414  1.00  0.00     0.118 C 
ENDROOT
BRANCH   1   2
ATOM      2  N   UNL     1       2.931   0.198  -1.146  1.00  0.00    -0.352 N 
ATOM      3  O   UNL     1       1.072   0.577   0.142  1.00  0.00    -0.270 OA
ATOM      4  C   UNL     1       2.258   0.283   0.045  1.00  0.00     0.244 C 
ATOM      5  H   UNL     1       3.888  -0.034  -1.142  1.00  0.00     0.163 HD
BRANCH   4   6
ATOM      6  C   UNL     1       3.016  -0.091   1.270  1.00  0.00     0.072 C 
ATOM      7  C   UNL     1       4.344   0.002   1.452  1.00  0.00     0.014 C 
BRANCH   7   8
ATOM      8  C   UNL     1       5.070  -0.369   2.690  1.00  0.00    -0.025 A 
ATOM      9  C   UNL     1       6.469  -0.251   2.712  1.00  0.00     0.009 A 
ATOM     10  C   UNL     1       4.441  -0.843   3.851  1.00  0.00     0.009 A 
ATOM     11  C   UNL     1       7.215  -0.663   3.828  1.00  0.00     0.023 A 
ATOM     12  C   UNL     1       5.179  -1.206   4.989  1.00  0.00     0.023 A 
ATOM     13  C   UNL     1       6.570  -1.167   4.962  1.00  0.00     0.087 A 
BRANCH  13  14
ATOM     14  S   UNL     1       7.576  -1.760   6.316  1.00  0.00     0.261 S 
ATOM     15  O   UNL     1       8.754  -2.365   5.725  1.00  0.00    -0.201 OA
ATOM     16  O   UNL     1       7.709  -0.673   7.261  1.00  0.00    -0.201 OA
BRANCH  14  17
ATOM     17  N   UNL     1       6.777  -3.052   7.137  1.00  0.00    -0.279 N 
ATOM     18  H   UNL     1       6.841  -3.162   8.113  1.00  0.00     0.180 HD
BRANCH  17  19
ATOM     19  C   UNL     1       6.014  -3.958   6.328  1.00  0.00     0.053 A 
ATOM     20  C   UNL     1       4.649  -4.069   6.612  1.00  0.00     0.031 A 
ATOM     21  C   UNL     1       6.565  -4.577   5.211  1.00  0.00     0.077 A 
ATOM     22  C   UNL     1       3.788  -4.597   5.654  1.00  0.00     0.052 A 
ATOM     23  C   UNL     1       5.702  -5.034   4.225  1.00  0.00     0.163 A 
ATOM     24  C   UNL     1       4.317  -4.980   4.426  1.00  0.00     0.161 A 
ATOM     25  O   UNL     1       6.282  -5.376   3.033  1.00  0.00    -0.486 OA
ATOM     26  O   UNL     1       3.435  -5.166   3.391  1.00  0.00    -0.486 OA
ATOM     27  C   UNL     1       5.342  -5.497   1.957  1.00  0.00     0.271 C 
ATOM     28  C   UNL     1       4.072  -4.692   2.196  1.00  0.00     0.271 C 
ENDBRANCH  17  19
ENDBRANCH  14  17
ENDBRANCH  13  14
ENDBRANCH   7   8
ENDBRANCH   4   6
ENDBRANCH   1   2
BRANCH   1  29
ATOM     29  C   UNL     1       2.471   1.859  -2.934  1.00  0.00     0.042 C 
BRANCH  29  30
ATOM     30  C   UNL     1       3.922   2.211  -3.247  1.00  0.00     0.118 C 
BRANCH  30  31
ATOM     31  N   UNL     1       4.489   1.408  -4.322  1.00  0.00    -0.352 N 
ATOM     32  C   UNL     1       5.169   1.791  -5.453  1.00  0.00     0.251 C 
ATOM     33  H   UNL     1       4.366   0.436  -4.223  1.00  0.00     0.163 HD
ATOM     34  O   UNL     1       5.457   0.949  -6.299  1.00  0.00    -0.269 OA
BRANCH  32  35
ATOM     35  C   UNL     1       5.536   3.207  -5.676  1.00  0.00     0.039 A 
ATOM     36  C   UNL     1       5.373   3.747  -6.956  1.00  0.00     0.014 A 
ATOM     37  C   UNL     1       6.063   3.996  -4.651  1.00  0.00     0.014 A 
ATOM     38  C   UNL     1       5.673   5.092  -7.191  1.00  0.00     0.010 A 
ATOM     39  C   UNL     1       6.298   5.353  -4.868  1.00  0.00     0.010 A 
ATOM     40  C   UNL     1       6.105   5.915  -6.140  1.00  0.00    -0.014 A 
BRANCH  40  41
ATOM     41  C   UNL     1       6.354   7.365  -6.346  1.00  0.00     0.031 A 
ATOM     42  C   UNL     1       7.737   7.930  -6.176  1.00  0.00     0.074 A 
ATOM     43  C   UNL     1       5.322   8.188  -6.618  1.00  0.00     0.049 A 
ATOM     44  N   UNL     1       8.133   9.178  -6.231  1.00  0.00    -0.248 NA
ATOM     45  C   UNL     1       8.813   6.970  -5.884  1.00  0.00     0.031 C 
ATOM     46  C   UNL     1       3.926   7.776  -6.779  1.00  0.00     0.029 A 
ATOM     47  N   UNL     1       5.289   9.549  -6.796  1.00  0.00    -0.354 N 
ATOM     48  C   UNL     1       9.495   9.154  -5.960  1.00  0.00     0.074 A 
ATOM     49  C   UNL     1       9.850   7.775  -5.700  1.00  0.00     0.031 C 
ATOM     50  C   UNL     1       3.178   8.857  -7.052  1.00  0.00     0.029 A 
ATOM     51  C   UNL     1       4.030  10.042  -7.043  1.00  0.00     0.049 A 
ATOM     52  H   UNL     1       6.091  10.118  -6.751  1.00  0.00     0.167 HD
ATOM     53  C   UNL     1      10.376  10.183  -5.944  1.00  0.00     0.031 A 
ATOM     54  C   UNL     1       3.606  11.306  -7.229  1.00  0.00     0.031 A 
ATOM     55  C   UNL     1      10.029  11.553  -6.213  1.00  0.00     0.049 A 
ATOM     56  C   UNL     1       4.600  12.432  -7.187  1.00  0.00     0.074 A 
ATOM     57  C   UNL     1      10.863  12.657  -6.273  1.00  0.00     0.029 A 
ATOM     58  N   UNL     1       8.745  12.008  -6.465  1.00  0.00    -0.354 N 
ATOM     59  N   UNL     1       5.894  12.385  -6.987  1.00  0.00    -0.248 NA
ATOM     60  C   UNL     1       4.072  13.787  -7.404  1.00  0.00     0.031 C 
ATOM     61  C   UNL     1      10.075  13.787  -6.513  1.00  0.00     0.029 A 
ATOM     62  C   UNL     1       8.759  13.379  -6.657  1.00  0.00     0.049 A 
ATOM     63  H   UNL     1       7.941  11.440  -6.501  1.00  0.00     0.167 HD
ATOM     64  C   UNL     1       6.340  13.697  -7.083  1.00  0.00     0.074 A 
ATOM     65  C   UNL     1       5.180  14.515  -7.372  1.00  0.00     0.031 C 
ATOM     66  C   UNL     1       7.598  14.181  -6.945  1.00  0.00     0.031 A 
BRANCH  53  67
ATOM     67  C   UNL     1      11.807   9.862  -5.612  1.00  0.00    -0.014 A 
ATOM     68  C   UNL     1      12.622   9.156  -6.512  1.00  0.00     0.009 A 
ATOM     69  C   UNL     1      12.358  10.302  -4.398  1.00  0.00     0.009 A 
ATOM     70  C   UNL     1      13.948   8.864  -6.185  1.00  0.00     0.001 A 
ATOM     71  C   UNL     1      13.692  10.034  -4.087  1.00  0.00     0.001 A 
ATOM     72  C   UNL     1      14.483   9.307  -4.976  1.00  0.00     0.000 A 
ENDBRANCH  53  67
BRANCH  54  73
ATOM     73  C   UNL     1       2.167  11.578  -7.484  1.00  0.00    -0.014 A 
ATOM     74  C   UNL     1       1.736  11.990  -8.754  1.00  0.00     0.009 A 
ATOM     75  C   UNL     1       1.220  11.437  -6.458  1.00  0.00     0.009 A 
ATOM     76  C   UNL     1       0.390  12.281  -8.985  1.00  0.00     0.001 A 
ATOM     77  C   UNL     1      -0.130  11.701  -6.700  1.00  0.00     0.001 A 
ATOM     78  C   UNL     1      -0.542  12.132  -7.959  1.00  0.00     0.000 A 
ENDBRANCH  54  73
BRANCH  66  79
ATOM     79  C   UNL     1       7.792  15.658  -7.141  1.00  0.00    -0.014 A 
ATOM     80  C   UNL     1       7.356  16.585  -6.183  1.00  0.00     0.009 A 
ATOM     81  C   UNL     1       8.458  16.123  -8.286  1.00  0.00     0.009 A 
ATOM     82  C   UNL     1       7.553  17.953  -6.384  1.00  0.00     0.001 A 
ATOM     83  C   UNL     1       8.679  17.489  -8.471  1.00  0.00     0.001 A 
ATOM     84  C   UNL     1       8.219  18.403  -7.525  1.00  0.00     0.000 A 
ENDBRANCH  66  79
ENDBRANCH  40  41
ENDBRANCH  32  35
ENDBRANCH  30  31
ENDBRANCH  29  30
ENDBRANCH   1  29
TORSDOF 14
