REMARK SMILES [NH3+][C@@H](Cc1cn(-c2nc(Cl)nc(N3CCOCC3)n2)c2ccccc12)C(=O)NCCCNC(=O)c1ccc(-c2c3nc(c(-c4ccccc4)c4ccc([nH]4)c(-c4ccccc4)c4nc(c(-c5ccccc5)c5ccc2[nH]5)C=C4)C=C3)cc1
REMARK SMILES IDX 29 1 28 2 26 3 27 4 2 6 1 7 3 11 4 12 5 13 25 14 6 15 20 16
REMARK SMILES IDX 24 17 21 18 23 19 22 20 7 21 8 22 19 23 9 24 12 25 10 26
REMARK SMILES IDX 11 27 13 28 14 29 18 30 15 31 17 32 16 33 30 34 31 35 32 36
REMARK SMILES IDX 33 37 34 39 35 40 36 41 82 42 37 43 81 44 38 45 39 46 40 47
REMARK SMILES IDX 75 48 41 49 80 50 74 51 76 52 42 53 79 54 73 55 72 56 43 58
REMARK SMILES IDX 65 59 50 60 64 61 51 62 54 63 63 64 77 65 52 66 53 67 62 69
REMARK SMILES IDX 78 70 55 71 44 72 45 73 49 74 46 75 48 76 47 77 66 78 67 79
REMARK SMILES IDX 71 80 68 81 70 82 69 83 56 84 57 85 61 86 58 87 60 88 59 89
REMARK H PARENT 28 5 1 8 1 9 1 10 32 38 76 57 54 68
REMARK Flexibility Score: inf
ROOT
ATOM      1  C   UNL     1      -1.566   0.453   1.692  1.00  0.00     0.118 C 
ENDROOT
BRANCH   1   2
ATOM      2  N   UNL     1      -1.878  -0.598   0.763  1.00  0.00    -0.351 N 
ATOM      3  C   UNL     1      -1.044  -1.587   0.309  1.00  0.00     0.278 C 
ATOM      4  O   UNL     1      -1.587  -2.584  -0.183  1.00  0.00    -0.268 OA
ATOM      5  H   UNL     1      -2.798  -0.610   0.412  1.00  0.00     0.163 HD
BRANCH   3   6
ATOM      6  C   UNL     1       0.513  -1.483   0.345  1.00  0.00     0.275 C 
BRANCH   6   7
ATOM      7  N   UNL     1       0.984  -0.284  -0.386  1.00  0.00    -0.347 N 
ATOM      8  H   UNL     1       2.002  -0.240  -0.347  1.00  0.00     0.345 HD
ATOM      9  H   UNL     1       0.590   0.553   0.045  1.00  0.00     0.345 HD
ATOM     10  H   UNL     1       0.682  -0.339  -1.359  1.00  0.00     0.345 HD
ENDBRANCH   6   7
BRANCH   6  11
ATOM     11  C   UNL     1       1.251  -1.832   1.667  1.00  0.00     0.113 C 
BRANCH  11  12
ATOM     12  C   UNL     1       1.072  -0.958   2.880  1.00  0.00    -0.015 A 
ATOM     13  C   UNL     1       0.538  -1.371   4.087  1.00  0.00     0.099 A 
ATOM     14  C   UNL     1       1.410   0.426   3.067  1.00  0.00     0.004 A 
ATOM     15  N   UNL     1       0.295  -0.268   4.884  1.00  0.00    -0.285 N 
ATOM     16  C   UNL     1       0.772   0.862   4.239  1.00  0.00     0.056 A 
ATOM     17  C   UNL     1       2.097   1.381   2.285  1.00  0.00     0.010 A 
ATOM     18  C   UNL     1       0.751   2.217   4.614  1.00  0.00     0.027 A 
ATOM     19  C   UNL     1       2.071   2.730   2.647  1.00  0.00     0.001 A 
ATOM     20  C   UNL     1       1.394   3.142   3.789  1.00  0.00     0.002 A 
BRANCH  15  21
ATOM     21  C   UNL     1      -0.326  -0.334   6.163  1.00  0.00     0.240 A 
ATOM     22  N   UNL     1      -1.338   0.482   6.444  1.00  0.00    -0.181 NA
ATOM     23  N   UNL     1       0.133  -1.284   6.978  1.00  0.00    -0.176 NA
ATOM     24  C   UNL     1      -1.931   0.159   7.589  1.00  0.00     0.228 A 
ATOM     25  C   UNL     1      -0.482  -1.417   8.144  1.00  0.00     0.231 A 
ATOM     26  Cl  UNL     1      -3.339   1.006   8.030  1.00  0.00    -0.041 Cl
ATOM     27  N   UNL     1      -1.573  -0.760   8.471  1.00  0.00    -0.182 NA
BRANCH  25  28
ATOM     28  N   UNL     1       0.050  -2.302   9.026  1.00  0.00    -0.336 N 
ATOM     29  C   UNL     1       1.421  -2.101   9.478  1.00  0.00     0.148 C 
ATOM     30  C   UNL     1      -0.788  -3.111   9.893  1.00  0.00     0.148 C 
ATOM     31  C   UNL     1       2.057  -3.476   9.707  1.00  0.00     0.181 C 
ATOM     32  C   UNL     1      -0.074  -4.462  10.068  1.00  0.00     0.181 C 
ATOM     33  O   UNL     1       1.259  -4.289  10.591  1.00  0.00    -0.378 OA
ENDBRANCH  25  28
ENDBRANCH  15  21
ENDBRANCH  11  12
ENDBRANCH   6  11
ENDBRANCH   3   6
ENDBRANCH   1   2
BRANCH   1  34
ATOM     34  C   UNL     1      -2.120   1.834   1.401  1.00  0.00     0.042 C 
BRANCH  34  35
ATOM     35  C   UNL     1      -3.592   2.063   1.718  1.00  0.00     0.118 C 
BRANCH  35  36
ATOM     36  N   UNL     1      -4.067   1.534   2.981  1.00  0.00    -0.352 N 
ATOM     37  C   UNL     1      -4.314   2.084   4.209  1.00  0.00     0.251 C 
ATOM     38  H   UNL     1      -4.253   0.567   2.948  1.00  0.00     0.163 HD
ATOM     39  O   UNL     1      -5.128   1.477   4.915  1.00  0.00    -0.269 OA
BRANCH  37  40
ATOM     40  C   UNL     1      -3.612   3.264   4.789  1.00  0.00     0.039 A 
ATOM     41  C   UNL     1      -2.602   3.995   4.171  1.00  0.00     0.014 A 
ATOM     42  C   UNL     1      -3.917   3.565   6.129  1.00  0.00     0.014 A 
ATOM     43  C   UNL     1      -1.829   4.896   4.906  1.00  0.00     0.010 A 
ATOM     44  C   UNL     1      -3.136   4.441   6.877  1.00  0.00     0.010 A 
ATOM     45  C   UNL     1      -2.060   5.078   6.272  1.00  0.00    -0.014 A 
BRANCH  45  46
ATOM     46  C   UNL     1      -1.261   6.072   6.990  1.00  0.00     0.031 A 
ATOM     47  C   UNL     1      -1.534   7.491   6.620  1.00  0.00     0.074 A 
ATOM     48  C   UNL     1      -0.472   5.799   8.049  1.00  0.00     0.049 A 
ATOM     49  N   UNL     1      -0.700   8.409   6.252  1.00  0.00    -0.248 NA
ATOM     50  C   UNL     1      -2.942   7.921   6.616  1.00  0.00     0.031 C 
ATOM     51  C   UNL     1      -0.368   4.534   8.781  1.00  0.00     0.029 A 
ATOM     52  N   UNL     1       0.311   6.651   8.778  1.00  0.00    -0.354 N 
ATOM     53  C   UNL     1      -1.453   9.573   6.097  1.00  0.00     0.074 A 
ATOM     54  C   UNL     1      -2.835   9.193   6.237  1.00  0.00     0.031 C 
ATOM     55  C   UNL     1       0.237   4.762   9.970  1.00  0.00     0.029 A 
ATOM     56  C   UNL     1       0.674   6.149  10.020  1.00  0.00     0.049 A 
ATOM     57  H   UNL     1       0.590   7.538   8.453  1.00  0.00     0.167 HD
ATOM     58  C   UNL     1      -0.892  10.811   6.030  1.00  0.00     0.031 A 
ATOM     59  C   UNL     1       1.219   6.842  11.048  1.00  0.00     0.031 A 
ATOM     60  C   UNL     1       0.511  10.759   5.735  1.00  0.00     0.049 A 
ATOM     61  C   UNL     1       1.792   8.100  10.522  1.00  0.00     0.074 A 
ATOM     62  C   UNL     1       1.277  10.370   4.658  1.00  0.00     0.029 A 
ATOM     63  N   UNL     1       1.369  10.901   6.795  1.00  0.00    -0.354 N 
ATOM     64  N   UNL     1       2.834   8.163   9.746  1.00  0.00    -0.248 NA
ATOM     65  C   UNL     1       1.020   9.328  10.630  1.00  0.00     0.031 C 
ATOM     66  C   UNL     1       2.504   9.909   5.216  1.00  0.00     0.029 A 
ATOM     67  C   UNL     1       2.425  10.052   6.603  1.00  0.00     0.049 A 
ATOM     68  H   UNL     1       1.246  11.508   7.560  1.00  0.00     0.167 HD
ATOM     69  C   UNL     1       2.618   9.280   8.957  1.00  0.00     0.074 A 
ATOM     70  C   UNL     1       1.586  10.038   9.651  1.00  0.00     0.031 C 
ATOM     71  C   UNL     1       3.084   9.333   7.675  1.00  0.00     0.031 A 
BRANCH  58  72
ATOM     72  C   UNL     1      -1.539  12.064   6.572  1.00  0.00    -0.014 A 
ATOM     73  C   UNL     1      -2.629  12.048   7.462  1.00  0.00     0.009 A 
ATOM     74  C   UNL     1      -0.875  13.295   6.413  1.00  0.00     0.009 A 
ATOM     75  C   UNL     1      -3.028  13.188   8.167  1.00  0.00     0.001 A 
ATOM     76  C   UNL     1      -1.242  14.428   7.151  1.00  0.00     0.001 A 
ATOM     77  C   UNL     1      -2.317  14.372   8.032  1.00  0.00     0.000 A 
ENDBRANCH  58  72
BRANCH  59  78
ATOM     78  C   UNL     1       1.028   6.632  12.499  1.00  0.00    -0.014 A 
ATOM     79  C   UNL     1      -0.188   6.116  12.982  1.00  0.00     0.009 A 
ATOM     80  C   UNL     1       1.917   7.193  13.431  1.00  0.00     0.009 A 
ATOM     81  C   UNL     1      -0.523   6.191  14.337  1.00  0.00     0.001 A 
ATOM     82  C   UNL     1       1.579   7.274  14.788  1.00  0.00     0.001 A 
ATOM     83  C   UNL     1       0.353   6.787  15.238  1.00  0.00     0.000 A 
ENDBRANCH  59  78
BRANCH  71  84
ATOM     84  C   UNL     1       4.150   8.348   7.262  1.00  0.00    -0.014 A 
ATOM     85  C   UNL     1       5.316   8.845   6.660  1.00  0.00     0.009 A 
ATOM     86  C   UNL     1       3.963   6.956   7.306  1.00  0.00     0.009 A 
ATOM     87  C   UNL     1       6.264   7.979   6.111  1.00  0.00     0.001 A 
ATOM     88  C   UNL     1       4.926   6.088   6.783  1.00  0.00     0.001 A 
ATOM     89  C   UNL     1       6.071   6.601   6.177  1.00  0.00     0.000 A 
ENDBRANCH  71  84
ENDBRANCH  45  46
ENDBRANCH  37  40
ENDBRANCH  35  36
ENDBRANCH  34  35
ENDBRANCH   1  34
TORSDOF 15
