REMARK SMILES Cc1cc(Cl)cc2c1O[C@H](C(F)(F)F)C(C(=O)NCCCNC(=O)c1ccc(-c3c4nc(c(-c5ccccc5)c5ccc([nH]5)c(-c5ccccc5)c5nc(c(-c6ccccc6)c6ccc3[nH]6)C=C5)C=C4)cc1)=C2
REMARK SMILES IDX 20 1 19 2 18 3 16 4 17 5 15 7 1 8 2 9 3 10 8 11 4 12 7 13
REMARK SMILES IDX 9 14 5 15 6 16 73 17 10 18 11 19 12 20 13 21 14 22 21 23
REMARK SMILES IDX 22 24 23 25 24 27 25 28 26 29 72 30 27 31 71 32 28 33 29 34
REMARK SMILES IDX 30 35 65 36 31 37 70 38 64 39 66 40 32 41 69 42 63 43 62 44
REMARK SMILES IDX 33 46 55 47 40 48 54 49 41 50 44 51 53 52 67 53 42 54 43 55
REMARK SMILES IDX 52 57 68 58 45 59 34 60 35 61 39 62 36 63 38 64 37 65 56 66
REMARK SMILES IDX 57 67 61 68 58 69 60 70 59 71 46 72 47 73 51 74 48 75 50 76
REMARK SMILES IDX 49 77
REMARK H PARENT 18 6 22 26 66 45 44 56
REMARK Flexibility Score: inf
ROOT
ATOM      1  C   UNL     1       7.059  -4.246  -0.670  1.00  0.00     0.042 C 
ENDROOT
BRANCH   1   2
ATOM      2  C   UNL     1       5.953  -4.514  -1.677  1.00  0.00     0.118 C 
BRANCH   2   3
ATOM      3  N   UNL     1       5.077  -5.593  -1.245  1.00  0.00    -0.352 N 
ATOM      4  C   UNL     1       3.812  -5.720  -0.782  1.00  0.00     0.251 C 
ATOM      5  O   UNL     1       3.458  -6.875  -0.527  1.00  0.00    -0.270 OA
ATOM      6  H   UNL     1       5.527  -6.467  -1.306  1.00  0.00     0.163 HD
BRANCH   4   7
ATOM      7  C   UNL     1       2.865  -4.589  -0.567  1.00  0.00     0.067 C 
ATOM      8  C   UNL     1       0.639  -0.015   0.189  1.00  0.00     0.048 C 
ATOM      9  C   UNL     1       0.223  -1.450   0.347  1.00  0.00    -0.007 A 
ATOM     10  C   UNL     1      -1.100  -1.756   0.691  1.00  0.00     0.027 A 
ATOM     11  C   UNL     1       1.109  -2.504   0.089  1.00  0.00     0.131 A 
ATOM     12  C   UNL     1      -1.507  -3.086   0.805  1.00  0.00     0.042 A 
ATOM     13  C   UNL     1       0.705  -3.840   0.206  1.00  0.00     0.019 A 
ATOM     14  O   UNL     1       2.395  -2.170  -0.231  1.00  0.00    -0.475 OA
ATOM     15  Cl  UNL     1      -3.132  -3.442   1.244  1.00  0.00    -0.084 Cl
ATOM     16  C   UNL     1      -0.612  -4.129   0.570  1.00  0.00     0.032 A 
ATOM     17  C   UNL     1       1.677  -4.905  -0.019  1.00  0.00     0.025 C 
ATOM     18  C   UNL     1       3.163  -3.169  -0.944  1.00  0.00     0.314 C 
BRANCH  18  19
ATOM     19  C   UNL     1       3.049  -2.917  -2.460  1.00  0.00     0.429 C 
ATOM     20  F   UNL     1       3.696  -1.773  -2.796  1.00  0.00    -0.167 F 
ATOM     21  F   UNL     1       3.612  -3.905  -3.196  1.00  0.00    -0.167 F 
ATOM     22  F   UNL     1       1.770  -2.799  -2.878  1.00  0.00    -0.167 F 
ENDBRANCH  18  19
ENDBRANCH   4   7
ENDBRANCH   2   3
ENDBRANCH   1   2
BRANCH   1  23
ATOM     23  C   UNL     1       8.184  -5.265  -0.779  1.00  0.00     0.118 C 
BRANCH  23  24
ATOM     24  N   UNL     1       8.857  -5.190  -2.074  1.00  0.00    -0.352 N 
ATOM     25  C   UNL     1      10.082  -4.674  -2.407  1.00  0.00     0.251 C 
ATOM     26  H   UNL     1       8.349  -5.570  -2.827  1.00  0.00     0.163 HD
ATOM     27  O   UNL     1      10.350  -4.439  -3.584  1.00  0.00    -0.269 OA
BRANCH  25  28
ATOM     28  C   UNL     1      11.077  -4.404  -1.354  1.00  0.00     0.039 A 
ATOM     29  C   UNL     1      11.874  -3.261  -1.439  1.00  0.00     0.014 A 
ATOM     30  C   UNL     1      11.236  -5.299  -0.294  1.00  0.00     0.014 A 
ATOM     31  C   UNL     1      12.790  -2.987  -0.423  1.00  0.00     0.010 A 
ATOM     32  C   UNL     1      12.066  -4.971   0.766  1.00  0.00     0.010 A 
ATOM     33  C   UNL     1      12.867  -3.824   0.702  1.00  0.00    -0.014 A 
BRANCH  33  34
ATOM     34  C   UNL     1      13.807  -3.543   1.811  1.00  0.00     0.031 A 
ATOM     35  C   UNL     1      14.906  -4.521   2.123  1.00  0.00     0.074 A 
ATOM     36  C   UNL     1      13.635  -2.442   2.566  1.00  0.00     0.049 A 
ATOM     37  N   UNL     1      15.797  -4.479   3.079  1.00  0.00    -0.248 NA
ATOM     38  C   UNL     1      15.000  -5.717   1.267  1.00  0.00     0.031 C 
ATOM     39  C   UNL     1      12.579  -1.444   2.382  1.00  0.00     0.029 A 
ATOM     40  N   UNL     1      14.348  -1.977   3.641  1.00  0.00    -0.354 N 
ATOM     41  C   UNL     1      16.542  -5.644   2.947  1.00  0.00     0.074 A 
ATOM     42  C   UNL     1      15.962  -6.403   1.864  1.00  0.00     0.031 C 
ATOM     43  C   UNL     1      12.741  -0.463   3.284  1.00  0.00     0.029 A 
ATOM     44  C   UNL     1      13.881  -0.784   4.136  1.00  0.00     0.049 A 
ATOM     45  H   UNL     1      15.121  -2.453   4.021  1.00  0.00     0.167 HD
ATOM     46  C   UNL     1      17.633  -6.032   3.646  1.00  0.00     0.031 A 
ATOM     47  C   UNL     1      14.323  -0.033   5.162  1.00  0.00     0.031 A 
ATOM     48  C   UNL     1      18.217  -5.262   4.709  1.00  0.00     0.049 A 
ATOM     49  C   UNL     1      15.525  -0.495   5.938  1.00  0.00     0.074 A 
ATOM     50  C   UNL     1      19.356  -5.538   5.444  1.00  0.00     0.029 A 
ATOM     51  N   UNL     1      17.707  -4.065   5.188  1.00  0.00    -0.354 N 
ATOM     52  N   UNL     1      16.260  -1.566   5.758  1.00  0.00    -0.248 NA
ATOM     53  C   UNL     1      15.962   0.356   7.053  1.00  0.00     0.031 C 
ATOM     54  C   UNL     1      19.502  -4.537   6.407  1.00  0.00     0.029 A 
ATOM     55  C   UNL     1      18.491  -3.605   6.230  1.00  0.00     0.049 A 
ATOM     56  H   UNL     1      16.907  -3.611   4.837  1.00  0.00     0.167 HD
ATOM     57  C   UNL     1      17.257  -1.509   6.723  1.00  0.00     0.074 A 
ATOM     58  C   UNL     1      17.044  -0.287   7.472  1.00  0.00     0.031 C 
ATOM     59  C   UNL     1      18.258  -2.389   6.967  1.00  0.00     0.031 A 
BRANCH  46  60
ATOM     60  C   UNL     1      18.269  -7.342   3.277  1.00  0.00    -0.014 A 
ATOM     61  C   UNL     1      18.950  -7.501   2.058  1.00  0.00     0.009 A 
ATOM     62  C   UNL     1      18.232  -8.417   4.178  1.00  0.00     0.009 A 
ATOM     63  C   UNL     1      19.554  -8.719   1.738  1.00  0.00     0.001 A 
ATOM     64  C   UNL     1      18.863  -9.623   3.869  1.00  0.00     0.001 A 
ATOM     65  C   UNL     1      19.517  -9.775   2.647  1.00  0.00     0.000 A 
ENDBRANCH  46  60
BRANCH  47  66
ATOM     66  C   UNL     1      13.641   1.247   5.486  1.00  0.00    -0.014 A 
ATOM     67  C   UNL     1      14.270   2.473   5.223  1.00  0.00     0.009 A 
ATOM     68  C   UNL     1      12.346   1.253   6.029  1.00  0.00     0.009 A 
ATOM     69  C   UNL     1      13.623   3.678   5.508  1.00  0.00     0.001 A 
ATOM     70  C   UNL     1      11.690   2.459   6.285  1.00  0.00     0.001 A 
ATOM     71  C   UNL     1      12.331   3.670   6.031  1.00  0.00     0.000 A 
ENDBRANCH  47  66
BRANCH  59  72
ATOM     72  C   UNL     1      19.210  -2.068   8.083  1.00  0.00    -0.014 A 
ATOM     73  C   UNL     1      18.817  -2.184   9.425  1.00  0.00     0.009 A 
ATOM     74  C   UNL     1      20.541  -1.735   7.788  1.00  0.00     0.009 A 
ATOM     75  C   UNL     1      19.736  -1.956  10.450  1.00  0.00     0.001 A 
ATOM     76  C   UNL     1      21.465  -1.537   8.815  1.00  0.00     0.001 A 
ATOM     77  C   UNL     1      21.060  -1.643  10.145  1.00  0.00     0.000 A 
ENDBRANCH  59  72
ENDBRANCH  33  34
ENDBRANCH  25  28
ENDBRANCH  23  24
ENDBRANCH   1  23
TORSDOF 11
