REMARK SMILES Cc1ccc(-c2noc(CCC(=O)NCCCNC(=O)c3ccc(-c4c5nc(c(-c6ccccc6)c6ccc([nH]6)c(-c6ccccc6)c6nc(c(-c7ccccc7)c7ccc4[nH]7)C=C6)C=C5)cc3)n2)cc1C
REMARK SMILES IDX 15 1 14 2 12 3 13 4 11 6 10 7 9 8 6 9 7 10 69 11 8 12 5 13
REMARK SMILES IDX 1 14 2 15 3 16 71 17 4 18 70 19 72 20 16 21 17 22 18 23
REMARK SMILES IDX 19 24 20 26 21 27 22 28 68 29 23 30 67 31 24 32 25 33 26 34
REMARK SMILES IDX 61 35 27 36 66 37 60 38 62 39 28 40 65 41 59 42 58 43 29 45
REMARK SMILES IDX 51 46 36 47 50 48 37 49 40 50 49 51 63 52 38 53 39 54 48 56
REMARK SMILES IDX 64 57 41 58 30 59 31 60 35 61 32 62 34 63 33 64 52 65 53 66
REMARK SMILES IDX 57 67 54 68 56 69 55 70 42 71 43 72 47 73 44 74 46 75 45 76
REMARK H PARENT 14 5 18 25 62 44 40 55
REMARK Flexibility Score: inf
ROOT
ATOM      1  C   UNL     1      -3.901  -4.682  -0.029  1.00  0.00     0.117 C 
ENDROOT
BRANCH   1   2
ATOM      2  N   UNL     1      -5.307  -5.025  -0.168  1.00  0.00    -0.356 N 
ATOM      3  C   UNL     1      -6.224  -4.592  -1.073  1.00  0.00     0.220 C 
ATOM      4  O   UNL     1      -7.404  -4.905  -0.904  1.00  0.00    -0.275 OA
ATOM      5  H   UNL     1      -5.646  -5.669   0.495  1.00  0.00     0.163 HD
BRANCH   3   6
ATOM      6  C   UNL     1      -5.813  -3.747  -2.255  1.00  0.00     0.110 C 
BRANCH   6   7
ATOM      7  C   UNL     1      -6.187  -2.287  -2.051  1.00  0.00     0.110 C 
BRANCH   7   8
ATOM      8  C   UNL     1      -5.160  -1.510  -1.317  1.00  0.00     0.227 A 
ATOM      9  C   UNL     1      -3.482  -0.473  -0.590  1.00  0.00     0.202 A 
ATOM     10  N   UNL     1      -4.514   0.095   0.055  1.00  0.00    -0.057 NA
ATOM     11  N   UNL     1      -3.850  -1.506  -1.431  1.00  0.00    -0.191 NA
ATOM     12  O   UNL     1      -5.625  -0.590  -0.425  1.00  0.00    -0.339 OA
BRANCH   9  13
ATOM     13  C   UNL     1      -2.103  -0.032  -0.429  1.00  0.00     0.023 A 
ATOM     14  C   UNL     1       1.962   1.365   0.105  1.00  0.00     0.044 C 
ATOM     15  C   UNL     1       0.564   0.845  -0.087  1.00  0.00    -0.048 A 
ATOM     16  C   UNL     1      -0.503   1.756  -0.066  1.00  0.00     0.004 A 
ATOM     17  C   UNL     1       0.293  -0.524  -0.287  1.00  0.00    -0.047 A 
ATOM     18  C   UNL     1      -1.820   1.323  -0.225  1.00  0.00     0.012 A 
ATOM     19  C   UNL     1      -1.041  -0.944  -0.466  1.00  0.00     0.015 A 
ATOM     20  C   UNL     1       1.369  -1.576  -0.251  1.00  0.00     0.044 C 
ENDBRANCH   9  13
ENDBRANCH   7   8
ENDBRANCH   6   7
ENDBRANCH   3   6
ENDBRANCH   1   2
BRANCH   1  21
ATOM     21  C   UNL     1      -3.692  -3.682   1.103  1.00  0.00     0.042 C 
BRANCH  21  22
ATOM     22  C   UNL     1      -3.766  -4.310   2.490  1.00  0.00     0.118 C 
BRANCH  22  23
ATOM     23  N   UNL     1      -2.542  -5.019   2.826  1.00  0.00    -0.352 N 
ATOM     24  C   UNL     1      -1.519  -4.679   3.673  1.00  0.00     0.251 C 
ATOM     25  H   UNL     1      -2.430  -5.885   2.372  1.00  0.00     0.163 HD
ATOM     26  O   UNL     1      -0.455  -5.311   3.595  1.00  0.00    -0.269 OA
BRANCH  24  27
ATOM     27  C   UNL     1      -1.641  -3.595   4.675  1.00  0.00     0.039 A 
ATOM     28  C   UNL     1      -0.497  -2.860   5.007  1.00  0.00     0.014 A 
ATOM     29  C   UNL     1      -2.828  -3.358   5.371  1.00  0.00     0.014 A 
ATOM     30  C   UNL     1      -0.547  -1.885   6.009  1.00  0.00     0.010 A 
ATOM     31  C   UNL     1      -2.902  -2.327   6.311  1.00  0.00     0.010 A 
ATOM     32  C   UNL     1      -1.755  -1.602   6.665  1.00  0.00    -0.014 A 
BRANCH  32  33
ATOM     33  C   UNL     1      -1.820  -0.600   7.761  1.00  0.00     0.031 A 
ATOM     34  C   UNL     1      -2.175  -1.028   9.162  1.00  0.00     0.074 A 
ATOM     35  C   UNL     1      -1.609   0.704   7.502  1.00  0.00     0.049 A 
ATOM     36  N   UNL     1      -2.334  -0.295  10.237  1.00  0.00    -0.248 NA
ATOM     37  C   UNL     1      -2.417  -2.464   9.377  1.00  0.00     0.031 C 
ATOM     38  C   UNL     1      -1.312   1.271   6.186  1.00  0.00     0.029 A 
ATOM     39  N   UNL     1      -1.620   1.791   8.341  1.00  0.00    -0.354 N 
ATOM     40  C   UNL     1      -2.739  -1.172  11.236  1.00  0.00     0.074 A 
ATOM     41  C   UNL     1      -2.829  -2.485  10.636  1.00  0.00     0.031 C 
ATOM     42  C   UNL     1      -1.145   2.598   6.310  1.00  0.00     0.029 A 
ATOM     43  C   UNL     1      -1.346   2.977   7.706  1.00  0.00     0.049 A 
ATOM     44  H   UNL     1      -1.806   1.726   9.305  1.00  0.00     0.167 HD
ATOM     45  C   UNL     1      -3.002  -0.916  12.540  1.00  0.00     0.031 A 
ATOM     46  C   UNL     1      -1.262   4.230   8.190  1.00  0.00     0.031 A 
ATOM     47  C   UNL     1      -2.861   0.372  13.162  1.00  0.00     0.049 A 
ATOM     48  C   UNL     1      -1.473   4.480   9.655  1.00  0.00     0.074 A 
ATOM     49  C   UNL     1      -3.017   0.708  14.496  1.00  0.00     0.029 A 
ATOM     50  N   UNL     1      -2.522   1.536  12.493  1.00  0.00    -0.354 N 
ATOM     51  N   UNL     1      -1.791   3.628  10.599  1.00  0.00    -0.248 NA
ATOM     52  C   UNL     1      -1.299   5.863  10.123  1.00  0.00     0.031 C 
ATOM     53  C   UNL     1      -2.794   2.083  14.630  1.00  0.00     0.029 A 
ATOM     54  C   UNL     1      -2.471   2.594  13.383  1.00  0.00     0.049 A 
ATOM     55  H   UNL     1      -2.343   1.600  11.527  1.00  0.00     0.167 HD
ATOM     56  C   UNL     1      -1.842   4.367  11.773  1.00  0.00     0.074 A 
ATOM     57  C   UNL     1      -1.509   5.733  11.426  1.00  0.00     0.031 C 
ATOM     58  C   UNL     1      -2.141   3.948  13.026  1.00  0.00     0.031 A 
BRANCH  45  59
ATOM     59  C   UNL     1      -3.476  -2.067  13.381  1.00  0.00    -0.014 A 
ATOM     60  C   UNL     1      -2.598  -3.084  13.786  1.00  0.00     0.009 A 
ATOM     61  C   UNL     1      -4.821  -2.128  13.778  1.00  0.00     0.009 A 
ATOM     62  C   UNL     1      -3.068  -4.163  14.537  1.00  0.00     0.001 A 
ATOM     63  C   UNL     1      -5.282  -3.196  14.550  1.00  0.00     0.001 A 
ATOM     64  C   UNL     1      -4.408  -4.218  14.918  1.00  0.00     0.000 A 
ENDBRANCH  45  59
BRANCH  46  65
ATOM     65  C   UNL     1      -0.927   5.345   7.272  1.00  0.00    -0.014 A 
ATOM     66  C   UNL     1       0.375   5.865   7.236  1.00  0.00     0.009 A 
ATOM     67  C   UNL     1      -1.899   5.872   6.408  1.00  0.00     0.009 A 
ATOM     68  C   UNL     1       0.696   6.902   6.359  1.00  0.00     0.001 A 
ATOM     69  C   UNL     1      -1.569   6.897   5.519  1.00  0.00     0.001 A 
ATOM     70  C   UNL     1      -0.275   7.414   5.498  1.00  0.00     0.000 A 
ENDBRANCH  46  65
BRANCH  58  71
ATOM     71  C   UNL     1      -2.104   4.974  14.118  1.00  0.00    -0.014 A 
ATOM     72  C   UNL     1      -3.155   5.889  14.284  1.00  0.00     0.009 A 
ATOM     73  C   UNL     1      -1.026   5.000  15.016  1.00  0.00     0.009 A 
ATOM     74  C   UNL     1      -3.115   6.827  15.318  1.00  0.00     0.001 A 
ATOM     75  C   UNL     1      -0.998   5.927  16.059  1.00  0.00     0.001 A 
ATOM     76  C   UNL     1      -2.039   6.843  16.205  1.00  0.00     0.000 A 
ENDBRANCH  58  71
ENDBRANCH  32  33
ENDBRANCH  24  27
ENDBRANCH  22  23
ENDBRANCH  21  22
ENDBRANCH   1  21
TORSDOF 13
