REMARK SMILES Cc1ccc([N+](=O)[O-])c(NCc2ccc(C(=O)NCCCNC(=O)c3ccc(-c4c5nc(c(-c6ccccc6)c6ccc([nH]6)c(-c6ccccc6)c6nc(c(-c7ccccc7)c7ccc4[nH]7)C=C6)C=C5)cc3)cc2)c1
REMARK SMILES IDX 19 1 18 2 16 3 17 4 15 6 12 7 13 8 74 9 14 10 73 11 11 12
REMARK SMILES IDX 10 13 9 15 1 16 2 17 3 18 75 19 4 20 5 21 6 22 7 23 8 24
REMARK SMILES IDX 20 25 21 26 22 27 23 28 24 30 25 31 26 32 72 33 27 34 71 35
REMARK SMILES IDX 28 36 29 37 30 38 65 39 31 40 70 41 64 42 66 43 32 44 69 45
REMARK SMILES IDX 63 46 62 47 33 49 55 50 40 51 54 52 41 53 44 54 53 55 67 56
REMARK SMILES IDX 42 57 43 58 52 60 68 61 45 62 34 63 35 64 39 65 36 66 38 67
REMARK SMILES IDX 37 68 56 69 57 70 61 71 58 72 60 73 59 74 46 75 47 76 51 77
REMARK SMILES IDX 48 78 50 79 49 80
REMARK H PARENT 18 5 10 14 22 29 66 48 44 59
REMARK Flexibility Score: inf
ROOT
ATOM      1  C   UNL     1      -2.847   9.061   0.674  1.00  0.00     0.118 C 
ENDROOT
BRANCH   1   2
ATOM      2  N   UNL     1      -4.238   8.934   0.266  1.00  0.00    -0.352 N 
ATOM      3  C   UNL     1      -5.050   7.840   0.071  1.00  0.00     0.251 C 
ATOM      4  O   UNL     1      -6.243   8.063  -0.140  1.00  0.00    -0.269 OA
ATOM      5  H   UNL     1      -4.683   9.796   0.098  1.00  0.00     0.163 HD
BRANCH   3   6
ATOM      6  C   UNL     1      -4.580   6.419   0.101  1.00  0.00     0.039 A 
ATOM      7  C   UNL     1      -3.867   3.657   0.035  1.00  0.00    -0.029 A 
ATOM      8  C   UNL     1      -5.192   4.056   0.265  1.00  0.00     0.006 A 
ATOM      9  C   UNL     1      -2.921   4.657  -0.203  1.00  0.00     0.006 A 
ATOM     10  C   UNL     1      -5.543   5.416   0.292  1.00  0.00     0.014 A 
ATOM     11  C   UNL     1      -3.273   6.009  -0.151  1.00  0.00     0.014 A 
BRANCH   7  12
ATOM     12  C   UNL     1      -3.521   2.180  -0.059  1.00  0.00     0.149 C 
BRANCH  12  13
ATOM     13  N   UNL     1      -2.126   1.929   0.275  1.00  0.00    -0.375 N 
ATOM     14  H   UNL     1      -1.634   2.695   0.651  1.00  0.00     0.161 HD
BRANCH  13  15
ATOM     15  C   UNL     1      -1.398   0.762   0.137  1.00  0.00     0.114 A 
ATOM     16  C   UNL     1       2.386   0.065  -0.013  1.00  0.00     0.044 C 
ATOM     17  C   UNL     1       0.902  -0.160  -0.012  1.00  0.00    -0.049 A 
ATOM     18  C   UNL     1       0.395  -1.454  -0.117  1.00  0.00     0.010 A 
ATOM     19  C   UNL     1       0.007   0.919   0.114  1.00  0.00     0.036 A 
ATOM     20  C   UNL     1      -0.981  -1.655  -0.132  1.00  0.00     0.088 A 
ATOM     21  C   UNL     1      -1.855  -0.555  -0.029  1.00  0.00     0.292 A 
BRANCH  21  22
ATOM     22  N   UNL     1      -3.261  -0.893  -0.010  1.00  0.00     0.064 N 
ATOM     23  O   UNL     1      -3.681  -1.500   0.985  1.00  0.00    -0.258 OA
ATOM     24  O   UNL     1      -3.932  -0.611  -1.013  1.00  0.00    -0.258 OA
ENDBRANCH  21  22
ENDBRANCH  13  15
ENDBRANCH  12  13
ENDBRANCH   7  12
ENDBRANCH   3   6
ENDBRANCH   1   2
BRANCH   1  25
ATOM     25  C   UNL     1      -1.890   9.012  -0.518  1.00  0.00     0.042 C 
BRANCH  25  26
ATOM     26  C   UNL     1      -1.488  10.368  -1.065  1.00  0.00     0.118 C 
BRANCH  26  27
ATOM     27  N   UNL     1      -0.130  10.770  -0.708  1.00  0.00    -0.352 N 
ATOM     28  C   UNL     1       0.528  11.946  -1.033  1.00  0.00     0.251 C 
ATOM     29  H   UNL     1       0.383  10.125  -0.170  1.00  0.00     0.163 HD
ATOM     30  O   UNL     1       1.666  12.159  -0.651  1.00  0.00    -0.269 OA
BRANCH  28  31
ATOM     31  C   UNL     1      -0.242  12.995  -1.740  1.00  0.00     0.039 A 
ATOM     32  C   UNL     1      -0.392  14.221  -1.088  1.00  0.00     0.014 A 
ATOM     33  C   UNL     1      -1.044  12.657  -2.827  1.00  0.00     0.014 A 
ATOM     34  C   UNL     1      -1.524  14.983  -1.349  1.00  0.00     0.010 A 
ATOM     35  C   UNL     1      -2.220  13.355  -3.009  1.00  0.00     0.010 A 
ATOM     36  C   UNL     1      -2.492  14.473  -2.212  1.00  0.00    -0.014 A 
BRANCH  36  37
ATOM     37  C   UNL     1      -3.860  14.977  -2.242  1.00  0.00     0.031 A 
ATOM     38  C   UNL     1      -4.327  15.784  -3.381  1.00  0.00     0.074 A 
ATOM     39  C   UNL     1      -4.711  14.681  -1.236  1.00  0.00     0.049 A 
ATOM     40  N   UNL     1      -5.329  16.595  -3.330  1.00  0.00    -0.248 NA
ATOM     41  C   UNL     1      -3.640  15.790  -4.665  1.00  0.00     0.031 C 
ATOM     42  C   UNL     1      -6.158  14.874  -1.201  1.00  0.00     0.029 A 
ATOM     43  N   UNL     1      -4.371  14.363   0.081  1.00  0.00    -0.354 N 
ATOM     44  C   UNL     1      -5.596  16.997  -4.615  1.00  0.00     0.074 A 
ATOM     45  C   UNL     1      -4.465  16.546  -5.393  1.00  0.00     0.031 C 
ATOM     46  C   UNL     1      -6.552  14.945   0.081  1.00  0.00     0.029 A 
ATOM     47  C   UNL     1      -5.352  14.959   0.900  1.00  0.00     0.049 A 
ATOM     48  H   UNL     1      -3.600  13.828   0.379  1.00  0.00     0.167 HD
ATOM     49  C   UNL     1      -6.807  17.552  -4.902  1.00  0.00     0.031 A 
ATOM     50  C   UNL     1      -5.017  15.944   1.784  1.00  0.00     0.031 A 
ATOM     51  C   UNL     1      -7.610  17.786  -3.701  1.00  0.00     0.049 A 
ATOM     52  C   UNL     1      -5.702  17.277   1.542  1.00  0.00     0.074 A 
ATOM     53  C   UNL     1      -8.718  17.176  -3.133  1.00  0.00     0.029 A 
ATOM     54  N   UNL     1      -7.113  18.644  -2.732  1.00  0.00    -0.354 N 
ATOM     55  N   UNL     1      -6.478  17.544   0.528  1.00  0.00    -0.248 NA
ATOM     56  C   UNL     1      -5.459  18.455   2.378  1.00  0.00     0.031 C 
ATOM     57  C   UNL     1      -8.883  17.690  -1.812  1.00  0.00     0.029 A 
ATOM     58  C   UNL     1      -7.884  18.617  -1.587  1.00  0.00     0.049 A 
ATOM     59  H   UNL     1      -6.311  19.203  -2.847  1.00  0.00     0.167 HD
ATOM     60  C   UNL     1      -6.781  18.881   0.525  1.00  0.00     0.074 A 
ATOM     61  C   UNL     1      -6.122  19.410   1.704  1.00  0.00     0.031 C 
ATOM     62  C   UNL     1      -7.500  19.470  -0.474  1.00  0.00     0.031 A 
BRANCH  49  63
ATOM     63  C   UNL     1      -7.352  17.660  -6.307  1.00  0.00    -0.014 A 
ATOM     64  C   UNL     1      -8.743  17.681  -6.513  1.00  0.00     0.009 A 
ATOM     65  C   UNL     1      -6.563  17.683  -7.470  1.00  0.00     0.009 A 
ATOM     66  C   UNL     1      -9.307  17.620  -7.795  1.00  0.00     0.001 A 
ATOM     67  C   UNL     1      -7.116  17.579  -8.754  1.00  0.00     0.001 A 
ATOM     68  C   UNL     1      -8.491  17.535  -8.916  1.00  0.00     0.000 A 
ENDBRANCH  49  63
BRANCH  50  69
ATOM     69  C   UNL     1      -3.639  15.803   2.338  1.00  0.00    -0.014 A 
ATOM     70  C   UNL     1      -3.327  14.655   3.094  1.00  0.00     0.009 A 
ATOM     71  C   UNL     1      -2.586  16.595   1.861  1.00  0.00     0.009 A 
ATOM     72  C   UNL     1      -2.002  14.247   3.265  1.00  0.00     0.001 A 
ATOM     73  C   UNL     1      -1.258  16.194   2.052  1.00  0.00     0.001 A 
ATOM     74  C   UNL     1      -0.969  15.005   2.720  1.00  0.00     0.000 A 
ENDBRANCH  50  69
BRANCH  62  75
ATOM     75  C   UNL     1      -7.854  20.934  -0.520  1.00  0.00    -0.014 A 
ATOM     76  C   UNL     1      -8.171  21.685   0.620  1.00  0.00     0.009 A 
ATOM     77  C   UNL     1      -7.986  21.585  -1.766  1.00  0.00     0.009 A 
ATOM     78  C   UNL     1      -8.522  23.039   0.524  1.00  0.00     0.001 A 
ATOM     79  C   UNL     1      -8.360  22.927  -1.868  1.00  0.00     0.001 A 
ATOM     80  C   UNL     1      -8.612  23.660  -0.719  1.00  0.00     0.000 A 
ENDBRANCH  62  75
ENDBRANCH  36  37
ENDBRANCH  28  31
ENDBRANCH  26  27
ENDBRANCH  25  26
ENDBRANCH   1  25
TORSDOF 14
