REMARK SMILES Cc1ccc(C(=O)NCCCNC(=O)c2ccc(-c3c4nc(c(-c5ccccc5)c5ccc([nH]5)c(-c5ccccc5)c5nc(c(-c6ccccc6)c6ccc3[nH]6)C=C5)C=C4)cc2)cc1N1CC(C)C1
REMARK SMILES IDX 10 1 9 2 8 3 6 4 7 5 5 7 1 8 2 9 3 10 64 11 4 12 63 13 65 14
REMARK SMILES IDX 66 15 69 16 67 17 68 18 11 19 12 20 13 21 14 23 15 24 16 25
REMARK SMILES IDX 62 26 17 27 61 28 18 29 19 30 20 31 55 32 21 33 60 34 54 35
REMARK SMILES IDX 56 36 22 37 59 38 53 39 52 40 23 42 45 43 30 44 44 45 31 46
REMARK SMILES IDX 34 47 43 48 57 49 32 50 33 51 42 53 58 54 35 55 24 56 25 57
REMARK SMILES IDX 29 58 26 59 28 60 27 61 46 62 47 63 51 64 48 65 50 66 49 67
REMARK SMILES IDX 36 68 37 69 41 70 38 71 40 72 39 73
REMARK H PARENT 8 6 12 22 56 41 34 52
REMARK Flexibility Score: inf
ROOT
ATOM      1  C   UNL     1      -2.882   3.595  -0.774  1.00  0.00     0.042 C 
ENDROOT
BRANCH   1   2
ATOM      2  C   UNL     1      -3.360   2.794   0.441  1.00  0.00     0.118 C 
BRANCH   2   3
ATOM      3  N   UNL     1      -3.698   1.421   0.099  1.00  0.00    -0.352 N 
ATOM      4  C   UNL     1      -2.956   0.271  -0.046  1.00  0.00     0.251 C 
ATOM      5  O   UNL     1      -3.589  -0.767  -0.251  1.00  0.00    -0.269 OA
ATOM      6  H   UNL     1      -4.660   1.286  -0.062  1.00  0.00     0.163 HD
BRANCH   4   7
ATOM      7  C   UNL     1      -1.461   0.193   0.016  1.00  0.00     0.041 A 
ATOM      8  C   UNL     1       2.849  -0.359   0.025  1.00  0.00     0.046 C 
ATOM      9  C   UNL     1       1.365  -0.124   0.023  1.00  0.00    -0.028 A 
ATOM     10  C   UNL     1       0.513  -1.239  -0.014  1.00  0.00     0.006 A 
ATOM     11  C   UNL     1       0.801   1.159   0.063  1.00  0.00     0.040 A 
ATOM     12  C   UNL     1      -0.877  -1.081  -0.014  1.00  0.00     0.014 A 
ATOM     13  C   UNL     1      -0.599   1.287   0.051  1.00  0.00     0.040 A 
BRANCH  11  14
ATOM     14  N   UNL     1       1.610   2.317   0.107  1.00  0.00    -0.371 N 
ATOM     15  C   UNL     1       1.341   3.546   0.801  1.00  0.00     0.121 C 
ATOM     16  C   UNL     1       2.136   2.976  -1.059  1.00  0.00     0.121 C 
ATOM     17  C   UNL     1       1.638   4.310  -0.489  1.00  0.00     0.025 C 
ATOM     18  C   UNL     1       2.643   5.438  -0.376  1.00  0.00     0.011 C 
ENDBRANCH  11  14
ENDBRANCH   4   7
ENDBRANCH   2   3
ENDBRANCH   1   2
BRANCH   1  19
ATOM     19  C   UNL     1      -3.996   4.375  -1.448  1.00  0.00     0.118 C 
BRANCH  19  20
ATOM     20  N   UNL     1      -4.126   5.753  -0.978  1.00  0.00    -0.352 N 
ATOM     21  C   UNL     1      -5.166   6.642  -1.210  1.00  0.00     0.251 C 
ATOM     22  H   UNL     1      -3.384   6.092  -0.427  1.00  0.00     0.163 HD
ATOM     23  O   UNL     1      -5.155   7.763  -0.749  1.00  0.00    -0.269 OA
BRANCH  21  24
ATOM     24  C   UNL     1      -6.353   6.130  -1.938  1.00  0.00     0.039 A 
ATOM     25  C   UNL     1      -7.581   6.172  -1.274  1.00  0.00     0.014 A 
ATOM     26  C   UNL     1      -6.188   5.378  -3.099  1.00  0.00     0.014 A 
ATOM     27  C   UNL     1      -8.565   5.254  -1.628  1.00  0.00     0.010 A 
ATOM     28  C   UNL     1      -7.128   4.409  -3.395  1.00  0.00     0.010 A 
ATOM     29  C   UNL     1      -8.280   4.302  -2.611  1.00  0.00    -0.014 A 
BRANCH  29  30
ATOM     30  C   UNL     1      -9.100   3.111  -2.794  1.00  0.00     0.031 A 
ATOM     31  C   UNL     1     -10.143   3.095  -3.832  1.00  0.00     0.074 A 
ATOM     32  C   UNL     1      -8.976   2.044  -1.973  1.00  0.00     0.049 A 
ATOM     33  N   UNL     1     -11.314   2.573  -3.673  1.00  0.00    -0.248 NA
ATOM     34  C   UNL     1      -9.948   3.728  -5.129  1.00  0.00     0.031 C 
ATOM     35  C   UNL     1      -9.655   0.757  -2.103  1.00  0.00     0.029 A 
ATOM     36  N   UNL     1      -8.391   1.995  -0.709  1.00  0.00    -0.354 N 
ATOM     37  C   UNL     1     -11.905   2.535  -4.914  1.00  0.00     0.074 A 
ATOM     38  C   UNL     1     -11.063   3.353  -5.762  1.00  0.00     0.031 C 
ATOM     39  C   UNL     1      -9.728   0.191  -0.887  1.00  0.00     0.029 A 
ATOM     40  C   UNL     1      -9.185   1.139   0.072  1.00  0.00     0.049 A 
ATOM     41  H   UNL     1      -7.577   2.468  -0.419  1.00  0.00     0.167 HD
ATOM     42  C   UNL     1     -12.946   1.689  -5.154  1.00  0.00     0.031 A 
ATOM     43  C   UNL     1      -9.758   1.501   1.254  1.00  0.00     0.031 A 
ATOM     44  C   UNL     1     -13.306   0.904  -3.976  1.00  0.00     0.049 A 
ATOM     45  C   UNL     1     -11.263   1.352   1.256  1.00  0.00     0.074 A 
ATOM     46  C   UNL     1     -13.001  -0.393  -3.596  1.00  0.00     0.029 A 
ATOM     47  N   UNL     1     -13.841   1.528  -2.856  1.00  0.00    -0.354 N 
ATOM     48  N   UNL     1     -11.973   1.161   0.180  1.00  0.00    -0.248 NA
ATOM     49  C   UNL     1     -12.092   1.506   2.451  1.00  0.00     0.031 C 
ATOM     50  C   UNL     1     -13.304  -0.532  -2.220  1.00  0.00     0.029 A 
ATOM     51  C   UNL     1     -13.809   0.674  -1.769  1.00  0.00     0.049 A 
ATOM     52  H   UNL     1     -14.192   2.448  -2.839  1.00  0.00     0.167 HD
ATOM     53  C   UNL     1     -13.305   1.208   0.498  1.00  0.00     0.074 A 
ATOM     54  C   UNL     1     -13.329   1.401   1.935  1.00  0.00     0.031 C 
ATOM     55  C   UNL     1     -14.271   1.116  -0.461  1.00  0.00     0.031 A 
BRANCH  42  56
ATOM     56  C   UNL     1     -13.399   1.340  -6.552  1.00  0.00    -0.014 A 
ATOM     57  C   UNL     1     -13.903   0.054  -6.823  1.00  0.00     0.009 A 
ATOM     58  C   UNL     1     -13.308   2.210  -7.652  1.00  0.00     0.009 A 
ATOM     59  C   UNL     1     -14.180  -0.377  -8.126  1.00  0.00     0.001 A 
ATOM     60  C   UNL     1     -13.538   1.773  -8.964  1.00  0.00     0.001 A 
ATOM     61  C   UNL     1     -13.961   0.473  -9.202  1.00  0.00     0.000 A 
ENDBRANCH  42  56
BRANCH  43  62
ATOM     62  C   UNL     1      -9.030   2.577   1.975  1.00  0.00    -0.014 A 
ATOM     63  C   UNL     1      -7.764   2.275   2.512  1.00  0.00     0.009 A 
ATOM     64  C   UNL     1      -9.380   3.921   1.783  1.00  0.00     0.009 A 
ATOM     65  C   UNL     1      -6.825   3.285   2.732  1.00  0.00     0.001 A 
ATOM     66  C   UNL     1      -8.437   4.929   2.010  1.00  0.00     0.001 A 
ATOM     67  C   UNL     1      -7.150   4.608   2.445  1.00  0.00     0.000 A 
ENDBRANCH  43  62
BRANCH  55  68
ATOM     68  C   UNL     1     -15.745   1.354  -0.254  1.00  0.00    -0.014 A 
ATOM     69  C   UNL     1     -16.279   2.160   0.761  1.00  0.00     0.009 A 
ATOM     70  C   UNL     1     -16.657   0.840  -1.202  1.00  0.00     0.009 A 
ATOM     71  C   UNL     1     -17.658   2.394   0.856  1.00  0.00     0.001 A 
ATOM     72  C   UNL     1     -18.027   1.106  -1.136  1.00  0.00     0.001 A 
ATOM     73  C   UNL     1     -18.530   1.873  -0.095  1.00  0.00     0.000 A 
ENDBRANCH  55  68
ENDBRANCH  29  30
ENDBRANCH  21  24
ENDBRANCH  19  20
ENDBRANCH   1  19
TORSDOF 11
