REMARK SMILES Cc1ccccc1C[C@H](CCSc1ccccc1)C(=O)NCCCNC(=O)c1ccc(-c2c3nc(c(-c4ccccc4)c4ccc([nH]4)c(-c4ccccc4)c4nc(c(-c5ccccc5)c5ccc2[nH]5)C=C4)C=C3)cc1
REMARK SMILES IDX 22 1 21 2 19 3 20 4 9 6 8 7 7 8 1 9 2 10 3 11 4 12 6 13 5 14
REMARK SMILES IDX 10 15 11 16 12 17 13 18 14 19 18 20 15 21 17 22 16 23 23 24
REMARK SMILES IDX 24 25 25 26 26 27 27 29 28 30 29 31 75 32 30 33 74 34 31 35
REMARK SMILES IDX 32 36 33 37 68 38 34 39 73 40 67 41 69 42 35 43 72 44 66 45
REMARK SMILES IDX 65 46 36 48 58 49 43 50 57 51 44 52 47 53 56 54 70 55 45 56
REMARK SMILES IDX 46 57 55 59 71 60 48 61 37 62 38 63 42 64 39 65 41 66 40 67
REMARK SMILES IDX 59 68 60 69 64 70 61 71 63 72 62 73 49 74 50 75 54 76 51 77
REMARK SMILES IDX 53 78 52 79
REMARK H PARENT 21 5 25 28 69 47 47 58
REMARK Flexibility Score: inf
ROOT
ATOM      1  C   UNL     1       0.141   4.913   1.736  1.00  0.00     0.117 C 
ENDROOT
BRANCH   1   2
ATOM      2  N   UNL     1       1.201   5.102   0.761  1.00  0.00    -0.356 N 
ATOM      3  C   UNL     1       1.317   4.614  -0.504  1.00  0.00     0.223 C 
ATOM      4  O   UNL     1       2.290   4.979  -1.168  1.00  0.00    -0.275 OA
ATOM      5  H   UNL     1       1.948   5.669   1.061  1.00  0.00     0.163 HD
BRANCH   3   6
ATOM      6  C   UNL     1       0.322   3.606  -1.059  1.00  0.00     0.083 C 
BRANCH   6   7
ATOM      7  C   UNL     1      -1.160   4.056  -1.080  1.00  0.00     0.049 C 
BRANCH   7   8
ATOM      8  C   UNL     1      -1.512   5.321  -1.854  1.00  0.00    -0.044 A 
ATOM      9  C   UNL     1      -3.273   4.154  -3.342  1.00  0.00     0.044 C 
ATOM     10  C   UNL     1      -2.465   5.343  -2.896  1.00  0.00    -0.048 A 
ATOM     11  C   UNL     1      -2.780   6.568  -3.521  1.00  0.00     0.004 A 
ATOM     12  C   UNL     1      -2.181   7.762  -3.131  1.00  0.00     0.000 A 
ATOM     13  C   UNL     1      -0.950   6.552  -1.459  1.00  0.00     0.004 A 
ATOM     14  C   UNL     1      -1.269   7.755  -2.091  1.00  0.00     0.000 A 
ENDBRANCH   7   8
ENDBRANCH   6   7
BRANCH   6  15
ATOM     15  C   UNL     1       0.601   2.253  -0.354  1.00  0.00     0.025 C 
BRANCH  15  16
ATOM     16  C   UNL     1      -0.223   1.036  -0.780  1.00  0.00     0.076 C 
BRANCH  16  17
ATOM     17  S   UNL     1       0.458   0.140  -2.218  1.00  0.00    -0.126 SA
BRANCH  17  18
ATOM     18  C   UNL     1      -0.335   0.970  -3.577  1.00  0.00     0.007 A 
ATOM     19  C   UNL     1       0.281   2.069  -4.181  1.00  0.00     0.015 A 
ATOM     20  C   UNL     1      -1.523   0.474  -4.121  1.00  0.00     0.015 A 
ATOM     21  C   UNL     1      -0.316   2.715  -5.263  1.00  0.00     0.001 A 
ATOM     22  C   UNL     1      -2.097   1.089  -5.238  1.00  0.00     0.001 A 
ATOM     23  C   UNL     1      -1.500   2.217  -5.800  1.00  0.00     0.000 A 
ENDBRANCH  17  18
ENDBRANCH  16  17
ENDBRANCH  15  16
ENDBRANCH   6  15
ENDBRANCH   3   6
ENDBRANCH   1   2
BRANCH   1  24
ATOM     24  C   UNL     1       0.675   4.644   3.128  1.00  0.00     0.042 C 
BRANCH  24  25
ATOM     25  C   UNL     1       1.216   5.905   3.754  1.00  0.00     0.118 C 
BRANCH  25  26
ATOM     26  N   UNL     1       0.205   6.816   4.261  1.00  0.00    -0.352 N 
ATOM     27  C   UNL     1       0.344   8.054   4.865  1.00  0.00     0.251 C 
ATOM     28  H   UNL     1      -0.723   6.504   4.159  1.00  0.00     0.163 HD
ATOM     29  O   UNL     1      -0.648   8.586   5.340  1.00  0.00    -0.269 OA
BRANCH  27  30
ATOM     30  C   UNL     1       1.625   8.815   4.780  1.00  0.00     0.039 A 
ATOM     31  C   UNL     1       1.555  10.214   4.856  1.00  0.00     0.014 A 
ATOM     32  C   UNL     1       2.793   8.223   4.327  1.00  0.00     0.014 A 
ATOM     33  C   UNL     1       2.521  10.984   4.217  1.00  0.00     0.010 A 
ATOM     34  C   UNL     1       3.617   8.947   3.513  1.00  0.00     0.010 A 
ATOM     35  C   UNL     1       3.462  10.327   3.439  1.00  0.00    -0.014 A 
BRANCH  35  36
ATOM     36  C   UNL     1       4.403  10.952   2.538  1.00  0.00     0.031 A 
ATOM     37  C   UNL     1       5.803  11.054   2.977  1.00  0.00     0.074 A 
ATOM     38  C   UNL     1       4.019  11.190   1.268  1.00  0.00     0.049 A 
ATOM     39  N   UNL     1       6.667  11.827   2.429  1.00  0.00    -0.248 NA
ATOM     40  C   UNL     1       6.342  10.300   4.109  1.00  0.00     0.031 C 
ATOM     41  C   UNL     1       4.857  11.460   0.106  1.00  0.00     0.029 A 
ATOM     42  N   UNL     1       2.721  11.436   0.820  1.00  0.00    -0.354 N 
ATOM     43  C   UNL     1       7.902  11.462   2.908  1.00  0.00     0.074 A 
ATOM     44  C   UNL     1       7.646  10.565   4.006  1.00  0.00     0.031 C 
ATOM     45  C   UNL     1       4.118  12.094  -0.821  1.00  0.00     0.029 A 
ATOM     46  C   UNL     1       2.829  12.386  -0.214  1.00  0.00     0.049 A 
ATOM     47  H   UNL     1       1.892  11.026   1.160  1.00  0.00     0.167 HD
ATOM     48  C   UNL     1       9.005  11.856   2.221  1.00  0.00     0.031 A 
ATOM     49  C   UNL     1       2.325  13.644  -0.031  1.00  0.00     0.031 A 
ATOM     50  C   UNL     1       8.636  12.700   1.088  1.00  0.00     0.049 A 
ATOM     51  C   UNL     1       3.395  14.718  -0.024  1.00  0.00     0.074 A 
ATOM     52  C   UNL     1       8.466  12.446  -0.263  1.00  0.00     0.029 A 
ATOM     53  N   UNL     1       8.012  13.913   1.344  1.00  0.00    -0.354 N 
ATOM     54  N   UNL     1       4.665  14.488   0.178  1.00  0.00    -0.248 NA
ATOM     55  C   UNL     1       3.123  16.134  -0.248  1.00  0.00     0.031 C 
ATOM     56  C   UNL     1       7.681  13.499  -0.808  1.00  0.00     0.029 A 
ATOM     57  C   UNL     1       7.406  14.401   0.204  1.00  0.00     0.049 A 
ATOM     58  H   UNL     1       8.003  14.363   2.219  1.00  0.00     0.167 HD
ATOM     59  C   UNL     1       5.374  15.659   0.091  1.00  0.00     0.074 A 
ATOM     60  C   UNL     1       4.358  16.663  -0.175  1.00  0.00     0.031 C 
ATOM     61  C   UNL     1       6.733  15.693   0.248  1.00  0.00     0.031 A 
BRANCH  48  62
ATOM     62  C   UNL     1      10.376  11.273   2.421  1.00  0.00    -0.014 A 
ATOM     63  C   UNL     1      11.284  11.280   1.348  1.00  0.00     0.009 A 
ATOM     64  C   UNL     1      10.827  10.681   3.613  1.00  0.00     0.009 A 
ATOM     65  C   UNL     1      12.543  10.674   1.436  1.00  0.00     0.001 A 
ATOM     66  C   UNL     1      12.072  10.043   3.699  1.00  0.00     0.001 A 
ATOM     67  C   UNL     1      12.929  10.037   2.607  1.00  0.00     0.000 A 
ENDBRANCH  48  62
BRANCH  49  68
ATOM     68  C   UNL     1       1.075  13.637   0.790  1.00  0.00    -0.014 A 
ATOM     69  C   UNL     1      -0.061  13.003   0.238  1.00  0.00     0.009 A 
ATOM     70  C   UNL     1       1.130  13.806   2.181  1.00  0.00     0.009 A 
ATOM     71  C   UNL     1      -1.026  12.412   1.061  1.00  0.00     0.001 A 
ATOM     72  C   UNL     1       0.146  13.230   3.000  1.00  0.00     0.001 A 
ATOM     73  C   UNL     1      -0.899  12.492   2.444  1.00  0.00     0.000 A 
ENDBRANCH  49  68
BRANCH  61  74
ATOM     74  C   UNL     1       7.614  16.915   0.434  1.00  0.00    -0.014 A 
ATOM     75  C   UNL     1       7.156  18.212   0.680  1.00  0.00     0.009 A 
ATOM     76  C   UNL     1       9.021  16.733   0.494  1.00  0.00     0.009 A 
ATOM     77  C   UNL     1       8.046  19.263   0.956  1.00  0.00     0.001 A 
ATOM     78  C   UNL     1       9.906  17.760   0.825  1.00  0.00     0.001 A 
ATOM     79  C   UNL     1       9.416  19.033   1.048  1.00  0.00     0.000 A 
ENDBRANCH  61  74
ENDBRANCH  35  36
ENDBRANCH  27  30
ENDBRANCH  25  26
ENDBRANCH  24  25
ENDBRANCH   1  24
TORSDOF 16
