REMARK SMILES Cc1ccccc1-c1c(Cl)ccc2c1C=C(C(=O)NCCCNC(=O)c1ccc(-c3c4nc(c(-c5ccccc5)c5ccc([nH]5)c(-c5ccccc5)c5nc(c(-c6ccccc6)c6ccc3[nH]6)C=C5)C=C4)cc1)[C@@H](C(F)(F)F)O2
REMARK SMILES IDX 21 1 20 2 19 3 17 4 18 5 16 7 8 8 9 9 14 10 10 11 11 12
REMARK SMILES IDX 13 13 15 14 12 15 79 16 74 17 7 18 1 19 2 20 3 21 4 22 6 23
REMARK SMILES IDX 5 24 75 25 76 26 77 27 78 28 22 29 23 30 24 31 25 33 26 34
REMARK SMILES IDX 27 35 73 36 28 37 72 38 29 39 30 40 31 41 66 42 32 43 71 44
REMARK SMILES IDX 65 45 67 46 33 47 70 48 64 49 63 50 34 52 56 53 41 54 55 55
REMARK SMILES IDX 42 56 45 57 54 58 68 59 43 60 44 61 53 63 69 64 46 65 35 66
REMARK SMILES IDX 36 67 40 68 37 69 39 70 38 71 57 72 58 73 62 74 59 75 61 76
REMARK SMILES IDX 60 77 47 78 48 79 52 80 49 81 51 82 50 83
REMARK H PARENT 19 6 23 32 67 51 45 62
REMARK Flexibility Score: inf
ROOT
ATOM      1  C   UNL     1       5.228  -1.502  -2.817  1.00  0.00     0.042 C 
ENDROOT
BRANCH   1   2
ATOM      2  C   UNL     1       4.722  -0.595  -1.707  1.00  0.00     0.118 C 
BRANCH   2   3
ATOM      3  N   UNL     1       5.415   0.679  -1.689  1.00  0.00    -0.352 N 
ATOM      4  C   UNL     1       5.038   1.919  -2.103  1.00  0.00     0.251 C 
ATOM      5  O   UNL     1       5.889   2.808  -2.080  1.00  0.00    -0.270 OA
ATOM      6  H   UNL     1       6.322   0.640  -1.309  1.00  0.00     0.163 HD
BRANCH   4   7
ATOM      7  C   UNL     1       3.643   2.206  -2.600  1.00  0.00     0.067 C 
ATOM      8  C   UNL     1       1.158   2.443   0.164  1.00  0.00     0.012 A 
ATOM      9  C   UNL     1       0.868   3.426   1.140  1.00  0.00     0.049 A 
ATOM     10  C   UNL     1       2.068   2.801  -0.867  1.00  0.00     0.027 A 
ATOM     11  Cl  UNL     1      -0.137   3.086   2.512  1.00  0.00    -0.084 Cl
ATOM     12  C   UNL     1       1.386   4.723   1.049  1.00  0.00     0.025 A 
ATOM     13  C   UNL     1       2.516   4.130  -0.987  1.00  0.00     0.128 A 
ATOM     14  C   UNL     1       2.654   1.802  -1.779  1.00  0.00     0.026 C 
ATOM     15  C   UNL     1       2.183   5.083  -0.031  1.00  0.00     0.049 A 
ATOM     16  O   UNL     1       3.303   4.581  -2.017  1.00  0.00    -0.475 OA
ATOM     17  C   UNL     1       3.545   3.645  -3.096  1.00  0.00     0.314 C 
BRANCH   8  18
ATOM     18  C   UNL     1       0.420   1.153   0.144  1.00  0.00    -0.013 A 
ATOM     19  C   UNL     1       2.386  -0.319   0.907  1.00  0.00     0.045 C 
ATOM     20  C   UNL     1       0.973  -0.109   0.445  1.00  0.00    -0.043 A 
ATOM     21  C   UNL     1       0.162  -1.261   0.352  1.00  0.00     0.004 A 
ATOM     22  C   UNL     1      -1.182  -1.177  -0.006  1.00  0.00     0.000 A 
ATOM     23  C   UNL     1      -0.946   1.205  -0.220  1.00  0.00     0.009 A 
ATOM     24  C   UNL     1      -1.741   0.061  -0.282  1.00  0.00     0.001 A 
ENDBRANCH   8  18
BRANCH  17  25
ATOM     25  C   UNL     1       2.504   3.781  -4.219  1.00  0.00     0.429 C 
ATOM     26  F   UNL     1       2.504   5.026  -4.751  1.00  0.00    -0.167 F 
ATOM     27  F   UNL     1       2.772   2.921  -5.235  1.00  0.00    -0.167 F 
ATOM     28  F   UNL     1       1.242   3.520  -3.806  1.00  0.00    -0.167 F 
ENDBRANCH  17  25
ENDBRANCH   4   7
ENDBRANCH   2   3
ENDBRANCH   1   2
BRANCH   1  29
ATOM     29  C   UNL     1       6.459  -2.296  -2.406  1.00  0.00     0.118 C 
BRANCH  29  30
ATOM     30  N   UNL     1       6.162  -3.623  -1.861  1.00  0.00    -0.352 N 
ATOM     31  C   UNL     1       7.044  -4.584  -1.382  1.00  0.00     0.251 C 
ATOM     32  H   UNL     1       5.209  -3.866  -1.829  1.00  0.00     0.163 HD
ATOM     33  O   UNL     1       6.636  -5.625  -0.903  1.00  0.00    -0.269 OA
BRANCH  31  34
ATOM     34  C   UNL     1       8.489  -4.252  -1.341  1.00  0.00     0.039 A 
ATOM     35  C   UNL     1       9.146  -4.353  -0.111  1.00  0.00     0.014 A 
ATOM     36  C   UNL     1       9.083  -3.591  -2.410  1.00  0.00     0.014 A 
ATOM     37  C   UNL     1      10.255  -3.547   0.126  1.00  0.00     0.010 A 
ATOM     38  C   UNL     1      10.104  -2.704  -2.143  1.00  0.00     0.010 A 
ATOM     39  C   UNL     1      10.639  -2.630  -0.854  1.00  0.00    -0.014 A 
BRANCH  39  40
ATOM     40  C   UNL     1      11.516  -1.500  -0.576  1.00  0.00     0.031 A 
ATOM     41  C   UNL     1      12.926  -1.544  -0.998  1.00  0.00     0.074 A 
ATOM     42  C   UNL     1      11.046  -0.406   0.065  1.00  0.00     0.049 A 
ATOM     43  N   UNL     1      13.896  -0.981  -0.358  1.00  0.00    -0.248 NA
ATOM     44  C   UNL     1      13.358  -2.292  -2.171  1.00  0.00     0.031 C 
ATOM     45  C   UNL     1      11.740   0.864   0.266  1.00  0.00     0.029 A 
ATOM     46  N   UNL     1       9.916  -0.303   0.877  1.00  0.00    -0.354 N 
ATOM     47  C   UNL     1      14.996  -1.015  -1.184  1.00  0.00     0.074 A 
ATOM     48  C   UNL     1      14.641  -1.929  -2.246  1.00  0.00     0.031 C 
ATOM     49  C   UNL     1      11.228   1.462   1.353  1.00  0.00     0.029 A 
ATOM     50  C   UNL     1      10.266   0.545   1.941  1.00  0.00     0.049 A 
ATOM     51  H   UNL     1       9.045  -0.739   0.732  1.00  0.00     0.167 HD
ATOM     52  C   UNL     1      16.026  -0.146  -0.979  1.00  0.00     0.031 A 
ATOM     53  C   UNL     1      10.219   0.167   3.251  1.00  0.00     0.031 A 
ATOM     54  C   UNL     1      15.825   0.667   0.221  1.00  0.00     0.049 A 
ATOM     55  C   UNL     1      11.566   0.253   3.937  1.00  0.00     0.074 A 
ATOM     56  C   UNL     1      15.393   1.969   0.414  1.00  0.00     0.029 A 
ATOM     57  N   UNL     1      15.788   0.052   1.467  1.00  0.00    -0.354 N 
ATOM     58  N   UNL     1      12.692   0.431   3.305  1.00  0.00    -0.248 NA
ATOM     59  C   UNL     1      11.762   0.064   5.374  1.00  0.00     0.031 C 
ATOM     60  C   UNL     1      15.011   2.108   1.773  1.00  0.00     0.029 A 
ATOM     61  C   UNL     1      15.238   0.901   2.410  1.00  0.00     0.049 A 
ATOM     62  H   UNL     1      16.108  -0.860   1.653  1.00  0.00     0.167 HD
ATOM     63  C   UNL     1      13.735   0.356   4.189  1.00  0.00     0.074 A 
ATOM     64  C   UNL     1      13.101   0.144   5.477  1.00  0.00     0.031 C 
ATOM     65  C   UNL     1      15.034   0.449   3.780  1.00  0.00     0.031 A 
BRANCH  52  66
ATOM     66  C   UNL     1      17.041   0.181  -2.052  1.00  0.00    -0.014 A 
ATOM     67  C   UNL     1      17.627   1.460  -2.091  1.00  0.00     0.009 A 
ATOM     68  C   UNL     1      17.413  -0.692  -3.088  1.00  0.00     0.009 A 
ATOM     69  C   UNL     1      18.438   1.876  -3.157  1.00  0.00     0.001 A 
ATOM     70  C   UNL     1      18.185  -0.272  -4.180  1.00  0.00     0.001 A 
ATOM     71  C   UNL     1      18.688   1.020  -4.221  1.00  0.00     0.000 A 
ENDBRANCH  52  66
BRANCH  53  72
ATOM     72  C   UNL     1       9.182  -0.862   3.538  1.00  0.00    -0.014 A 
ATOM     73  C   UNL     1       7.831  -0.487   3.388  1.00  0.00     0.009 A 
ATOM     74  C   UNL     1       9.506  -2.225   3.531  1.00  0.00     0.009 A 
ATOM     75  C   UNL     1       6.854  -1.440   3.093  1.00  0.00     0.001 A 
ATOM     76  C   UNL     1       8.518  -3.178   3.250  1.00  0.00     0.001 A 
ATOM     77  C   UNL     1       7.206  -2.782   2.987  1.00  0.00     0.000 A 
ENDBRANCH  53  72
BRANCH  65  78
ATOM     78  C   UNL     1      16.242   0.191   4.641  1.00  0.00    -0.014 A 
ATOM     79  C   UNL     1      16.250  -0.670   5.747  1.00  0.00     0.009 A 
ATOM     80  C   UNL     1      17.483   0.742   4.254  1.00  0.00     0.009 A 
ATOM     81  C   UNL     1      17.429  -0.924   6.462  1.00  0.00     0.001 A 
ATOM     82  C   UNL     1      18.668   0.457   4.937  1.00  0.00     0.001 A 
ATOM     83  C   UNL     1      18.637  -0.367   6.053  1.00  0.00     0.000 A 
ENDBRANCH  65  78
ENDBRANCH  39  40
ENDBRANCH  31  34
ENDBRANCH  29  30
ENDBRANCH   1  29
TORSDOF 12
