REMARK SMILES O=C(NCCCNC(=O)c1sccc1S(=O)(=O)NC[C@H](O)c1ccccc1)c1ccc(-c2c3nc(c(-c4ccccc4)c4ccc([nH]4)c(-c4ccccc4)c4nc(c(-c5ccccc5)c5ccc2[nH]5)C=C4)C=C3)cc1
REMARK SMILES IDX 7 1 8 2 9 3 6 5 5 6 4 7 3 8 1 9 2 10 28 12 29 13 75 14 30 15
REMARK SMILES IDX 74 16 31 17 32 18 33 19 68 20 34 21 73 22 67 23 69 24 35 25
REMARK SMILES IDX 72 26 66 27 65 28 36 30 58 31 43 32 57 33 44 34 47 35 56 36
REMARK SMILES IDX 70 37 45 38 46 39 55 41 71 42 48 43 37 44 38 45 42 46 39 47
REMARK SMILES IDX 41 48 40 49 59 50 60 51 64 52 61 53 63 54 62 55 49 56 50 57
REMARK SMILES IDX 54 58 51 59 53 60 52 61 10 62 11 63 14 64 12 65 13 66 15 67
REMARK SMILES IDX 16 68 17 69 18 70 19 72 20 73 22 74 23 75 27 76 24 77 26 78
REMARK SMILES IDX 25 79 21 80
REMARK H PARENT 7 4 3 11 69 29 47 40 18 71 21 81
REMARK Flexibility Score: inf
ROOT
ATOM      1  N   UNL     1      -1.115   0.785   5.782  1.00  0.00    -0.351 N 
ATOM      2  C   UNL     1      -0.554   0.163   6.859  1.00  0.00     0.262 C 
ATOM      3  O   UNL     1      -0.841   0.604   7.972  1.00  0.00    -0.268 OA
ATOM      4  H   UNL     1      -1.636   1.594   5.990  1.00  0.00     0.163 HD
ENDROOT
BRANCH   1   5
ATOM      5  C   UNL     1      -1.058   0.435   4.374  1.00  0.00     0.118 C 
BRANCH   5   6
ATOM      6  C   UNL     1      -2.417   0.544   3.712  1.00  0.00     0.042 C 
BRANCH   6   7
ATOM      7  C   UNL     1      -3.024   1.935   3.812  1.00  0.00     0.118 C 
BRANCH   7   8
ATOM      8  N   UNL     1      -2.263   2.950   3.093  1.00  0.00    -0.352 N 
ATOM      9  O   UNL     1      -1.736   4.332   1.385  1.00  0.00    -0.269 OA
ATOM     10  C   UNL     1      -2.569   3.618   1.932  1.00  0.00     0.251 C 
ATOM     11  H   UNL     1      -1.400   3.192   3.501  1.00  0.00     0.163 HD
BRANCH  10  12
ATOM     12  C   UNL     1      -3.906   3.444   1.332  1.00  0.00     0.039 A 
ATOM     13  C   UNL     1      -5.043   3.490   2.139  1.00  0.00     0.014 A 
ATOM     14  C   UNL     1      -4.022   3.203  -0.039  1.00  0.00     0.014 A 
ATOM     15  C   UNL     1      -6.267   3.101   1.619  1.00  0.00     0.010 A 
ATOM     16  C   UNL     1      -5.279   2.938  -0.587  1.00  0.00     0.010 A 
ATOM     17  C   UNL     1      -6.406   2.851   0.245  1.00  0.00    -0.014 A 
BRANCH  17  18
ATOM     18  C   UNL     1      -7.761   2.595  -0.298  1.00  0.00     0.031 A 
ATOM     19  C   UNL     1      -8.108   1.295  -0.966  1.00  0.00     0.074 A 
ATOM     20  C   UNL     1      -8.693   3.557  -0.151  1.00  0.00     0.049 A 
ATOM     21  N   UNL     1      -9.248   0.927  -1.495  1.00  0.00    -0.248 NA
ATOM     22  C   UNL     1      -7.047   0.280  -1.062  1.00  0.00     0.031 C 
ATOM     23  C   UNL     1      -8.465   4.862   0.480  1.00  0.00     0.029 A 
ATOM     24  N   UNL     1     -10.018   3.585  -0.495  1.00  0.00    -0.354 N 
ATOM     25  C   UNL     1      -9.033  -0.342  -2.017  1.00  0.00     0.074 A 
ATOM     26  C   UNL     1      -7.652  -0.681  -1.748  1.00  0.00     0.031 C 
ATOM     27  C   UNL     1      -9.621   5.536   0.530  1.00  0.00     0.029 A 
ATOM     28  C   UNL     1     -10.649   4.752  -0.140  1.00  0.00     0.049 A 
ATOM     29  H   UNL     1     -10.474   2.842  -0.952  1.00  0.00     0.167 HD
ATOM     30  C   UNL     1      -9.911  -1.145  -2.665  1.00  0.00     0.031 A 
ATOM     31  C   UNL     1     -11.908   5.168  -0.357  1.00  0.00     0.031 A 
ATOM     32  C   UNL     1     -11.288  -0.804  -2.913  1.00  0.00     0.049 A 
ATOM     33  C   UNL     1     -12.845   4.269  -1.102  1.00  0.00     0.074 A 
ATOM     34  C   UNL     1     -12.270  -1.573  -3.515  1.00  0.00     0.029 A 
ATOM     35  N   UNL     1     -11.875   0.406  -2.579  1.00  0.00    -0.354 N 
ATOM     36  N   UNL     1     -12.633   3.059  -1.560  1.00  0.00    -0.248 NA
ATOM     37  C   UNL     1     -14.188   4.796  -1.373  1.00  0.00     0.031 C 
ATOM     38  C   UNL     1     -13.438  -0.807  -3.591  1.00  0.00     0.029 A 
ATOM     39  C   UNL     1     -13.196   0.420  -2.994  1.00  0.00     0.049 A 
ATOM     40  H   UNL     1     -11.421   1.146  -2.115  1.00  0.00     0.167 HD
ATOM     41  C   UNL     1     -13.816   2.677  -2.173  1.00  0.00     0.074 A 
ATOM     42  C   UNL     1     -14.750   3.773  -2.003  1.00  0.00     0.031 C 
ATOM     43  C   UNL     1     -14.102   1.526  -2.826  1.00  0.00     0.031 A 
BRANCH  30  44
ATOM     44  C   UNL     1      -9.405  -2.460  -3.188  1.00  0.00    -0.014 A 
ATOM     45  C   UNL     1      -9.151  -3.542  -2.332  1.00  0.00     0.009 A 
ATOM     46  C   UNL     1      -9.245  -2.636  -4.572  1.00  0.00     0.009 A 
ATOM     47  C   UNL     1      -8.725  -4.768  -2.851  1.00  0.00     0.001 A 
ATOM     48  C   UNL     1      -8.840  -3.868  -5.090  1.00  0.00     0.001 A 
ATOM     49  C   UNL     1      -8.575  -4.931  -4.228  1.00  0.00     0.000 A 
ENDBRANCH  30  44
BRANCH  31  50
ATOM     50  C   UNL     1     -12.325   6.518   0.096  1.00  0.00    -0.014 A 
ATOM     51  C   UNL     1     -13.230   6.671   1.156  1.00  0.00     0.009 A 
ATOM     52  C   UNL     1     -11.791   7.665  -0.514  1.00  0.00     0.009 A 
ATOM     53  C   UNL     1     -13.602   7.947   1.585  1.00  0.00     0.001 A 
ATOM     54  C   UNL     1     -12.140   8.938  -0.063  1.00  0.00     0.001 A 
ATOM     55  C   UNL     1     -13.052   9.078   0.981  1.00  0.00     0.000 A 
ENDBRANCH  31  50
BRANCH  43  56
ATOM     56  C   UNL     1     -15.484   1.398  -3.394  1.00  0.00    -0.014 A 
ATOM     57  C   UNL     1     -15.851   2.095  -4.555  1.00  0.00     0.009 A 
ATOM     58  C   UNL     1     -16.418   0.554  -2.776  1.00  0.00     0.009 A 
ATOM     59  C   UNL     1     -17.142   1.969  -5.072  1.00  0.00     0.001 A 
ATOM     60  C   UNL     1     -17.699   0.411  -3.309  1.00  0.00     0.001 A 
ATOM     61  C   UNL     1     -18.062   1.125  -4.451  1.00  0.00     0.000 A 
ENDBRANCH  43  56
ENDBRANCH  17  18
ENDBRANCH  10  12
ENDBRANCH   7   8
ENDBRANCH   6   7
ENDBRANCH   5   6
ENDBRANCH   1   5
BRANCH   2  62
ATOM     62  C   UNL     1       0.336  -0.948   6.647  1.00  0.00     0.112 A 
ATOM     63  S   UNL     1      -0.061  -2.413   7.456  1.00  0.00    -0.137 S 
ATOM     64  C   UNL     1       1.510  -1.067   5.930  1.00  0.00     0.106 A 
ATOM     65  C   UNL     1       1.268  -3.235   6.776  1.00  0.00     0.067 A 
ATOM     66  C   UNL     1       2.028  -2.406   5.984  1.00  0.00     0.034 A 
BRANCH  64  67
ATOM     67  S   UNL     1       2.333   0.148   5.014  1.00  0.00     0.242 S 
ATOM     68  O   UNL     1       3.705   0.042   5.462  1.00  0.00    -0.207 OA
ATOM     69  O   UNL     1       1.981  -0.180   3.650  1.00  0.00    -0.207 OA
BRANCH  67  70
ATOM     70  N   UNL     1       1.847   1.730   5.254  1.00  0.00    -0.208 NA
ATOM     71  H   UNL     1       0.880   1.778   4.934  1.00  0.00     0.141 HD
BRANCH  70  72
ATOM     72  C   UNL     1       1.871   2.387   6.583  1.00  0.00     0.135 C 
BRANCH  72  73
ATOM     73  C   UNL     1       3.258   2.708   7.182  1.00  0.00     0.159 C 
BRANCH  73  74
ATOM     74  C   UNL     1       3.412   2.035   8.536  1.00  0.00    -0.018 A 
ATOM     75  C   UNL     1       3.537   0.645   8.678  1.00  0.00     0.006 A 
ATOM     76  C   UNL     1       3.291   2.811   9.701  1.00  0.00     0.006 A 
ATOM     77  C   UNL     1       3.496   0.046   9.938  1.00  0.00     0.000 A 
ATOM     78  C   UNL     1       3.266   2.212  10.962  1.00  0.00     0.000 A 
ATOM     79  C   UNL     1       3.355   0.828  11.079  1.00  0.00     0.000 A 
ENDBRANCH  73  74
BRANCH  73  80
ATOM     80  O   UNL     1       4.328   2.452   6.284  1.00  0.00    -0.387 OA
ATOM     81  H   UNL     1       4.356   1.505   6.075  1.00  0.00     0.211 HD
ENDBRANCH  73  80
ENDBRANCH  72  73
ENDBRANCH  70  72
ENDBRANCH  67  70
ENDBRANCH  64  67
ENDBRANCH   2  62
TORSDOF 16
