REMARK SMILES Cn1ccc(-c2n[nH]c(=O)n2-c2ccc(C(=O)NCCCNC(=O)c3ccc(-c4c5nc(c(-c6ccccc6)c6ccc([nH]6)c(-c6ccccc6)c6nc(c(-c7ccccc7)c7ccc4[nH]7)C=C6)C=C5)cc3)cc2)n1
REMARK SMILES IDX 20 1 19 2 18 3 16 4 17 5 15 7 12 8 13 9 74 10 14 11 73 12
REMARK SMILES IDX 11 13 6 14 7 15 8 16 9 17 10 19 5 20 1 21 2 22 3 23 75 24
REMARK SMILES IDX 4 25 21 26 22 27 23 28 24 30 25 31 26 32 72 33 27 34 71 35
REMARK SMILES IDX 28 36 29 37 30 38 65 39 31 40 70 41 64 42 66 43 32 44 69 45
REMARK SMILES IDX 63 46 62 47 33 49 55 50 40 51 54 52 41 53 44 54 53 55 67 56
REMARK SMILES IDX 42 57 43 58 52 60 68 61 45 62 34 63 35 64 39 65 36 66 38 67
REMARK SMILES IDX 37 68 56 69 57 70 61 71 58 72 60 73 59 74 46 75 47 76 51 77
REMARK SMILES IDX 48 78 50 79 49 80
REMARK H PARENT 18 6 8 18 22 29 66 48 44 59
REMARK Flexibility Score: inf
ROOT
ATOM      1  C   UNL     1       0.985   0.302   6.965  1.00  0.00     0.042 C 
ENDROOT
BRANCH   1   2
ATOM      2  C   UNL     1      -0.212   0.965   6.265  1.00  0.00     0.118 C 
BRANCH   2   3
ATOM      3  N   UNL     1      -0.216   2.408   6.458  1.00  0.00    -0.352 N 
ATOM      4  C   UNL     1       0.266   3.447   5.696  1.00  0.00     0.251 C 
ATOM      5  O   UNL     1       0.059   4.591   6.101  1.00  0.00    -0.269 OA
ATOM      6  H   UNL     1      -0.647   2.696   7.295  1.00  0.00     0.163 HD
BRANCH   4   7
ATOM      7  C   UNL     1       0.973   3.248   4.398  1.00  0.00     0.039 A 
ATOM      8  C   UNL     1       2.117   2.932   1.844  1.00  0.00     0.052 A 
ATOM      9  C   UNL     1       1.577   4.163   2.215  1.00  0.00     0.028 A 
ATOM     10  C   UNL     1       2.166   1.897   2.779  1.00  0.00     0.028 A 
ATOM     11  C   UNL     1       0.979   4.308   3.476  1.00  0.00     0.016 A 
ATOM     12  C   UNL     1       1.645   2.076   4.056  1.00  0.00     0.016 A 
BRANCH   8  13
ATOM     13  N   UNL     1       2.682   2.725   0.581  1.00  0.00    -0.242 N 
ATOM     14  C   UNL     1       2.564   1.630  -0.224  1.00  0.00     0.189 A 
ATOM     15  N   UNL     1       3.487   1.518  -1.140  1.00  0.00    -0.150 NA
ATOM     16  N   UNL     1       4.259   2.636  -0.954  1.00  0.00    -0.226 N 
ATOM     17  C   UNL     1       3.782   3.400   0.111  1.00  0.00     0.348 A 
ATOM     18  H   UNL     1       5.045   2.869  -1.500  1.00  0.00     0.195 HD
ATOM     19  O   UNL     1       4.329   4.401   0.556  1.00  0.00    -0.246 OA
BRANCH  14  20
ATOM     20  C   UNL     1       1.467   0.679  -0.120  1.00  0.00     0.130 A 
ATOM     21  C   UNL     1      -1.970   0.019   0.009  1.00  0.00     0.173 C 
ATOM     22  N   UNL     1      -0.528  -0.051   0.002  1.00  0.00    -0.275 N 
ATOM     23  C   UNL     1       0.236  -1.174  -0.108  1.00  0.00     0.109 A 
ATOM     24  N   UNL     1       0.195   1.081   0.065  1.00  0.00    -0.170 NA
ATOM     25  C   UNL     1       1.534  -0.734  -0.228  1.00  0.00     0.054 A 
ENDBRANCH  14  20
ENDBRANCH   8  13
ENDBRANCH   4   7
ENDBRANCH   2   3
ENDBRANCH   1   2
BRANCH   1  26
ATOM     26  C   UNL     1       0.707   0.032   8.432  1.00  0.00     0.118 C 
BRANCH  26  27
ATOM     27  N   UNL     1      -0.268  -1.046   8.617  1.00  0.00    -0.352 N 
ATOM     28  C   UNL     1      -0.812  -1.530   9.791  1.00  0.00     0.251 C 
ATOM     29  H   UNL     1      -0.578  -1.485   7.792  1.00  0.00     0.163 HD
ATOM     30  O   UNL     1      -1.332  -2.633   9.833  1.00  0.00    -0.269 OA
BRANCH  28  31
ATOM     31  C   UNL     1      -0.755  -0.683  10.994  1.00  0.00     0.039 A 
ATOM     32  C   UNL     1      -0.491  -1.222  12.257  1.00  0.00     0.014 A 
ATOM     33  C   UNL     1      -0.943   0.684  10.826  1.00  0.00     0.014 A 
ATOM     34  C   UNL     1      -0.339  -0.356  13.336  1.00  0.00     0.010 A 
ATOM     35  C   UNL     1      -0.608   1.538  11.838  1.00  0.00     0.010 A 
ATOM     36  C   UNL     1      -0.380   1.028  13.111  1.00  0.00    -0.014 A 
BRANCH  36  37
ATOM     37  C   UNL     1      -0.054   1.986  14.160  1.00  0.00     0.031 A 
ATOM     38  C   UNL     1       1.313   1.818  14.726  1.00  0.00     0.074 A 
ATOM     39  C   UNL     1      -0.816   3.084  14.372  1.00  0.00     0.049 A 
ATOM     40  N   UNL     1       1.635   1.552  15.948  1.00  0.00    -0.248 NA
ATOM     41  C   UNL     1       2.458   1.806  13.794  1.00  0.00     0.031 C 
ATOM     42  C   UNL     1      -2.013   3.503  13.627  1.00  0.00     0.029 A 
ATOM     43  N   UNL     1      -0.596   4.150  15.186  1.00  0.00    -0.354 N 
ATOM     44  C   UNL     1       3.027   1.556  15.984  1.00  0.00     0.074 A 
ATOM     45  C   UNL     1       3.468   1.511  14.614  1.00  0.00     0.031 C 
ATOM     46  C   UNL     1      -2.231   4.822  13.823  1.00  0.00     0.029 A 
ATOM     47  C   UNL     1      -1.303   5.298  14.831  1.00  0.00     0.049 A 
ATOM     48  H   UNL     1       0.011   4.115  15.961  1.00  0.00     0.167 HD
ATOM     49  C   UNL     1       3.701   1.893  17.118  1.00  0.00     0.031 A 
ATOM     50  C   UNL     1      -1.100   6.559  15.291  1.00  0.00     0.031 A 
ATOM     51  C   UNL     1       2.838   1.858  18.273  1.00  0.00     0.049 A 
ATOM     52  C   UNL     1      -0.314   6.446  16.540  1.00  0.00     0.074 A 
ATOM     53  C   UNL     1       2.063   0.891  18.881  1.00  0.00     0.029 A 
ATOM     54  N   UNL     1       2.365   3.066  18.728  1.00  0.00    -0.354 N 
ATOM     55  N   UNL     1      -0.773   5.902  17.630  1.00  0.00    -0.248 NA
ATOM     56  C   UNL     1       1.134   6.511  16.434  1.00  0.00     0.031 C 
ATOM     57  C   UNL     1       0.873   1.572  19.274  1.00  0.00     0.029 A 
ATOM     58  C   UNL     1       1.024   2.926  18.971  1.00  0.00     0.049 A 
ATOM     59  H   UNL     1       2.895   3.885  18.857  1.00  0.00     0.167 HD
ATOM     60  C   UNL     1       0.285   5.145  18.110  1.00  0.00     0.074 A 
ATOM     61  C   UNL     1       1.461   5.639  17.392  1.00  0.00     0.031 C 
ATOM     62  C   UNL     1       0.062   3.995  18.814  1.00  0.00     0.031 A 
BRANCH  49  63
ATOM     63  C   UNL     1       4.984   2.692  17.113  1.00  0.00    -0.014 A 
ATOM     64  C   UNL     1       5.596   2.987  18.345  1.00  0.00     0.009 A 
ATOM     65  C   UNL     1       5.448   3.410  15.994  1.00  0.00     0.009 A 
ATOM     66  C   UNL     1       6.553   4.003  18.460  1.00  0.00     0.001 A 
ATOM     67  C   UNL     1       6.433   4.395  16.097  1.00  0.00     0.001 A 
ATOM     68  C   UNL     1       6.963   4.714  17.337  1.00  0.00     0.000 A 
ENDBRANCH  49  63
BRANCH  50  69
ATOM     69  C   UNL     1      -1.250   7.851  14.577  1.00  0.00    -0.014 A 
ATOM     70  C   UNL     1      -1.210   9.066  15.283  1.00  0.00     0.009 A 
ATOM     71  C   UNL     1      -1.139   7.913  13.176  1.00  0.00     0.009 A 
ATOM     72  C   UNL     1      -1.011  10.285  14.618  1.00  0.00     0.001 A 
ATOM     73  C   UNL     1      -0.947   9.130  12.511  1.00  0.00     0.001 A 
ATOM     74  C   UNL     1      -0.863  10.314  13.234  1.00  0.00     0.000 A 
ENDBRANCH  50  69
BRANCH  62  75
ATOM     75  C   UNL     1      -1.350   3.699  19.262  1.00  0.00    -0.014 A 
ATOM     76  C   UNL     1      -2.429   3.521  18.377  1.00  0.00     0.009 A 
ATOM     77  C   UNL     1      -1.563   3.445  20.624  1.00  0.00     0.009 A 
ATOM     78  C   UNL     1      -3.688   3.130  18.849  1.00  0.00     0.001 A 
ATOM     79  C   UNL     1      -2.812   3.034  21.093  1.00  0.00     0.001 A 
ATOM     80  C   UNL     1      -3.876   2.883  20.207  1.00  0.00     0.000 A 
ENDBRANCH  62  75
ENDBRANCH  36  37
ENDBRANCH  28  31
ENDBRANCH  26  27
ENDBRANCH   1  26
TORSDOF 12
