REMARK SMILES O=C(NCCCNC(=O)[C@@H]1[C@H](C(=O)Nc2ccccc2Cc2ccccc2)[C@H]2C=C[C@@H]1O2)c1ccc(-c2c3nc(c(-c4ccccc4)c4ccc([nH]4)c(-c4ccccc4)c4nc(c(-c5ccccc5)c5ccc2[nH]5)C=C4)C=C3)cc1
REMARK SMILES IDX 6 1 5 2 4 3 3 4 1 5 2 6 33 8 34 9 80 10 35 11 79 12 36 13
REMARK SMILES IDX 37 14 38 15 73 16 39 17 78 18 72 19 74 20 40 21 77 22 71 23
REMARK SMILES IDX 70 24 41 26 63 27 48 28 62 29 49 30 52 31 61 32 75 33 50 34
REMARK SMILES IDX 51 35 60 37 76 38 53 39 42 40 43 41 47 42 44 43 46 44 45 45
REMARK SMILES IDX 64 46 65 47 69 48 66 49 68 50 67 51 54 52 55 53 59 54 56 55
REMARK SMILES IDX 58 56 57 57 7 58 8 59 9 61 10 62 11 63 31 64 28 65 30 66
REMARK SMILES IDX 32 67 29 68 12 69 13 70 14 71 15 73 16 74 20 75 17 76 19 77
REMARK SMILES IDX 18 78 21 79 22 80 23 81 27 82 24 83 26 84 25 85
REMARK H PARENT 3 7 74 25 52 36 7 60 14 72
REMARK Flexibility Score: inf
ROOT
ATOM      1  C   UNL     1       4.534  -3.170   2.205  1.00  0.00     0.117 C 
ENDROOT
BRANCH   1   2
ATOM      2  C   UNL     1       4.979  -2.718   0.785  1.00  0.00     0.042 C 
BRANCH   2   3
ATOM      3  C   UNL     1       3.914  -2.773  -0.324  1.00  0.00     0.118 C 
BRANCH   3   4
ATOM      4  N   UNL     1       2.745  -1.916  -0.114  1.00  0.00    -0.352 N 
ATOM      5  O   UNL     1       1.174  -0.366  -0.076  1.00  0.00    -0.269 OA
ATOM      6  C   UNL     1       2.321  -0.666  -0.474  1.00  0.00     0.251 C 
ATOM      7  H   UNL     1       2.073  -2.368   0.446  1.00  0.00     0.163 HD
BRANCH   6   8
ATOM      8  C   UNL     1       3.048   0.369  -1.273  1.00  0.00     0.039 A 
ATOM      9  C   UNL     1       4.152   0.138  -2.090  1.00  0.00     0.014 A 
ATOM     10  C   UNL     1       2.516   1.679  -1.265  1.00  0.00     0.014 A 
ATOM     11  C   UNL     1       4.717   1.182  -2.851  1.00  0.00     0.010 A 
ATOM     12  C   UNL     1       3.048   2.711  -2.058  1.00  0.00     0.010 A 
ATOM     13  C   UNL     1       4.160   2.474  -2.869  1.00  0.00    -0.014 A 
BRANCH  13  14
ATOM     14  C   UNL     1       4.679   3.516  -3.805  1.00  0.00     0.031 A 
ATOM     15  C   UNL     1       5.314   4.790  -3.311  1.00  0.00     0.074 A 
ATOM     16  C   UNL     1       4.565   3.319  -5.137  1.00  0.00     0.049 A 
ATOM     17  N   UNL     1       5.810   5.789  -4.004  1.00  0.00    -0.248 NA
ATOM     18  C   UNL     1       5.394   4.968  -1.856  1.00  0.00     0.031 C 
ATOM     19  C   UNL     1       3.942   2.151  -5.759  1.00  0.00     0.029 A 
ATOM     20  N   UNL     1       4.976   4.083  -6.202  1.00  0.00    -0.354 N 
ATOM     21  C   UNL     1       6.238   6.725  -3.071  1.00  0.00     0.074 A 
ATOM     22  C   UNL     1       5.934   6.187  -1.763  1.00  0.00     0.031 C 
ATOM     23  C   UNL     1       4.056   2.249  -7.093  1.00  0.00     0.029 A 
ATOM     24  C   UNL     1       4.702   3.515  -7.423  1.00  0.00     0.049 A 
ATOM     25  H   UNL     1       5.423   4.955  -6.101  1.00  0.00     0.167 HD
ATOM     26  C   UNL     1       6.831   7.931  -3.281  1.00  0.00     0.031 A 
ATOM     27  C   UNL     1       4.923   3.958  -8.678  1.00  0.00     0.031 A 
ATOM     28  C   UNL     1       7.139   8.478  -4.577  1.00  0.00     0.049 A 
ATOM     29  C   UNL     1       5.577   5.291  -8.887  1.00  0.00     0.074 A 
ATOM     30  C   UNL     1       7.772   9.673  -4.882  1.00  0.00     0.029 A 
ATOM     31  N   UNL     1       6.832   7.873  -5.786  1.00  0.00    -0.354 N 
ATOM     32  N   UNL     1       6.008   6.144  -7.990  1.00  0.00    -0.248 NA
ATOM     33  C   UNL     1       5.769   5.723 -10.279  1.00  0.00     0.031 C 
ATOM     34  C   UNL     1       7.807   9.810  -6.274  1.00  0.00     0.029 A 
ATOM     35  C   UNL     1       7.239   8.678  -6.838  1.00  0.00     0.049 A 
ATOM     36  H   UNL     1       6.389   6.999  -5.883  1.00  0.00     0.167 HD
ATOM     37  C   UNL     1       6.525   7.213  -8.705  1.00  0.00     0.074 A 
ATOM     38  C   UNL     1       6.377   6.901 -10.110  1.00  0.00     0.031 C 
ATOM     39  C   UNL     1       7.077   8.360  -8.232  1.00  0.00     0.031 A 
BRANCH  26  40
ATOM     40  C   UNL     1       7.150   8.763  -2.068  1.00  0.00    -0.014 A 
ATOM     41  C   UNL     1       8.203   8.426  -1.203  1.00  0.00     0.009 A 
ATOM     42  C   UNL     1       6.402   9.922  -1.804  1.00  0.00     0.009 A 
ATOM     43  C   UNL     1       8.471   9.207  -0.076  1.00  0.00     0.001 A 
ATOM     44  C   UNL     1       6.687  10.714  -0.691  1.00  0.00     0.001 A 
ATOM     45  C   UNL     1       7.714  10.350   0.179  1.00  0.00     0.000 A 
ENDBRANCH  26  40
BRANCH  27  46
ATOM     46  C   UNL     1       4.494   3.120  -9.826  1.00  0.00    -0.014 A 
ATOM     47  C   UNL     1       5.435   2.425 -10.600  1.00  0.00     0.009 A 
ATOM     48  C   UNL     1       3.127   2.958 -10.110  1.00  0.00     0.009 A 
ATOM     49  C   UNL     1       5.014   1.581 -11.632  1.00  0.00     0.001 A 
ATOM     50  C   UNL     1       2.710   2.094 -11.123  1.00  0.00     0.001 A 
ATOM     51  C   UNL     1       3.654   1.407 -11.884  1.00  0.00     0.000 A 
ENDBRANCH  27  46
BRANCH  39  52
ATOM     52  C   UNL     1       7.575   9.349  -9.243  1.00  0.00    -0.014 A 
ATOM     53  C   UNL     1       6.686  10.174  -9.950  1.00  0.00     0.009 A 
ATOM     54  C   UNL     1       8.955   9.496  -9.454  1.00  0.00     0.009 A 
ATOM     55  C   UNL     1       7.170  11.114 -10.862  1.00  0.00     0.001 A 
ATOM     56  C   UNL     1       9.437  10.450 -10.351  1.00  0.00     0.001 A 
ATOM     57  C   UNL     1       8.544  11.254 -11.058  1.00  0.00     0.000 A 
ENDBRANCH  39  52
ENDBRANCH  13  14
ENDBRANCH   6   8
ENDBRANCH   3   4
ENDBRANCH   2   3
ENDBRANCH   1   2
BRANCH   1  58
ATOM     58  N   UNL     1       5.348  -4.212   2.902  1.00  0.00    -0.356 N 
ATOM     59  C   UNL     1       5.904  -4.630   4.067  1.00  0.00     0.227 C 
ATOM     60  H   UNL     1       5.581  -4.885   2.223  1.00  0.00     0.163 HD
ATOM     61  O   UNL     1       6.300  -5.811   3.889  1.00  0.00    -0.275 OA
BRANCH  59  62
ATOM     62  C   UNL     1       6.164  -4.139   5.594  1.00  0.00     0.127 C 
ATOM     63  C   UNL     1       5.054  -4.531   6.565  1.00  0.00     0.127 C 
ATOM     64  C   UNL     1       6.665  -2.890   6.376  1.00  0.00     0.155 C 
ATOM     65  C   UNL     1       5.046  -3.489   7.680  1.00  0.00     0.155 C 
ATOM     66  C   UNL     1       7.291  -3.257   7.707  1.00  0.00     0.004 C 
ATOM     67  O   UNL     1       5.432  -2.341   6.915  1.00  0.00    -0.365 OA
ATOM     68  C   UNL     1       6.281  -3.602   8.516  1.00  0.00     0.004 C 
BRANCH  63  69
ATOM     69  C   UNL     1       3.754  -4.565   5.893  1.00  0.00     0.231 C 
ATOM     70  O   UNL     1       3.102  -5.621   5.973  1.00  0.00    -0.274 OA
ATOM     71  N   UNL     1       3.135  -3.583   5.234  1.00  0.00    -0.325 N 
ATOM     72  H   UNL     1       2.294  -3.994   4.929  1.00  0.00     0.169 HD
BRANCH  71  73
ATOM     73  C   UNL     1       3.062  -2.245   4.742  1.00  0.00     0.044 A 
ATOM     74  C   UNL     1       1.674  -2.112   4.364  1.00  0.00     0.026 A 
ATOM     75  C   UNL     1       3.919  -1.101   4.483  1.00  0.00    -0.020 A 
ATOM     76  C   UNL     1       1.090  -0.984   3.821  1.00  0.00     0.002 A 
ATOM     77  C   UNL     1       3.236   0.055   3.960  1.00  0.00     0.006 A 
ATOM     78  C   UNL     1       1.877   0.118   3.642  1.00  0.00     0.000 A 
BRANCH  75  79
ATOM     79  C   UNL     1       5.475  -0.771   4.537  1.00  0.00     0.073 C 
BRANCH  79  80
ATOM     80  C   UNL     1       6.557  -1.057   3.430  1.00  0.00    -0.044 A 
ATOM     81  C   UNL     1       7.496  -2.113   3.441  1.00  0.00     0.004 A 
ATOM     82  C   UNL     1       6.737  -0.166   2.360  1.00  0.00     0.004 A 
ATOM     83  C   UNL     1       8.438  -2.368   2.432  1.00  0.00     0.000 A 
ATOM     84  C   UNL     1       7.710  -0.384   1.352  1.00  0.00     0.000 A 
ATOM     85  C   UNL     1       8.539  -1.502   1.370  1.00  0.00     0.000 A 
ENDBRANCH  79  80
ENDBRANCH  75  79
ENDBRANCH  71  73
ENDBRANCH  63  69
ENDBRANCH  59  62
ENDBRANCH   1  58
TORSDOF 14
