REMARK SMILES O=C(NCCCNC(=O)[C@H]1CCCN1C(=O)CN1C(=O)[C@@H]2[C@H](C1=O)[C@H]1C=C[C@@H]2C1)c1ccc(-c2c3nc(c(-c4ccccc4)c4ccc([nH]4)c(-c4ccccc4)c4nc(c(-c5ccccc5)c5ccc2[nH]5)C=C4)C=C3)cc1
REMARK SMILES IDX 5 1 4 2 3 3 1 4 2 5 30 7 31 8 77 9 32 10 76 11 33 12 34 13
REMARK SMILES IDX 35 14 70 15 36 16 75 17 69 18 71 19 37 20 74 21 68 22 67 23
REMARK SMILES IDX 38 25 60 26 45 27 59 28 46 29 49 30 58 31 72 32 47 33 48 34
REMARK SMILES IDX 57 36 73 37 50 38 39 39 40 40 44 41 41 42 43 43 42 44 61 45
REMARK SMILES IDX 62 46 66 47 63 48 65 49 64 50 51 51 52 52 56 53 53 54 55 55
REMARK SMILES IDX 54 56 6 57 7 58 8 59 9 61 10 62 11 63 14 64 12 65 13 66
REMARK SMILES IDX 15 67 16 68 17 69 18 70 19 71 23 72 21 73 20 74 22 75 24 76
REMARK SMILES IDX 28 77 25 78 27 79 29 80 26 81
REMARK H PARENT 3 6 71 24 49 35 7 60
REMARK Flexibility Score: inf
ROOT
ATOM      1  C   UNL     1       6.788  -4.946   1.589  1.00  0.00     0.042 C 
ENDROOT
BRANCH   1   2
ATOM      2  C   UNL     1       8.120  -4.258   1.871  1.00  0.00     0.118 C 
BRANCH   2   3
ATOM      3  N   UNL     1       8.015  -2.828   2.132  1.00  0.00    -0.352 N 
ATOM      4  O   UNL     1       7.651  -0.894   3.220  1.00  0.00    -0.269 OA
ATOM      5  C   UNL     1       7.752  -2.117   3.282  1.00  0.00     0.251 C 
ATOM      6  H   UNL     1       8.159  -2.265   1.338  1.00  0.00     0.163 HD
BRANCH   5   7
ATOM      7  C   UNL     1       7.529  -2.804   4.574  1.00  0.00     0.039 A 
ATOM      8  C   UNL     1       8.273  -3.919   4.933  1.00  0.00     0.014 A 
ATOM      9  C   UNL     1       6.547  -2.331   5.451  1.00  0.00     0.014 A 
ATOM     10  C   UNL     1       7.857  -4.716   5.989  1.00  0.00     0.010 A 
ATOM     11  C   UNL     1       6.242  -3.046   6.617  1.00  0.00     0.010 A 
ATOM     12  C   UNL     1       6.844  -4.288   6.861  1.00  0.00    -0.014 A 
BRANCH  12  13
ATOM     13  C   UNL     1       6.469  -5.169   8.003  1.00  0.00     0.031 A 
ATOM     14  C   UNL     1       5.056  -5.668   8.178  1.00  0.00     0.074 A 
ATOM     15  C   UNL     1       7.438  -5.606   8.836  1.00  0.00     0.049 A 
ATOM     16  N   UNL     1       4.585  -6.502   9.074  1.00  0.00    -0.248 NA
ATOM     17  C   UNL     1       4.037  -5.163   7.245  1.00  0.00     0.031 C 
ATOM     18  C   UNL     1       8.846  -5.200   8.781  1.00  0.00     0.029 A 
ATOM     19  N   UNL     1       7.406  -6.532   9.849  1.00  0.00    -0.354 N 
ATOM     20  C   UNL     1       3.216  -6.579   8.844  1.00  0.00     0.074 A 
ATOM     21  C   UNL     1       2.927  -5.700   7.732  1.00  0.00     0.031 C 
ATOM     22  C   UNL     1       9.558  -5.954   9.629  1.00  0.00     0.029 A 
ATOM     23  C   UNL     1       8.648  -6.821  10.364  1.00  0.00     0.049 A 
ATOM     24  H   UNL     1       6.575  -6.948  10.174  1.00  0.00     0.167 HD
ATOM     25  C   UNL     1       2.283  -7.313   9.498  1.00  0.00     0.031 A 
ATOM     26  C   UNL     1       9.021  -7.680  11.330  1.00  0.00     0.031 A 
ATOM     27  C   UNL     1       2.573  -8.214  10.582  1.00  0.00     0.049 A 
ATOM     28  C   UNL     1       7.970  -8.486  12.030  1.00  0.00     0.074 A 
ATOM     29  C   UNL     1       1.698  -9.022  11.289  1.00  0.00     0.029 A 
ATOM     30  N   UNL     1       3.835  -8.434  11.111  1.00  0.00    -0.354 N 
ATOM     31  N   UNL     1       6.682  -8.540  11.796  1.00  0.00    -0.248 NA
ATOM     32  C   UNL     1       8.424  -9.339  13.135  1.00  0.00     0.031 C 
ATOM     33  C   UNL     1       2.425  -9.697  12.275  1.00  0.00     0.029 A 
ATOM     34  C   UNL     1       3.761  -9.351  12.146  1.00  0.00     0.049 A 
ATOM     35  H   UNL     1       4.662  -8.002  10.797  1.00  0.00     0.167 HD
ATOM     36  C   UNL     1       6.170  -9.440  12.719  1.00  0.00     0.074 A 
ATOM     37  C   UNL     1       7.293  -9.928  13.496  1.00  0.00     0.031 C 
ATOM     38  C   UNL     1       4.885  -9.823  12.911  1.00  0.00     0.031 A 
BRANCH  25  39
ATOM     39  C   UNL     1       0.846  -7.141   9.084  1.00  0.00    -0.014 A 
ATOM     40  C   UNL     1       0.359  -7.655   7.872  1.00  0.00     0.009 A 
ATOM     41  C   UNL     1      -0.046  -6.485   9.948  1.00  0.00     0.009 A 
ATOM     42  C   UNL     1      -0.983  -7.484   7.519  1.00  0.00     0.001 A 
ATOM     43  C   UNL     1      -1.392  -6.341   9.607  1.00  0.00     0.001 A 
ATOM     44  C   UNL     1      -1.857  -6.832   8.388  1.00  0.00     0.000 A 
ENDBRANCH  25  39
BRANCH  26  45
ATOM     45  C   UNL     1      10.456  -7.802  11.701  1.00  0.00    -0.014 A 
ATOM     46  C   UNL     1      11.169  -8.979  11.427  1.00  0.00     0.009 A 
ATOM     47  C   UNL     1      11.124  -6.733  12.319  1.00  0.00     0.009 A 
ATOM     48  C   UNL     1      12.517  -9.086  11.778  1.00  0.00     0.001 A 
ATOM     49  C   UNL     1      12.479  -6.830  12.638  1.00  0.00     0.001 A 
ATOM     50  C   UNL     1      13.172  -8.009  12.375  1.00  0.00     0.000 A 
ENDBRANCH  26  45
BRANCH  38  51
ATOM     51  C   UNL     1       4.637 -10.845  13.982  1.00  0.00    -0.014 A 
ATOM     52  C   UNL     1       4.731 -10.512  15.343  1.00  0.00     0.009 A 
ATOM     53  C   UNL     1       4.297 -12.158  13.622  1.00  0.00     0.009 A 
ATOM     54  C   UNL     1       4.529 -11.487  16.321  1.00  0.00     0.001 A 
ATOM     55  C   UNL     1       4.068 -13.123  14.603  1.00  0.00     0.001 A 
ATOM     56  C   UNL     1       4.196 -12.790  15.951  1.00  0.00     0.000 A 
ENDBRANCH  38  51
ENDBRANCH  12  13
ENDBRANCH   5   7
ENDBRANCH   2   3
ENDBRANCH   1   2
BRANCH   1  57
ATOM     57  C   UNL     1       6.362  -4.862   0.129  1.00  0.00     0.117 C 
BRANCH  57  58
ATOM     58  N   UNL     1       7.317  -5.484  -0.776  1.00  0.00    -0.354 N 
ATOM     59  C   UNL     1       7.252  -5.845  -2.083  1.00  0.00     0.242 C 
ATOM     60  H   UNL     1       8.185  -5.684  -0.355  1.00  0.00     0.163 HD
ATOM     61  O   UNL     1       8.339  -6.124  -2.605  1.00  0.00    -0.273 OA
BRANCH  59  62
ATOM     62  C   UNL     1       5.954  -5.867  -2.925  1.00  0.00     0.174 C 
ATOM     63  C   UNL     1       5.839  -7.238  -3.595  1.00  0.00     0.037 C 
ATOM     64  N   UNL     1       4.682  -5.708  -2.241  1.00  0.00    -0.329 N 
ATOM     65  C   UNL     1       5.122  -8.046  -2.531  1.00  0.00     0.024 C 
ATOM     66  C   UNL     1       4.147  -7.036  -1.926  1.00  0.00     0.120 C 
BRANCH  64  67
ATOM     67  C   UNL     1       3.925  -4.580  -1.974  1.00  0.00     0.243 C 
ATOM     68  O   UNL     1       2.842  -4.736  -1.387  1.00  0.00    -0.273 OA
BRANCH  67  69
ATOM     69  C   UNL     1       4.243  -3.148  -2.513  1.00  0.00     0.228 C 
BRANCH  69  70
ATOM     70  N   UNL     1       5.603  -2.634  -2.473  1.00  0.00    -0.273 N 
ATOM     71  C   UNL     1       6.530  -2.892  -3.421  1.00  0.00     0.234 C 
ATOM     72  C   UNL     1       5.975  -1.454  -1.866  1.00  0.00     0.234 C 
ATOM     73  C   UNL     1       7.861  -2.537  -2.839  1.00  0.00     0.099 C 
ATOM     74  O   UNL     1       6.322  -3.255  -4.570  1.00  0.00    -0.274 OA
ATOM     75  C   UNL     1       7.484  -1.315  -1.979  1.00  0.00     0.099 C 
ATOM     76  O   UNL     1       5.244  -0.636  -1.352  1.00  0.00    -0.274 OA
ATOM     77  C   UNL     1       8.834  -2.000  -3.883  1.00  0.00     0.025 C 
ATOM     78  C   UNL     1       8.163  -0.170  -2.771  1.00  0.00     0.025 C 
ATOM     79  C   UNL     1      10.039  -1.477  -3.137  1.00  0.00    -0.027 C 
ATOM     80  C   UNL     1       8.175  -0.660  -4.228  1.00  0.00     0.017 C 
ATOM     81  C   UNL     1       9.652  -0.356  -2.502  1.00  0.00    -0.027 C 
ENDBRANCH  69  70
ENDBRANCH  67  69
ENDBRANCH  64  67
ENDBRANCH  59  62
ENDBRANCH  57  58
ENDBRANCH   1  57
TORSDOF 13
