REMARK SMILES COc1ccc(-n2ccnc2C[N@@H+]2CCn3nc(C(=O)NCCCNC(=O)c4ccc(-c5c6nc(c(-c7ccccc7)c7ccc([nH]7)c(-c7ccccc7)c7nc(c(-c8ccccc8)c8ccc5[nH]8)C=C7)C=C6)cc4)cc3C2)cc1
REMARK SMILES IDX 22 1 21 2 19 3 20 4 18 6 13 7 14 8 78 9 15 11 77 12 16 13
REMARK SMILES IDX 76 14 17 15 12 16 11 17 7 18 8 19 9 20 10 21 6 22 3 23 4 24
REMARK SMILES IDX 80 25 5 26 79 27 2 28 1 29 23 30 24 31 25 32 26 33 27 35
REMARK SMILES IDX 28 36 29 37 75 38 30 39 74 40 31 41 32 42 33 43 68 44 34 45
REMARK SMILES IDX 73 46 67 47 69 48 35 49 72 50 66 51 65 52 36 54 58 55 43 56
REMARK SMILES IDX 57 57 44 58 47 59 56 60 70 61 45 62 46 63 55 65 71 66 48 67
REMARK SMILES IDX 37 68 38 69 42 70 39 71 41 72 40 73 59 74 60 75 64 76 61 77
REMARK SMILES IDX 63 78 62 79 49 80 50 81 54 82 51 83 53 84 52 85
REMARK H PARENT 21 5 13 10 25 34 69 53 47 64
REMARK Flexibility Score: inf
ROOT
ATOM      1  C   UNL     1      -1.227  -4.066  -2.287  1.00  0.00     0.118 C 
ENDROOT
BRANCH   1   2
ATOM      2  N   UNL     1      -1.036  -4.251  -3.708  1.00  0.00    -0.351 N 
ATOM      3  C   UNL     1      -1.379  -3.393  -4.719  1.00  0.00     0.271 C 
ATOM      4  O   UNL     1      -1.562  -3.904  -5.828  1.00  0.00    -0.267 OA
ATOM      5  H   UNL     1      -0.607  -5.095  -3.981  1.00  0.00     0.163 HD
BRANCH   3   6
ATOM      6  C   UNL     1      -1.403  -1.918  -4.552  1.00  0.00     0.150 A 
ATOM      7  N   UNL     1       1.137  -0.149  -6.976  1.00  0.00    -0.322 N 
ATOM      8  C   UNL     1       1.785   0.552  -5.861  1.00  0.00     0.286 C 
ATOM      9  C   UNL     1      -0.298   0.276  -7.018  1.00  0.00     0.319 C 
ATOM     10  H   UNL     1       1.643   0.113  -7.822  1.00  0.00     0.348 HD
ATOM     11  C   UNL     1       1.017   0.590  -4.517  1.00  0.00     0.206 C 
ATOM     12  C   UNL     1      -0.964  -0.169  -5.758  1.00  0.00     0.094 A 
ATOM     13  N   UNL     1      -0.247  -0.133  -4.589  1.00  0.00    -0.257 N 
ATOM     14  C   UNL     1      -1.985  -1.070  -5.548  1.00  0.00     0.065 A 
ATOM     15  N   UNL     1      -0.509  -1.218  -3.812  1.00  0.00    -0.167 NA
BRANCH   7  16
ATOM     16  C   UNL     1       1.232  -1.638  -6.934  1.00  0.00     0.339 C 
BRANCH  16  17
ATOM     17  C   UNL     1       2.534  -2.370  -6.675  1.00  0.00     0.168 A 
ATOM     18  N   UNL     1       3.117  -2.707  -5.442  1.00  0.00    -0.299 N 
ATOM     19  C   UNL     1       3.987  -3.747  -5.688  1.00  0.00     0.113 A 
ATOM     20  C   UNL     1       3.965  -3.953  -7.038  1.00  0.00     0.132 A 
ATOM     21  N   UNL     1       3.112  -3.078  -7.641  1.00  0.00    -0.236 NA
BRANCH  18  22
ATOM     22  C   UNL     1       2.953  -2.208  -4.129  1.00  0.00     0.047 A 
ATOM     23  C   UNL     1       2.821  -1.429  -1.445  1.00  0.00     0.119 A 
ATOM     24  C   UNL     1       1.946  -2.393  -1.933  1.00  0.00     0.048 A 
ATOM     25  C   UNL     1       3.844  -0.943  -2.253  1.00  0.00     0.048 A 
ATOM     26  C   UNL     1       2.028  -2.802  -3.271  1.00  0.00     0.030 A 
ATOM     27  C   UNL     1       3.918  -1.341  -3.597  1.00  0.00     0.030 A 
BRANCH  23  28
ATOM     28  O   UNL     1       2.717  -1.032  -0.141  1.00  0.00    -0.497 OA
ATOM     29  C   UNL     1       1.870   0.116  -0.025  1.00  0.00     0.278 C 
ENDBRANCH  23  28
ENDBRANCH  18  22
ENDBRANCH  16  17
ENDBRANCH   7  16
ENDBRANCH   3   6
ENDBRANCH   1   2
BRANCH   1  30
ATOM     30  C   UNL     1      -2.574  -4.661  -1.878  1.00  0.00     0.042 C 
BRANCH  30  31
ATOM     31  C   UNL     1      -2.509  -6.178  -1.752  1.00  0.00     0.118 C 
BRANCH  31  32
ATOM     32  N   UNL     1      -2.099  -6.617  -0.421  1.00  0.00    -0.352 N 
ATOM     33  C   UNL     1      -2.077  -7.920   0.055  1.00  0.00     0.251 C 
ATOM     34  H   UNL     1      -1.809  -5.914   0.205  1.00  0.00     0.163 HD
ATOM     35  O   UNL     1      -2.063  -8.172   1.236  1.00  0.00    -0.269 OA
BRANCH  33  36
ATOM     36  C   UNL     1      -2.077  -8.997  -0.955  1.00  0.00     0.039 A 
ATOM     37  C   UNL     1      -3.022 -10.022  -0.908  1.00  0.00     0.014 A 
ATOM     38  C   UNL     1      -1.178  -8.889  -2.012  1.00  0.00     0.014 A 
ATOM     39  C   UNL     1      -3.122 -10.886  -1.996  1.00  0.00     0.010 A 
ATOM     40  C   UNL     1      -1.363  -9.663  -3.134  1.00  0.00     0.010 A 
ATOM     41  C   UNL     1      -2.314 -10.683  -3.127  1.00  0.00    -0.014 A 
BRANCH  41  42
ATOM     42  C   UNL     1      -2.537 -11.470  -4.340  1.00  0.00     0.031 A 
ATOM     43  C   UNL     1      -3.945 -11.566  -4.818  1.00  0.00     0.074 A 
ATOM     44  C   UNL     1      -1.549 -11.952  -5.123  1.00  0.00     0.049 A 
ATOM     45  N   UNL     1      -4.686 -12.624  -4.841  1.00  0.00    -0.248 NA
ATOM     46  C   UNL     1      -4.636 -10.345  -5.255  1.00  0.00     0.031 C 
ATOM     47  C   UNL     1      -0.102 -11.742  -5.013  1.00  0.00     0.029 A 
ATOM     48  N   UNL     1      -1.663 -12.655  -6.284  1.00  0.00    -0.354 N 
ATOM     49  C   UNL     1      -5.881 -12.258  -5.452  1.00  0.00     0.074 A 
ATOM     50  C   UNL     1      -5.846 -10.819  -5.565  1.00  0.00     0.031 C 
ATOM     51  C   UNL     1       0.491 -12.077  -6.179  1.00  0.00     0.029 A 
ATOM     52  C   UNL     1      -0.500 -12.698  -7.037  1.00  0.00     0.049 A 
ATOM     53  H   UNL     1      -2.498 -13.095  -6.563  1.00  0.00     0.167 HD
ATOM     54  C   UNL     1      -6.714 -13.186  -6.004  1.00  0.00     0.031 A 
ATOM     55  C   UNL     1      -0.358 -13.197  -8.286  1.00  0.00     0.031 A 
ATOM     56  C   UNL     1      -6.365 -14.527  -5.604  1.00  0.00     0.049 A 
ATOM     57  C   UNL     1      -1.462 -14.156  -8.510  1.00  0.00     0.074 A 
ATOM     58  C   UNL     1      -6.234 -15.182  -4.395  1.00  0.00     0.029 A 
ATOM     59  N   UNL     1      -5.702 -15.308  -6.521  1.00  0.00    -0.354 N 
ATOM     60  N   UNL     1      -1.556 -15.290  -7.877  1.00  0.00    -0.248 NA
ATOM     61  C   UNL     1      -2.694 -13.681  -9.117  1.00  0.00     0.031 C 
ATOM     62  C   UNL     1      -5.085 -16.013  -4.556  1.00  0.00     0.029 A 
ATOM     63  C   UNL     1      -4.633 -15.866  -5.869  1.00  0.00     0.049 A 
ATOM     64  H   UNL     1      -5.948 -15.442  -7.465  1.00  0.00     0.167 HD
ATOM     65  C   UNL     1      -2.908 -15.428  -7.603  1.00  0.00     0.074 A 
ATOM     66  C   UNL     1      -3.569 -14.483  -8.502  1.00  0.00     0.031 C 
ATOM     67  C   UNL     1      -3.339 -16.077  -6.479  1.00  0.00     0.031 A 
BRANCH  54  68
ATOM     68  C   UNL     1      -7.595 -12.934  -7.203  1.00  0.00    -0.014 A 
ATOM     69  C   UNL     1      -8.457 -13.961  -7.638  1.00  0.00     0.009 A 
ATOM     70  C   UNL     1      -7.403 -11.856  -8.086  1.00  0.00     0.009 A 
ATOM     71  C   UNL     1      -9.022 -13.949  -8.919  1.00  0.00     0.001 A 
ATOM     72  C   UNL     1      -8.002 -11.820  -9.349  1.00  0.00     0.001 A 
ATOM     73  C   UNL     1      -8.785 -12.882  -9.778  1.00  0.00     0.000 A 
ENDBRANCH  54  68
BRANCH  55  74
ATOM     74  C   UNL     1       0.556 -12.753  -9.356  1.00  0.00    -0.014 A 
ATOM     75  C   UNL     1       0.787 -13.558 -10.481  1.00  0.00     0.009 A 
ATOM     76  C   UNL     1       0.999 -11.418  -9.400  1.00  0.00     0.009 A 
ATOM     77  C   UNL     1       1.394 -13.030 -11.627  1.00  0.00     0.001 A 
ATOM     78  C   UNL     1       1.611 -10.893 -10.541  1.00  0.00     0.001 A 
ATOM     79  C   UNL     1       1.791 -11.694 -11.662  1.00  0.00     0.000 A 
ENDBRANCH  55  74
BRANCH  67  80
ATOM     80  C   UNL     1      -2.318 -16.839  -5.664  1.00  0.00    -0.014 A 
ATOM     81  C   UNL     1      -1.163 -16.241  -5.129  1.00  0.00     0.009 A 
ATOM     82  C   UNL     1      -2.594 -18.168  -5.312  1.00  0.00     0.009 A 
ATOM     83  C   UNL     1      -0.285 -16.964  -4.316  1.00  0.00     0.001 A 
ATOM     84  C   UNL     1      -1.730 -18.884  -4.478  1.00  0.00     0.001 A 
ATOM     85  C   UNL     1      -0.571 -18.286  -3.990  1.00  0.00     0.000 A 
ENDBRANCH  67  80
ENDBRANCH  41  42
ENDBRANCH  33  36
ENDBRANCH  31  32
ENDBRANCH  30  31
ENDBRANCH   1  30
TORSDOF 14
