REMARK SMILES Cc1ccccc1O[C@@H](C)C(=O)Oc1ccccc1C(=O)NCCCNC(=O)c1ccc(-c2c3nc(c(-c4ccccc4)c4ccc([nH]4)c(-c4ccccc4)c4nc(c(-c5ccccc5)c5ccc2[nH]5)C=C4)C=C3)cc1
REMARK SMILES IDX 20 1 21 2 22 3 19 5 14 6 15 7 16 8 18 9 17 10 13 11 11 12
REMARK SMILES IDX 12 13 9 14 10 15 8 16 7 17 1 18 2 19 3 20 4 21 6 22 5 23
REMARK SMILES IDX 23 24 24 25 25 26 26 27 27 28 28 30 29 31 30 32 76 33 31 34
REMARK SMILES IDX 75 35 32 36 33 37 34 38 69 39 35 40 74 41 68 42 70 43 36 44
REMARK SMILES IDX 73 45 67 46 66 47 37 49 59 50 44 51 58 52 45 53 48 54 57 55
REMARK SMILES IDX 71 56 46 57 47 58 56 60 72 61 49 62 38 63 39 64 43 65 40 66
REMARK SMILES IDX 42 67 41 68 60 69 61 70 65 71 62 72 64 73 63 74 50 75 51 76
REMARK SMILES IDX 55 77 52 78 54 79 53 80
REMARK H PARENT 22 4 26 29 70 48 48 59
REMARK Flexibility Score: inf
ROOT
ATOM      1  C   UNL     1       5.385   0.046  -2.060  1.00  0.00     0.255 C 
ATOM      2  O   UNL     1       5.052   0.436  -0.939  1.00  0.00    -0.269 OA
ATOM      3  N   UNL     1       6.729   0.137  -2.340  1.00  0.00    -0.352 N 
ATOM      4  H   UNL     1       7.212   0.690  -1.684  1.00  0.00     0.163 HD
ENDROOT
BRANCH   1   5
ATOM      5  C   UNL     1       4.340  -0.482  -2.993  1.00  0.00     0.082 A 
ATOM      6  C   UNL     1       2.982  -0.136  -2.829  1.00  0.00     0.143 A 
ATOM      7  C   UNL     1       1.967  -0.710  -3.611  1.00  0.00     0.048 A 
ATOM      8  C   UNL     1       2.287  -1.643  -4.587  1.00  0.00     0.004 A 
ATOM      9  C   UNL     1       4.625  -1.435  -3.981  1.00  0.00     0.018 A 
ATOM     10  C   UNL     1       3.615  -2.005  -4.771  1.00  0.00     0.001 A 
BRANCH   6  11
ATOM     11  O   UNL     1       2.471   0.612  -1.744  1.00  0.00    -0.423 OA
BRANCH  11  12
ATOM     12  C   UNL     1       2.787   1.939  -1.514  1.00  0.00     0.352 C 
ATOM     13  O   UNL     1       3.447   2.643  -2.273  1.00  0.00    -0.247 OA
BRANCH  12  14
ATOM     14  C   UNL     1       2.188   2.420  -0.158  1.00  0.00     0.280 C 
ATOM     15  C   UNL     1       3.260   2.530   0.932  1.00  0.00     0.066 C 
BRANCH  14  16
ATOM     16  O   UNL     1       0.991   2.013   0.490  1.00  0.00    -0.479 OA
BRANCH  16  17
ATOM     17  C   UNL     1       0.339   0.848   0.230  1.00  0.00     0.123 A 
ATOM     18  C   UNL     1       2.241  -0.828   0.751  1.00  0.00     0.048 C 
ATOM     19  C   UNL     1       0.842  -0.457   0.352  1.00  0.00    -0.009 A 
ATOM     20  C   UNL     1      -0.048  -1.540   0.185  1.00  0.00     0.007 A 
ATOM     21  C   UNL     1      -1.406  -1.343  -0.061  1.00  0.00     0.001 A 
ATOM     22  C   UNL     1      -1.035   1.031  -0.001  1.00  0.00     0.047 A 
ATOM     23  C   UNL     1      -1.903  -0.052  -0.146  1.00  0.00     0.004 A 
ENDBRANCH  16  17
ENDBRANCH  14  16
ENDBRANCH  12  14
ENDBRANCH  11  12
ENDBRANCH   6  11
ENDBRANCH   1   5
BRANCH   3  24
ATOM     24  C   UNL     1       7.608  -0.390  -3.375  1.00  0.00     0.118 C 
BRANCH  24  25
ATOM     25  C   UNL     1       7.462   0.293  -4.730  1.00  0.00     0.042 C 
BRANCH  25  26
ATOM     26  C   UNL     1       8.630   1.224  -5.042  1.00  0.00     0.118 C 
BRANCH  26  27
ATOM     27  N   UNL     1       9.811   0.551  -5.585  1.00  0.00    -0.352 N 
ATOM     28  C   UNL     1      11.086   1.057  -5.797  1.00  0.00     0.251 C 
ATOM     29  H   UNL     1       9.684  -0.393  -5.834  1.00  0.00     0.163 HD
ATOM     30  O   UNL     1      11.969   0.352  -6.257  1.00  0.00    -0.269 OA
BRANCH  28  31
ATOM     31  C   UNL     1      11.391   2.432  -5.336  1.00  0.00     0.039 A 
ATOM     32  C   UNL     1      12.486   2.604  -4.482  1.00  0.00     0.014 A 
ATOM     33  C   UNL     1      10.471   3.458  -5.529  1.00  0.00     0.014 A 
ATOM     34  C   UNL     1      12.501   3.692  -3.617  1.00  0.00     0.010 A 
ATOM     35  C   UNL     1      10.431   4.483  -4.607  1.00  0.00     0.010 A 
ATOM     36  C   UNL     1      11.401   4.548  -3.601  1.00  0.00    -0.014 A 
BRANCH  36  37
ATOM     37  C   UNL     1      11.105   5.430  -2.479  1.00  0.00     0.031 A 
ATOM     38  C   UNL     1      11.277   6.887  -2.606  1.00  0.00     0.074 A 
ATOM     39  C   UNL     1      10.616   4.903  -1.335  1.00  0.00     0.049 A 
ATOM     40  N   UNL     1      11.416   7.688  -1.603  1.00  0.00    -0.248 NA
ATOM     41  C   UNL     1      11.403   7.556  -3.898  1.00  0.00     0.031 C 
ATOM     42  C   UNL     1       9.992   5.609  -0.221  1.00  0.00     0.029 A 
ATOM     43  N   UNL     1      10.803   3.602  -0.861  1.00  0.00    -0.354 N 
ATOM     44  C   UNL     1      11.319   8.968  -2.090  1.00  0.00     0.074 A 
ATOM     45  C   UNL     1      11.470   8.835  -3.517  1.00  0.00     0.031 C 
ATOM     46  C   UNL     1      10.069   4.840   0.877  1.00  0.00     0.029 A 
ATOM     47  C   UNL     1      10.881   3.682   0.541  1.00  0.00     0.049 A 
ATOM     48  H   UNL     1      10.867   2.784  -1.405  1.00  0.00     0.167 HD
ATOM     49  C   UNL     1      10.952   9.970  -1.243  1.00  0.00     0.031 A 
ATOM     50  C   UNL     1      12.016   3.315   1.204  1.00  0.00     0.031 A 
ATOM     51  C   UNL     1      10.999   9.537   0.156  1.00  0.00     0.049 A 
ATOM     52  C   UNL     1      12.676   4.443   1.968  1.00  0.00     0.074 A 
ATOM     53  C   UNL     1      10.028   9.229   1.094  1.00  0.00     0.029 A 
ATOM     54  N   UNL     1      12.209   9.097   0.686  1.00  0.00    -0.354 N 
ATOM     55  N   UNL     1      12.392   5.705   1.797  1.00  0.00    -0.248 NA
ATOM     56  C   UNL     1      13.737   4.244   2.953  1.00  0.00     0.031 C 
ATOM     57  C   UNL     1      10.652   8.507   2.149  1.00  0.00     0.029 A 
ATOM     58  C   UNL     1      12.005   8.419   1.872  1.00  0.00     0.049 A 
ATOM     59  H   UNL     1      13.089   9.249   0.272  1.00  0.00     0.167 HD
ATOM     60  C   UNL     1      13.199   6.473   2.595  1.00  0.00     0.074 A 
ATOM     61  C   UNL     1      14.012   5.510   3.315  1.00  0.00     0.031 C 
ATOM     62  C   UNL     1      13.138   7.837   2.582  1.00  0.00     0.031 A 
BRANCH  49  63
ATOM     63  C   UNL     1      10.296  11.260  -1.696  1.00  0.00    -0.014 A 
ATOM     64  C   UNL     1       9.708  12.111  -0.740  1.00  0.00     0.009 A 
ATOM     65  C   UNL     1      10.115  11.646  -3.037  1.00  0.00     0.009 A 
ATOM     66  C   UNL     1       8.953  13.237  -1.106  1.00  0.00     0.001 A 
ATOM     67  C   UNL     1       9.375  12.775  -3.412  1.00  0.00     0.001 A 
ATOM     68  C   UNL     1       8.781  13.567  -2.444  1.00  0.00     0.000 A 
ENDBRANCH  49  63
BRANCH  50  69
ATOM     69  C   UNL     1      12.737   2.178   0.568  1.00  0.00    -0.014 A 
ATOM     70  C   UNL     1      12.127   0.908   0.591  1.00  0.00     0.009 A 
ATOM     71  C   UNL     1      13.781   2.401  -0.340  1.00  0.00     0.009 A 
ATOM     72  C   UNL     1      12.474  -0.072  -0.344  1.00  0.00     0.001 A 
ATOM     73  C   UNL     1      14.130   1.414  -1.271  1.00  0.00     0.001 A 
ATOM     74  C   UNL     1      13.455   0.193  -1.295  1.00  0.00     0.000 A 
ENDBRANCH  50  69
BRANCH  62  75
ATOM     75  C   UNL     1      14.103   8.773   3.268  1.00  0.00    -0.014 A 
ATOM     76  C   UNL     1      15.425   8.448   3.598  1.00  0.00     0.009 A 
ATOM     77  C   UNL     1      13.710  10.115   3.479  1.00  0.00     0.009 A 
ATOM     78  C   UNL     1      16.294   9.402   4.150  1.00  0.00     0.001 A 
ATOM     79  C   UNL     1      14.584  11.078   3.987  1.00  0.00     0.001 A 
ATOM     80  C   UNL     1      15.877  10.717   4.335  1.00  0.00     0.000 A 
ENDBRANCH  62  75
ENDBRANCH  36  37
ENDBRANCH  28  31
ENDBRANCH  26  27
ENDBRANCH  25  26
ENDBRANCH  24  25
ENDBRANCH   3  24
TORSDOF 15
