REMARK SMILES O=C(C[NH2+][C@H]1CCCC[C@H]1[N@H+](Cc1ccccc1)C1CC1)NCCCNC(=O)c1ccc(-c2c3nc(c(-c4ccccc4)c4ccc([nH]4)c(-c4ccccc4)c4nc(c(-c5ccccc5)c5ccc2[nH]5)C=C4)C=C3)cc1
REMARK SMILES IDX 1 1 2 2 22 3 3 5 4 6 5 9 6 10 10 11 7 12 9 13 8 14 11 15
REMARK SMILES IDX 12 17 13 18 14 19 18 20 15 21 17 22 16 23 19 24 20 25 21 26
REMARK SMILES IDX 23 27 24 28 25 29 26 30 27 31 28 33 29 34 30 35 76 36 31 37
REMARK SMILES IDX 75 38 32 39 33 40 34 41 69 42 35 43 74 44 68 45 70 46 36 47
REMARK SMILES IDX 73 48 67 49 66 50 37 52 59 53 44 54 58 55 45 56 48 57 57 58
REMARK SMILES IDX 71 59 46 60 47 61 56 63 72 64 49 65 38 66 39 67 43 68 40 69
REMARK SMILES IDX 42 70 41 71 60 72 61 73 65 74 62 75 64 76 63 77 50 78 51 79
REMARK SMILES IDX 55 80 52 81 54 82 53 83
REMARK H PARENT 22 4 4 7 4 8 11 16 26 32 70 51 48 62
REMARK Flexibility Score: inf
ROOT
ATOM      1  O   UNL     1       9.069  -3.198   3.255  1.00  0.00    -0.269 OA
ATOM      2  C   UNL     1       8.402  -3.434   2.250  1.00  0.00     0.275 C 
ATOM      3  N   UNL     1       8.965  -3.556   1.001  1.00  0.00    -0.351 N 
ATOM      4  H   UNL     1       8.388  -3.693   0.215  1.00  0.00     0.163 HD
ENDROOT
BRANCH   2   5
ATOM      5  C   UNL     1       6.903  -3.699   2.325  1.00  0.00     0.362 C 
BRANCH   5   6
ATOM      6  N   UNL     1       6.175  -3.184   1.154  1.00  0.00    -0.331 N 
ATOM      7  H   UNL     1       6.175  -3.909   0.436  1.00  0.00     0.347 HD
ATOM      8  H   UNL     1       6.659  -2.334   0.866  1.00  0.00     0.347 HD
BRANCH   6   9
ATOM      9  C   UNL     1       4.768  -2.796   1.418  1.00  0.00     0.241 C 
ATOM     10  C   UNL     1       3.857  -3.981   1.012  1.00  0.00     0.071 C 
ATOM     11  C   UNL     1       4.316  -2.147   2.797  1.00  0.00     0.243 C 
ATOM     12  C   UNL     1       3.749  -5.059   2.080  1.00  0.00     0.007 C 
ATOM     13  C   UNL     1       3.956  -3.274   3.828  1.00  0.00     0.071 C 
ATOM     14  C   UNL     1       3.148  -4.463   3.335  1.00  0.00     0.007 C 
BRANCH  11  15
ATOM     15  N   UNL     1       5.233  -1.170   3.484  1.00  0.00    -0.321 N 
ATOM     16  H   UNL     1       5.960  -1.843   3.723  1.00  0.00     0.349 HD
BRANCH  15  17
ATOM     17  C   UNL     1       4.564  -0.497   4.644  1.00  0.00     0.299 C 
BRANCH  17  18
ATOM     18  C   UNL     1       5.121  -0.833   6.016  1.00  0.00     0.006 A 
ATOM     19  C   UNL     1       5.751  -2.051   6.295  1.00  0.00     0.009 A 
ATOM     20  C   UNL     1       4.888   0.043   7.088  1.00  0.00     0.009 A 
ATOM     21  C   UNL     1       6.013  -2.451   7.603  1.00  0.00     0.001 A 
ATOM     22  C   UNL     1       5.203  -0.330   8.398  1.00  0.00     0.001 A 
ATOM     23  C   UNL     1       5.727  -1.595   8.658  1.00  0.00     0.000 A 
ENDBRANCH  17  18
ENDBRANCH  15  17
BRANCH  15  24
ATOM     24  C   UNL     1       6.002  -0.136   2.749  1.00  0.00     0.185 C 
ATOM     25  C   UNL     1       7.383   0.028   3.400  1.00  0.00     0.071 C 
ATOM     26  C   UNL     1       7.267  -0.173   1.938  1.00  0.00     0.071 C 
ENDBRANCH  15  24
ENDBRANCH  11  15
ENDBRANCH   6   9
ENDBRANCH   5   6
ENDBRANCH   2   5
BRANCH   3  27
ATOM     27  C   UNL     1      10.400  -3.482   0.836  1.00  0.00     0.118 C 
BRANCH  27  28
ATOM     28  C   UNL     1      11.104  -4.694   1.445  1.00  0.00     0.042 C 
BRANCH  28  29
ATOM     29  C   UNL     1      10.554  -6.022   0.940  1.00  0.00     0.118 C 
BRANCH  29  30
ATOM     30  N   UNL     1      10.658  -6.140  -0.507  1.00  0.00    -0.352 N 
ATOM     31  C   UNL     1      11.302  -7.082  -1.258  1.00  0.00     0.251 C 
ATOM     32  H   UNL     1      10.195  -5.439  -1.020  1.00  0.00     0.163 HD
ATOM     33  O   UNL     1      11.484  -6.893  -2.462  1.00  0.00    -0.269 OA
BRANCH  31  34
ATOM     34  C   UNL     1      11.780  -8.325  -0.627  1.00  0.00     0.039 A 
ATOM     35  C   UNL     1      13.032  -8.828  -0.984  1.00  0.00     0.014 A 
ATOM     36  C   UNL     1      10.980  -9.007   0.295  1.00  0.00     0.014 A 
ATOM     37  C   UNL     1      13.496 -10.001  -0.391  1.00  0.00     0.010 A 
ATOM     38  C   UNL     1      11.481 -10.124   0.950  1.00  0.00     0.010 A 
ATOM     39  C   UNL     1      12.732 -10.646   0.595  1.00  0.00    -0.014 A 
BRANCH  39  40
ATOM     40  C   UNL     1      13.209 -11.895   1.236  1.00  0.00     0.031 A 
ATOM     41  C   UNL     1      12.441 -13.174   1.047  1.00  0.00     0.074 A 
ATOM     42  C   UNL     1      14.305 -11.867   2.018  1.00  0.00     0.049 A 
ATOM     43  N   UNL     1      12.676 -14.360   1.547  1.00  0.00    -0.248 NA
ATOM     44  C   UNL     1      11.233 -13.108   0.206  1.00  0.00     0.031 C 
ATOM     45  C   UNL     1      15.112 -10.680   2.306  1.00  0.00     0.029 A 
ATOM     46  N   UNL     1      14.929 -12.871   2.713  1.00  0.00    -0.354 N 
ATOM     47  C   UNL     1      11.641 -15.170   1.097  1.00  0.00     0.074 A 
ATOM     48  C   UNL     1      10.744 -14.331   0.336  1.00  0.00     0.031 C 
ATOM     49  C   UNL     1      16.144 -11.031   3.089  1.00  0.00     0.029 A 
ATOM     50  C   UNL     1      16.047 -12.455   3.393  1.00  0.00     0.049 A 
ATOM     51  H   UNL     1      14.606 -13.801   2.724  1.00  0.00     0.167 HD
ATOM     52  C   UNL     1      11.464 -16.500   1.281  1.00  0.00     0.031 A 
ATOM     53  C   UNL     1      16.897 -13.145   4.175  1.00  0.00     0.031 A 
ATOM     54  C   UNL     1      12.363 -17.333   2.032  1.00  0.00     0.049 A 
ATOM     55  C   UNL     1      16.668 -14.617   4.380  1.00  0.00     0.074 A 
ATOM     56  C   UNL     1      12.304 -18.700   2.237  1.00  0.00     0.029 A 
ATOM     57  N   UNL     1      13.484 -16.874   2.706  1.00  0.00    -0.354 N 
ATOM     58  N   UNL     1      15.724 -15.384   3.890  1.00  0.00    -0.248 NA
ATOM     59  C   UNL     1      17.633 -15.322   5.235  1.00  0.00     0.031 C 
ATOM     60  C   UNL     1      13.357 -19.059   3.084  1.00  0.00     0.029 A 
ATOM     61  C   UNL     1      14.112 -17.927   3.349  1.00  0.00     0.049 A 
ATOM     62  H   UNL     1      13.789 -15.938   2.725  1.00  0.00     0.167 HD
ATOM     63  C   UNL     1      15.999 -16.666   4.349  1.00  0.00     0.074 A 
ATOM     64  C   UNL     1      17.209 -16.574   5.142  1.00  0.00     0.031 C 
ATOM     65  C   UNL     1      15.316 -17.816   4.133  1.00  0.00     0.031 A 
BRANCH  52  66
ATOM     66  C   UNL     1      10.245 -17.129   0.663  1.00  0.00    -0.014 A 
ATOM     67  C   UNL     1      10.108 -17.243  -0.731  1.00  0.00     0.009 A 
ATOM     68  C   UNL     1       9.228 -17.638   1.486  1.00  0.00     0.009 A 
ATOM     69  C   UNL     1       8.961 -17.814  -1.286  1.00  0.00     0.001 A 
ATOM     70  C   UNL     1       8.098 -18.239   0.928  1.00  0.00     0.001 A 
ATOM     71  C   UNL     1       7.960 -18.317  -0.457  1.00  0.00     0.000 A 
ENDBRANCH  52  66
BRANCH  53  72
ATOM     72  C   UNL     1      18.054 -12.459   4.809  1.00  0.00    -0.014 A 
ATOM     73  C   UNL     1      19.366 -12.746   4.401  1.00  0.00     0.009 A 
ATOM     74  C   UNL     1      17.854 -11.520   5.834  1.00  0.00     0.009 A 
ATOM     75  C   UNL     1      20.453 -12.133   5.027  1.00  0.00     0.001 A 
ATOM     76  C   UNL     1      18.942 -10.884   6.436  1.00  0.00     0.001 A 
ATOM     77  C   UNL     1      20.241 -11.200   6.040  1.00  0.00     0.000 A 
ENDBRANCH  53  72
BRANCH  65  78
ATOM     78  C   UNL     1      15.884 -19.076   4.724  1.00  0.00    -0.014 A 
ATOM     79  C   UNL     1      15.866 -19.311   6.107  1.00  0.00     0.009 A 
ATOM     80  C   UNL     1      16.410 -20.061   3.873  1.00  0.00     0.009 A 
ATOM     81  C   UNL     1      16.399 -20.492   6.629  1.00  0.00     0.001 A 
ATOM     82  C   UNL     1      16.910 -21.255   4.394  1.00  0.00     0.001 A 
ATOM     83  C   UNL     1      16.914 -21.465   5.772  1.00  0.00     0.000 A 
ENDBRANCH  65  78
ENDBRANCH  39  40
ENDBRANCH  31  34
ENDBRANCH  29  30
ENDBRANCH  28  29
ENDBRANCH  27  28
ENDBRANCH   3  27
TORSDOF 16
