REMARK SMILES Cc1nc(C[N@@H+]2CCC[C@H]2C(=O)NCCCNC(=O)c2ccc(-c3c4nc(c(-c5ccccc5)c5ccc([nH]5)c(-c5ccccc5)c5nc(c(-c6ccccc6)c6ccc3[nH]6)C=C5)C=C4)cc2)cs1
REMARK SMILES IDX 15 1 14 2 13 3 11 4 12 5 10 7 6 8 7 9 8 11 9 12 5 13 4 14
REMARK SMILES IDX 1 15 2 16 3 17 69 18 68 19 16 20 17 21 18 22 19 24 20 25
REMARK SMILES IDX 21 26 67 27 22 28 66 29 23 30 24 31 25 32 60 33 26 34 65 35
REMARK SMILES IDX 59 36 61 37 27 38 64 39 58 40 57 41 28 43 50 44 35 45 49 46
REMARK SMILES IDX 36 47 39 48 48 49 62 50 37 51 38 52 47 54 63 55 40 56 29 57
REMARK SMILES IDX 30 58 34 59 31 60 33 61 32 62 51 63 52 64 56 65 53 66 55 67
REMARK SMILES IDX 54 68 41 69 42 70 46 71 43 72 45 73 44 74
REMARK H PARENT 13 6 6 10 17 23 61 42 39 53
REMARK Flexibility Score: inf
ROOT
ATOM      1  C   UNL     1       3.950  -5.811  -1.375  1.00  0.00     0.042 C 
ENDROOT
BRANCH   1   2
ATOM      2  C   UNL     1       4.366  -4.479  -1.988  1.00  0.00     0.118 C 
BRANCH   2   3
ATOM      3  N   UNL     1       3.592  -4.161  -3.175  1.00  0.00    -0.351 N 
ATOM      4  C   UNL     1       2.603  -3.272  -3.446  1.00  0.00     0.278 C 
ATOM      5  O   UNL     1       2.138  -3.349  -4.594  1.00  0.00    -0.268 OA
ATOM      6  H   UNL     1       3.839  -4.711  -3.954  1.00  0.00     0.163 HD
BRANCH   4   7
ATOM      7  C   UNL     1       2.017  -2.234  -2.458  1.00  0.00     0.274 C 
ATOM      8  N   UNL     1       2.795  -2.068  -1.223  1.00  0.00    -0.320 N 
ATOM      9  C   UNL     1       3.648  -0.898  -1.378  1.00  0.00     0.263 C 
ATOM     10  H   UNL     1       3.406  -2.874  -1.091  1.00  0.00     0.349 HD
ATOM     11  C   UNL     1       2.899   0.045  -2.294  1.00  0.00     0.068 C 
ATOM     12  C   UNL     1       2.005  -0.854  -3.134  1.00  0.00     0.081 C 
BRANCH   8  13
ATOM     13  C   UNL     1       2.015  -2.158   0.014  1.00  0.00     0.321 C 
BRANCH  13  14
ATOM     14  C   UNL     1       1.034  -1.046   0.241  1.00  0.00     0.106 A 
ATOM     15  C   UNL     1      -2.460  -0.015  -0.078  1.00  0.00     0.079 C 
ATOM     16  C   UNL     1      -1.000  -0.159   0.174  1.00  0.00     0.090 A 
ATOM     17  N   UNL     1      -0.286  -1.212  -0.163  1.00  0.00    -0.241 NA
ATOM     18  S   UNL     1      -0.135   1.101   0.956  1.00  0.00    -0.127 S 
ATOM     19  C   UNL     1       1.285   0.150   0.888  1.00  0.00     0.096 A 
ENDBRANCH  13  14
ENDBRANCH   8  13
ENDBRANCH   4   7
ENDBRANCH   2   3
ENDBRANCH   1   2
BRANCH   1  20
ATOM     20  C   UNL     1       4.266  -7.017  -2.257  1.00  0.00     0.118 C 
BRANCH  20  21
ATOM     21  N   UNL     1       5.696  -7.178  -2.499  1.00  0.00    -0.352 N 
ATOM     22  C   UNL     1       6.563  -8.175  -2.128  1.00  0.00     0.251 C 
ATOM     23  H   UNL     1       6.108  -6.448  -3.016  1.00  0.00     0.163 HD
ATOM     24  O   UNL     1       7.771  -8.009  -2.264  1.00  0.00    -0.269 OA
BRANCH  22  25
ATOM     25  C   UNL     1       6.058  -9.437  -1.548  1.00  0.00     0.039 A 
ATOM     26  C   UNL     1       6.741  -9.999  -0.465  1.00  0.00     0.014 A 
ATOM     27  C   UNL     1       4.939 -10.083  -2.078  1.00  0.00     0.014 A 
ATOM     28  C   UNL     1       6.252 -11.159   0.139  1.00  0.00     0.010 A 
ATOM     29  C   UNL     1       4.410 -11.197  -1.432  1.00  0.00     0.010 A 
ATOM     30  C   UNL     1       5.054 -11.739  -0.310  1.00  0.00    -0.014 A 
BRANCH  30  31
ATOM     31  C   UNL     1       4.436 -12.881   0.409  1.00  0.00     0.031 A 
ATOM     32  C   UNL     1       4.275 -14.215  -0.264  1.00  0.00     0.074 A 
ATOM     33  C   UNL     1       3.945 -12.688   1.649  1.00  0.00     0.049 A 
ATOM     34  N   UNL     1       3.692 -15.298   0.185  1.00  0.00    -0.248 NA
ATOM     35  C   UNL     1       4.819 -14.343  -1.625  1.00  0.00     0.031 C 
ATOM     36  C   UNL     1       4.000 -11.429   2.396  1.00  0.00     0.029 A 
ATOM     37  N   UNL     1       3.291 -13.547   2.495  1.00  0.00    -0.354 N 
ATOM     38  C   UNL     1       3.785 -16.229  -0.842  1.00  0.00     0.074 A 
ATOM     39  C   UNL     1       4.443 -15.572  -1.950  1.00  0.00     0.031 C 
ATOM     40  C   UNL     1       3.427 -11.605   3.597  1.00  0.00     0.029 A 
ATOM     41  C   UNL     1       2.924 -12.971   3.687  1.00  0.00     0.049 A 
ATOM     42  H   UNL     1       3.102 -14.486   2.270  1.00  0.00     0.167 HD
ATOM     43  C   UNL     1       3.374 -17.520  -0.854  1.00  0.00     0.031 A 
ATOM     44  C   UNL     1       2.245 -13.479   4.733  1.00  0.00     0.031 A 
ATOM     45  C   UNL     1       2.725 -18.176   0.250  1.00  0.00     0.049 A 
ATOM     46  C   UNL     1       1.774 -14.904   4.681  1.00  0.00     0.074 A 
ATOM     47  C   UNL     1       2.333 -19.499   0.356  1.00  0.00     0.029 A 
ATOM     48  N   UNL     1       2.364 -17.555   1.435  1.00  0.00    -0.354 N 
ATOM     49  N   UNL     1       1.936 -15.792   3.731  1.00  0.00    -0.248 NA
ATOM     50  C   UNL     1       1.026 -15.395   5.847  1.00  0.00     0.031 C 
ATOM     51  C   UNL     1       1.686 -19.666   1.585  1.00  0.00     0.029 A 
ATOM     52  C   UNL     1       1.722 -18.459   2.265  1.00  0.00     0.049 A 
ATOM     53  H   UNL     1       2.539 -16.611   1.655  1.00  0.00     0.167 HD
ATOM     54  C   UNL     1       1.325 -16.951   4.190  1.00  0.00     0.074 A 
ATOM     55  C   UNL     1       0.808 -16.659   5.511  1.00  0.00     0.031 C 
ATOM     56  C   UNL     1       1.199 -18.149   3.570  1.00  0.00     0.031 A 
BRANCH  43  57
ATOM     57  C   UNL     1       3.607 -18.309  -2.112  1.00  0.00    -0.014 A 
ATOM     58  C   UNL     1       4.898 -18.708  -2.492  1.00  0.00     0.009 A 
ATOM     59  C   UNL     1       2.516 -18.694  -2.907  1.00  0.00     0.009 A 
ATOM     60  C   UNL     1       5.096 -19.448  -3.660  1.00  0.00     0.001 A 
ATOM     61  C   UNL     1       2.714 -19.457  -4.060  1.00  0.00     0.001 A 
ATOM     62  C   UNL     1       4.003 -19.825  -4.440  1.00  0.00     0.000 A 
ENDBRANCH  43  57
BRANCH  44  63
ATOM     63  C   UNL     1       1.969 -12.631   5.921  1.00  0.00    -0.014 A 
ATOM     64  C   UNL     1       2.635 -12.868   7.133  1.00  0.00     0.009 A 
ATOM     65  C   UNL     1       1.040 -11.582   5.850  1.00  0.00     0.009 A 
ATOM     66  C   UNL     1       2.359 -12.085   8.256  1.00  0.00     0.001 A 
ATOM     67  C   UNL     1       0.787 -10.783   6.967  1.00  0.00     0.001 A 
ATOM     68  C   UNL     1       1.440 -11.041   8.171  1.00  0.00     0.000 A 
ENDBRANCH  44  63
BRANCH  56  69
ATOM     69  C   UNL     1       0.482 -19.235   4.320  1.00  0.00    -0.014 A 
ATOM     70  C   UNL     1      -0.912 -19.201   4.485  1.00  0.00     0.009 A 
ATOM     71  C   UNL     1       1.203 -20.321   4.838  1.00  0.00     0.009 A 
ATOM     72  C   UNL     1      -1.565 -20.220   5.179  1.00  0.00     0.001 A 
ATOM     73  C   UNL     1       0.544 -21.352   5.509  1.00  0.00     0.001 A 
ATOM     74  C   UNL     1      -0.838 -21.297   5.686  1.00  0.00     0.000 A 
ENDBRANCH  56  69
ENDBRANCH  30  31
ENDBRANCH  22  25
ENDBRANCH  20  21
ENDBRANCH   1  20
TORSDOF 12
