REMARK SMILES O=C(NCCCNC(=O)c1cc(F)ccc1N1CCCc2ccccc21)c1ccc(-c2c3nc(c(-c4ccccc4)c4ccc([nH]4)c(-c4ccccc4)c4nc(c(-c5ccccc5)c5ccc2[nH]5)C=C4)C=C3)cc1
REMARK SMILES IDX 4 1 3 2 1 3 2 4 27 6 28 7 74 8 29 9 73 10 30 11 31 12 32 13
REMARK SMILES IDX 67 14 33 15 72 16 66 17 68 18 34 19 71 20 65 21 64 22 35 24
REMARK SMILES IDX 57 25 42 26 56 27 43 28 46 29 55 30 69 31 44 32 45 33 54 35
REMARK SMILES IDX 70 36 47 37 36 38 37 39 41 40 38 41 40 42 39 43 58 44 59 45
REMARK SMILES IDX 63 46 60 47 62 48 61 49 48 50 49 51 53 52 50 53 52 54 51 55
REMARK SMILES IDX 5 56 6 57 7 58 8 59 9 61 10 62 11 63 16 64 12 65 15 66 13 67
REMARK SMILES IDX 14 68 17 69 18 70 26 71 19 72 21 73 25 74 20 75 22 76 24 77
REMARK SMILES IDX 23 78
REMARK H PARENT 3 5 68 23 46 34 7 60
REMARK Flexibility Score: inf
ROOT
ATOM      1  C   UNL     1       4.592  -1.240  -0.376  1.00  0.00     0.118 C 
ENDROOT
BRANCH   1   2
ATOM      2  N   UNL     1       3.155  -1.002  -0.431  1.00  0.00    -0.352 N 
ATOM      3  O   UNL     1       1.186   0.015  -0.025  1.00  0.00    -0.269 OA
ATOM      4  C   UNL     1       2.412   0.084  -0.034  1.00  0.00     0.251 C 
ATOM      5  H   UNL     1       2.630  -1.740  -0.815  1.00  0.00     0.163 HD
BRANCH   4   6
ATOM      6  C   UNL     1       3.081   1.324   0.416  1.00  0.00     0.039 A 
ATOM      7  C   UNL     1       4.199   1.817  -0.255  1.00  0.00     0.014 A 
ATOM      8  C   UNL     1       2.577   2.007   1.526  1.00  0.00     0.014 A 
ATOM      9  C   UNL     1       4.928   2.863   0.296  1.00  0.00     0.010 A 
ATOM     10  C   UNL     1       3.245   3.135   2.010  1.00  0.00     0.010 A 
ATOM     11  C   UNL     1       4.455   3.544   1.428  1.00  0.00    -0.014 A 
BRANCH  11  12
ATOM     12  C   UNL     1       5.223   4.702   1.952  1.00  0.00     0.031 A 
ATOM     13  C   UNL     1       5.811   4.686   3.336  1.00  0.00     0.074 A 
ATOM     14  C   UNL     1       5.419   5.766   1.150  1.00  0.00     0.049 A 
ATOM     15  N   UNL     1       6.541   5.598   3.931  1.00  0.00    -0.248 NA
ATOM     16  C   UNL     1       5.541   3.502   4.165  1.00  0.00     0.031 C 
ATOM     17  C   UNL     1       4.904   5.900  -0.216  1.00  0.00     0.029 A 
ATOM     18  N   UNL     1       6.124   6.924   1.353  1.00  0.00    -0.354 N 
ATOM     19  C   UNL     1       6.792   5.112   5.208  1.00  0.00     0.074 A 
ATOM     20  C   UNL     1       6.114   3.838   5.313  1.00  0.00     0.031 C 
ATOM     21  C   UNL     1       5.363   7.041  -0.749  1.00  0.00     0.029 A 
ATOM     22  C   UNL     1       6.138   7.754   0.259  1.00  0.00     0.049 A 
ATOM     23  H   UNL     1       6.576   7.140   2.200  1.00  0.00     0.167 HD
ATOM     24  C   UNL     1       7.522   5.674   6.203  1.00  0.00     0.031 A 
ATOM     25  C   UNL     1       6.699   8.964   0.084  1.00  0.00     0.031 A 
ATOM     26  C   UNL     1       8.190   6.947   6.098  1.00  0.00     0.049 A 
ATOM     27  C   UNL     1       7.460   9.585   1.217  1.00  0.00     0.074 A 
ATOM     28  C   UNL     1       8.983   7.585   7.036  1.00  0.00     0.029 A 
ATOM     29  N   UNL     1       8.132   7.782   4.991  1.00  0.00    -0.354 N 
ATOM     30  N   UNL     1       7.721   9.094   2.404  1.00  0.00    -0.248 NA
ATOM     31  C   UNL     1       8.009  10.926   0.981  1.00  0.00     0.031 C 
ATOM     32  C   UNL     1       9.350   8.834   6.523  1.00  0.00     0.029 A 
ATOM     33  C   UNL     1       8.848   8.943   5.236  1.00  0.00     0.049 A 
ATOM     34  H   UNL     1       7.653   7.579   4.155  1.00  0.00     0.167 HD
ATOM     35  C   UNL     1       8.490  10.054   3.048  1.00  0.00     0.074 A 
ATOM     36  C   UNL     1       8.665  11.146   2.112  1.00  0.00     0.031 C 
ATOM     37  C   UNL     1       9.011  10.027   4.300  1.00  0.00     0.031 A 
BRANCH  24  38
ATOM     38  C   UNL     1       7.596   4.933   7.513  1.00  0.00    -0.014 A 
ATOM     39  C   UNL     1       8.288   3.717   7.636  1.00  0.00     0.009 A 
ATOM     40  C   UNL     1       6.974   5.474   8.650  1.00  0.00     0.009 A 
ATOM     41  C   UNL     1       8.313   3.036   8.857  1.00  0.00     0.001 A 
ATOM     42  C   UNL     1       7.029   4.809   9.876  1.00  0.00     0.001 A 
ATOM     43  C   UNL     1       7.687   3.584   9.976  1.00  0.00     0.000 A 
ENDBRANCH  24  38
BRANCH  25  44
ATOM     44  C   UNL     1       6.558   9.660  -1.221  1.00  0.00    -0.014 A 
ATOM     45  C   UNL     1       7.670   9.831  -2.059  1.00  0.00     0.009 A 
ATOM     46  C   UNL     1       5.308  10.137  -1.644  1.00  0.00     0.009 A 
ATOM     47  C   UNL     1       7.535  10.484  -3.286  1.00  0.00     0.001 A 
ATOM     48  C   UNL     1       5.170  10.759  -2.886  1.00  0.00     0.001 A 
ATOM     49  C   UNL     1       6.285  10.940  -3.702  1.00  0.00     0.000 A 
ENDBRANCH  25  44
BRANCH  37  50
ATOM     50  C   UNL     1       9.862  11.197   4.710  1.00  0.00    -0.014 A 
ATOM     51  C   UNL     1       9.309  12.465   4.945  1.00  0.00     0.009 A 
ATOM     52  C   UNL     1      11.243  11.016   4.886  1.00  0.00     0.009 A 
ATOM     53  C   UNL     1      10.128  13.537   5.306  1.00  0.00     0.001 A 
ATOM     54  C   UNL     1      12.055  12.080   5.280  1.00  0.00     0.001 A 
ATOM     55  C   UNL     1      11.499  13.343   5.477  1.00  0.00     0.000 A 
ENDBRANCH  37  50
ENDBRANCH  11  12
ENDBRANCH   4   6
ENDBRANCH   1   2
BRANCH   1  56
ATOM     56  C   UNL     1       4.985  -2.318   0.622  1.00  0.00     0.042 C 
BRANCH  56  57
ATOM     57  C   UNL     1       4.442  -3.698   0.291  1.00  0.00     0.118 C 
BRANCH  57  58
ATOM     58  N   UNL     1       4.871  -4.165  -1.020  1.00  0.00    -0.352 N 
ATOM     59  C   UNL     1       5.683  -5.212  -1.383  1.00  0.00     0.253 C 
ATOM     60  H   UNL     1       4.519  -3.640  -1.775  1.00  0.00     0.163 HD
ATOM     61  O   UNL     1       5.971  -5.341  -2.568  1.00  0.00    -0.269 OA
BRANCH  59  62
ATOM     62  C   UNL     1       6.161  -6.173  -0.362  1.00  0.00     0.066 A 
ATOM     63  C   UNL     1       5.201  -6.744   0.492  1.00  0.00     0.055 A 
ATOM     64  C   UNL     1       7.500  -6.609  -0.307  1.00  0.00     0.054 A 
ATOM     65  C   UNL     1       5.587  -7.649   1.469  1.00  0.00     0.124 A 
ATOM     66  C   UNL     1       7.851  -7.542   0.695  1.00  0.00     0.030 A 
ATOM     67  F   UNL     1       4.666  -8.146   2.304  1.00  0.00    -0.207 F 
ATOM     68  C   UNL     1       6.907  -8.044   1.590  1.00  0.00     0.041 A 
BRANCH  64  69
ATOM     69  N   UNL     1       8.506  -6.230  -1.213  1.00  0.00    -0.341 N 
ATOM     70  C   UNL     1       8.924  -4.827  -1.243  1.00  0.00     0.123 C 
ATOM     71  C   UNL     1       9.159  -7.091  -2.124  1.00  0.00     0.044 A 
ATOM     72  C   UNL     1      10.443  -4.754  -1.132  1.00  0.00     0.027 C 
ATOM     73  C   UNL     1      10.423  -6.768  -2.655  1.00  0.00    -0.024 A 
ATOM     74  C   UNL     1       8.562  -8.301  -2.522  1.00  0.00     0.026 A 
ATOM     75  C   UNL     1      11.097  -5.464  -2.313  1.00  0.00     0.039 C 
ATOM     76  C   UNL     1      11.057  -7.649  -3.548  1.00  0.00     0.006 A 
ATOM     77  C   UNL     1       9.193  -9.168  -3.414  1.00  0.00     0.002 A 
ATOM     78  C   UNL     1      10.445  -8.844  -3.922  1.00  0.00     0.000 A 
ENDBRANCH  64  69
ENDBRANCH  59  62
ENDBRANCH  57  58
ENDBRANCH  56  57
ENDBRANCH   1  56
TORSDOF 11
