REMARK SMILES O=C(CCn1ccnc1)N[C@H]1C=C[C@H](C(=O)NCCCNC(=O)c2ccc(-c3c4nc(c(-c5ccccc5)c5ccc([nH]5)c(-c5ccccc5)c5nc(c(-c6ccccc6)c6ccc3[nH]6)C=C5)C=C4)cc2)C1
REMARK SMILES IDX 18 1 17 2 15 3 16 4 14 6 11 7 12 8 72 9 13 10 10 11 1 12
REMARK SMILES IDX 2 13 3 15 4 16 5 17 6 18 9 19 7 20 8 21 19 22 20 23 21 24
REMARK SMILES IDX 22 25 23 27 24 28 25 29 71 30 26 31 70 32 27 33 28 34 29 35
REMARK SMILES IDX 64 36 30 37 69 38 63 39 65 40 31 41 68 42 62 43 61 44 32 46
REMARK SMILES IDX 54 47 39 48 53 49 40 50 43 51 52 52 66 53 41 54 42 55 51 57
REMARK SMILES IDX 67 58 44 59 33 60 34 61 38 62 35 63 37 64 36 65 55 66 56 67
REMARK SMILES IDX 60 68 57 69 59 70 58 71 45 72 46 73 50 74 47 75 49 76 48 77
REMARK H PARENT 17 5 10 14 21 26 65 45 43 56
REMARK Flexibility Score: inf
ROOT
ATOM      1  C   UNL     1       1.955   4.760   3.784  1.00  0.00     0.117 C 
ENDROOT
BRANCH   1   2
ATOM      2  N   UNL     1       1.404   3.813   4.746  1.00  0.00    -0.356 N 
ATOM      3  C   UNL     1       1.764   2.518   5.010  1.00  0.00     0.227 C 
ATOM      4  O   UNL     1       1.176   1.935   5.923  1.00  0.00    -0.274 OA
ATOM      5  H   UNL     1       0.658   4.157   5.289  1.00  0.00     0.163 HD
BRANCH   3   6
ATOM      6  C   UNL     1       2.903   1.879   4.205  1.00  0.00     0.103 C 
ATOM      7  C   UNL     1       2.241   0.273   2.461  1.00  0.00     0.106 C 
ATOM      8  C   UNL     1       2.848  -0.413   3.633  1.00  0.00    -0.006 C 
ATOM      9  C   UNL     1       2.571   1.743   2.716  1.00  0.00     0.047 C 
ATOM     10  C   UNL     1       3.189   0.456   4.592  1.00  0.00    -0.016 C 
BRANCH   7  11
ATOM     11  N   UNL     1       2.854  -0.194   1.246  1.00  0.00    -0.350 N 
ATOM     12  O   UNL     1       1.133   0.488  -0.112  1.00  0.00    -0.275 OA
ATOM     13  C   UNL     1       2.242  -0.018   0.027  1.00  0.00     0.222 C 
ATOM     14  H   UNL     1       3.728  -0.646   1.288  1.00  0.00     0.164 HD
BRANCH  13  15
ATOM     15  C   UNL     1       3.067  -0.458  -1.160  1.00  0.00     0.122 C 
BRANCH  15  16
ATOM     16  C   UNL     1       3.954   0.679  -1.657  1.00  0.00     0.133 C 
BRANCH  16  17
ATOM     17  N   UNL     1       5.000   1.055  -0.725  1.00  0.00    -0.337 N 
ATOM     18  C   UNL     1       5.194   2.296  -0.187  1.00  0.00     0.107 A 
ATOM     19  C   UNL     1       5.939   0.222  -0.189  1.00  0.00     0.199 A 
ATOM     20  C   UNL     1       6.210   2.131   0.725  1.00  0.00     0.130 A 
ATOM     21  N   UNL     1       6.652   0.834   0.728  1.00  0.00    -0.245 NA
ENDBRANCH  16  17
ENDBRANCH  15  16
ENDBRANCH  13  15
ENDBRANCH   7  11
ENDBRANCH   3   6
ENDBRANCH   1   2
BRANCH   1  22
ATOM     22  C   UNL     1       1.040   5.000   2.576  1.00  0.00     0.042 C 
BRANCH  22  23
ATOM     23  C   UNL     1      -0.221   5.768   2.922  1.00  0.00     0.118 C 
BRANCH  23  24
ATOM     24  N   UNL     1       0.017   7.185   3.185  1.00  0.00    -0.352 N 
ATOM     25  C   UNL     1      -0.933   8.161   3.436  1.00  0.00     0.251 C 
ATOM     26  H   UNL     1       0.957   7.479   3.184  1.00  0.00     0.163 HD
ATOM     27  O   UNL     1      -0.678   9.346   3.295  1.00  0.00    -0.269 OA
BRANCH  25  28
ATOM     28  C   UNL     1      -2.269   7.727   3.884  1.00  0.00     0.039 A 
ATOM     29  C   UNL     1      -3.437   8.306   3.382  1.00  0.00     0.014 A 
ATOM     30  C   UNL     1      -2.327   6.674   4.791  1.00  0.00     0.014 A 
ATOM     31  C   UNL     1      -4.665   7.755   3.745  1.00  0.00     0.010 A 
ATOM     32  C   UNL     1      -3.513   6.024   5.000  1.00  0.00     0.010 A 
ATOM     33  C   UNL     1      -4.691   6.597   4.540  1.00  0.00    -0.014 A 
BRANCH  33  34
ATOM     34  C   UNL     1      -5.938   5.899   4.824  1.00  0.00     0.031 A 
ATOM     35  C   UNL     1      -6.700   5.484   3.617  1.00  0.00     0.074 A 
ATOM     36  C   UNL     1      -6.257   5.449   6.059  1.00  0.00     0.049 A 
ATOM     37  N   UNL     1      -7.837   5.939   3.210  1.00  0.00    -0.248 NA
ATOM     38  C   UNL     1      -6.061   4.547   2.676  1.00  0.00     0.031 C 
ATOM     39  C   UNL     1      -5.438   5.482   7.279  1.00  0.00     0.029 A 
ATOM     40  N   UNL     1      -7.346   4.741   6.458  1.00  0.00    -0.354 N 
ATOM     41  C   UNL     1      -8.163   5.199   2.077  1.00  0.00     0.074 A 
ATOM     42  C   UNL     1      -6.962   4.501   1.693  1.00  0.00     0.031 C 
ATOM     43  C   UNL     1      -5.940   4.616   8.188  1.00  0.00     0.029 A 
ATOM     44  C   UNL     1      -7.208   4.117   7.694  1.00  0.00     0.049 A 
ATOM     45  H   UNL     1      -8.166   4.675   5.917  1.00  0.00     0.167 HD
ATOM     46  C   UNL     1      -9.461   5.010   1.708  1.00  0.00     0.031 A 
ATOM     47  C   UNL     1      -8.066   3.233   8.259  1.00  0.00     0.031 A 
ATOM     48  C   UNL     1     -10.344   5.904   2.414  1.00  0.00     0.049 A 
ATOM     49  C   UNL     1      -9.368   3.389   7.575  1.00  0.00     0.074 A 
ATOM     50  C   UNL     1     -10.486   7.274   2.509  1.00  0.00     0.029 A 
ATOM     51  N   UNL     1     -11.007   5.377   3.496  1.00  0.00    -0.354 N 
ATOM     52  N   UNL     1     -10.102   4.460   7.665  1.00  0.00    -0.248 NA
ATOM     53  C   UNL     1      -9.645   2.534   6.433  1.00  0.00     0.031 C 
ATOM     54  C   UNL     1     -10.816   7.513   3.877  1.00  0.00     0.029 A 
ATOM     55  C   UNL     1     -10.932   6.280   4.522  1.00  0.00     0.049 A 
ATOM     56  H   UNL     1     -11.457   4.502   3.528  1.00  0.00     0.167 HD
ATOM     57  C   UNL     1     -10.596   4.653   6.383  1.00  0.00     0.074 A 
ATOM     58  C   UNL     1     -10.377   3.378   5.700  1.00  0.00     0.031 C 
ATOM     59  C   UNL     1     -10.867   5.909   5.919  1.00  0.00     0.031 A 
BRANCH  46  60
ATOM     60  C   UNL     1      -9.980   3.736   1.080  1.00  0.00    -0.014 A 
ATOM     61  C   UNL     1     -11.348   3.659   0.756  1.00  0.00     0.009 A 
ATOM     62  C   UNL     1      -9.264   2.524   1.074  1.00  0.00     0.009 A 
ATOM     63  C   UNL     1     -11.979   2.429   0.533  1.00  0.00     0.001 A 
ATOM     64  C   UNL     1      -9.882   1.298   0.811  1.00  0.00     0.001 A 
ATOM     65  C   UNL     1     -11.246   1.248   0.572  1.00  0.00     0.000 A 
ENDBRANCH  46  60
BRANCH  47  66
ATOM     66  C   UNL     1      -7.783   2.083   9.144  1.00  0.00    -0.014 A 
ATOM     67  C   UNL     1      -8.809   1.492   9.899  1.00  0.00     0.009 A 
ATOM     68  C   UNL     1      -6.571   1.380   9.022  1.00  0.00     0.009 A 
ATOM     69  C   UNL     1      -8.645   0.222  10.469  1.00  0.00     0.001 A 
ATOM     70  C   UNL     1      -6.407   0.112   9.592  1.00  0.00     0.001 A 
ATOM     71  C   UNL     1      -7.451  -0.475  10.300  1.00  0.00     0.000 A 
ENDBRANCH  47  66
BRANCH  59  72
ATOM     72  C   UNL     1     -10.869   7.043   6.916  1.00  0.00    -0.014 A 
ATOM     73  C   UNL     1      -9.738   7.431   7.656  1.00  0.00     0.009 A 
ATOM     74  C   UNL     1     -12.023   7.836   7.003  1.00  0.00     0.009 A 
ATOM     75  C   UNL     1      -9.775   8.562   8.481  1.00  0.00     0.001 A 
ATOM     76  C   UNL     1     -12.053   8.975   7.809  1.00  0.00     0.001 A 
ATOM     77  C   UNL     1     -10.932   9.335   8.553  1.00  0.00     0.000 A 
ENDBRANCH  59  72
ENDBRANCH  33  34
ENDBRANCH  25  28
ENDBRANCH  23  24
ENDBRANCH  22  23
ENDBRANCH   1  22
TORSDOF 14
