REMARK SMILES O=C(NCCCNC(=O)c1ccc(Br)c(NC(=S)NC(=O)c2cccs2)c1)c1ccc(-c2c3nc(c(-c4ccccc4)c4ccc([nH]4)c(-c4ccccc4)c4nc(c(-c5ccccc5)c5ccc2[nH]5)C=C4)C=C3)cc1
REMARK SMILES IDX 6 1 5 2 4 3 3 4 1 5 2 6 28 8 29 9 75 10 30 11 74 12 31 13
REMARK SMILES IDX 32 14 33 15 68 16 34 17 73 18 67 19 69 20 35 21 72 22 66 23
REMARK SMILES IDX 65 24 36 26 58 27 43 28 57 29 44 30 47 31 56 32 70 33 45 34
REMARK SMILES IDX 46 35 55 37 71 38 48 39 37 40 38 41 42 42 39 43 41 44 40 45
REMARK SMILES IDX 59 46 60 47 64 48 61 49 63 50 62 51 49 52 50 53 54 54 51 55
REMARK SMILES IDX 53 56 52 57 7 58 8 59 9 61 10 62 11 63 27 64 12 65 15 66
REMARK SMILES IDX 13 67 14 68 16 69 17 71 18 72 19 73 20 74 21 76 22 77 23 78
REMARK SMILES IDX 26 79 24 80 25 81
REMARK H PARENT 3 7 69 25 47 36 7 60 16 70 19 75
REMARK Flexibility Score: inf
ROOT
ATOM      1  C   UNL     1       4.170  -2.105  -2.839  1.00  0.00     0.118 C 
ENDROOT
BRANCH   1   2
ATOM      2  C   UNL     1       4.828  -1.589  -1.571  1.00  0.00     0.042 C 
BRANCH   2   3
ATOM      3  C   UNL     1       4.440  -0.165  -1.209  1.00  0.00     0.118 C 
BRANCH   3   4
ATOM      4  N   UNL     1       3.000   0.011  -1.040  1.00  0.00    -0.352 N 
ATOM      5  O   UNL     1       1.028   0.113   0.056  1.00  0.00    -0.269 OA
ATOM      6  C   UNL     1       2.253   0.168   0.102  1.00  0.00     0.251 C 
ATOM      7  H   UNL     1       2.483   0.018  -1.878  1.00  0.00     0.163 HD
BRANCH   6   8
ATOM      8  C   UNL     1       2.938   0.374   1.391  1.00  0.00     0.039 A 
ATOM      9  C   UNL     1       4.036   1.229   1.463  1.00  0.00     0.014 A 
ATOM     10  C   UNL     1       2.501  -0.309   2.528  1.00  0.00     0.014 A 
ATOM     11  C   UNL     1       4.825   1.235   2.599  1.00  0.00     0.010 A 
ATOM     12  C   UNL     1       3.215  -0.183   3.722  1.00  0.00     0.010 A 
ATOM     13  C   UNL     1       4.403   0.562   3.756  1.00  0.00    -0.014 A 
BRANCH  13  14
ATOM     14  C   UNL     1       5.180   0.747   5.006  1.00  0.00     0.031 A 
ATOM     15  C   UNL     1       5.818  -0.412   5.715  1.00  0.00     0.074 A 
ATOM     16  C   UNL     1       5.327   2.000   5.480  1.00  0.00     0.049 A 
ATOM     17  N   UNL     1       6.540  -0.405   6.808  1.00  0.00    -0.248 NA
ATOM     18  C   UNL     1       5.620  -1.750   5.136  1.00  0.00     0.031 C 
ATOM     19  C   UNL     1       4.753   3.206   4.872  1.00  0.00     0.029 A 
ATOM     20  N   UNL     1       6.018   2.476   6.562  1.00  0.00    -0.354 N 
ATOM     21  C   UNL     1       6.864  -1.731   7.060  1.00  0.00     0.074 A 
ATOM     22  C   UNL     1       6.234  -2.521   6.023  1.00  0.00     0.031 C 
ATOM     23  C   UNL     1       5.165   4.283   5.551  1.00  0.00     0.029 A 
ATOM     24  C   UNL     1       5.947   3.841   6.697  1.00  0.00     0.049 A 
ATOM     25  H   UNL     1       6.516   1.897   7.183  1.00  0.00     0.167 HD
ATOM     26  C   UNL     1       7.618  -2.240   8.064  1.00  0.00     0.031 A 
ATOM     27  C   UNL     1       6.426   4.654   7.654  1.00  0.00     0.031 A 
ATOM     28  C   UNL     1       8.223  -1.444   9.102  1.00  0.00     0.049 A 
ATOM     29  C   UNL     1       7.196   4.051   8.790  1.00  0.00     0.074 A 
ATOM     30  C   UNL     1       9.027  -1.863  10.149  1.00  0.00     0.029 A 
ATOM     31  N   UNL     1       8.080  -0.071   9.236  1.00  0.00    -0.354 N 
ATOM     32  N   UNL     1       7.526   2.799   8.992  1.00  0.00    -0.248 NA
ATOM     33  C   UNL     1       7.664   4.976   9.829  1.00  0.00     0.031 C 
ATOM     34  C   UNL     1       9.300  -0.759  10.961  1.00  0.00     0.029 A 
ATOM     35  C   UNL     1       8.748   0.366  10.370  1.00  0.00     0.049 A 
ATOM     36  H   UNL     1       7.579   0.508   8.617  1.00  0.00     0.167 HD
ATOM     37  C   UNL     1       8.267   2.790  10.165  1.00  0.00     0.074 A 
ATOM     38  C   UNL     1       8.357   4.165  10.613  1.00  0.00     0.031 C 
ATOM     39  C   UNL     1       8.824   1.736  10.811  1.00  0.00     0.031 A 
BRANCH  26  40
ATOM     40  C   UNL     1       7.798  -3.734   8.118  1.00  0.00    -0.014 A 
ATOM     41  C   UNL     1       8.544  -4.424   7.149  1.00  0.00     0.009 A 
ATOM     42  C   UNL     1       7.253  -4.459   9.191  1.00  0.00     0.009 A 
ATOM     43  C   UNL     1       8.707  -5.809   7.233  1.00  0.00     0.001 A 
ATOM     44  C   UNL     1       7.449  -5.838   9.293  1.00  0.00     0.001 A 
ATOM     45  C   UNL     1       8.166  -6.513   8.308  1.00  0.00     0.000 A 
ENDBRANCH  26  40
BRANCH  27  46
ATOM     46  C   UNL     1       6.154   6.114   7.594  1.00  0.00    -0.014 A 
ATOM     47  C   UNL     1       7.199   7.034   7.423  1.00  0.00     0.009 A 
ATOM     48  C   UNL     1       4.840   6.596   7.712  1.00  0.00     0.009 A 
ATOM     49  C   UNL     1       6.937   8.405   7.412  1.00  0.00     0.001 A 
ATOM     50  C   UNL     1       4.576   7.964   7.656  1.00  0.00     0.001 A 
ATOM     51  C   UNL     1       5.626   8.869   7.522  1.00  0.00     0.000 A 
ENDBRANCH  27  46
BRANCH  39  52
ATOM     52  C   UNL     1       9.626   2.039  12.048  1.00  0.00    -0.014 A 
ATOM     53  C   UNL     1       9.022   2.515  13.223  1.00  0.00     0.009 A 
ATOM     54  C   UNL     1      11.013   1.818  12.041  1.00  0.00     0.009 A 
ATOM     55  C   UNL     1       9.797   2.808  14.347  1.00  0.00     0.001 A 
ATOM     56  C   UNL     1      11.779   2.071  13.179  1.00  0.00     0.001 A 
ATOM     57  C   UNL     1      11.173   2.579  14.326  1.00  0.00     0.000 A 
ENDBRANCH  39  52
ENDBRANCH  13  14
ENDBRANCH   6   8
ENDBRANCH   3   4
ENDBRANCH   2   3
ENDBRANCH   1   2
BRANCH   1  58
ATOM     58  N   UNL     1       4.325  -1.185  -3.949  1.00  0.00    -0.352 N 
ATOM     59  C   UNL     1       5.074  -1.214  -5.097  1.00  0.00     0.251 C 
ATOM     60  H   UNL     1       3.779  -0.370  -3.860  1.00  0.00     0.163 HD
ATOM     61  O   UNL     1       5.150  -0.136  -5.680  1.00  0.00    -0.269 OA
BRANCH  59  62
ATOM     62  C   UNL     1       5.734  -2.568  -5.565  1.00  0.00     0.041 A 
ATOM     63  C   UNL     1       4.546  -3.925  -5.327  1.00  0.00     0.015 A 
ATOM     64  C   UNL     1       7.554  -3.190  -6.299  1.00  0.00     0.041 A 
ATOM     65  C   UNL     1       5.114  -5.572  -5.698  1.00  0.00     0.018 A 
ATOM     66  C   UNL     1       8.007  -4.761  -6.511  1.00  0.00     0.055 A 
ATOM     67  C   UNL     1       6.777  -5.946  -6.249  1.00  0.00     0.041 A 
ATOM     68  Br  UNL     1       7.249  -7.776  -6.389  1.00  0.00    -0.049 Br
BRANCH  66  69
ATOM     69  N   UNL     1       9.416  -4.796  -6.579  1.00  0.00    -0.331 N 
ATOM     70  H   UNL     1       9.804  -5.683  -6.762  1.00  0.00     0.169 HD
BRANCH  69  71
ATOM     71  C   UNL     1      10.345  -3.762  -6.425  1.00  0.00     0.177 C 
ATOM     72  S   UNL     1      11.964  -4.192  -6.579  1.00  0.00    -0.040 S 
BRANCH  71  73
ATOM     73  N   UNL     1      10.100  -2.349  -6.170  1.00  0.00    -0.298 N 
ATOM     74  C   UNL     1       9.202  -1.124  -5.928  1.00  0.00     0.267 C 
ATOM     75  H   UNL     1      11.008  -1.970  -6.133  1.00  0.00     0.172 HD
ATOM     76  O   UNL     1       9.731  -0.015  -5.985  1.00  0.00    -0.268 OA
BRANCH  74  77
ATOM     77  C   UNL     1       7.716  -1.331  -5.591  1.00  0.00     0.092 A 
ATOM     78  C   UNL     1       7.479  -2.496  -4.365  1.00  0.00     0.025 A 
ATOM     79  S   UNL     1       6.504  -1.700  -7.528  1.00  0.00    -0.139 S 
ATOM     80  C   UNL     1       6.624  -4.089  -4.985  1.00  0.00     0.012 A 
ATOM     81  C   UNL     1       5.984  -3.875  -6.854  1.00  0.00     0.065 A 
ENDBRANCH  74  77
ENDBRANCH  71  73
ENDBRANCH  69  71
ENDBRANCH  66  69
ENDBRANCH  59  62
ENDBRANCH   1  58
TORSDOF 14
