REMARK SMILES CC(C)CCOc1ccccc1-c1cc(C(=O)NCCCNC(=O)c2ccc(-c3c4nc(c(-c5ccccc5)c5ccc([nH]5)c(-c5ccccc5)c5nc(c(-c6ccccc6)c6ccc3[nH]6)C=C5)C=C4)cc2)no1
REMARK SMILES IDX 16 1 17 2 18 3 15 5 13 6 14 7 74 8 73 9 12 10 7 11 8 12 9 13
REMARK SMILES IDX 11 14 10 15 6 16 5 17 4 18 2 19 1 20 3 21 19 22 20 23 21 24
REMARK SMILES IDX 22 25 23 26 24 28 25 29 26 30 72 31 27 32 71 33 28 34 29 35
REMARK SMILES IDX 30 36 65 37 31 38 70 39 64 40 66 41 32 42 69 43 63 44 62 45
REMARK SMILES IDX 33 47 55 48 40 49 54 50 41 51 44 52 53 53 67 54 42 55 43 56
REMARK SMILES IDX 52 58 68 59 45 60 34 61 35 62 39 63 36 64 38 65 37 66 56 67
REMARK SMILES IDX 57 68 61 69 58 70 60 71 59 72 46 73 47 74 51 75 48 76 50 77
REMARK SMILES IDX 49 78
REMARK H PARENT 18 4 22 27 66 46 44 57
REMARK Flexibility Score: inf
ROOT
ATOM      1  C   UNL     1      -1.638   2.887  -2.660  1.00  0.00     0.273 C 
ATOM      2  O   UNL     1      -1.785   2.501  -3.820  1.00  0.00    -0.267 OA
ATOM      3  N   UNL     1      -2.553   3.815  -2.202  1.00  0.00    -0.351 N 
ATOM      4  H   UNL     1      -3.113   4.201  -2.913  1.00  0.00     0.163 HD
ENDROOT
BRANCH   1   5
ATOM      5  C   UNL     1      -0.521   2.426  -1.819  1.00  0.00     0.171 A 
ATOM      6  C   UNL     1       1.385   2.501   0.357  1.00  0.00     0.171 A 
ATOM      7  C   UNL     1       0.035   3.188  -0.228  1.00  0.00     0.088 A 
ATOM      8  O   UNL     1       1.958   1.221  -0.904  1.00  0.00    -0.355 OA
ATOM      9  N   UNL     1       0.557   1.238  -2.349  1.00  0.00    -0.074 NA
BRANCH   6  10
ATOM     10  C   UNL     1       1.778   2.303   1.742  1.00  0.00     0.062 A 
ATOM     11  C   UNL     1       0.754   2.000   2.675  1.00  0.00     0.130 A 
ATOM     12  C   UNL     1       1.073   1.710   3.994  1.00  0.00     0.047 A 
ATOM     13  C   UNL     1       2.410   1.726   4.389  1.00  0.00     0.004 A 
ATOM     14  C   UNL     1       3.109   2.325   2.142  1.00  0.00     0.016 A 
ATOM     15  C   UNL     1       3.421   2.048   3.474  1.00  0.00     0.001 A 
BRANCH  11  16
ATOM     16  O   UNL     1      -0.584   2.091   2.344  1.00  0.00    -0.493 OA
BRANCH  16  17
ATOM     17  C   UNL     1      -1.136   0.904   1.743  1.00  0.00     0.230 C 
BRANCH  17  18
ATOM     18  C   UNL     1      -1.240   1.016   0.201  1.00  0.00     0.044 C 
BRANCH  18  19
ATOM     19  C   UNL     1       0.280   1.073  -0.519  1.00  0.00    -0.014 C 
ATOM     20  C   UNL     1       0.454  -0.632  -0.947  1.00  0.00     0.007 C 
ATOM     21  C   UNL     1       1.448   2.678  -1.617  1.00  0.00     0.007 C 
ENDBRANCH  18  19
ENDBRANCH  17  18
ENDBRANCH  16  17
ENDBRANCH  11  16
ENDBRANCH   6  10
ENDBRANCH   1   5
BRANCH   3  22
ATOM     22  C   UNL     1      -2.854   4.335  -0.878  1.00  0.00     0.118 C 
BRANCH  22  23
ATOM     23  C   UNL     1      -2.335   5.750  -0.646  1.00  0.00     0.042 C 
BRANCH  23  24
ATOM     24  C   UNL     1      -3.227   6.822  -1.258  1.00  0.00     0.118 C 
BRANCH  24  25
ATOM     25  N   UNL     1      -4.569   6.806  -0.687  1.00  0.00    -0.352 N 
ATOM     26  C   UNL     1      -5.271   7.781  -0.029  1.00  0.00     0.251 C 
ATOM     27  H   UNL     1      -5.051   5.954  -0.792  1.00  0.00     0.163 HD
ATOM     28  O   UNL     1      -6.292   7.483   0.583  1.00  0.00    -0.269 OA
BRANCH  26  29
ATOM     29  C   UNL     1      -4.805   9.181  -0.050  1.00  0.00     0.039 A 
ATOM     30  C   UNL     1      -4.954   9.958   1.101  1.00  0.00     0.014 A 
ATOM     31  C   UNL     1      -4.259   9.738  -1.208  1.00  0.00     0.014 A 
ATOM     32  C   UNL     1      -4.502  11.277   1.105  1.00  0.00     0.010 A 
ATOM     33  C   UNL     1      -3.723  11.019  -1.174  1.00  0.00     0.010 A 
ATOM     34  C   UNL     1      -3.847  11.805  -0.021  1.00  0.00    -0.014 A 
BRANCH  34  35
ATOM     35  C   UNL     1      -3.284  13.176  -0.005  1.00  0.00     0.031 A 
ATOM     36  C   UNL     1      -3.796  14.219  -0.959  1.00  0.00     0.074 A 
ATOM     37  C   UNL     1      -2.274  13.464   0.839  1.00  0.00     0.049 A 
ATOM     38  N   UNL     1      -3.399  15.456  -1.117  1.00  0.00    -0.248 NA
ATOM     39  C   UNL     1      -4.882  13.817  -1.869  1.00  0.00     0.031 C 
ATOM     40  C   UNL     1      -1.669  12.527   1.790  1.00  0.00     0.029 A 
ATOM     41  N   UNL     1      -1.577  14.630   1.035  1.00  0.00    -0.354 N 
ATOM     42  C   UNL     1      -4.177  15.973  -2.145  1.00  0.00     0.074 A 
ATOM     43  C   UNL     1      -5.026  14.902  -2.615  1.00  0.00     0.031 C 
ATOM     44  C   UNL     1      -0.722  13.166   2.494  1.00  0.00     0.029 A 
ATOM     45  C   UNL     1      -0.610  14.536   2.007  1.00  0.00     0.049 A 
ATOM     46  H   UNL     1      -1.753  15.454   0.527  1.00  0.00     0.167 HD
ATOM     47  C   UNL     1      -4.199  17.234  -2.639  1.00  0.00     0.031 A 
ATOM     48  C   UNL     1       0.277  15.448   2.447  1.00  0.00     0.031 A 
ATOM     49  C   UNL     1      -3.346  18.295  -2.174  1.00  0.00     0.049 A 
ATOM     50  C   UNL     1       0.268  16.824   1.839  1.00  0.00     0.074 A 
ATOM     51  C   UNL     1      -3.318  19.617  -2.582  1.00  0.00     0.029 A 
ATOM     52  N   UNL     1      -2.365  18.154  -1.204  1.00  0.00    -0.354 N 
ATOM     53  N   UNL     1      -0.523  17.317   0.917  1.00  0.00    -0.248 NA
ATOM     54  C   UNL     1       1.270  17.772   2.343  1.00  0.00     0.031 C 
ATOM     55  C   UNL     1      -2.270  20.257  -1.914  1.00  0.00     0.029 A 
ATOM     56  C   UNL     1      -1.701  19.356  -1.028  1.00  0.00     0.049 A 
ATOM     57  H   UNL     1      -2.170  17.323  -0.714  1.00  0.00     0.167 HD
ATOM     58  C   UNL     1      -0.136  18.642   0.756  1.00  0.00     0.074 A 
ATOM     59  C   UNL     1       0.943  18.879   1.692  1.00  0.00     0.031 C 
ATOM     60  C   UNL     1      -0.629  19.578  -0.091  1.00  0.00     0.031 A 
BRANCH  47  61
ATOM     61  C   UNL     1      -5.168  17.531  -3.751  1.00  0.00    -0.014 A 
ATOM     62  C   UNL     1      -6.555  17.529  -3.532  1.00  0.00     0.009 A 
ATOM     63  C   UNL     1      -4.685  17.867  -5.026  1.00  0.00     0.009 A 
ATOM     64  C   UNL     1      -7.438  17.822  -4.574  1.00  0.00     0.001 A 
ATOM     65  C   UNL     1      -5.568  18.195  -6.056  1.00  0.00     0.001 A 
ATOM     66  C   UNL     1      -6.943  18.162  -5.833  1.00  0.00     0.000 A 
ENDBRANCH  47  61
BRANCH  48  67
ATOM     67  C   UNL     1       1.254  15.095   3.512  1.00  0.00    -0.014 A 
ATOM     68  C   UNL     1       1.205  15.723   4.766  1.00  0.00     0.009 A 
ATOM     69  C   UNL     1       2.264  14.150   3.269  1.00  0.00     0.009 A 
ATOM     70  C   UNL     1       2.172  15.446   5.736  1.00  0.00     0.001 A 
ATOM     71  C   UNL     1       3.205  13.845   4.255  1.00  0.00     0.001 A 
ATOM     72  C   UNL     1       3.168  14.505   5.481  1.00  0.00     0.000 A 
ENDBRANCH  48  67
BRANCH  60  73
ATOM     73  C   UNL     1      -0.037  20.959  -0.013  1.00  0.00    -0.014 A 
ATOM     74  C   UNL     1       1.281  21.220  -0.421  1.00  0.00     0.009 A 
ATOM     75  C   UNL     1      -0.829  22.025   0.443  1.00  0.00     0.009 A 
ATOM     76  C   UNL     1       1.805  22.512  -0.332  1.00  0.00     0.001 A 
ATOM     77  C   UNL     1      -0.316  23.322   0.492  1.00  0.00     0.001 A 
ATOM     78  C   UNL     1       1.005  23.561   0.117  1.00  0.00     0.000 A 
ENDBRANCH  60  73
ENDBRANCH  34  35
ENDBRANCH  26  29
ENDBRANCH  24  25
ENDBRANCH  23  24
ENDBRANCH  22  23
ENDBRANCH   3  22
TORSDOF 15
