REMARK SMILES Cc1ccc(N(CC(=O)NCCCNC(=O)c2ccc(-c3c4nc(c(-c5ccccc5)c5ccc([nH]5)c(-c5ccccc5)c5nc(c(-c6ccccc6)c6ccc3[nH]6)C=C5)C=C4)cc2)C(=O)C[C@H]2C[NH2+]CCO2)cc1
REMARK SMILES IDX 11 1 10 2 8 3 9 4 7 6 6 7 5 8 1 9 2 10 3 11 75 12 4 13 74 14
REMARK SMILES IDX 65 15 66 16 67 17 68 18 69 19 73 20 70 21 72 22 71 23 12 26
REMARK SMILES IDX 13 27 14 28 15 29 16 31 17 32 18 33 64 34 19 35 63 36 20 37
REMARK SMILES IDX 21 38 22 39 57 40 23 41 62 42 56 43 58 44 24 45 61 46 55 47
REMARK SMILES IDX 54 48 25 50 47 51 32 52 46 53 33 54 36 55 45 56 59 57 34 58
REMARK SMILES IDX 35 59 44 61 60 62 37 63 26 64 27 65 31 66 28 67 30 68 29 69
REMARK SMILES IDX 48 70 49 71 53 72 50 73 52 74 51 75 38 76 39 77 43 78 40 79
REMARK SMILES IDX 42 80 41 81
REMARK H PARENT 10 5 70 24 70 25 14 30 58 49 36 60
REMARK Flexibility Score: inf
ROOT
ATOM      1  C   UNL     1      -2.986  -2.905  -5.567  1.00  0.00     0.117 C 
ENDROOT
BRANCH   1   2
ATOM      2  N   UNL     1      -2.503  -2.258  -4.360  1.00  0.00    -0.354 N 
ATOM      3  C   UNL     1      -3.213  -1.741  -3.315  1.00  0.00     0.240 C 
ATOM      4  O   UNL     1      -2.595  -1.078  -2.479  1.00  0.00    -0.273 OA
ATOM      5  H   UNL     1      -1.525  -2.181  -4.285  1.00  0.00     0.163 HD
BRANCH   3   6
ATOM      6  C   UNL     1      -4.728  -1.968  -3.198  1.00  0.00     0.225 C 
BRANCH   6   7
ATOM      7  N   UNL     1      -5.548  -0.999  -3.963  1.00  0.00    -0.303 N 
BRANCH   7   8
ATOM      8  C   UNL     1      -6.264  -1.457  -5.151  1.00  0.00     0.044 A 
ATOM      9  C   UNL     1      -8.218  -2.888  -8.783  1.00  0.00     0.044 C 
ATOM     10  C   UNL     1      -7.574  -2.388  -7.525  1.00  0.00    -0.051 A 
ATOM     11  C   UNL     1      -7.188  -3.277  -6.526  1.00  0.00     0.005 A 
ATOM     12  C   UNL     1      -7.334  -1.032  -7.328  1.00  0.00     0.005 A 
ATOM     13  C   UNL     1      -6.560  -2.816  -5.357  1.00  0.00     0.026 A 
ATOM     14  C   UNL     1      -6.695  -0.580  -6.162  1.00  0.00     0.026 A 
ENDBRANCH   7   8
BRANCH   7  15
ATOM     15  C   UNL     1      -5.649   0.334  -3.524  1.00  0.00     0.230 C 
ATOM     16  O   UNL     1      -6.046   1.273  -4.221  1.00  0.00    -0.274 OA
BRANCH  15  17
ATOM     17  C   UNL     1      -5.374   0.657  -2.067  1.00  0.00     0.138 C 
BRANCH  17  18
ATOM     18  C   UNL     1      -6.619   0.603  -1.169  1.00  0.00     0.182 C 
ATOM     19  C   UNL     1      -7.877   1.335  -1.689  1.00  0.00     0.293 C 
ATOM     20  O   UNL     1      -6.904  -0.722  -0.685  1.00  0.00    -0.366 OA
ATOM     21  N   UNL     1      -8.699   0.550  -2.620  1.00  0.00    -0.342 N 
ATOM     22  C   UNL     1      -7.792  -1.493  -1.498  1.00  0.00     0.222 C 
ATOM     23  C   UNL     1      -9.025  -0.732  -1.990  1.00  0.00     0.289 C 
ATOM     24  H   UNL     1      -8.181   0.387  -3.483  1.00  0.00     0.346 HD
ATOM     25  H   UNL     1      -9.556   1.058  -2.841  1.00  0.00     0.346 HD
ENDBRANCH  17  18
ENDBRANCH  15  17
ENDBRANCH   7  15
ENDBRANCH   6   7
ENDBRANCH   3   6
ENDBRANCH   1   2
BRANCH   1  26
ATOM     26  C   UNL     1      -3.364  -1.884  -6.633  1.00  0.00     0.042 C 
BRANCH  26  27
ATOM     27  C   UNL     1      -2.168  -1.254  -7.315  1.00  0.00     0.118 C 
BRANCH  27  28
ATOM     28  N   UNL     1      -1.678  -1.981  -8.476  1.00  0.00    -0.352 N 
ATOM     29  C   UNL     1      -0.507  -1.778  -9.196  1.00  0.00     0.251 C 
ATOM     30  H   UNL     1      -2.253  -2.715  -8.793  1.00  0.00     0.163 HD
ATOM     31  O   UNL     1      -0.254  -2.453 -10.167  1.00  0.00    -0.269 OA
BRANCH  29  32
ATOM     32  C   UNL     1       0.492  -0.816  -8.658  1.00  0.00     0.039 A 
ATOM     33  C   UNL     1       1.802  -1.279  -8.504  1.00  0.00     0.014 A 
ATOM     34  C   UNL     1       0.092   0.382  -8.073  1.00  0.00     0.014 A 
ATOM     35  C   UNL     1       2.618  -0.690  -7.545  1.00  0.00     0.010 A 
ATOM     36  C   UNL     1       0.850   0.891  -7.040  1.00  0.00     0.010 A 
ATOM     37  C   UNL     1       2.083   0.309  -6.733  1.00  0.00    -0.014 A 
BRANCH  37  38
ATOM     38  C   UNL     1       2.711   0.740  -5.492  1.00  0.00     0.031 A 
ATOM     39  C   UNL     1       3.413   2.034  -5.440  1.00  0.00     0.074 A 
ATOM     40  C   UNL     1       2.636  -0.037  -4.390  1.00  0.00     0.049 A 
ATOM     41  N   UNL     1       4.385   2.301  -4.635  1.00  0.00    -0.248 NA
ATOM     42  C   UNL     1       3.110   3.122  -6.362  1.00  0.00     0.031 C 
ATOM     43  C   UNL     1       2.994   0.321  -3.021  1.00  0.00     0.029 A 
ATOM     44  N   UNL     1       2.410  -1.412  -4.341  1.00  0.00    -0.354 N 
ATOM     45  C   UNL     1       4.639   3.649  -4.731  1.00  0.00     0.074 A 
ATOM     46  C   UNL     1       3.883   4.096  -5.877  1.00  0.00     0.031 C 
ATOM     47  C   UNL     1       3.202  -0.804  -2.318  1.00  0.00     0.029 A 
ATOM     48  C   UNL     1       3.130  -1.921  -3.247  1.00  0.00     0.049 A 
ATOM     49  H   UNL     1       1.849  -1.932  -4.960  1.00  0.00     0.167 HD
ATOM     50  C   UNL     1       5.345   4.271  -3.747  1.00  0.00     0.031 A 
ATOM     51  C   UNL     1       4.118  -2.845  -3.426  1.00  0.00     0.031 A 
ATOM     52  C   UNL     1       5.823   3.324  -2.742  1.00  0.00     0.049 A 
ATOM     53  C   UNL     1       5.488  -2.353  -3.013  1.00  0.00     0.074 A 
ATOM     54  C   UNL     1       5.341   2.958  -1.496  1.00  0.00     0.029 A 
ATOM     55  N   UNL     1       6.765   2.367  -3.099  1.00  0.00    -0.354 N 
ATOM     56  N   UNL     1       5.790  -1.096  -2.842  1.00  0.00    -0.248 NA
ATOM     57  C   UNL     1       6.635  -3.235  -2.801  1.00  0.00     0.031 C 
ATOM     58  C   UNL     1       5.942   1.722  -1.141  1.00  0.00     0.029 A 
ATOM     59  C   UNL     1       6.813   1.361  -2.153  1.00  0.00     0.049 A 
ATOM     60  H   UNL     1       7.321   2.401  -3.911  1.00  0.00     0.167 HD
ATOM     61  C   UNL     1       7.118  -0.983  -2.526  1.00  0.00     0.074 A 
ATOM     62  C   UNL     1       7.603  -2.350  -2.500  1.00  0.00     0.031 C 
ATOM     63  C   UNL     1       7.713   0.229  -2.325  1.00  0.00     0.031 A 
BRANCH  50  64
ATOM     64  C   UNL     1       5.326   5.768  -3.544  1.00  0.00    -0.014 A 
ATOM     65  C   UNL     1       5.483   6.293  -2.248  1.00  0.00     0.009 A 
ATOM     66  C   UNL     1       5.094   6.707  -4.562  1.00  0.00     0.009 A 
ATOM     67  C   UNL     1       5.310   7.656  -1.972  1.00  0.00     0.001 A 
ATOM     68  C   UNL     1       4.875   8.065  -4.290  1.00  0.00     0.001 A 
ATOM     69  C   UNL     1       4.972   8.538  -2.990  1.00  0.00     0.000 A 
ENDBRANCH  50  64
BRANCH  51  70
ATOM     70  C   UNL     1       3.862  -3.780  -4.556  1.00  0.00    -0.014 A 
ATOM     71  C   UNL     1       2.814  -4.714  -4.426  1.00  0.00     0.009 A 
ATOM     72  C   UNL     1       4.363  -3.511  -5.837  1.00  0.00     0.009 A 
ATOM     73  C   UNL     1       2.209  -5.274  -5.556  1.00  0.00     0.001 A 
ATOM     74  C   UNL     1       3.757  -4.079  -6.966  1.00  0.00     0.001 A 
ATOM     75  C   UNL     1       2.660  -4.929  -6.827  1.00  0.00     0.000 A 
ENDBRANCH  51  70
BRANCH  63  76
ATOM     76  C   UNL     1       9.195   0.469  -2.204  1.00  0.00    -0.014 A 
ATOM     77  C   UNL     1      10.172  -0.359  -2.773  1.00  0.00     0.009 A 
ATOM     78  C   UNL     1       9.644   1.671  -1.613  1.00  0.00     0.009 A 
ATOM     79  C   UNL     1      11.532  -0.023  -2.716  1.00  0.00     0.001 A 
ATOM     80  C   UNL     1      10.993   2.030  -1.593  1.00  0.00     0.001 A 
ATOM     81  C   UNL     1      11.940   1.175  -2.136  1.00  0.00     0.000 A 
ENDBRANCH  63  76
ENDBRANCH  37  38
ENDBRANCH  29  32
ENDBRANCH  27  28
ENDBRANCH  26  27
ENDBRANCH   1  26
TORSDOF 15
