REMARK SMILES CC(C)(C(=O)NCCCNC(=O)c1ccc(-c2c3nc(c(-c4ccccc4)c4ccc([nH]4)c(-c4ccccc4)c4nc(c(-c5ccccc5)c5ccc2[nH]5)C=C4)C=C3)cc1)n1cccc1
REMARK SMILES IDX 8 1 7 2 6 3 4 4 5 5 2 7 1 8 3 9 61 10 62 11 65 12 63 13
REMARK SMILES IDX 64 14 9 15 10 16 11 17 12 19 13 20 14 21 60 22 15 23 59 24
REMARK SMILES IDX 16 25 17 26 18 27 53 28 19 29 58 30 52 31 54 32 20 33 57 34
REMARK SMILES IDX 51 35 50 36 21 38 43 39 28 40 42 41 29 42 32 43 41 44 55 45
REMARK SMILES IDX 30 46 31 47 40 49 56 50 33 51 22 52 23 53 27 54 24 55 26 56
REMARK SMILES IDX 25 57 44 58 45 59 49 60 46 61 48 62 47 63 34 64 35 65 39 66
REMARK SMILES IDX 36 67 38 68 37 69
REMARK H PARENT 6 6 10 18 54 37 32 48
REMARK Flexibility Score: inf
ROOT
ATOM      1  C   UNL     1      -1.281  -2.650   0.543  1.00  0.00     0.042 C 
ENDROOT
BRANCH   1   2
ATOM      2  C   UNL     1      -0.883  -2.215  -0.860  1.00  0.00     0.117 C 
BRANCH   2   3
ATOM      3  N   UNL     1      -1.394  -0.898  -1.205  1.00  0.00    -0.354 N 
ATOM      4  C   UNL     1      -0.797   0.285  -1.538  1.00  0.00     0.245 C 
ATOM      5  O   UNL     1      -1.590   1.155  -1.913  1.00  0.00    -0.272 OA
ATOM      6  H   UNL     1      -2.377  -0.849  -1.196  1.00  0.00     0.163 HD
BRANCH   4   7
ATOM      7  C   UNL     1       0.744   0.501  -1.488  1.00  0.00     0.117 C 
ATOM      8  C   UNL     1       1.304   0.176  -0.091  1.00  0.00     0.045 C 
ATOM      9  C   UNL     1       1.372  -0.400  -2.576  1.00  0.00     0.045 C 
BRANCH   7  10
ATOM     10  N   UNL     1       1.117   1.931  -1.746  1.00  0.00    -0.340 N 
ATOM     11  C   UNL     1       0.504   3.039  -1.200  1.00  0.00     0.086 A 
ATOM     12  C   UNL     1       2.235   2.365  -2.430  1.00  0.00     0.086 A 
ATOM     13  C   UNL     1       1.174   4.167  -1.617  1.00  0.00     0.019 A 
ATOM     14  C   UNL     1       2.272   3.741  -2.391  1.00  0.00     0.019 A 
ENDBRANCH   7  10
ENDBRANCH   4   7
ENDBRANCH   2   3
ENDBRANCH   1   2
BRANCH   1  15
ATOM     15  C   UNL     1      -2.783  -2.806   0.752  1.00  0.00     0.118 C 
BRANCH  15  16
ATOM     16  N   UNL     1      -3.371  -3.834  -0.096  1.00  0.00    -0.352 N 
ATOM     17  C   UNL     1      -4.006  -5.006   0.229  1.00  0.00     0.251 C 
ATOM     18  H   UNL     1      -3.300  -3.659  -1.062  1.00  0.00     0.163 HD
ATOM     19  O   UNL     1      -4.269  -5.814  -0.661  1.00  0.00    -0.269 OA
BRANCH  17  20
ATOM     20  C   UNL     1      -4.363  -5.321   1.629  1.00  0.00     0.039 A 
ATOM     21  C   UNL     1      -4.215  -6.637   2.080  1.00  0.00     0.014 A 
ATOM     22  C   UNL     1      -4.881  -4.348   2.487  1.00  0.00     0.014 A 
ATOM     23  C   UNL     1      -4.526  -6.961   3.403  1.00  0.00     0.010 A 
ATOM     24  C   UNL     1      -5.113  -4.652   3.826  1.00  0.00     0.010 A 
ATOM     25  C   UNL     1      -4.946  -5.963   4.297  1.00  0.00    -0.014 A 
BRANCH  25  26
ATOM     26  C   UNL     1      -5.231  -6.274   5.720  1.00  0.00     0.031 A 
ATOM     27  C   UNL     1      -6.621  -6.108   6.270  1.00  0.00     0.074 A 
ATOM     28  C   UNL     1      -4.226  -6.649   6.536  1.00  0.00     0.049 A 
ATOM     29  N   UNL     1      -7.049  -6.272   7.497  1.00  0.00    -0.248 NA
ATOM     30  C   UNL     1      -7.662  -5.674   5.324  1.00  0.00     0.031 C 
ATOM     31  C   UNL     1      -2.824  -6.806   6.141  1.00  0.00     0.029 A 
ATOM     32  N   UNL     1      -4.231  -6.960   7.872  1.00  0.00    -0.354 N 
ATOM     33  C   UNL     1      -8.398  -5.938   7.474  1.00  0.00     0.074 A 
ATOM     34  C   UNL     1      -8.707  -5.520   6.123  1.00  0.00     0.031 C 
ATOM     35  C   UNL     1      -2.111  -7.212   7.204  1.00  0.00     0.029 A 
ATOM     36  C   UNL     1      -2.996  -7.309   8.361  1.00  0.00     0.049 A 
ATOM     37  H   UNL     1      -5.043  -6.935   8.428  1.00  0.00     0.167 HD
ATOM     38  C   UNL     1      -9.304  -5.990   8.479  1.00  0.00     0.031 A 
ATOM     39  C   UNL     1      -2.617  -7.669   9.601  1.00  0.00     0.031 A 
ATOM     40  C   UNL     1      -9.007  -6.428   9.816  1.00  0.00     0.049 A 
ATOM     41  C   UNL     1      -3.644  -7.739  10.695  1.00  0.00     0.074 A 
ATOM     42  C   UNL     1      -9.870  -6.571  10.889  1.00  0.00     0.029 A 
ATOM     43  N   UNL     1      -7.748  -6.798  10.262  1.00  0.00    -0.354 N 
ATOM     44  N   UNL     1      -4.927  -7.475  10.641  1.00  0.00    -0.248 NA
ATOM     45  C   UNL     1      -3.171  -8.170  12.018  1.00  0.00     0.031 C 
ATOM     46  C   UNL     1      -9.125  -6.994  11.996  1.00  0.00     0.029 A 
ATOM     47  C   UNL     1      -7.808  -7.157  11.598  1.00  0.00     0.049 A 
ATOM     48  H   UNL     1      -6.932  -6.804   9.711  1.00  0.00     0.167 HD
ATOM     49  C   UNL     1      -5.419  -7.734  11.913  1.00  0.00     0.074 A 
ATOM     50  C   UNL     1      -4.299  -8.188  12.712  1.00  0.00     0.031 C 
ATOM     51  C   UNL     1      -6.685  -7.607  12.378  1.00  0.00     0.031 A 
BRANCH  38  52
ATOM     52  C   UNL     1     -10.708  -5.559   8.163  1.00  0.00    -0.014 A 
ATOM     53  C   UNL     1     -11.545  -6.346   7.356  1.00  0.00     0.009 A 
ATOM     54  C   UNL     1     -11.210  -4.363   8.698  1.00  0.00     0.009 A 
ATOM     55  C   UNL     1     -12.843  -5.924   7.059  1.00  0.00     0.001 A 
ATOM     56  C   UNL     1     -12.517  -3.957   8.423  1.00  0.00     0.001 A 
ATOM     57  C   UNL     1     -13.329  -4.732   7.596  1.00  0.00     0.000 A 
ENDBRANCH  38  52
BRANCH  39  58
ATOM     58  C   UNL     1      -1.200  -8.023   9.871  1.00  0.00    -0.014 A 
ATOM     59  C   UNL     1      -0.833  -9.360  10.086  1.00  0.00     0.009 A 
ATOM     60  C   UNL     1      -0.210  -7.029   9.918  1.00  0.00     0.009 A 
ATOM     61  C   UNL     1       0.494  -9.692  10.369  1.00  0.00     0.001 A 
ATOM     62  C   UNL     1       1.120  -7.368  10.176  1.00  0.00     0.001 A 
ATOM     63  C   UNL     1       1.469  -8.697  10.410  1.00  0.00     0.000 A 
ENDBRANCH  39  58
BRANCH  51  64
ATOM     64  C   UNL     1      -6.931  -8.000  13.806  1.00  0.00    -0.014 A 
ATOM     65  C   UNL     1      -6.498  -7.192  14.868  1.00  0.00     0.009 A 
ATOM     66  C   UNL     1      -7.630  -9.184  14.089  1.00  0.00     0.009 A 
ATOM     67  C   UNL     1      -6.731  -7.580  16.189  1.00  0.00     0.001 A 
ATOM     68  C   UNL     1      -7.884  -9.556  15.410  1.00  0.00     0.001 A 
ATOM     69  C   UNL     1      -7.426  -8.759  16.458  1.00  0.00     0.000 A 
ENDBRANCH  51  64
ENDBRANCH  25  26
ENDBRANCH  17  20
ENDBRANCH  15  16
ENDBRANCH   1  15
TORSDOF 11
