REMARK SMILES NS(=O)(=O)c1ccc(-c2coc(=O)n2-c2ccc(C(=O)NCCCNC(=O)c3ccc(-c4c5nc(c(-c6ccccc6)c6ccc([nH]6)c(-c6ccccc6)c6nc(c(-c7ccccc7)c7ccc4[nH]7)C=C6)C=C5)cc3)cc2)cc1
REMARK SMILES IDX 22 1 21 2 19 3 20 4 18 6 15 7 16 8 77 9 17 10 76 11 14 12
REMARK SMILES IDX 9 13 10 14 11 15 12 16 13 17 8 18 5 19 6 20 79 21 7 22 78 23
REMARK SMILES IDX 2 24 3 25 4 26 1 27 23 30 24 31 25 32 26 33 27 35 28 36
REMARK SMILES IDX 29 37 75 38 30 39 74 40 31 41 32 42 33 43 68 44 34 45 73 46
REMARK SMILES IDX 67 47 69 48 35 49 72 50 66 51 65 52 36 54 58 55 43 56 57 57
REMARK SMILES IDX 44 58 47 59 56 60 70 61 45 62 46 63 55 65 71 66 48 67 37 68
REMARK SMILES IDX 38 69 42 70 39 71 41 72 40 73 59 74 60 75 64 76 61 77 63 78
REMARK SMILES IDX 62 79 49 80 50 81 54 82 51 83 53 84 52 85
REMARK H PARENT 21 5 1 28 1 29 25 34 69 53 47 64
REMARK Flexibility Score: inf
ROOT
ATOM      1  C   UNL     1      -4.205  -2.506  -4.110  1.00  0.00     0.118 C 
ENDROOT
BRANCH   1   2
ATOM      2  N   UNL     1      -4.840  -3.759  -4.498  1.00  0.00    -0.352 N 
ATOM      3  C   UNL     1      -4.335  -5.001  -4.803  1.00  0.00     0.251 C 
ATOM      4  O   UNL     1      -5.143  -5.906  -5.014  1.00  0.00    -0.269 OA
ATOM      5  H   UNL     1      -5.822  -3.705  -4.552  1.00  0.00     0.163 HD
BRANCH   3   6
ATOM      6  C   UNL     1      -2.876  -5.308  -4.847  1.00  0.00     0.039 A 
ATOM      7  C   UNL     1      -0.142  -5.989  -4.754  1.00  0.00     0.053 A 
ATOM      8  C   UNL     1      -1.110  -6.990  -4.666  1.00  0.00     0.028 A 
ATOM      9  C   UNL     1      -0.542  -4.672  -4.979  1.00  0.00     0.028 A 
ATOM     10  C   UNL     1      -2.470  -6.644  -4.683  1.00  0.00     0.016 A 
ATOM     11  C   UNL     1      -1.891  -4.348  -5.066  1.00  0.00     0.016 A 
BRANCH   7  12
ATOM     12  N   UNL     1       1.228  -6.258  -4.588  1.00  0.00    -0.242 N 
ATOM     13  C   UNL     1       2.124  -5.574  -3.813  1.00  0.00     0.095 A 
ATOM     14  C   UNL     1       3.317  -6.082  -4.097  1.00  0.00     0.228 A 
ATOM     15  O   UNL     1       3.291  -7.110  -5.039  1.00  0.00    -0.415 OA
ATOM     16  C   UNL     1       1.927  -7.212  -5.321  1.00  0.00     0.424 A 
ATOM     17  O   UNL     1       1.480  -8.009  -6.134  1.00  0.00    -0.223 OA
BRANCH  13  18
ATOM     18  C   UNL     1       1.773  -4.606  -2.774  1.00  0.00     0.002 A 
ATOM     19  C   UNL     1       0.989  -2.765  -0.809  1.00  0.00     0.082 A 
ATOM     20  C   UNL     1       0.513  -4.076  -0.757  1.00  0.00     0.022 A 
ATOM     21  C   UNL     1       1.860  -2.367  -1.827  1.00  0.00     0.022 A 
ATOM     22  C   UNL     1       0.906  -4.990  -1.736  1.00  0.00     0.012 A 
ATOM     23  C   UNL     1       2.255  -3.291  -2.804  1.00  0.00     0.012 A 
BRANCH  19  24
ATOM     24  S   UNL     1       0.438  -1.645   0.444  1.00  0.00     0.238 S 
ATOM     25  O   UNL     1       1.060  -2.029   1.695  1.00  0.00    -0.207 OA
ATOM     26  O   UNL     1      -0.981  -1.468   0.295  1.00  0.00    -0.207 OA
BRANCH  24  27
ATOM     27  N   UNL     1       1.123  -0.165   0.039  1.00  0.00    -0.225 NA
ATOM     28  H   UNL     1       0.845   0.537   0.725  1.00  0.00     0.137 HD
ATOM     29  H   UNL     1       0.800   0.118  -0.886  1.00  0.00     0.137 HD
ENDBRANCH  24  27
ENDBRANCH  19  24
ENDBRANCH  13  18
ENDBRANCH   7  12
ENDBRANCH   3   6
ENDBRANCH   1   2
BRANCH   1  30
ATOM     30  C   UNL     1      -3.951  -1.593  -5.318  1.00  0.00     0.042 C 
BRANCH  30  31
ATOM     31  C   UNL     1      -5.190  -0.823  -5.738  1.00  0.00     0.118 C 
BRANCH  31  32
ATOM     32  N   UNL     1      -5.534   0.232  -4.789  1.00  0.00    -0.352 N 
ATOM     33  C   UNL     1      -6.631   1.065  -4.803  1.00  0.00     0.251 C 
ATOM     34  H   UNL     1      -4.902   0.364  -4.046  1.00  0.00     0.163 HD
ATOM     35  O   UNL     1      -6.629   2.110  -4.163  1.00  0.00    -0.269 OA
BRANCH  33  36
ATOM     36  C   UNL     1      -7.795   0.697  -5.627  1.00  0.00     0.039 A 
ATOM     37  C   UNL     1      -8.432   1.657  -6.412  1.00  0.00     0.014 A 
ATOM     38  C   UNL     1      -8.213  -0.632  -5.650  1.00  0.00     0.014 A 
ATOM     39  C   UNL     1      -9.430   1.251  -7.294  1.00  0.00     0.010 A 
ATOM     40  C   UNL     1      -9.101  -1.051  -6.617  1.00  0.00     0.010 A 
ATOM     41  C   UNL     1      -9.739  -0.115  -7.425  1.00  0.00    -0.014 A 
BRANCH  41  42
ATOM     42  C   UNL     1     -10.652  -0.554  -8.481  1.00  0.00     0.031 A 
ATOM     43  C   UNL     1     -10.392   0.012  -9.838  1.00  0.00     0.074 A 
ATOM     44  C   UNL     1     -11.576  -1.529  -8.349  1.00  0.00     0.049 A 
ATOM     45  N   UNL     1     -11.151   0.808 -10.516  1.00  0.00    -0.248 NA
ATOM     46  C   UNL     1      -9.100  -0.276 -10.481  1.00  0.00     0.031 C 
ATOM     47  C   UNL     1     -11.817  -2.430  -7.216  1.00  0.00     0.029 A 
ATOM     48  N   UNL     1     -12.453  -1.988  -9.286  1.00  0.00    -0.354 N 
ATOM     49  C   UNL     1     -10.519   1.006 -11.741  1.00  0.00     0.074 A 
ATOM     50  C   UNL     1      -9.210   0.413 -11.620  1.00  0.00     0.031 C 
ATOM     51  C   UNL     1     -12.590  -3.463  -7.617  1.00  0.00     0.029 A 
ATOM     52  C   UNL     1     -13.052  -3.196  -8.965  1.00  0.00     0.049 A 
ATOM     53  H   UNL     1     -12.644  -1.502 -10.121  1.00  0.00     0.167 HD
ATOM     54  C   UNL     1     -11.190   1.476 -12.829  1.00  0.00     0.031 A 
ATOM     55  C   UNL     1     -13.869  -3.932  -9.754  1.00  0.00     0.031 A 
ATOM     56  C   UNL     1     -12.456   2.063 -12.473  1.00  0.00     0.049 A 
ATOM     57  C   UNL     1     -14.421  -3.031 -10.788  1.00  0.00     0.074 A 
ATOM     58  C   UNL     1     -12.852   3.107 -11.659  1.00  0.00     0.029 A 
ATOM     59  N   UNL     1     -13.588   1.315 -12.691  1.00  0.00    -0.354 N 
ATOM     60  N   UNL     1     -15.265  -2.076 -10.530  1.00  0.00    -0.248 NA
ATOM     61  C   UNL     1     -13.726  -2.924 -12.060  1.00  0.00     0.031 C 
ATOM     62  C   UNL     1     -14.044   2.643 -11.027  1.00  0.00     0.029 A 
ATOM     63  C   UNL     1     -14.333   1.377 -11.541  1.00  0.00     0.049 A 
ATOM     64  H   UNL     1     -13.819   0.828 -13.514  1.00  0.00     0.167 HD
ATOM     65  C   UNL     1     -14.888  -1.038 -11.366  1.00  0.00     0.074 A 
ATOM     66  C   UNL     1     -14.020  -1.658 -12.366  1.00  0.00     0.031 C 
ATOM     67  C   UNL     1     -15.087   0.265 -11.007  1.00  0.00     0.031 A 
BRANCH  54  68
ATOM     68  C   UNL     1     -10.873   1.076 -14.248  1.00  0.00    -0.014 A 
ATOM     69  C   UNL     1     -11.576   1.687 -15.304  1.00  0.00     0.009 A 
ATOM     70  C   UNL     1     -10.120  -0.069 -14.568  1.00  0.00     0.009 A 
ATOM     71  C   UNL     1     -11.576   1.138 -16.593  1.00  0.00     0.001 A 
ATOM     72  C   UNL     1     -10.086  -0.595 -15.863  1.00  0.00     0.001 A 
ATOM     73  C   UNL     1     -10.837  -0.007 -16.870  1.00  0.00     0.000 A 
ENDBRANCH  54  68
BRANCH  55  74
ATOM     74  C   UNL     1     -14.062  -5.392  -9.802  1.00  0.00    -0.014 A 
ATOM     75  C   UNL     1     -15.204  -5.942 -10.405  1.00  0.00     0.009 A 
ATOM     76  C   UNL     1     -12.988  -6.253  -9.512  1.00  0.00     0.009 A 
ATOM     77  C   UNL     1     -15.247  -7.296 -10.755  1.00  0.00     0.001 A 
ATOM     78  C   UNL     1     -13.034  -7.606  -9.860  1.00  0.00     0.001 A 
ATOM     79  C   UNL     1     -14.156  -8.124 -10.499  1.00  0.00     0.000 A 
ENDBRANCH  55  74
BRANCH  67  80
ATOM     80  C   UNL     1     -15.936   0.542  -9.787  1.00  0.00    -0.014 A 
ATOM     81  C   UNL     1     -15.632   0.039  -8.509  1.00  0.00     0.009 A 
ATOM     82  C   UNL     1     -17.002   1.446  -9.904  1.00  0.00     0.009 A 
ATOM     83  C   UNL     1     -16.397   0.396  -7.393  1.00  0.00     0.001 A 
ATOM     84  C   UNL     1     -17.752   1.821  -8.786  1.00  0.00     0.001 A 
ATOM     85  C   UNL     1     -17.456   1.289  -7.533  1.00  0.00     0.000 A 
ENDBRANCH  67  80
ENDBRANCH  41  42
ENDBRANCH  33  36
ENDBRANCH  31  32
ENDBRANCH  30  31
ENDBRANCH   1  30
TORSDOF 14
