REMARK SMILES C[C@H]1[C@@H](C(=O)NCCCNC(=O)c2ccc(-c3c4nc(c(-c5ccccc5)c5ccc([nH]5)c(-c5ccccc5)c5nc(c(-c6ccccc6)c6ccc3[nH]6)C=C5)C=C4)cc2)CC[N@@H+]1CC1(O)CCCC1
REMARK SMILES IDX 7 1 6 2 4 3 5 4 3 6 1 7 2 8 63 9 61 10 62 11 64 13 65 14
REMARK SMILES IDX 67 15 70 16 68 17 69 18 66 19 8 21 9 22 10 23 11 24 12 26
REMARK SMILES IDX 13 27 14 28 60 29 15 30 59 31 16 32 17 33 18 34 53 35 19 36
REMARK SMILES IDX 58 37 52 38 54 39 20 40 57 41 51 42 50 43 21 45 43 46 28 47
REMARK SMILES IDX 42 48 29 49 32 50 41 51 55 52 30 53 31 54 40 56 56 57 33 58
REMARK SMILES IDX 22 59 23 60 27 61 24 62 26 63 25 64 44 65 45 66 49 67 46 68
REMARK SMILES IDX 48 69 47 70 34 71 35 72 39 73 36 74 38 75 37 76
REMARK H PARENT 6 5 63 12 66 20 10 25 54 44 32 55
REMARK Flexibility Score: inf
ROOT
ATOM      1  C   UNL     1       2.969   1.784  -1.058  1.00  0.00     0.117 C 
ENDROOT
BRANCH   1   2
ATOM      2  N   UNL     1       1.754   1.912  -1.839  1.00  0.00    -0.356 N 
ATOM      3  C   UNL     1       0.533   1.333  -1.674  1.00  0.00     0.229 C 
ATOM      4  O   UNL     1      -0.185   1.283  -2.674  1.00  0.00    -0.275 OA
ATOM      5  H   UNL     1       1.823   2.514  -2.614  1.00  0.00     0.163 HD
BRANCH   3   6
ATOM      6  C   UNL     1       0.052   0.917  -0.286  1.00  0.00     0.142 C 
ATOM      7  C   UNL     1       1.516  -1.277  -0.421  1.00  0.00     0.076 C 
ATOM      8  C   UNL     1       0.540  -0.402   0.349  1.00  0.00     0.193 C 
ATOM      9  N   UNL     1      -0.645  -1.233   0.580  1.00  0.00    -0.330 N 
ATOM     10  C   UNL     1      -1.482   0.794  -0.275  1.00  0.00     0.081 C 
ATOM     11  C   UNL     1      -1.739  -0.696  -0.216  1.00  0.00     0.263 C 
ATOM     12  H   UNL     1      -0.449  -2.177   0.247  1.00  0.00     0.348 HD
BRANCH   9  13
ATOM     13  C   UNL     1      -0.943  -1.581   1.974  1.00  0.00     0.297 C 
BRANCH  13  14
ATOM     14  C   UNL     1      -1.526  -0.539   2.967  1.00  0.00     0.113 C 
ATOM     15  C   UNL     1      -0.639   0.673   3.270  1.00  0.00     0.041 C 
ATOM     16  C   UNL     1      -1.679  -1.152   4.366  1.00  0.00     0.041 C 
ATOM     17  C   UNL     1      -1.149   1.213   4.607  1.00  0.00     0.003 C 
ATOM     18  C   UNL     1      -1.862   0.049   5.290  1.00  0.00     0.003 C 
BRANCH  14  19
ATOM     19  O   UNL     1      -2.824  -0.131   2.523  1.00  0.00    -0.384 OA
ATOM     20  H   UNL     1      -2.755   0.262   1.639  1.00  0.00     0.211 HD
ENDBRANCH  14  19
ENDBRANCH  13  14
ENDBRANCH   9  13
ENDBRANCH   3   6
ENDBRANCH   1   2
BRANCH   1  21
ATOM     21  C   UNL     1       3.895   0.758  -1.712  1.00  0.00     0.042 C 
BRANCH  21  22
ATOM     22  C   UNL     1       4.431   1.180  -3.073  1.00  0.00     0.118 C 
BRANCH  22  23
ATOM     23  N   UNL     1       5.697   1.877  -2.971  1.00  0.00    -0.352 N 
ATOM     24  C   UNL     1       6.965   1.448  -3.272  1.00  0.00     0.251 C 
ATOM     25  H   UNL     1       5.639   2.800  -2.634  1.00  0.00     0.163 HD
ATOM     26  O   UNL     1       7.925   2.125  -2.896  1.00  0.00    -0.269 OA
BRANCH  24  27
ATOM     27  C   UNL     1       7.210   0.188  -4.016  1.00  0.00     0.039 A 
ATOM     28  C   UNL     1       8.336  -0.572  -3.684  1.00  0.00     0.014 A 
ATOM     29  C   UNL     1       6.401  -0.222  -5.080  1.00  0.00     0.014 A 
ATOM     30  C   UNL     1       8.629  -1.743  -4.390  1.00  0.00     0.010 A 
ATOM     31  C   UNL     1       6.636  -1.441  -5.717  1.00  0.00     0.010 A 
ATOM     32  C   UNL     1       7.771  -2.200  -5.403  1.00  0.00    -0.014 A 
BRANCH  32  33
ATOM     33  C   UNL     1       8.084  -3.432  -6.175  1.00  0.00     0.031 A 
ATOM     34  C   UNL     1       8.347  -3.354  -7.657  1.00  0.00     0.074 A 
ATOM     35  C   UNL     1       8.110  -4.628  -5.555  1.00  0.00     0.049 A 
ATOM     36  N   UNL     1       8.626  -4.318  -8.500  1.00  0.00    -0.248 NA
ATOM     37  C   UNL     1       8.260  -2.024  -8.281  1.00  0.00     0.031 C 
ATOM     38  C   UNL     1       7.829  -4.856  -4.136  1.00  0.00     0.029 A 
ATOM     39  N   UNL     1       8.390  -5.880  -6.044  1.00  0.00    -0.354 N 
ATOM     40  C   UNL     1       8.725  -3.714  -9.748  1.00  0.00     0.074 A 
ATOM     41  C   UNL     1       8.424  -2.312  -9.563  1.00  0.00     0.031 C 
ATOM     42  C   UNL     1       7.985  -6.161  -3.862  1.00  0.00     0.029 A 
ATOM     43  C   UNL     1       8.344  -6.866  -5.088  1.00  0.00     0.049 A 
ATOM     44  H   UNL     1       8.603  -6.055  -6.989  1.00  0.00     0.167 HD
ATOM     45  C   UNL     1       9.060  -4.265 -10.939  1.00  0.00     0.031 A 
ATOM     46  C   UNL     1       8.570  -8.190  -5.186  1.00  0.00     0.031 A 
ATOM     47  C   UNL     1       9.383  -5.653 -11.128  1.00  0.00     0.049 A 
ATOM     48  C   UNL     1       8.961  -8.777  -6.513  1.00  0.00     0.074 A 
ATOM     49  C   UNL     1       9.789  -6.296 -12.285  1.00  0.00     0.029 A 
ATOM     50  N   UNL     1       9.341  -6.613 -10.129  1.00  0.00    -0.354 N 
ATOM     51  N   UNL     1       9.111  -8.178  -7.669  1.00  0.00    -0.248 NA
ATOM     52  C   UNL     1       9.228 -10.222  -6.542  1.00  0.00     0.031 C 
ATOM     53  C   UNL     1       9.955  -7.655 -11.994  1.00  0.00     0.029 A 
ATOM     54  C   UNL     1       9.698  -7.847 -10.646  1.00  0.00     0.049 A 
ATOM     55  H   UNL     1       9.094  -6.444  -9.192  1.00  0.00     0.167 HD
ATOM     56  C   UNL     1       9.508  -9.168  -8.559  1.00  0.00     0.074 A 
ATOM     57  C   UNL     1       9.596 -10.401  -7.803  1.00  0.00     0.031 C 
ATOM     58  C   UNL     1       9.774  -9.065  -9.883  1.00  0.00     0.031 A 
BRANCH  45  59
ATOM     59  C   UNL     1       9.094  -3.353 -12.134  1.00  0.00    -0.014 A 
ATOM     60  C   UNL     1      10.097  -2.379 -12.276  1.00  0.00     0.009 A 
ATOM     61  C   UNL     1       8.125  -3.480 -13.141  1.00  0.00     0.009 A 
ATOM     62  C   UNL     1      10.103  -1.524 -13.380  1.00  0.00     0.001 A 
ATOM     63  C   UNL     1       8.151  -2.643 -14.259  1.00  0.00     0.001 A 
ATOM     64  C   UNL     1       9.132  -1.659 -14.372  1.00  0.00     0.000 A 
ENDBRANCH  45  59
BRANCH  46  65
ATOM     65  C   UNL     1       8.459  -9.050  -3.980  1.00  0.00    -0.014 A 
ATOM     66  C   UNL     1       9.608  -9.578  -3.372  1.00  0.00     0.009 A 
ATOM     67  C   UNL     1       7.202  -9.345  -3.428  1.00  0.00     0.009 A 
ATOM     68  C   UNL     1       9.501 -10.402  -2.250  1.00  0.00     0.001 A 
ATOM     69  C   UNL     1       7.100 -10.148  -2.290  1.00  0.00     0.001 A 
ATOM     70  C   UNL     1       8.247 -10.682  -1.707  1.00  0.00     0.000 A 
ENDBRANCH  46  65
BRANCH  58  71
ATOM     71  C   UNL     1      10.205 -10.317 -10.592  1.00  0.00    -0.014 A 
ATOM     72  C   UNL     1       9.290 -11.342 -10.878  1.00  0.00     0.009 A 
ATOM     73  C   UNL     1      11.540 -10.459 -11.004  1.00  0.00     0.009 A 
ATOM     74  C   UNL     1       9.712 -12.502 -11.531  1.00  0.00     0.001 A 
ATOM     75  C   UNL     1      11.952 -11.608 -11.680  1.00  0.00     0.001 A 
ATOM     76  C   UNL     1      11.041 -12.632 -11.934  1.00  0.00     0.000 A 
ENDBRANCH  58  71
ENDBRANCH  32  33
ENDBRANCH  24  27
ENDBRANCH  22  23
ENDBRANCH  21  22
ENDBRANCH   1  21
TORSDOF 13
