REMARK SMILES Cc1ccnc(NC2(CC(=O)NCCCNC(=O)c3ccc(-c4c5nc(c(-c6ccccc6)c6ccc([nH]6)c(-c6ccccc6)c6nc(c(-c7ccccc7)c7ccc4[nH]7)C=C6)C=C5)cc3)CCC2)n1
REMARK SMILES IDX 13 1 12 2 10 3 11 4 9 6 8 7 67 8 69 9 68 10 7 11 6 13 1 14
REMARK SMILES IDX 2 15 3 16 70 17 4 18 5 19 14 20 15 21 16 22 17 23 18 25
REMARK SMILES IDX 19 26 20 27 66 28 21 29 65 30 22 31 23 32 24 33 59 34 25 35
REMARK SMILES IDX 64 36 58 37 60 38 26 39 63 40 57 41 56 42 27 44 49 45 34 46
REMARK SMILES IDX 48 47 35 48 38 49 47 50 61 51 36 52 37 53 46 55 62 56 39 57
REMARK SMILES IDX 28 58 29 59 33 60 30 61 32 62 31 63 50 64 51 65 55 66 52 67
REMARK SMILES IDX 54 68 53 69 40 70 41 71 45 72 42 73 44 74 43 75
REMARK H PARENT 12 5 7 12 16 24 60 43 38 54
REMARK Flexibility Score: inf
ROOT
ATOM      1  C   UNL     1       1.497   5.691   2.687  1.00  0.00     0.117 C 
ENDROOT
BRANCH   1   2
ATOM      2  N   UNL     1       2.645   5.017   2.116  1.00  0.00    -0.356 N 
ATOM      3  C   UNL     1       2.803   4.483   0.876  1.00  0.00     0.222 C 
ATOM      4  O   UNL     1       3.810   3.805   0.658  1.00  0.00    -0.275 OA
ATOM      5  H   UNL     1       3.424   4.934   2.713  1.00  0.00     0.163 HD
BRANCH   3   6
ATOM      6  C   UNL     1       1.776   4.702  -0.215  1.00  0.00     0.128 C 
BRANCH   6   7
ATOM      7  C   UNL     1       0.698   3.612  -0.354  1.00  0.00     0.049 C 
ATOM      8  C   UNL     1      -0.049   3.650  -1.726  1.00  0.00     0.029 C 
ATOM      9  C   UNL     1      -0.672   3.951   0.306  1.00  0.00     0.029 C 
ATOM     10  C   UNL     1      -1.157   4.477  -1.055  1.00  0.00     0.005 C 
BRANCH   7  11
ATOM     11  N   UNL     1       1.230   2.313  -0.080  1.00  0.00    -0.348 N 
ATOM     12  H   UNL     1       2.196   2.311   0.106  1.00  0.00     0.164 HD
BRANCH  11  13
ATOM     13  C   UNL     1       0.646   1.053  -0.026  1.00  0.00     0.223 A 
ATOM     14  C   UNL     1      -2.674  -0.475  -0.001  1.00  0.00     0.067 C 
ATOM     15  C   UNL     1      -1.182  -0.351  -0.001  1.00  0.00     0.043 A 
ATOM     16  C   UNL     1      -0.371  -1.461   0.062  1.00  0.00     0.044 A 
ATOM     17  N   UNL     1      -0.684   0.902  -0.052  1.00  0.00    -0.218 NA
ATOM     18  C   UNL     1       0.978  -1.210   0.080  1.00  0.00     0.117 A 
ATOM     19  N   UNL     1       1.505   0.027   0.045  1.00  0.00    -0.222 NA
ENDBRANCH  11  13
ENDBRANCH   7  11
ENDBRANCH   6   7
ENDBRANCH   3   6
ENDBRANCH   1   2
BRANCH   1  20
ATOM     20  C   UNL     1       0.581   4.715   3.422  1.00  0.00     0.042 C 
BRANCH  20  21
ATOM     21  C   UNL     1       1.114   4.248   4.770  1.00  0.00     0.118 C 
BRANCH  21  22
ATOM     22  N   UNL     1       1.098   5.308   5.764  1.00  0.00    -0.352 N 
ATOM     23  C   UNL     1       0.408   5.426   6.943  1.00  0.00     0.251 C 
ATOM     24  H   UNL     1       1.683   6.072   5.556  1.00  0.00     0.163 HD
ATOM     25  O   UNL     1       0.389   6.516   7.510  1.00  0.00    -0.269 OA
BRANCH  23  26
ATOM     26  C   UNL     1      -0.309   4.279   7.554  1.00  0.00     0.039 A 
ATOM     27  C   UNL     1      -1.469   4.541   8.294  1.00  0.00     0.014 A 
ATOM     28  C   UNL     1       0.190   2.975   7.504  1.00  0.00     0.014 A 
ATOM     29  C   UNL     1      -2.129   3.506   8.963  1.00  0.00     0.010 A 
ATOM     30  C   UNL     1      -0.512   1.929   8.104  1.00  0.00     0.010 A 
ATOM     31  C   UNL     1      -1.659   2.188   8.868  1.00  0.00    -0.014 A 
BRANCH  31  32
ATOM     32  C   UNL     1      -2.306   1.085   9.624  1.00  0.00     0.031 A 
ATOM     33  C   UNL     1      -1.553   0.387  10.727  1.00  0.00     0.074 A 
ATOM     34  C   UNL     1      -3.551   0.684   9.306  1.00  0.00     0.049 A 
ATOM     35  N   UNL     1      -1.921  -0.627  11.470  1.00  0.00    -0.248 NA
ATOM     36  C   UNL     1      -0.195   0.879  11.017  1.00  0.00     0.031 C 
ATOM     37  C   UNL     1      -4.381   1.252   8.243  1.00  0.00     0.029 A 
ATOM     38  N   UNL     1      -4.335  -0.303   9.851  1.00  0.00    -0.354 N 
ATOM     39  C   UNL     1      -0.834  -0.912  12.287  1.00  0.00     0.074 A 
ATOM     40  C   UNL     1       0.221   0.008  11.924  1.00  0.00     0.031 C 
ATOM     41  C   UNL     1      -5.568   0.622   8.230  1.00  0.00     0.029 A 
ATOM     42  C   UNL     1      -5.571  -0.411   9.262  1.00  0.00     0.049 A 
ATOM     43  H   UNL     1      -4.039  -0.878  10.593  1.00  0.00     0.167 HD
ATOM     44  C   UNL     1      -0.725  -1.841  13.267  1.00  0.00     0.031 A 
ATOM     45  C   UNL     1      -6.593  -1.246   9.526  1.00  0.00     0.031 A 
ATOM     46  C   UNL     1      -1.780  -2.737  13.655  1.00  0.00     0.049 A 
ATOM     47  C   UNL     1      -6.461  -2.247  10.640  1.00  0.00     0.074 A 
ATOM     48  C   UNL     1      -1.781  -3.685  14.664  1.00  0.00     0.029 A 
ATOM     49  N   UNL     1      -3.028  -2.787  13.056  1.00  0.00    -0.354 N 
ATOM     50  N   UNL     1      -5.441  -2.474  11.430  1.00  0.00    -0.248 NA
ATOM     51  C   UNL     1      -7.633  -3.091  10.909  1.00  0.00     0.031 C 
ATOM     52  C   UNL     1      -3.024  -4.328  14.657  1.00  0.00     0.029 A 
ATOM     53  C   UNL     1      -3.808  -3.750  13.672  1.00  0.00     0.049 A 
ATOM     54  H   UNL     1      -3.317  -2.222  12.304  1.00  0.00     0.167 HD
ATOM     55  C   UNL     1      -5.859  -3.463  12.312  1.00  0.00     0.074 A 
ATOM     56  C   UNL     1      -7.228  -3.784  11.964  1.00  0.00     0.031 C 
ATOM     57  C   UNL     1      -5.171  -4.050  13.321  1.00  0.00     0.031 A 
BRANCH  44  58
ATOM     58  C   UNL     1       0.593  -1.932  13.984  1.00  0.00    -0.014 A 
ATOM     59  C   UNL     1       1.004  -0.931  14.879  1.00  0.00     0.009 A 
ATOM     60  C   UNL     1       1.428  -3.040  13.774  1.00  0.00     0.009 A 
ATOM     61  C   UNL     1       2.243  -1.018  15.518  1.00  0.00     0.001 A 
ATOM     62  C   UNL     1       2.654  -3.138  14.436  1.00  0.00     0.001 A 
ATOM     63  C   UNL     1       3.065  -2.123  15.298  1.00  0.00     0.000 A 
ENDBRANCH  44  58
BRANCH  45  64
ATOM     64  C   UNL     1      -7.853  -1.147   8.746  1.00  0.00    -0.014 A 
ATOM     65  C   UNL     1      -9.006  -0.600   9.330  1.00  0.00     0.009 A 
ATOM     66  C   UNL     1      -7.911  -1.601   7.420  1.00  0.00     0.009 A 
ATOM     67  C   UNL     1     -10.200  -0.535   8.610  1.00  0.00     0.001 A 
ATOM     68  C   UNL     1      -9.101  -1.512   6.694  1.00  0.00     0.001 A 
ATOM     69  C   UNL     1     -10.246  -0.988   7.292  1.00  0.00     0.000 A 
ENDBRANCH  45  64
BRANCH  57  70
ATOM     70  C   UNL     1      -5.907  -5.060  14.153  1.00  0.00    -0.014 A 
ATOM     71  C   UNL     1      -6.196  -6.341  13.660  1.00  0.00     0.009 A 
ATOM     72  C   UNL     1      -6.293  -4.728  15.461  1.00  0.00     0.009 A 
ATOM     73  C   UNL     1      -6.891  -7.259  14.450  1.00  0.00     0.001 A 
ATOM     74  C   UNL     1      -6.965  -5.656  16.257  1.00  0.00     0.001 A 
ATOM     75  C   UNL     1      -7.272  -6.917  15.748  1.00  0.00     0.000 A 
ENDBRANCH  57  70
ENDBRANCH  31  32
ENDBRANCH  23  26
ENDBRANCH  21  22
ENDBRANCH  20  21
ENDBRANCH   1  20
TORSDOF 13
