REMARK SMILES Cc1noc(C[N@H+]2CCC[C@@H](c3ccc(C(=O)NCCCNC(=O)c4ccc(-c5c6nc(c(-c7ccccc7)c7ccc([nH]7)c(-c7ccccc7)c7nc(c(-c8ccccc8)c8ccc5[nH]8)C=C7)C=C6)cc4)cc3)C2)n1
REMARK SMILES IDX 19 1 18 2 16 3 17 4 15 6 12 7 13 8 74 9 14 10 73 11 11 12
REMARK SMILES IDX 7 13 8 14 75 15 9 17 10 18 6 19 5 20 1 21 2 22 3 23 76 24
REMARK SMILES IDX 4 25 20 26 21 27 22 28 23 29 24 31 25 32 26 33 72 34 27 35
REMARK SMILES IDX 71 36 28 37 29 38 30 39 65 40 31 41 70 42 64 43 66 44 32 45
REMARK SMILES IDX 69 46 63 47 62 48 33 50 55 51 40 52 54 53 41 54 44 55 53 56
REMARK SMILES IDX 67 57 42 58 43 59 52 61 68 62 45 63 34 64 35 65 39 66 36 67
REMARK SMILES IDX 38 68 37 69 56 70 57 71 61 72 58 73 60 74 59 75 46 76 47 77
REMARK SMILES IDX 51 78 48 79 50 80 49 81
REMARK H PARENT 18 5 7 16 22 30 66 49 44 60
REMARK Flexibility Score: inf
ROOT
ATOM      1  C   UNL     1      -3.064   9.174  -1.979  1.00  0.00     0.118 C 
ENDROOT
BRANCH   1   2
ATOM      2  N   UNL     1      -4.044   8.214  -2.451  1.00  0.00    -0.352 N 
ATOM      3  C   UNL     1      -3.921   6.912  -2.859  1.00  0.00     0.251 C 
ATOM      4  O   UNL     1      -4.950   6.305  -3.159  1.00  0.00    -0.269 OA
ATOM      5  H   UNL     1      -4.964   8.562  -2.485  1.00  0.00     0.163 HD
BRANCH   3   6
ATOM      6  C   UNL     1      -2.619   6.195  -2.896  1.00  0.00     0.039 A 
ATOM      7  C   UNL     1      -0.229   4.686  -2.865  1.00  0.00    -0.039 A 
ATOM      8  C   UNL     1      -1.469   4.078  -2.610  1.00  0.00     0.005 A 
ATOM      9  C   UNL     1      -0.212   6.043  -3.201  1.00  0.00     0.005 A 
ATOM     10  C   UNL     1      -2.647   4.826  -2.614  1.00  0.00     0.014 A 
ATOM     11  C   UNL     1      -1.399   6.784  -3.236  1.00  0.00     0.014 A 
BRANCH   7  12
ATOM     12  C   UNL     1       1.075   3.904  -2.799  1.00  0.00     0.074 C 
ATOM     13  N   UNL     1       2.364   2.219  -1.411  1.00  0.00    -0.327 N 
ATOM     14  C   UNL     1       2.435   1.320  -2.572  1.00  0.00     0.262 C 
ATOM     15  C   UNL     1       1.187   3.104  -1.482  1.00  0.00     0.270 C 
ATOM     16  H   UNL     1       3.198   2.806  -1.433  1.00  0.00     0.348 HD
ATOM     17  C   UNL     1       2.457   2.107  -3.883  1.00  0.00     0.062 C 
ATOM     18  C   UNL     1       1.216   2.982  -4.017  1.00  0.00     0.020 C 
BRANCH  13  19
ATOM     19  C   UNL     1       2.374   1.454  -0.131  1.00  0.00     0.364 C 
BRANCH  19  20
ATOM     20  C   UNL     1       1.179   0.580   0.106  1.00  0.00     0.281 A 
ATOM     21  C   UNL     1      -2.200  -0.331   0.294  1.00  0.00     0.093 C 
ATOM     22  C   UNL     1      -0.729  -0.260   0.240  1.00  0.00     0.169 A 
ATOM     23  N   UNL     1       0.043  -1.311  -0.066  1.00  0.00    -0.063 NA
ATOM     24  N   UNL     1      -0.058   0.921   0.401  1.00  0.00    -0.191 NA
ATOM     25  O   UNL     1       1.323  -0.753  -0.153  1.00  0.00    -0.333 OA
ENDBRANCH  19  20
ENDBRANCH  13  19
ENDBRANCH   7  12
ENDBRANCH   3   6
ENDBRANCH   1   2
BRANCH   1  26
ATOM     26  C   UNL     1      -2.677  10.152  -3.087  1.00  0.00     0.042 C 
BRANCH  26  27
ATOM     27  C   UNL     1      -3.782  11.143  -3.435  1.00  0.00     0.118 C 
BRANCH  27  28
ATOM     28  N   UNL     1      -3.979  12.131  -2.387  1.00  0.00    -0.352 N 
ATOM     29  C   UNL     1      -3.920  13.501  -2.451  1.00  0.00     0.251 C 
ATOM     30  H   UNL     1      -4.185  11.763  -1.498  1.00  0.00     0.163 HD
ATOM     31  O   UNL     1      -3.902  14.156  -1.414  1.00  0.00    -0.269 OA
BRANCH  29  32
ATOM     32  C   UNL     1      -3.868  14.194  -3.757  1.00  0.00     0.039 A 
ATOM     33  C   UNL     1      -3.026  15.302  -3.894  1.00  0.00     0.014 A 
ATOM     34  C   UNL     1      -4.676  13.795  -4.826  1.00  0.00     0.014 A 
ATOM     35  C   UNL     1      -2.960  15.979  -5.114  1.00  0.00     0.010 A 
ATOM     36  C   UNL     1      -4.562  14.431  -6.061  1.00  0.00     0.010 A 
ATOM     37  C   UNL     1      -3.710  15.534  -6.213  1.00  0.00    -0.014 A 
BRANCH  37  38
ATOM     38  C   UNL     1      -3.622  16.217  -7.528  1.00  0.00     0.031 A 
ATOM     39  C   UNL     1      -4.816  16.938  -8.089  1.00  0.00     0.074 A 
ATOM     40  C   UNL     1      -2.484  16.139  -8.243  1.00  0.00     0.049 A 
ATOM     41  N   UNL     1      -4.949  17.541  -9.243  1.00  0.00    -0.248 NA
ATOM     42  C   UNL     1      -6.027  16.966  -7.253  1.00  0.00     0.031 C 
ATOM     43  C   UNL     1      -1.266  15.441  -7.826  1.00  0.00     0.029 A 
ATOM     44  N   UNL     1      -2.170  16.646  -9.479  1.00  0.00    -0.354 N 
ATOM     45  C   UNL     1      -6.260  18.000  -9.280  1.00  0.00     0.074 A 
ATOM     46  C   UNL     1      -6.893  17.573  -8.052  1.00  0.00     0.031 C 
ATOM     47  C   UNL     1      -0.331  15.583  -8.779  1.00  0.00     0.029 A 
ATOM     48  C   UNL     1      -0.893  16.349  -9.887  1.00  0.00     0.049 A 
ATOM     49  H   UNL     1      -2.800  17.174 -10.021  1.00  0.00     0.167 HD
ATOM     50  C   UNL     1      -6.878  18.726 -10.243  1.00  0.00     0.031 A 
ATOM     51  C   UNL     1      -0.248  16.653 -11.028  1.00  0.00     0.031 A 
ATOM     52  C   UNL     1      -6.245  19.164 -11.458  1.00  0.00     0.049 A 
ATOM     53  C   UNL     1      -0.955  17.456 -12.082  1.00  0.00     0.074 A 
ATOM     54  C   UNL     1      -6.771  19.951 -12.469  1.00  0.00     0.029 A 
ATOM     55  N   UNL     1      -4.947  18.851 -11.828  1.00  0.00    -0.354 N 
ATOM     56  N   UNL     1      -2.176  17.934 -12.075  1.00  0.00    -0.248 NA
ATOM     57  C   UNL     1      -0.191  17.771 -13.297  1.00  0.00     0.031 C 
ATOM     58  C   UNL     1      -5.802  20.080 -13.470  1.00  0.00     0.029 A 
ATOM     59  C   UNL     1      -4.659  19.413 -13.060  1.00  0.00     0.049 A 
ATOM     60  H   UNL     1      -4.322  18.310 -11.293  1.00  0.00     0.167 HD
ATOM     61  C   UNL     1      -2.318  18.627 -13.270  1.00  0.00     0.074 A 
ATOM     62  C   UNL     1      -1.055  18.518 -13.971  1.00  0.00     0.031 C 
ATOM     63  C   UNL     1      -3.398  19.294 -13.743  1.00  0.00     0.031 A 
BRANCH  50  64
ATOM     64  C   UNL     1      -8.320  19.085 -10.019  1.00  0.00    -0.014 A 
ATOM     65  C   UNL     1      -8.691  20.037  -9.056  1.00  0.00     0.009 A 
ATOM     66  C   UNL     1      -9.319  18.488 -10.803  1.00  0.00     0.009 A 
ATOM     67  C   UNL     1     -10.036  20.355  -8.857  1.00  0.00     0.001 A 
ATOM     68  C   UNL     1     -10.661  18.828 -10.621  1.00  0.00     0.001 A 
ATOM     69  C   UNL     1     -11.019  19.754  -9.642  1.00  0.00     0.000 A 
ENDBRANCH  50  64
BRANCH  51  70
ATOM     70  C   UNL     1       1.156  16.211 -11.227  1.00  0.00    -0.014 A 
ATOM     71  C   UNL     1       2.207  17.140 -11.177  1.00  0.00     0.009 A 
ATOM     72  C   UNL     1       1.453  14.860 -11.464  1.00  0.00     0.009 A 
ATOM     73  C   UNL     1       3.525  16.728 -11.384  1.00  0.00     0.001 A 
ATOM     74  C   UNL     1       2.775  14.447 -11.644  1.00  0.00     0.001 A 
ATOM     75  C   UNL     1       3.808  15.382 -11.613  1.00  0.00     0.000 A 
ENDBRANCH  51  70
BRANCH  63  76
ATOM     76  C   UNL     1      -3.248  19.985 -15.068  1.00  0.00    -0.014 A 
ATOM     77  C   UNL     1      -3.221  19.258 -16.268  1.00  0.00     0.009 A 
ATOM     78  C   UNL     1      -3.171  21.385 -15.116  1.00  0.00     0.009 A 
ATOM     79  C   UNL     1      -3.089  19.921 -17.490  1.00  0.00     0.001 A 
ATOM     80  C   UNL     1      -3.065  22.047 -16.340  1.00  0.00     0.001 A 
ATOM     81  C   UNL     1      -3.016  21.314 -17.525  1.00  0.00     0.000 A 
ENDBRANCH  63  76
ENDBRANCH  37  38
ENDBRANCH  29  32
ENDBRANCH  27  28
ENDBRANCH  26  27
ENDBRANCH   1  26
TORSDOF 13
