REMARK SMILES CC(C)(C)[N@@H+](CC(=O)NCCCNC(=O)c1ccc(-c2c3nc(c(-c4ccccc4)c4ccc([nH]4)c(-c4ccccc4)c4nc(c(-c5ccccc5)c5ccc2[nH]5)C=C4)C=C3)cc1)C[C@@H]1Cc2cc(F)ccc2O1
REMARK SMILES IDX 10 1 9 2 7 3 8 4 6 6 5 7 2 9 1 10 3 11 4 12 64 13 65 14
REMARK SMILES IDX 66 15 74 16 67 17 73 18 68 19 72 20 69 21 71 22 70 23 11 24
REMARK SMILES IDX 12 25 13 26 14 27 15 29 16 30 17 31 63 32 18 33 62 34 19 35
REMARK SMILES IDX 20 36 21 37 56 38 22 39 61 40 55 41 57 42 23 43 60 44 54 45
REMARK SMILES IDX 53 46 24 48 46 49 31 50 45 51 32 52 35 53 44 54 58 55 33 56
REMARK SMILES IDX 34 57 43 59 59 60 36 61 25 62 26 63 30 64 27 65 29 66 28 67
REMARK SMILES IDX 47 68 48 69 52 70 49 71 51 72 50 73 37 74 38 75 42 76 39 77
REMARK SMILES IDX 41 78 40 79
REMARK H PARENT 9 5 5 8 13 28 57 47 35 58
REMARK Flexibility Score: inf
ROOT
ATOM      1  C   UNL     1       3.227  -2.032  -0.748  1.00  0.00     0.118 C 
ENDROOT
BRANCH   1   2
ATOM      2  N   UNL     1       3.295  -1.537  -2.115  1.00  0.00    -0.351 N 
ATOM      3  C   UNL     1       3.024  -0.317  -2.671  1.00  0.00     0.275 C 
ATOM      4  O   UNL     1       3.300  -0.173  -3.866  1.00  0.00    -0.269 OA
ATOM      5  H   UNL     1       3.594  -2.212  -2.767  1.00  0.00     0.163 HD
BRANCH   3   6
ATOM      6  C   UNL     1       2.430   0.827  -1.848  1.00  0.00     0.364 C 
BRANCH   6   7
ATOM      7  N   UNL     1       1.042   1.171  -2.235  1.00  0.00    -0.320 N 
ATOM      8  H   UNL     1       0.326   1.597  -1.647  1.00  0.00     0.349 HD
BRANCH   7   9
ATOM      9  C   UNL     1      -0.087   0.420  -1.668  1.00  0.00     0.090 C 
ATOM     10  C   UNL     1       0.110   0.216  -0.141  1.00  0.00     0.078 C 
ATOM     11  C   UNL     1      -0.259  -0.941  -2.378  1.00  0.00     0.078 C 
ATOM     12  C   UNL     1      -1.447   1.145  -1.747  1.00  0.00     0.078 C 
ENDBRANCH   7   9
BRANCH   7  13
ATOM     13  C   UNL     1       0.931   2.181  -3.295  1.00  0.00     0.309 C 
BRANCH  13  14
ATOM     14  C   UNL     1       0.263   1.956  -4.681  1.00  0.00     0.232 C 
ATOM     15  C   UNL     1      -1.168   2.512  -4.821  1.00  0.00     0.090 C 
ATOM     16  O   UNL     1       0.314   0.582  -5.129  1.00  0.00    -0.484 OA
ATOM     17  C   UNL     1      -1.810   1.395  -5.548  1.00  0.00     0.001 A 
ATOM     18  C   UNL     1      -0.898   0.368  -5.730  1.00  0.00     0.123 A 
ATOM     19  C   UNL     1      -3.109   1.278  -6.012  1.00  0.00     0.047 A 
ATOM     20  C   UNL     1      -1.220  -0.786  -6.419  1.00  0.00     0.050 A 
ATOM     21  C   UNL     1      -3.451   0.112  -6.696  1.00  0.00     0.123 A 
ATOM     22  C   UNL     1      -2.519  -0.909  -6.915  1.00  0.00     0.043 A 
ATOM     23  F   UNL     1      -4.702  -0.034  -7.154  1.00  0.00    -0.207 F 
ENDBRANCH  13  14
ENDBRANCH   7  13
ENDBRANCH   6   7
ENDBRANCH   3   6
ENDBRANCH   1   2
BRANCH   1  24
ATOM     24  C   UNL     1       1.987  -2.872  -0.428  1.00  0.00     0.042 C 
BRANCH  24  25
ATOM     25  C   UNL     1       1.677  -4.010  -1.401  1.00  0.00     0.118 C 
BRANCH  25  26
ATOM     26  N   UNL     1       2.134  -5.287  -0.886  1.00  0.00    -0.352 N 
ATOM     27  C   UNL     1       1.411  -6.418  -0.606  1.00  0.00     0.251 C 
ATOM     28  H   UNL     1       3.101  -5.351  -0.713  1.00  0.00     0.163 HD
ATOM     29  O   UNL     1       1.926  -7.302   0.083  1.00  0.00    -0.269 OA
BRANCH  27  30
ATOM     30  C   UNL     1       0.033  -6.618  -1.122  1.00  0.00     0.039 A 
ATOM     31  C   UNL     1      -0.900  -7.261  -0.300  1.00  0.00     0.014 A 
ATOM     32  C   UNL     1      -0.313  -6.307  -2.442  1.00  0.00     0.014 A 
ATOM     33  C   UNL     1      -2.165  -7.599  -0.794  1.00  0.00     0.010 A 
ATOM     34  C   UNL     1      -1.591  -6.613  -2.925  1.00  0.00     0.010 A 
ATOM     35  C   UNL     1      -2.519  -7.289  -2.116  1.00  0.00    -0.014 A 
BRANCH  35  36
ATOM     36  C   UNL     1      -3.821  -7.740  -2.679  1.00  0.00     0.031 A 
ATOM     37  C   UNL     1      -3.859  -8.851  -3.697  1.00  0.00     0.074 A 
ATOM     38  C   UNL     1      -4.972  -7.165  -2.282  1.00  0.00     0.049 A 
ATOM     39  N   UNL     1      -4.889  -9.370  -4.318  1.00  0.00    -0.248 NA
ATOM     40  C   UNL     1      -2.569  -9.454  -4.068  1.00  0.00     0.031 C 
ATOM     41  C   UNL     1      -5.088  -6.087  -1.300  1.00  0.00     0.029 A 
ATOM     42  N   UNL     1      -6.269  -7.414  -2.660  1.00  0.00    -0.354 N 
ATOM     43  C   UNL     1      -4.373 -10.352  -5.155  1.00  0.00     0.074 A 
ATOM     44  C   UNL     1      -2.935 -10.332  -4.992  1.00  0.00     0.031 C 
ATOM     45  C   UNL     1      -6.386  -5.779  -1.141  1.00  0.00     0.029 A 
ATOM     46  C   UNL     1      -7.191  -6.614  -2.029  1.00  0.00     0.049 A 
ATOM     47  H   UNL     1      -6.516  -8.102  -3.320  1.00  0.00     0.167 HD
ATOM     48  C   UNL     1      -5.031 -11.207  -5.975  1.00  0.00     0.031 A 
ATOM     49  C   UNL     1      -8.531  -6.556  -2.153  1.00  0.00     0.031 A 
ATOM     50  C   UNL     1      -6.459 -11.243  -6.144  1.00  0.00     0.049 A 
ATOM     51  C   UNL     1      -9.233  -7.487  -3.104  1.00  0.00     0.074 A 
ATOM     52  C   UNL     1      -7.213 -12.085  -6.945  1.00  0.00     0.029 A 
ATOM     53  N   UNL     1      -7.351 -10.403  -5.498  1.00  0.00    -0.354 N 
ATOM     54  N   UNL     1      -8.730  -8.425  -3.866  1.00  0.00    -0.248 NA
ATOM     55  C   UNL     1     -10.696  -7.353  -3.200  1.00  0.00     0.031 C 
ATOM     56  C   UNL     1      -8.559 -11.733  -6.807  1.00  0.00     0.029 A 
ATOM     57  C   UNL     1      -8.645 -10.700  -5.889  1.00  0.00     0.049 A 
ATOM     58  H   UNL     1      -7.101  -9.699  -4.857  1.00  0.00     0.167 HD
ATOM     59  C   UNL     1      -9.813  -9.013  -4.508  1.00  0.00     0.074 A 
ATOM     60  C   UNL     1     -11.002  -8.334  -4.038  1.00  0.00     0.031 C 
ATOM     61  C   UNL     1      -9.821 -10.027  -5.405  1.00  0.00     0.031 A 
BRANCH  48  62
ATOM     62  C   UNL     1      -4.205 -12.186  -6.760  1.00  0.00    -0.014 A 
ATOM     63  C   UNL     1      -3.617 -13.297  -6.135  1.00  0.00     0.009 A 
ATOM     64  C   UNL     1      -4.054 -12.025  -8.146  1.00  0.00     0.009 A 
ATOM     65  C   UNL     1      -2.870 -14.213  -6.879  1.00  0.00     0.001 A 
ATOM     66  C   UNL     1      -3.326 -12.955  -8.890  1.00  0.00     0.001 A 
ATOM     67  C   UNL     1      -2.729 -14.044  -8.255  1.00  0.00     0.000 A 
ENDBRANCH  48  62
BRANCH  49  68
ATOM     68  C   UNL     1      -9.315  -5.582  -1.351  1.00  0.00    -0.014 A 
ATOM     69  C   UNL     1     -10.137  -6.024  -0.302  1.00  0.00     0.009 A 
ATOM     70  C   UNL     1      -9.272  -4.212  -1.651  1.00  0.00     0.009 A 
ATOM     71  C   UNL     1     -10.923  -5.115   0.410  1.00  0.00     0.001 A 
ATOM     72  C   UNL     1     -10.041  -3.304  -0.920  1.00  0.00     0.001 A 
ATOM     73  C   UNL     1     -10.873  -3.757   0.102  1.00  0.00     0.000 A 
ENDBRANCH  49  68
BRANCH  61  74
ATOM     74  C   UNL     1     -11.157 -10.496  -5.904  1.00  0.00    -0.014 A 
ATOM     75  C   UNL     1     -11.890  -9.748  -6.837  1.00  0.00     0.009 A 
ATOM     76  C   UNL     1     -11.672 -11.724  -5.459  1.00  0.00     0.009 A 
ATOM     77  C   UNL     1     -13.127 -10.207  -7.293  1.00  0.00     0.001 A 
ATOM     78  C   UNL     1     -12.898 -12.191  -5.934  1.00  0.00     0.001 A 
ATOM     79  C   UNL     1     -13.628 -11.429  -6.844  1.00  0.00     0.000 A 
ENDBRANCH  61  74
ENDBRANCH  35  36
ENDBRANCH  27  30
ENDBRANCH  25  26
ENDBRANCH  24  25
ENDBRANCH   1  24
TORSDOF 14
