REMARK SMILES Cc1cc(OC(F)(F)F)cc2c1O[C@@H](C(F)(F)F)C(C(=O)NCCCNC(=O)c1ccc(-c3c4nc(c(-c5ccccc5)c5ccc([nH]5)c(-c5ccccc5)c5nc(c(-c6ccccc6)c6ccc3[nH]6)C=C5)C=C4)cc1)=C2
REMARK SMILES IDX 24 1 23 2 22 3 20 4 21 5 19 7 1 8 2 9 3 10 12 11 4 12 11 13
REMARK SMILES IDX 13 14 10 15 77 16 14 17 5 18 6 19 7 20 8 21 9 22 15 23 16 24
REMARK SMILES IDX 17 25 18 26 25 27 26 28 27 29 28 31 29 32 30 33 76 34 31 35
REMARK SMILES IDX 75 36 32 37 33 38 34 39 69 40 35 41 74 42 68 43 70 44 36 45
REMARK SMILES IDX 73 46 67 47 66 48 37 50 59 51 44 52 58 53 45 54 48 55 57 56
REMARK SMILES IDX 71 57 46 58 47 59 56 61 72 62 49 63 38 64 39 65 43 66 40 67
REMARK SMILES IDX 42 68 41 69 60 70 61 71 65 72 62 73 64 74 63 75 50 76 51 77
REMARK SMILES IDX 55 78 52 79 54 80 53 81
REMARK H PARENT 22 6 26 30 70 49 48 60
REMARK Flexibility Score: inf
ROOT
ATOM      1  C   UNL     1      -6.131  -0.669  -2.643  1.00  0.00     0.042 C 
ENDROOT
BRANCH   1   2
ATOM      2  C   UNL     1      -5.190   0.075  -3.583  1.00  0.00     0.118 C 
BRANCH   2   3
ATOM      3  N   UNL     1      -5.192   1.504  -3.313  1.00  0.00    -0.352 N 
ATOM      4  C   UNL     1      -4.383   2.403  -2.708  1.00  0.00     0.251 C 
ATOM      5  O   UNL     1      -4.784   3.571  -2.742  1.00  0.00    -0.270 OA
ATOM      6  H   UNL     1      -6.005   1.934  -3.666  1.00  0.00     0.163 HD
BRANCH   4   7
ATOM      7  C   UNL     1      -3.091   2.086  -2.033  1.00  0.00     0.067 C 
ATOM      8  C   UNL     1       1.127   0.012   0.042  1.00  0.00     0.048 C 
ATOM      9  C   UNL     1       0.644   1.410  -0.228  1.00  0.00    -0.005 A 
ATOM     10  C   UNL     1       1.394   2.507   0.222  1.00  0.00     0.054 A 
ATOM     11  C   UNL     1      -0.582   1.639  -0.864  1.00  0.00     0.131 A 
ATOM     12  C   UNL     1       0.946   3.813   0.010  1.00  0.00     0.130 A 
ATOM     13  C   UNL     1      -1.042   2.938  -1.081  1.00  0.00     0.021 A 
ATOM     14  O   UNL     1      -1.272   0.544  -1.297  1.00  0.00    -0.475 OA
ATOM     15  C   UNL     1      -0.274   4.021  -0.643  1.00  0.00     0.058 A 
ATOM     16  C   UNL     1      -2.299   3.146  -1.788  1.00  0.00     0.025 C 
ATOM     17  C   UNL     1      -2.688   0.719  -1.559  1.00  0.00     0.314 C 
BRANCH  12  18
ATOM     18  O   UNL     1       1.591   4.959   0.383  1.00  0.00    -0.406 OA
BRANCH  18  19
ATOM     19  C   UNL     1       2.870   4.831   0.980  1.00  0.00     0.573 C 
ATOM     20  F   UNL     1       2.794   4.167   2.153  1.00  0.00    -0.132 F 
ATOM     21  F   UNL     1       3.732   4.194   0.157  1.00  0.00    -0.132 F 
ATOM     22  F   UNL     1       3.361   6.065   1.226  1.00  0.00    -0.132 F 
ENDBRANCH  18  19
ENDBRANCH  12  18
BRANCH  17  23
ATOM     23  C   UNL     1      -3.505   0.209  -0.360  1.00  0.00     0.429 C 
ATOM     24  F   UNL     1      -2.834   0.296   0.810  1.00  0.00    -0.167 F 
ATOM     25  F   UNL     1      -4.670   0.877  -0.196  1.00  0.00    -0.167 F 
ATOM     26  F   UNL     1      -3.828  -1.098  -0.539  1.00  0.00    -0.167 F 
ENDBRANCH  17  23
ENDBRANCH   4   7
ENDBRANCH   2   3
ENDBRANCH   1   2
BRANCH   1  27
ATOM     27  C   UNL     1      -7.586  -0.557  -3.084  1.00  0.00     0.118 C 
BRANCH  27  28
ATOM     28  N   UNL     1      -7.849  -1.390  -4.251  1.00  0.00    -0.352 N 
ATOM     29  C   UNL     1      -8.423  -2.635  -4.316  1.00  0.00     0.251 C 
ATOM     30  H   UNL     1      -7.577  -1.004  -5.115  1.00  0.00     0.163 HD
ATOM     31  O   UNL     1      -8.296  -3.319  -5.327  1.00  0.00    -0.269 OA
BRANCH  29  32
ATOM     32  C   UNL     1      -9.194  -3.151  -3.167  1.00  0.00     0.039 A 
ATOM     33  C   UNL     1      -9.026  -4.481  -2.772  1.00  0.00     0.014 A 
ATOM     34  C   UNL     1     -10.119  -2.332  -2.514  1.00  0.00     0.014 A 
ATOM     35  C   UNL     1      -9.760  -4.976  -1.693  1.00  0.00     0.010 A 
ATOM     36  C   UNL     1     -10.792  -2.802  -1.393  1.00  0.00     0.010 A 
ATOM     37  C   UNL     1     -10.637  -4.136  -0.990  1.00  0.00    -0.014 A 
BRANCH  37  38
ATOM     38  C   UNL     1     -11.462  -4.653   0.125  1.00  0.00     0.031 A 
ATOM     39  C   UNL     1     -12.951  -4.764  -0.046  1.00  0.00     0.074 A 
ATOM     40  C   UNL     1     -10.883  -4.995   1.291  1.00  0.00     0.049 A 
ATOM     41  N   UNL     1     -13.848  -5.176   0.811  1.00  0.00    -0.248 NA
ATOM     42  C   UNL     1     -13.509  -4.343  -1.343  1.00  0.00     0.031 C 
ATOM     43  C   UNL     1      -9.451  -4.910   1.582  1.00  0.00     0.029 A 
ATOM     44  N   UNL     1     -11.431  -5.489   2.447  1.00  0.00    -0.354 N 
ATOM     45  C   UNL     1     -15.068  -5.061   0.160  1.00  0.00     0.074 A 
ATOM     46  C   UNL     1     -14.810  -4.490  -1.142  1.00  0.00     0.031 C 
ATOM     47  C   UNL     1      -9.230  -5.370   2.824  1.00  0.00     0.029 A 
ATOM     48  C   UNL     1     -10.505  -5.754   3.426  1.00  0.00     0.049 A 
ATOM     49  H   UNL     1     -12.397  -5.640   2.565  1.00  0.00     0.167 HD
ATOM     50  C   UNL     1     -16.294  -5.429   0.596  1.00  0.00     0.031 A 
ATOM     51  C   UNL     1     -10.663  -6.255   4.666  1.00  0.00     0.031 A 
ATOM     52  C   UNL     1     -16.548  -6.020   1.878  1.00  0.00     0.049 A 
ATOM     53  C   UNL     1     -12.039  -6.625   5.142  1.00  0.00     0.074 A 
ATOM     54  C   UNL     1     -17.751  -6.475   2.387  1.00  0.00     0.029 A 
ATOM     55  N   UNL     1     -15.585  -6.242   2.848  1.00  0.00    -0.354 N 
ATOM     56  N   UNL     1     -13.177  -6.557   4.495  1.00  0.00    -0.248 NA
ATOM     57  C   UNL     1     -12.157  -7.143   6.513  1.00  0.00     0.031 C 
ATOM     58  C   UNL     1     -17.523  -6.933   3.686  1.00  0.00     0.029 A 
ATOM     59  C   UNL     1     -16.172  -6.805   3.965  1.00  0.00     0.049 A 
ATOM     60  H   UNL     1     -14.628  -6.032   2.755  1.00  0.00     0.167 HD
ATOM     61  C   UNL     1     -14.142  -7.035   5.371  1.00  0.00     0.074 A 
ATOM     62  C   UNL     1     -13.457  -7.399   6.594  1.00  0.00     0.031 C 
ATOM     63  C   UNL     1     -15.475  -7.161   5.173  1.00  0.00     0.031 A 
BRANCH  50  64
ATOM     64  C   UNL     1     -17.457  -5.229  -0.330  1.00  0.00    -0.014 A 
ATOM     65  C   UNL     1     -17.649  -6.078  -1.431  1.00  0.00     0.009 A 
ATOM     66  C   UNL     1     -18.415  -4.245  -0.049  1.00  0.00     0.009 A 
ATOM     67  C   UNL     1     -18.776  -5.936  -2.242  1.00  0.00     0.001 A 
ATOM     68  C   UNL     1     -19.552  -4.120  -0.849  1.00  0.00     0.001 A 
ATOM     69  C   UNL     1     -19.730  -4.963  -1.945  1.00  0.00     0.000 A 
ENDBRANCH  50  64
BRANCH  51  70
ATOM     70  C   UNL     1      -9.469  -6.469   5.522  1.00  0.00    -0.014 A 
ATOM     71  C   UNL     1      -8.962  -7.762   5.715  1.00  0.00     0.009 A 
ATOM     72  C   UNL     1      -8.797  -5.380   6.099  1.00  0.00     0.009 A 
ATOM     73  C   UNL     1      -7.804  -7.961   6.471  1.00  0.00     0.001 A 
ATOM     74  C   UNL     1      -7.629  -5.581   6.838  1.00  0.00     0.001 A 
ATOM     75  C   UNL     1      -7.135  -6.871   7.025  1.00  0.00     0.000 A 
ENDBRANCH  51  70
BRANCH  63  76
ATOM     76  C   UNL     1     -16.310  -7.714   6.290  1.00  0.00    -0.014 A 
ATOM     77  C   UNL     1     -16.695  -6.898   7.363  1.00  0.00     0.009 A 
ATOM     78  C   UNL     1     -16.847  -9.007   6.183  1.00  0.00     0.009 A 
ATOM     79  C   UNL     1     -17.612  -7.365   8.306  1.00  0.00     0.001 A 
ATOM     80  C   UNL     1     -17.778  -9.463   7.116  1.00  0.00     0.001 A 
ATOM     81  C   UNL     1     -18.161  -8.641   8.175  1.00  0.00     0.000 A 
ENDBRANCH  63  76
ENDBRANCH  37  38
ENDBRANCH  29  32
ENDBRANCH  27  28
ENDBRANCH   1  27
TORSDOF 13
