REMARK SMILES CS(=O)(=O)c1ccc(-n2nc(C(F)(F)F)cc2-c2ccc(CC(=O)NCCCNC(=O)c3ccc(-c4c5nc(c(-c6ccccc6)c6ccc([nH]6)c(-c6ccccc6)c6nc(c(-c7ccccc7)c7ccc4[nH]7)C=C6)C=C5)cc3)cc2)cc1
REMARK SMILES IDX 26 1 25 2 23 3 24 4 22 6 21 7 18 8 19 9 81 10 20 11 80 12
REMARK SMILES IDX 17 13 9 14 10 15 11 16 16 17 8 18 5 19 6 20 83 21 7 22 82 23
REMARK SMILES IDX 2 24 1 25 3 26 4 27 12 28 13 29 14 30 15 31 27 32 28 33
REMARK SMILES IDX 29 34 30 35 31 37 32 38 33 39 79 40 34 41 78 42 35 43 36 44
REMARK SMILES IDX 37 45 72 46 38 47 77 48 71 49 73 50 39 51 76 52 70 53 69 54
REMARK SMILES IDX 40 56 62 57 47 58 61 59 48 60 51 61 60 62 74 63 49 64 50 65
REMARK SMILES IDX 59 67 75 68 52 69 41 70 42 71 46 72 43 73 45 74 44 75 63 76
REMARK SMILES IDX 64 77 68 78 65 79 67 80 66 81 53 82 54 83 58 84 55 85 57 86
REMARK SMILES IDX 56 87
REMARK H PARENT 25 5 29 36 73 55 51 66
REMARK Flexibility Score: inf
ROOT
ATOM      1  C   UNL     1       2.638  -5.323  -1.513  1.00  0.00     0.117 C 
ENDROOT
BRANCH   1   2
ATOM      2  N   UNL     1       3.741  -4.375  -1.574  1.00  0.00    -0.356 N 
ATOM      3  C   UNL     1       4.961  -4.424  -0.959  1.00  0.00     0.224 C 
ATOM      4  O   UNL     1       5.721  -3.464  -1.095  1.00  0.00    -0.275 OA
ATOM      5  H   UNL     1       3.586  -3.584  -2.139  1.00  0.00     0.163 HD
BRANCH   3   6
ATOM      6  C   UNL     1       5.360  -5.646  -0.147  1.00  0.00     0.135 C 
BRANCH   6   7
ATOM      7  C   UNL     1       4.709  -5.712   1.213  1.00  0.00    -0.039 A 
ATOM      8  C   UNL     1       3.430  -5.796   3.728  1.00  0.00     0.000 A 
ATOM      9  C   UNL     1       4.330  -4.764   3.410  1.00  0.00     0.010 A 
ATOM     10  C   UNL     1       3.222  -6.814   2.796  1.00  0.00     0.010 A 
ATOM     11  C   UNL     1       4.952  -4.714   2.162  1.00  0.00     0.005 A 
ATOM     12  C   UNL     1       3.862  -6.777   1.553  1.00  0.00     0.005 A 
BRANCH   8  13
ATOM     13  C   UNL     1       2.680  -5.767   4.989  1.00  0.00     0.075 A 
ATOM     14  N   UNL     1       2.019  -4.649   5.485  1.00  0.00    -0.233 N 
ATOM     15  N   UNL     1       1.635  -4.803   6.771  1.00  0.00    -0.163 NA
ATOM     16  C   UNL     1       1.799  -6.117   7.017  1.00  0.00     0.167 A 
ATOM     17  C   UNL     1       2.478  -6.748   5.940  1.00  0.00     0.064 A 
BRANCH  14  18
ATOM     18  C   UNL     1       1.704  -3.465   4.782  1.00  0.00     0.065 A 
ATOM     19  C   UNL     1       1.299  -1.165   3.321  1.00  0.00     0.067 A 
ATOM     20  C   UNL     1       1.060  -2.405   2.725  1.00  0.00     0.022 A 
ATOM     21  C   UNL     1       1.679  -1.057   4.659  1.00  0.00     0.022 A 
ATOM     22  C   UNL     1       1.274  -3.560   3.453  1.00  0.00     0.030 A 
ATOM     23  C   UNL     1       1.861  -2.221   5.405  1.00  0.00     0.030 A 
BRANCH  19  24
ATOM     24  S   UNL     1       0.928   0.272   2.371  1.00  0.00     0.175 S 
ATOM     25  C   UNL     1       2.081   0.235   1.021  1.00  0.00     0.163 C 
ATOM     26  O   UNL     1       1.186   1.441   3.166  1.00  0.00    -0.224 OA
ATOM     27  O   UNL     1      -0.401  -0.010   1.840  1.00  0.00    -0.224 OA
ENDBRANCH  19  24
ENDBRANCH  14  18
BRANCH  16  28
ATOM     28  C   UNL     1       1.317  -6.771   8.283  1.00  0.00     0.435 C 
ATOM     29  F   UNL     1       1.665  -6.085   9.402  1.00  0.00    -0.164 F 
ATOM     30  F   UNL     1      -0.036  -6.905   8.300  1.00  0.00    -0.164 F 
ATOM     31  F   UNL     1       1.826  -8.026   8.424  1.00  0.00    -0.164 F 
ENDBRANCH  16  28
ENDBRANCH   8  13
ENDBRANCH   6   7
ENDBRANCH   3   6
ENDBRANCH   1   2
BRANCH   1  32
ATOM     32  C   UNL     1       1.532  -4.878  -0.549  1.00  0.00     0.042 C 
BRANCH  32  33
ATOM     33  C   UNL     1       0.680  -3.746  -1.109  1.00  0.00     0.118 C 
BRANCH  33  34
ATOM     34  N   UNL     1      -0.209  -4.149  -2.203  1.00  0.00    -0.352 N 
ATOM     35  C   UNL     1      -1.142  -3.380  -2.887  1.00  0.00     0.251 C 
ATOM     36  H   UNL     1      -0.136  -5.087  -2.490  1.00  0.00     0.163 HD
ATOM     37  O   UNL     1      -2.029  -3.914  -3.541  1.00  0.00    -0.269 OA
BRANCH  35  38
ATOM     38  C   UNL     1      -1.055  -1.905  -2.817  1.00  0.00     0.039 A 
ATOM     39  C   UNL     1      -2.180  -1.072  -2.769  1.00  0.00     0.014 A 
ATOM     40  C   UNL     1       0.209  -1.350  -2.769  1.00  0.00     0.014 A 
ATOM     41  C   UNL     1      -2.010   0.310  -2.581  1.00  0.00     0.010 A 
ATOM     42  C   UNL     1       0.358  -0.055  -2.352  1.00  0.00     0.010 A 
ATOM     43  C   UNL     1      -0.729   0.822  -2.342  1.00  0.00    -0.014 A 
BRANCH  43  44
ATOM     44  C   UNL     1      -0.449   2.231  -1.994  1.00  0.00     0.031 A 
ATOM     45  C   UNL     1      -1.167   2.839  -0.812  1.00  0.00     0.074 A 
ATOM     46  C   UNL     1       0.674   2.824  -2.483  1.00  0.00     0.049 A 
ATOM     47  N   UNL     1      -1.388   4.090  -0.554  1.00  0.00    -0.248 NA
ATOM     48  C   UNL     1      -1.648   1.953   0.255  1.00  0.00     0.031 C 
ATOM     49  C   UNL     1       1.649   2.281  -3.451  1.00  0.00     0.029 A 
ATOM     50  N   UNL     1       1.292   3.968  -2.074  1.00  0.00    -0.354 N 
ATOM     51  C   UNL     1      -1.884   4.150   0.753  1.00  0.00     0.074 A 
ATOM     52  C   UNL     1      -1.966   2.801   1.235  1.00  0.00     0.031 C 
ATOM     53  C   UNL     1       2.825   2.934  -3.337  1.00  0.00     0.029 A 
ATOM     54  C   UNL     1       2.628   4.068  -2.460  1.00  0.00     0.049 A 
ATOM     55  H   UNL     1       0.834   4.664  -1.550  1.00  0.00     0.167 HD
ATOM     56  C   UNL     1      -2.165   5.315   1.395  1.00  0.00     0.031 A 
ATOM     57  C   UNL     1       3.529   5.012  -2.100  1.00  0.00     0.031 A 
ATOM     58  C   UNL     1      -2.524   6.349   0.472  1.00  0.00     0.049 A 
ATOM     59  C   UNL     1       2.765   6.163  -1.583  1.00  0.00     0.074 A 
ATOM     60  C   UNL     1      -3.525   6.466  -0.471  1.00  0.00     0.029 A 
ATOM     61  N   UNL     1      -1.590   7.295   0.139  1.00  0.00    -0.354 N 
ATOM     62  N   UNL     1       1.980   6.893  -2.321  1.00  0.00    -0.248 NA
ATOM     63  C   UNL     1       2.555   6.253  -0.150  1.00  0.00     0.031 C 
ATOM     64  C   UNL     1      -2.875   7.040  -1.601  1.00  0.00     0.029 A 
ATOM     65  C   UNL     1      -1.555   7.309  -1.232  1.00  0.00     0.049 A 
ATOM     66  H   UNL     1      -1.056   7.848   0.754  1.00  0.00     0.167 HD
ATOM     67  C   UNL     1       0.909   7.191  -1.496  1.00  0.00     0.074 A 
ATOM     68  C   UNL     1       1.369   6.865  -0.145  1.00  0.00     0.031 C 
ATOM     69  C   UNL     1      -0.340   7.409  -2.005  1.00  0.00     0.031 A 
BRANCH  56  70
ATOM     70  C   UNL     1      -1.810   5.589   2.831  1.00  0.00    -0.014 A 
ATOM     71  C   UNL     1      -2.149   6.839   3.388  1.00  0.00     0.009 A 
ATOM     72  C   UNL     1      -0.890   4.800   3.545  1.00  0.00     0.009 A 
ATOM     73  C   UNL     1      -1.519   7.319   4.543  1.00  0.00     0.001 A 
ATOM     74  C   UNL     1      -0.282   5.267   4.717  1.00  0.00     0.001 A 
ATOM     75  C   UNL     1      -0.572   6.539   5.197  1.00  0.00     0.000 A 
ENDBRANCH  56  70
BRANCH  57  76
ATOM     76  C   UNL     1       5.003   4.955  -2.023  1.00  0.00    -0.014 A 
ATOM     77  C   UNL     1       5.769   6.130  -2.089  1.00  0.00     0.009 A 
ATOM     78  C   UNL     1       5.648   3.772  -1.621  1.00  0.00     0.009 A 
ATOM     79  C   UNL     1       7.122   6.130  -1.725  1.00  0.00     0.001 A 
ATOM     80  C   UNL     1       7.000   3.772  -1.259  1.00  0.00     0.001 A 
ATOM     81  C   UNL     1       7.733   4.954  -1.296  1.00  0.00     0.000 A 
ENDBRANCH  57  76
BRANCH  69  82
ATOM     82  C   UNL     1      -0.512   7.455  -3.507  1.00  0.00    -0.014 A 
ATOM     83  C   UNL     1      -0.181   6.375  -4.345  1.00  0.00     0.009 A 
ATOM     84  C   UNL     1      -1.214   8.530  -4.068  1.00  0.00     0.009 A 
ATOM     85  C   UNL     1      -0.522   6.380  -5.702  1.00  0.00     0.001 A 
ATOM     86  C   UNL     1      -1.576   8.527  -5.418  1.00  0.00     0.001 A 
ATOM     87  C   UNL     1      -1.226   7.454  -6.236  1.00  0.00     0.000 A 
ENDBRANCH  69  82
ENDBRANCH  43  44
ENDBRANCH  35  38
ENDBRANCH  33  34
ENDBRANCH  32  33
ENDBRANCH   1  32
TORSDOF 15
