REMARK SMILES O=C(NCCCNC(=O)[C@@H]1CN(c2ncccn2)CCN1C(=O)C1CCOCC1)c1ccc(-c2c3nc(c(-c4ccccc4)c4ccc([nH]4)c(-c4ccccc4)c4nc(c(-c5ccccc5)c5ccc2[nH]5)C=C4)C=C3)cc1
REMARK SMILES IDX 5 1 4 2 3 3 1 4 2 5 30 7 31 8 77 9 32 10 76 11 33 12 34 13
REMARK SMILES IDX 35 14 70 15 36 16 75 17 69 18 71 19 37 20 74 21 68 22 67 23
REMARK SMILES IDX 38 25 60 26 45 27 59 28 46 29 49 30 58 31 72 32 47 33 48 34
REMARK SMILES IDX 57 36 73 37 50 38 39 39 40 40 44 41 41 42 43 43 42 44 61 45
REMARK SMILES IDX 62 46 66 47 63 48 65 49 64 50 51 51 52 52 56 53 53 54 55 55
REMARK SMILES IDX 54 56 6 57 7 58 8 59 9 61 10 62 11 63 21 64 12 65 20 66
REMARK SMILES IDX 19 67 22 68 23 69 24 70 25 71 29 72 26 73 28 74 27 75 13 76
REMARK SMILES IDX 14 77 18 78 15 79 17 80 16 81
REMARK H PARENT 3 6 71 24 49 35 7 60
REMARK Flexibility Score: inf
ROOT
ATOM      1  C   UNL     1       4.658  -2.604   0.803  1.00  0.00     0.042 C 
ENDROOT
BRANCH   1   2
ATOM      2  C   UNL     1       4.451  -1.284   0.068  1.00  0.00     0.118 C 
BRANCH   2   3
ATOM      3  N   UNL     1       3.055  -1.034  -0.269  1.00  0.00    -0.352 N 
ATOM      4  O   UNL     1       1.107   0.111  -0.256  1.00  0.00    -0.269 OA
ATOM      5  C   UNL     1       2.309   0.102  -0.050  1.00  0.00     0.251 C 
ATOM      6  H   UNL     1       2.584  -1.776  -0.712  1.00  0.00     0.163 HD
BRANCH   5   7
ATOM      7  C   UNL     1       2.988   1.306   0.474  1.00  0.00     0.039 A 
ATOM      8  C   UNL     1       4.172   1.757  -0.112  1.00  0.00     0.014 A 
ATOM      9  C   UNL     1       2.454   1.957   1.589  1.00  0.00     0.014 A 
ATOM     10  C   UNL     1       4.902   2.763   0.507  1.00  0.00     0.010 A 
ATOM     11  C   UNL     1       3.150   3.023   2.162  1.00  0.00     0.010 A 
ATOM     12  C   UNL     1       4.400   3.407   1.650  1.00  0.00    -0.014 A 
BRANCH  12  13
ATOM     13  C   UNL     1       5.189   4.496   2.275  1.00  0.00     0.031 A 
ATOM     14  C   UNL     1       5.768   4.345   3.654  1.00  0.00     0.074 A 
ATOM     15  C   UNL     1       5.417   5.619   1.567  1.00  0.00     0.049 A 
ATOM     16  N   UNL     1       6.514   5.184   4.330  1.00  0.00    -0.248 NA
ATOM     17  C   UNL     1       5.466   3.098   4.374  1.00  0.00     0.031 C 
ATOM     18  C   UNL     1       4.911   5.881   0.217  1.00  0.00     0.029 A 
ATOM     19  N   UNL     1       6.154   6.733   1.869  1.00  0.00    -0.354 N 
ATOM     20  C   UNL     1       6.744   4.582   5.561  1.00  0.00     0.074 A 
ATOM     21  C   UNL     1       6.046   3.314   5.547  1.00  0.00     0.031 C 
ATOM     22  C   UNL     1       5.404   7.050  -0.216  1.00  0.00     0.029 A 
ATOM     23  C   UNL     1       6.208   7.646   0.845  1.00  0.00     0.049 A 
ATOM     24  H   UNL     1       6.601   6.867   2.736  1.00  0.00     0.167 HD
ATOM     25  C   UNL     1       7.470   5.045   6.607  1.00  0.00     0.031 A 
ATOM     26  C   UNL     1       6.832   8.834   0.766  1.00  0.00     0.031 A 
ATOM     27  C   UNL     1       8.176   6.300   6.615  1.00  0.00     0.049 A 
ATOM     28  C   UNL     1       7.621   9.326   1.942  1.00  0.00     0.074 A 
ATOM     29  C   UNL     1       8.969   6.838   7.615  1.00  0.00     0.029 A 
ATOM     30  N   UNL     1       8.172   7.214   5.573  1.00  0.00    -0.354 N 
ATOM     31  N   UNL     1       7.847   8.734   3.089  1.00  0.00    -0.248 NA
ATOM     32  C   UNL     1       8.240  10.651   1.810  1.00  0.00     0.031 C 
ATOM     33  C   UNL     1       9.411   8.097   7.193  1.00  0.00     0.029 A 
ATOM     34  C   UNL     1       8.932   8.321   5.912  1.00  0.00     0.049 A 
ATOM     35  H   UNL     1       7.700   7.093   4.718  1.00  0.00     0.167 HD
ATOM     36  C   UNL     1       8.650   9.605   3.810  1.00  0.00     0.074 A 
ATOM     37  C   UNL     1       8.884  10.759   2.964  1.00  0.00     0.031 C 
ATOM     38  C   UNL     1       9.150   9.462   5.062  1.00  0.00     0.031 A 
BRANCH  25  39
ATOM     39  C   UNL     1       7.508   4.199   7.850  1.00  0.00    -0.014 A 
ATOM     40  C   UNL     1       8.252   3.010   7.905  1.00  0.00     0.009 A 
ATOM     41  C   UNL     1       6.812   4.619   8.995  1.00  0.00     0.009 A 
ATOM     42  C   UNL     1       8.269   2.241   9.072  1.00  0.00     0.001 A 
ATOM     43  C   UNL     1       6.850   3.861  10.166  1.00  0.00     0.001 A 
ATOM     44  C   UNL     1       7.571   2.668  10.201  1.00  0.00     0.000 A 
ENDBRANCH  25  39
BRANCH  26  45
ATOM     45  C   UNL     1       6.740   9.630  -0.483  1.00  0.00    -0.014 A 
ATOM     46  C   UNL     1       7.850   9.749  -1.332  1.00  0.00     0.009 A 
ATOM     47  C   UNL     1       5.533  10.246  -0.848  1.00  0.00     0.009 A 
ATOM     48  C   UNL     1       7.756  10.482  -2.516  1.00  0.00     0.001 A 
ATOM     49  C   UNL     1       5.435  10.957  -2.045  1.00  0.00     0.001 A 
ATOM     50  C   UNL     1       6.548  11.079  -2.875  1.00  0.00     0.000 A 
ENDBRANCH  26  45
BRANCH  38  51
ATOM     51  C   UNL     1      10.024  10.570   5.572  1.00  0.00    -0.014 A 
ATOM     52  C   UNL     1       9.480  11.800   5.973  1.00  0.00     0.009 A 
ATOM     53  C   UNL     1      11.410  10.372   5.667  1.00  0.00     0.009 A 
ATOM     54  C   UNL     1      10.314  12.823   6.426  1.00  0.00     0.001 A 
ATOM     55  C   UNL     1      12.238  11.389   6.144  1.00  0.00     0.001 A 
ATOM     56  C   UNL     1      11.690  12.616   6.514  1.00  0.00     0.000 A 
ENDBRANCH  38  51
ENDBRANCH  12  13
ENDBRANCH   5   7
ENDBRANCH   2   3
ENDBRANCH   1   2
BRANCH   1  57
ATOM     57  C   UNL     1       4.402  -3.824  -0.071  1.00  0.00     0.117 C 
BRANCH  57  58
ATOM     58  N   UNL     1       5.342  -3.853  -1.175  1.00  0.00    -0.354 N 
ATOM     59  C   UNL     1       6.415  -4.658  -1.384  1.00  0.00     0.244 C 
ATOM     60  H   UNL     1       5.176  -3.188  -1.881  1.00  0.00     0.163 HD
ATOM     61  O   UNL     1       7.267  -4.264  -2.184  1.00  0.00    -0.273 OA
BRANCH  59  62
ATOM     62  C   UNL     1       6.553  -5.991  -0.645  1.00  0.00     0.193 C 
ATOM     63  C   UNL     1       8.052  -6.379  -0.628  1.00  0.00     0.155 C 
ATOM     64  N   UNL     1       5.710  -7.204  -0.952  1.00  0.00    -0.327 N 
ATOM     65  N   UNL     1       8.289  -7.493   0.295  1.00  0.00    -0.336 N 
ATOM     66  C   UNL     1       5.945  -8.253   0.076  1.00  0.00     0.142 C 
ATOM     67  C   UNL     1       7.440  -8.675   0.128  1.00  0.00     0.141 C 
BRANCH  64  68
ATOM     68  C   UNL     1       5.239  -7.686  -2.172  1.00  0.00     0.226 C 
ATOM     69  O   UNL     1       5.046  -8.903  -2.321  1.00  0.00    -0.275 OA
BRANCH  68  70
ATOM     70  C   UNL     1       4.825  -6.800  -3.357  1.00  0.00     0.083 C 
ATOM     71  C   UNL     1       6.009  -6.240  -4.139  1.00  0.00     0.042 C 
ATOM     72  C   UNL     1       3.675  -5.853  -3.015  1.00  0.00     0.042 C 
ATOM     73  C   UNL     1       5.725  -4.932  -4.865  1.00  0.00     0.161 C 
ATOM     74  C   UNL     1       3.595  -4.636  -3.920  1.00  0.00     0.161 C 
ATOM     75  O   UNL     1       4.881  -4.065  -4.111  1.00  0.00    -0.381 OA
ENDBRANCH  68  70
ENDBRANCH  64  68
BRANCH  65  76
ATOM     76  C   UNL     1       8.764  -7.221   1.556  1.00  0.00     0.225 A 
ATOM     77  N   UNL     1       9.543  -8.144   2.141  1.00  0.00    -0.221 NA
ATOM     78  N   UNL     1       8.486  -6.032   2.122  1.00  0.00    -0.221 NA
ATOM     79  C   UNL     1      10.126  -7.817   3.310  1.00  0.00     0.117 A 
ATOM     80  C   UNL     1       9.051  -5.771   3.319  1.00  0.00     0.117 A 
ATOM     81  C   UNL     1       9.909  -6.628   3.958  1.00  0.00     0.040 A 
ENDBRANCH  65  76
ENDBRANCH  59  62
ENDBRANCH  57  58
ENDBRANCH   1  57
TORSDOF 13
