REMARK SMILES Cc1cccc(C(=O)NCCCNC(=O)c2ccc(-c3c4nc(c(-c5ccccc5)c5ccc([nH]5)c(-c5ccccc5)c5nc(c(-c6ccccc6)c6ccc3[nH]6)C=C5)C=C4)cc2)c1NC(=O)Cc1ccccc1
REMARK SMILES IDX 10 1 9 2 7 3 8 4 6 6 1 7 2 8 3 9 64 10 4 11 5 12 65 13 66 14
REMARK SMILES IDX 67 16 68 17 69 18 70 19 74 20 71 21 73 22 72 23 11 24 12 25
REMARK SMILES IDX 13 26 14 27 15 29 16 30 17 31 63 32 18 33 62 34 19 35 20 36
REMARK SMILES IDX 21 37 56 38 22 39 61 40 55 41 57 42 23 43 60 44 54 45 53 46
REMARK SMILES IDX 24 48 46 49 31 50 45 51 32 52 35 53 44 54 58 55 33 56 34 57
REMARK SMILES IDX 43 59 59 60 36 61 25 62 26 63 30 64 27 65 29 66 28 67 47 68
REMARK SMILES IDX 48 69 52 70 49 71 51 72 50 73 37 74 38 75 42 76 39 77 41 78
REMARK SMILES IDX 40 79
REMARK H PARENT 9 5 65 15 13 28 57 47 35 58
REMARK Flexibility Score: inf
ROOT
ATOM      1  C   UNL     1       1.508   3.506   1.329  1.00  0.00     0.118 C 
ENDROOT
BRANCH   1   2
ATOM      2  N   UNL     1       0.047   3.550   1.356  1.00  0.00    -0.352 N 
ATOM      3  C   UNL     1      -0.881   2.523   1.385  1.00  0.00     0.253 C 
ATOM      4  O   UNL     1      -1.974   2.723   1.913  1.00  0.00    -0.269 OA
ATOM      5  H   UNL     1      -0.339   4.455   1.354  1.00  0.00     0.163 HD
BRANCH   3   6
ATOM      6  C   UNL     1      -0.594   1.176   0.825  1.00  0.00     0.063 A 
ATOM      7  C   UNL     1       2.221  -0.306  -1.129  1.00  0.00     0.046 C 
ATOM      8  C   UNL     1       0.907  -0.214  -0.411  1.00  0.00    -0.027 A 
ATOM      9  C   UNL     1       0.378  -1.348   0.215  1.00  0.00     0.005 A 
ATOM     10  C   UNL     1       0.190   0.983  -0.305  1.00  0.00     0.056 A 
ATOM     11  C   UNL     1      -0.710  -1.226   1.077  1.00  0.00     0.001 A 
ATOM     12  C   UNL     1      -1.131   0.048   1.457  1.00  0.00     0.016 A 
BRANCH  10  13
ATOM     13  N   UNL     1       0.170   1.813  -1.440  1.00  0.00    -0.325 N 
ATOM     14  C   UNL     1      -0.825   2.577  -1.982  1.00  0.00     0.228 C 
ATOM     15  H   UNL     1       1.023   1.851  -1.930  1.00  0.00     0.169 HD
ATOM     16  O   UNL     1      -0.507   3.258  -2.966  1.00  0.00    -0.274 OA
BRANCH  14  17
ATOM     17  C   UNL     1      -2.270   2.529  -1.491  1.00  0.00     0.135 C 
BRANCH  17  18
ATOM     18  C   UNL     1      -2.872   3.886  -1.229  1.00  0.00    -0.039 A 
ATOM     19  C   UNL     1      -4.257   4.067  -1.342  1.00  0.00     0.004 A 
ATOM     20  C   UNL     1      -2.073   4.974  -0.864  1.00  0.00     0.004 A 
ATOM     21  C   UNL     1      -4.812   5.332  -1.200  1.00  0.00     0.000 A 
ATOM     22  C   UNL     1      -2.626   6.231  -0.706  1.00  0.00     0.000 A 
ATOM     23  C   UNL     1      -3.988   6.407  -0.907  1.00  0.00     0.000 A 
ENDBRANCH  17  18
ENDBRANCH  14  17
ENDBRANCH  10  13
ENDBRANCH   3   6
ENDBRANCH   1   2
BRANCH   1  24
ATOM     24  C   UNL     1       2.198   3.922   0.027  1.00  0.00     0.042 C 
BRANCH  24  25
ATOM     25  C   UNL     1       1.934   5.335  -0.486  1.00  0.00     0.118 C 
BRANCH  25  26
ATOM     26  N   UNL     1       2.961   6.301  -0.125  1.00  0.00    -0.352 N 
ATOM     27  C   UNL     1       3.070   7.641  -0.427  1.00  0.00     0.251 C 
ATOM     28  H   UNL     1       3.696   5.939   0.422  1.00  0.00     0.163 HD
ATOM     29  O   UNL     1       4.066   8.253  -0.033  1.00  0.00    -0.269 OA
BRANCH  27  30
ATOM     30  C   UNL     1       1.975   8.392  -1.096  1.00  0.00     0.039 A 
ATOM     31  C   UNL     1       1.754   9.714  -0.674  1.00  0.00     0.014 A 
ATOM     32  C   UNL     1       1.108   7.822  -2.026  1.00  0.00     0.014 A 
ATOM     33  C   UNL     1       0.571  10.372  -1.007  1.00  0.00     0.010 A 
ATOM     34  C   UNL     1      -0.091   8.451  -2.322  1.00  0.00     0.010 A 
ATOM     35  C   UNL     1      -0.390   9.691  -1.749  1.00  0.00    -0.014 A 
BRANCH  35  36
ATOM     36  C   UNL     1      -1.782  10.118  -1.805  1.00  0.00     0.031 A 
ATOM     37  C   UNL     1      -2.356  10.775  -2.990  1.00  0.00     0.074 A 
ATOM     38  C   UNL     1      -2.595   9.765  -0.786  1.00  0.00     0.049 A 
ATOM     39  N   UNL     1      -3.445  11.469  -2.970  1.00  0.00    -0.248 NA
ATOM     40  C   UNL     1      -1.727  10.726  -4.302  1.00  0.00     0.031 C 
ATOM     41  C   UNL     1      -4.054   9.771  -0.769  1.00  0.00     0.029 A 
ATOM     42  N   UNL     1      -2.248   9.413   0.517  1.00  0.00    -0.354 N 
ATOM     43  C   UNL     1      -3.831  11.660  -4.273  1.00  0.00     0.074 A 
ATOM     44  C   UNL     1      -2.676  11.285  -5.061  1.00  0.00     0.031 C 
ATOM     45  C   UNL     1      -4.480   9.653   0.500  1.00  0.00     0.029 A 
ATOM     46  C   UNL     1      -3.309   9.792   1.346  1.00  0.00     0.049 A 
ATOM     47  H   UNL     1      -1.412   8.978   0.801  1.00  0.00     0.167 HD
ATOM     48  C   UNL     1      -5.133  11.958  -4.553  1.00  0.00     0.031 A 
ATOM     49  C   UNL     1      -3.182  10.710   2.347  1.00  0.00     0.031 A 
ATOM     50  C   UNL     1      -5.953  12.042  -3.340  1.00  0.00     0.049 A 
ATOM     51  C   UNL     1      -4.110  11.878   2.099  1.00  0.00     0.074 A 
ATOM     52  C   UNL     1      -6.875  11.180  -2.767  1.00  0.00     0.029 A 
ATOM     53  N   UNL     1      -5.665  13.004  -2.373  1.00  0.00    -0.354 N 
ATOM     54  N   UNL     1      -4.526  12.218   0.908  1.00  0.00    -0.248 NA
ATOM     55  C   UNL     1      -4.675  12.720   3.148  1.00  0.00     0.031 C 
ATOM     56  C   UNL     1      -7.084  11.589  -1.423  1.00  0.00     0.029 A 
ATOM     57  C   UNL     1      -6.315  12.718  -1.188  1.00  0.00     0.049 A 
ATOM     58  H   UNL     1      -5.078  13.782  -2.515  1.00  0.00     0.167 HD
ATOM     59  C   UNL     1      -5.479  13.187   1.021  1.00  0.00     0.074 A 
ATOM     60  C   UNL     1      -5.492  13.518   2.436  1.00  0.00     0.031 C 
ATOM     61  C   UNL     1      -6.220  13.613  -0.042  1.00  0.00     0.031 A 
BRANCH  48  62
ATOM     62  C   UNL     1      -5.716  11.877  -5.948  1.00  0.00    -0.014 A 
ATOM     63  C   UNL     1      -7.082  11.592  -6.131  1.00  0.00     0.009 A 
ATOM     64  C   UNL     1      -4.966  12.047  -7.124  1.00  0.00     0.009 A 
ATOM     65  C   UNL     1      -7.639  11.392  -7.403  1.00  0.00     0.001 A 
ATOM     66  C   UNL     1      -5.503  11.807  -8.397  1.00  0.00     0.001 A 
ATOM     67  C   UNL     1      -6.841  11.469  -8.536  1.00  0.00     0.000 A 
ENDBRANCH  48  62
BRANCH  49  68
ATOM     68  C   UNL     1      -1.804  10.779   2.908  1.00  0.00    -0.014 A 
ATOM     69  C   UNL     1      -1.325   9.642   3.596  1.00  0.00     0.009 A 
ATOM     70  C   UNL     1      -0.871  11.690   2.392  1.00  0.00     0.009 A 
ATOM     71  C   UNL     1       0.043   9.357   3.646  1.00  0.00     0.001 A 
ATOM     72  C   UNL     1       0.500  11.406   2.460  1.00  0.00     0.001 A 
ATOM     73  C   UNL     1       0.953  10.225   3.051  1.00  0.00     0.000 A 
ENDBRANCH  49  68
BRANCH  61  74
ATOM     74  C   UNL     1      -7.020  14.885  -0.071  1.00  0.00    -0.014 A 
ATOM     75  C   UNL     1      -6.715  15.998   0.722  1.00  0.00     0.009 A 
ATOM     76  C   UNL     1      -8.000  15.059  -1.072  1.00  0.00     0.009 A 
ATOM     77  C   UNL     1      -7.376  17.218   0.542  1.00  0.00     0.001 A 
ATOM     78  C   UNL     1      -8.630  16.285  -1.283  1.00  0.00     0.001 A 
ATOM     79  C   UNL     1      -8.321  17.365  -0.469  1.00  0.00     0.000 A 
ENDBRANCH  61  74
ENDBRANCH  35  36
ENDBRANCH  27  30
ENDBRANCH  25  26
ENDBRANCH  24  25
ENDBRANCH   1  24
TORSDOF 13
