REMARK SMILES Cc1ccc(C(=O)NC2(CC(=O)NCCCNC(=O)c3ccc(-c4c5nc(c(-c6ccccc6)c6ccc([nH]6)c(-c6ccccc6)c6nc(c(-c7ccccc7)c7ccc4[nH]7)C=C6)C=C5)cc3)CCC2)cc1
REMARK SMILES IDX 14 1 13 2 11 3 12 4 10 6 9 7 68 8 70 9 69 10 8 11 6 12 7 13
REMARK SMILES IDX 5 15 1 16 2 17 3 18 72 19 4 20 71 21 15 22 16 23 17 24 18 25
REMARK SMILES IDX 19 27 20 28 21 29 67 30 22 31 66 32 23 33 24 34 25 35 60 36
REMARK SMILES IDX 26 37 65 38 59 39 61 40 27 41 64 42 58 43 57 44 28 46 50 47
REMARK SMILES IDX 35 48 49 49 36 50 39 51 48 52 62 53 37 54 38 55 47 57 63 58
REMARK SMILES IDX 40 59 29 60 30 61 34 62 31 63 33 64 32 65 51 66 52 67 56 68
REMARK SMILES IDX 53 69 55 70 54 71 41 72 42 73 46 74 43 75 45 76 44 77
REMARK H PARENT 13 5 8 14 17 26 61 45 39 56
REMARK Flexibility Score: inf
ROOT
ATOM      1  C   UNL     1       0.279   1.966   1.305  1.00  0.00     0.117 C 
ENDROOT
BRANCH   1   2
ATOM      2  N   UNL     1      -0.355   0.770   0.305  1.00  0.00    -0.356 N 
ATOM      3  C   UNL     1      -1.409   0.673  -1.365  1.00  0.00     0.222 C 
ATOM      4  O   UNL     1      -1.398  -0.174  -2.298  1.00  0.00    -0.275 OA
ATOM      5  H   UNL     1      -0.144  -0.129   0.646  1.00  0.00     0.163 HD
BRANCH   3   6
ATOM      6  C   UNL     1      -2.782   1.904  -1.800  1.00  0.00     0.128 C 
BRANCH   6   7
ATOM      7  C   UNL     1      -3.832   2.593  -0.675  1.00  0.00     0.049 C 
ATOM      8  C   UNL     1      -4.598   3.893  -1.111  1.00  0.00     0.029 C 
ATOM      9  C   UNL     1      -3.702   3.481   0.770  1.00  0.00     0.029 C 
ATOM     10  C   UNL     1      -3.798   4.733  -0.067  1.00  0.00     0.005 C 
BRANCH   7  11
ATOM     11  N   UNL     1      -4.564   1.453  -0.146  1.00  0.00    -0.346 N 
ATOM     12  C   UNL     1      -3.814   0.623   0.643  1.00  0.00     0.251 C 
ATOM     13  O   UNL     1      -4.289  -0.288   1.302  1.00  0.00    -0.269 OA
ATOM     14  H   UNL     1      -5.516   1.293  -0.338  1.00  0.00     0.164 HD
BRANCH  12  15
ATOM     15  C   UNL     1      -2.326   0.812   0.461  1.00  0.00     0.039 A 
ATOM     16  C   UNL     1       2.312   0.192  -1.286  1.00  0.00     0.044 C 
ATOM     17  C   UNL     1       0.805   0.363  -1.341  1.00  0.00    -0.051 A 
ATOM     18  C   UNL     1      -0.100  -1.065  -0.712  1.00  0.00     0.004 A 
ATOM     19  C   UNL     1       0.154   2.041  -1.191  1.00  0.00     0.004 A 
ATOM     20  C   UNL     1      -1.647  -0.841   0.167  1.00  0.00     0.014 A 
ATOM     21  C   UNL     1      -1.389   2.314  -0.209  1.00  0.00     0.014 A 
ENDBRANCH  12  15
ENDBRANCH   7  11
ENDBRANCH   6   7
ENDBRANCH   3   6
ENDBRANCH   1   2
BRANCH   1  22
ATOM     22  C   UNL     1      -0.483   2.131   2.602  1.00  0.00     0.042 C 
BRANCH  22  23
ATOM     23  C   UNL     1       0.121   1.224   3.618  1.00  0.00     0.118 C 
BRANCH  23  24
ATOM     24  N   UNL     1       1.484   1.625   3.935  1.00  0.00    -0.352 N 
ATOM     25  C   UNL     1       2.233   1.409   5.064  1.00  0.00     0.251 C 
ATOM     26  H   UNL     1       1.942   2.131   3.225  1.00  0.00     0.163 HD
ATOM     27  O   UNL     1       3.251   2.075   5.232  1.00  0.00    -0.269 OA
BRANCH  25  28
ATOM     28  C   UNL     1       1.970   0.197   5.894  1.00  0.00     0.039 A 
ATOM     29  C   UNL     1       3.139  -0.556   6.068  1.00  0.00     0.014 A 
ATOM     30  C   UNL     1       0.762  -0.458   5.717  1.00  0.00     0.014 A 
ATOM     31  C   UNL     1       3.154  -1.868   5.631  1.00  0.00     0.010 A 
ATOM     32  C   UNL     1       0.814  -1.634   5.027  1.00  0.00     0.010 A 
ATOM     33  C   UNL     1       2.024  -2.320   4.967  1.00  0.00    -0.014 A 
BRANCH  33  34
ATOM     34  C   UNL     1       1.869  -3.623   4.378  1.00  0.00     0.031 A 
ATOM     35  C   UNL     1       1.366  -4.620   5.340  1.00  0.00     0.074 A 
ATOM     36  C   UNL     1       1.960  -3.704   3.031  1.00  0.00     0.049 A 
ATOM     37  N   UNL     1       1.654  -5.866   5.325  1.00  0.00    -0.248 NA
ATOM     38  C   UNL     1       0.557  -4.255   6.520  1.00  0.00     0.031 C 
ATOM     39  C   UNL     1       1.514  -4.742   2.112  1.00  0.00     0.029 A 
ATOM     40  N   UNL     1       2.674  -2.826   2.205  1.00  0.00    -0.354 N 
ATOM     41  C   UNL     1       0.717  -6.470   6.140  1.00  0.00     0.074 A 
ATOM     42  C   UNL     1       0.221  -5.447   7.014  1.00  0.00     0.031 C 
ATOM     43  C   UNL     1       2.209  -4.633   0.959  1.00  0.00     0.029 A 
ATOM     44  C   UNL     1       3.212  -3.593   1.151  1.00  0.00     0.049 A 
ATOM     45  H   UNL     1       2.780  -1.856   2.337  1.00  0.00     0.167 HD
ATOM     46  C   UNL     1       0.256  -7.697   5.787  1.00  0.00     0.031 A 
ATOM     47  C   UNL     1       4.567  -3.793   1.097  1.00  0.00     0.031 A 
ATOM     48  C   UNL     1       0.895  -8.111   4.542  1.00  0.00     0.049 A 
ATOM     49  C   UNL     1       4.923  -5.223   1.448  1.00  0.00     0.074 A 
ATOM     50  C   UNL     1       0.483  -8.030   3.223  1.00  0.00     0.029 A 
ATOM     51  N   UNL     1       2.275  -8.232   4.521  1.00  0.00    -0.354 N 
ATOM     52  N   UNL     1       4.185  -5.990   2.206  1.00  0.00    -0.248 NA
ATOM     53  C   UNL     1       6.116  -5.902   0.954  1.00  0.00     0.031 C 
ATOM     54  C   UNL     1       1.647  -8.057   2.406  1.00  0.00     0.029 A 
ATOM     55  C   UNL     1       2.755  -8.158   3.230  1.00  0.00     0.049 A 
ATOM     56  H   UNL     1       2.837  -8.356   5.319  1.00  0.00     0.167 HD
ATOM     57  C   UNL     1       4.754  -7.232   2.287  1.00  0.00     0.074 A 
ATOM     58  C   UNL     1       5.966  -7.124   1.496  1.00  0.00     0.031 C 
ATOM     59  C   UNL     1       4.187  -8.256   2.991  1.00  0.00     0.031 A 
BRANCH  46  60
ATOM     60  C   UNL     1      -0.968  -8.364   6.346  1.00  0.00    -0.014 A 
ATOM     61  C   UNL     1      -1.613  -9.338   5.561  1.00  0.00     0.009 A 
ATOM     62  C   UNL     1      -1.524  -8.115   7.612  1.00  0.00     0.009 A 
ATOM     63  C   UNL     1      -2.758 -10.010   5.996  1.00  0.00     0.001 A 
ATOM     64  C   UNL     1      -2.685  -8.774   8.048  1.00  0.00     0.001 A 
ATOM     65  C   UNL     1      -3.298  -9.724   7.241  1.00  0.00     0.000 A 
ENDBRANCH  46  60
BRANCH  47  66
ATOM     66  C   UNL     1       5.322  -2.588   1.579  1.00  0.00    -0.014 A 
ATOM     67  C   UNL     1       5.234  -1.408   0.808  1.00  0.00     0.009 A 
ATOM     68  C   UNL     1       5.647  -2.472   2.938  1.00  0.00     0.009 A 
ATOM     69  C   UNL     1       5.240  -0.152   1.425  1.00  0.00     0.001 A 
ATOM     70  C   UNL     1       5.683  -1.208   3.542  1.00  0.00     0.001 A 
ATOM     71  C   UNL     1       5.409  -0.058   2.803  1.00  0.00     0.000 A 
ENDBRANCH  47  66
BRANCH  59  72
ATOM     72  C   UNL     1       4.909  -9.490   3.482  1.00  0.00    -0.014 A 
ATOM     73  C   UNL     1       6.299  -9.640   3.477  1.00  0.00     0.009 A 
ATOM     74  C   UNL     1       4.174 -10.520   4.118  1.00  0.00     0.009 A 
ATOM     75  C   UNL     1       6.911 -10.787   3.996  1.00  0.00     0.001 A 
ATOM     76  C   UNL     1       4.783 -11.623   4.713  1.00  0.00     0.001 A 
ATOM     77  C   UNL     1       6.155 -11.772   4.623  1.00  0.00     0.000 A 
ENDBRANCH  59  72
ENDBRANCH  33  34
ENDBRANCH  25  28
ENDBRANCH  23  24
ENDBRANCH  22  23
ENDBRANCH   1  22
TORSDOF 13
