REMARK SMILES Nc1ccc(O)c(C(=O)NCCCNC(=O)c2ccc(-c3c4nc(c(-c5ccccc5)c5ccc([nH]5)c(-c5ccccc5)c5nc(c(-c6ccccc6)c6ccc3[nH]6)C=C5)C=C4)cc2)c1
REMARK SMILES IDX 12 1 11 2 10 3 8 4 9 5 7 7 2 8 3 9 65 10 4 11 5 12 1 13 6 16
REMARK SMILES IDX 13 18 14 19 15 20 16 22 17 23 18 24 64 25 19 26 63 27 20 28
REMARK SMILES IDX 21 29 22 30 57 31 23 32 62 33 56 34 58 35 24 36 61 37 55 38
REMARK SMILES IDX 54 39 25 41 47 42 32 43 46 44 33 45 36 46 45 47 59 48 34 49
REMARK SMILES IDX 35 50 44 52 60 53 37 54 26 55 27 56 31 57 28 58 30 59 29 60
REMARK SMILES IDX 48 61 49 62 53 63 50 64 52 65 51 66 38 67 39 68 43 69 40 70
REMARK SMILES IDX 42 71 41 72
REMARK H PARENT 10 6 1 14 1 15 6 17 14 21 58 40 36 51
REMARK Flexibility Score: inf
ROOT
ATOM      1  C   UNL     1      -1.344  -4.550  -0.686  1.00  0.00     0.042 C 
ENDROOT
BRANCH   1   2
ATOM      2  C   UNL     1      -0.655  -3.965   0.546  1.00  0.00     0.118 C 
BRANCH   2   3
ATOM      3  N   UNL     1       0.700  -3.556   0.226  1.00  0.00    -0.352 N 
ATOM      4  C   UNL     1       1.276  -2.347  -0.062  1.00  0.00     0.255 C 
ATOM      5  O   UNL     1       2.494  -2.352  -0.271  1.00  0.00    -0.269 OA
ATOM      6  H   UNL     1       1.340  -4.304   0.213  1.00  0.00     0.163 HD
BRANCH   4   7
ATOM      7  C   UNL     1       0.564  -1.037  -0.077  1.00  0.00     0.083 A 
ATOM      8  C   UNL     1      -1.448   0.349  -0.144  1.00  0.00     0.032 A 
ATOM      9  C   UNL     1      -0.663   1.492   0.005  1.00  0.00     0.029 A 
ATOM     10  C   UNL     1      -0.817  -0.896  -0.260  1.00  0.00     0.043 A 
ATOM     11  C   UNL     1       0.721   1.388   0.113  1.00  0.00     0.049 A 
ATOM     12  C   UNL     1       1.326   0.135   0.082  1.00  0.00     0.128 A 
BRANCH   8  13
ATOM     13  N   UNL     1      -2.821   0.459  -0.308  1.00  0.00    -0.399 N 
ATOM     14  H   UNL     1      -3.258   1.337  -0.225  1.00  0.00     0.156 HD
ATOM     15  H   UNL     1      -3.359  -0.341  -0.508  1.00  0.00     0.156 HD
ENDBRANCH   8  13
BRANCH  12  16
ATOM     16  O   UNL     1       2.693   0.140   0.203  1.00  0.00    -0.507 OA
ATOM     17  H   UNL     1       3.151   0.951   0.307  1.00  0.00     0.293 HD
ENDBRANCH  12  16
ENDBRANCH   4   7
ENDBRANCH   2   3
ENDBRANCH   1   2
BRANCH   1  18
ATOM     18  C   UNL     1      -0.873  -5.968  -1.005  1.00  0.00     0.118 C 
BRANCH  18  19
ATOM     19  N   UNL     1      -1.318  -6.926   0.000  1.00  0.00    -0.352 N 
ATOM     20  C   UNL     1      -2.136  -8.021  -0.130  1.00  0.00     0.251 C 
ATOM     21  H   UNL     1      -0.981  -6.763   0.911  1.00  0.00     0.163 HD
ATOM     22  O   UNL     1      -2.597  -8.565   0.867  1.00  0.00    -0.269 OA
BRANCH  20  23
ATOM     23  C   UNL     1      -2.466  -8.539  -1.472  1.00  0.00     0.039 A 
ATOM     24  C   UNL     1      -3.782  -8.918  -1.752  1.00  0.00     0.014 A 
ATOM     25  C   UNL     1      -1.474  -8.663  -2.447  1.00  0.00     0.014 A 
ATOM     26  C   UNL     1      -4.117  -9.356  -3.035  1.00  0.00     0.010 A 
ATOM     27  C   UNL     1      -1.823  -9.025  -3.743  1.00  0.00     0.010 A 
ATOM     28  C   UNL     1      -3.147  -9.373  -4.051  1.00  0.00    -0.014 A 
BRANCH  28  29
ATOM     29  C   UNL     1      -3.486  -9.741  -5.448  1.00  0.00     0.031 A 
ATOM     30  C   UNL     1      -2.844 -10.941  -6.085  1.00  0.00     0.074 A 
ATOM     31  C   UNL     1      -4.294  -8.939  -6.169  1.00  0.00     0.049 A 
ATOM     32  N   UNL     1      -2.908 -11.350  -7.327  1.00  0.00    -0.248 NA
ATOM     33  C   UNL     1      -1.995 -11.775  -5.220  1.00  0.00     0.031 C 
ATOM     34  C   UNL     1      -4.955  -7.730  -5.673  1.00  0.00     0.029 A 
ATOM     35  N   UNL     1      -4.681  -9.013  -7.484  1.00  0.00    -0.354 N 
ATOM     36  C   UNL     1      -2.091 -12.471  -7.396  1.00  0.00     0.074 A 
ATOM     37  C   UNL     1      -1.506 -12.651  -6.085  1.00  0.00     0.031 C 
ATOM     38  C   UNL     1      -5.679  -7.187  -6.664  1.00  0.00     0.029 A 
ATOM     39  C   UNL     1      -5.492  -7.976  -7.877  1.00  0.00     0.049 A 
ATOM     40  H   UNL     1      -4.404  -9.739  -8.088  1.00  0.00     0.167 HD
ATOM     41  C   UNL     1      -1.861 -13.287  -8.452  1.00  0.00     0.031 A 
ATOM     42  C   UNL     1      -6.011  -7.680  -9.084  1.00  0.00     0.031 A 
ATOM     43  C   UNL     1      -2.450 -13.107  -9.752  1.00  0.00     0.049 A 
ATOM     44  C   UNL     1      -5.712  -8.582 -10.250  1.00  0.00     0.074 A 
ATOM     45  C   UNL     1      -2.323 -13.908 -10.873  1.00  0.00     0.029 A 
ATOM     46  N   UNL     1      -3.272 -12.048 -10.105  1.00  0.00    -0.354 N 
ATOM     47  N   UNL     1      -4.988  -9.675 -10.284  1.00  0.00    -0.248 NA
ATOM     48  C   UNL     1      -6.306  -8.213 -11.542  1.00  0.00     0.031 C 
ATOM     49  C   UNL     1      -3.019 -13.302 -11.922  1.00  0.00     0.029 A 
ATOM     50  C   UNL     1      -3.637 -12.160 -11.436  1.00  0.00     0.049 A 
ATOM     51  H   UNL     1      -3.555 -11.325  -9.500  1.00  0.00     0.167 HD
ATOM     52  C   UNL     1      -5.068 -10.142 -11.590  1.00  0.00     0.074 A 
ATOM     53  C   UNL     1      -5.919  -9.220 -12.313  1.00  0.00     0.031 C 
ATOM     54  C   UNL     1      -4.491 -11.238 -12.139  1.00  0.00     0.031 A 
BRANCH  41  55
ATOM     55  C   UNL     1      -0.918 -14.441  -8.247  1.00  0.00    -0.014 A 
ATOM     56  C   UNL     1      -1.261 -15.526  -7.424  1.00  0.00     0.009 A 
ATOM     57  C   UNL     1       0.316 -14.461  -8.915  1.00  0.00     0.009 A 
ATOM     58  C   UNL     1      -0.370 -16.587  -7.244  1.00  0.00     0.001 A 
ATOM     59  C   UNL     1       1.190 -15.539  -8.760  1.00  0.00     0.001 A 
ATOM     60  C   UNL     1       0.851 -16.595  -7.916  1.00  0.00     0.000 A 
ENDBRANCH  41  55
BRANCH  42  61
ATOM     61  C   UNL     1      -6.868  -6.477  -9.254  1.00  0.00    -0.014 A 
ATOM     62  C   UNL     1      -8.240  -6.612  -9.517  1.00  0.00     0.009 A 
ATOM     63  C   UNL     1      -6.320  -5.188  -9.162  1.00  0.00     0.009 A 
ATOM     64  C   UNL     1      -9.039  -5.482  -9.713  1.00  0.00     0.001 A 
ATOM     65  C   UNL     1      -7.128  -4.060  -9.325  1.00  0.00     0.001 A 
ATOM     66  C   UNL     1      -8.483  -4.208  -9.611  1.00  0.00     0.000 A 
ENDBRANCH  42  61
BRANCH  54  67
ATOM     67  C   UNL     1      -4.796 -11.533 -13.581  1.00  0.00    -0.014 A 
ATOM     68  C   UNL     1      -4.257 -10.757 -14.618  1.00  0.00     0.009 A 
ATOM     69  C   UNL     1      -5.583 -12.650 -13.905  1.00  0.00     0.009 A 
ATOM     70  C   UNL     1      -4.522 -11.080 -15.951  1.00  0.00     0.001 A 
ATOM     71  C   UNL     1      -5.820 -12.989 -15.237  1.00  0.00     0.001 A 
ATOM     72  C   UNL     1      -5.295 -12.199 -16.259  1.00  0.00     0.000 A 
ENDBRANCH  54  67
ENDBRANCH  28  29
ENDBRANCH  20  23
ENDBRANCH  18  19
ENDBRANCH   1  18
TORSDOF 12
