REMARK SMILES COC[C@@H](C)Nc1ccc([N+](=O)[O-])c(C(=O)NCCCNC(=O)c2ccc(-c3c4nc(c(-c5ccccc5)c5ccc([nH]5)c(-c5ccccc5)c5nc(c(-c6ccccc6)c6ccc3[nH]6)C=C5)C=C4)cc2)c1
REMARK SMILES IDX 18 1 17 2 15 3 16 4 14 6 7 7 8 8 72 9 9 10 10 11 6 12 4 14
REMARK SMILES IDX 5 15 3 16 2 17 1 18 11 19 12 20 13 21 19 22 20 23 21 24
REMARK SMILES IDX 22 25 23 27 24 28 25 29 71 30 26 31 70 32 27 33 28 34 29 35
REMARK SMILES IDX 64 36 30 37 69 38 63 39 65 40 31 41 68 42 62 43 61 44 32 46
REMARK SMILES IDX 54 47 39 48 53 49 40 50 43 51 52 52 66 53 41 54 42 55 51 57
REMARK SMILES IDX 67 58 44 59 33 60 34 61 38 62 35 63 37 64 36 65 55 66 56 67
REMARK SMILES IDX 60 68 57 69 59 70 58 71 45 72 46 73 50 74 47 75 49 76 48 77
REMARK H PARENT 17 5 6 13 21 26 65 45 43 56
REMARK Flexibility Score: inf
ROOT
ATOM      1  C   UNL     1      -2.374   2.596  -3.973  1.00  0.00     0.118 C 
ENDROOT
BRANCH   1   2
ATOM      2  N   UNL     1      -3.078   2.316  -5.221  1.00  0.00    -0.352 N 
ATOM      3  C   UNL     1      -2.915   1.439  -6.269  1.00  0.00     0.258 C 
ATOM      4  O   UNL     1      -3.634   1.643  -7.245  1.00  0.00    -0.269 OA
ATOM      5  H   UNL     1      -3.863   2.897  -5.342  1.00  0.00     0.163 HD
BRANCH   3   6
ATOM      6  C   UNL     1      -1.877   0.369  -6.326  1.00  0.00     0.119 A 
ATOM      7  C   UNL     1       0.093  -0.640  -5.263  1.00  0.00     0.036 A 
ATOM      8  C   UNL     1       0.482  -1.152  -6.503  1.00  0.00     0.033 A 
ATOM      9  C   UNL     1      -1.148  -0.001  -5.196  1.00  0.00     0.046 A 
ATOM     10  C   UNL     1      -0.343  -1.017  -7.622  1.00  0.00     0.088 A 
ATOM     11  C   UNL     1      -1.515  -0.253  -7.523  1.00  0.00     0.282 A 
BRANCH   7  12
ATOM     12  N   UNL     1       0.905  -0.816  -4.158  1.00  0.00    -0.380 N 
ATOM     13  H   UNL     1       1.733  -1.334  -4.283  1.00  0.00     0.160 HD
BRANCH  12  14
ATOM     14  C   UNL     1       0.631  -0.293  -2.811  1.00  0.00     0.102 C 
ATOM     15  C   UNL     1       1.189   1.129  -2.693  1.00  0.00     0.033 C 
BRANCH  14  16
ATOM     16  C   UNL     1       1.236  -1.253  -1.762  1.00  0.00     0.184 C 
BRANCH  16  17
ATOM     17  O   UNL     1       0.600  -1.186  -0.485  1.00  0.00    -0.383 OA
ATOM     18  C   UNL     1       1.082  -0.157   0.364  1.00  0.00     0.194 C 
ENDBRANCH  16  17
ENDBRANCH  14  16
ENDBRANCH  12  14
ENDBRANCH   7  12
BRANCH  11  19
ATOM     19  N   UNL     1      -2.417  -0.293  -8.660  1.00  0.00     0.063 N 
ATOM     20  O   UNL     1      -1.969   0.102  -9.745  1.00  0.00    -0.258 OA
ATOM     21  O   UNL     1      -3.506  -0.861  -8.489  1.00  0.00    -0.258 OA
ENDBRANCH  11  19
ENDBRANCH   3   6
ENDBRANCH   1   2
BRANCH   1  22
ATOM     22  C   UNL     1      -1.781   3.995  -3.918  1.00  0.00     0.042 C 
BRANCH  22  23
ATOM     23  C   UNL     1      -2.818   5.098  -3.827  1.00  0.00     0.118 C 
BRANCH  23  24
ATOM     24  N   UNL     1      -3.599   5.027  -2.597  1.00  0.00    -0.352 N 
ATOM     25  C   UNL     1      -3.565   5.804  -1.465  1.00  0.00     0.251 C 
ATOM     26  H   UNL     1      -4.261   4.299  -2.575  1.00  0.00     0.163 HD
ATOM     27  O   UNL     1      -4.142   5.423  -0.452  1.00  0.00    -0.269 OA
BRANCH  25  28
ATOM     28  C   UNL     1      -2.827   7.086  -1.451  1.00  0.00     0.039 A 
ATOM     29  C   UNL     1      -2.144   7.466  -0.292  1.00  0.00     0.014 A 
ATOM     30  C   UNL     1      -2.829   7.929  -2.562  1.00  0.00     0.014 A 
ATOM     31  C   UNL     1      -1.406   8.652  -0.278  1.00  0.00     0.010 A 
ATOM     32  C   UNL     1      -2.006   9.049  -2.587  1.00  0.00     0.010 A 
ATOM     33  C   UNL     1      -1.297   9.431  -1.440  1.00  0.00    -0.014 A 
BRANCH  33  34
ATOM     34  C   UNL     1      -0.465  10.660  -1.481  1.00  0.00     0.031 A 
ATOM     35  C   UNL     1      -1.101  11.991  -1.781  1.00  0.00     0.074 A 
ATOM     36  C   UNL     1       0.870  10.567  -1.324  1.00  0.00     0.049 A 
ATOM     37  N   UNL     1      -0.534  13.160  -1.940  1.00  0.00    -0.248 NA
ATOM     38  C   UNL     1      -2.563  12.006  -1.957  1.00  0.00     0.031 C 
ATOM     39  C   UNL     1       1.613   9.330  -1.072  1.00  0.00     0.029 A 
ATOM     40  N   UNL     1       1.842  11.535  -1.360  1.00  0.00    -0.354 N 
ATOM     41  C   UNL     1      -1.563  14.039  -2.254  1.00  0.00     0.074 A 
ATOM     42  C   UNL     1      -2.779  13.260  -2.323  1.00  0.00     0.031 C 
ATOM     43  C   UNL     1       2.917   9.619  -0.942  1.00  0.00     0.029 A 
ATOM     44  C   UNL     1       3.110  11.050  -1.149  1.00  0.00     0.049 A 
ATOM     45  H   UNL     1       1.649  12.487  -1.522  1.00  0.00     0.167 HD
ATOM     46  C   UNL     1      -1.508  15.378  -2.446  1.00  0.00     0.031 A 
ATOM     47  C   UNL     1       4.296  11.686  -1.132  1.00  0.00     0.031 A 
ATOM     48  C   UNL     1      -0.300  16.153  -2.364  1.00  0.00     0.049 A 
ATOM     49  C   UNL     1       4.334  13.171  -1.365  1.00  0.00     0.074 A 
ATOM     50  C   UNL     1      -0.145  17.523  -2.485  1.00  0.00     0.029 A 
ATOM     51  N   UNL     1       0.962  15.624  -2.142  1.00  0.00    -0.354 N 
ATOM     52  N   UNL     1       3.341  13.997  -1.593  1.00  0.00    -0.248 NA
ATOM     53  C   UNL     1       5.656  13.811  -1.329  1.00  0.00     0.031 C 
ATOM     54  C   UNL     1       1.219  17.817  -2.392  1.00  0.00     0.029 A 
ATOM     55  C   UNL     1       1.905  16.637  -2.148  1.00  0.00     0.049 A 
ATOM     56  H   UNL     1       1.158  14.670  -2.001  1.00  0.00     0.167 HD
ATOM     57  C   UNL     1       3.915  15.258  -1.696  1.00  0.00     0.074 A 
ATOM     58  C   UNL     1       5.339  15.088  -1.489  1.00  0.00     0.031 C 
ATOM     59  C   UNL     1       3.318  16.449  -1.941  1.00  0.00     0.031 A 
BRANCH  46  60
ATOM     60  C   UNL     1      -2.796  16.086  -2.768  1.00  0.00    -0.014 A 
ATOM     61  C   UNL     1      -3.817  16.214  -1.813  1.00  0.00     0.009 A 
ATOM     62  C   UNL     1      -2.980  16.659  -4.036  1.00  0.00     0.009 A 
ATOM     63  C   UNL     1      -5.011  16.864  -2.133  1.00  0.00     0.001 A 
ATOM     64  C   UNL     1      -4.162  17.337  -4.343  1.00  0.00     0.001 A 
ATOM     65  C   UNL     1      -5.180  17.430  -3.396  1.00  0.00     0.000 A 
ENDBRANCH  46  60
BRANCH  47  66
ATOM     66  C   UNL     1       5.548  10.926  -0.870  1.00  0.00    -0.014 A 
ATOM     67  C   UNL     1       6.255  11.113   0.328  1.00  0.00     0.009 A 
ATOM     68  C   UNL     1       6.047  10.019  -1.817  1.00  0.00     0.009 A 
ATOM     69  C   UNL     1       7.451  10.430   0.558  1.00  0.00     0.001 A 
ATOM     70  C   UNL     1       7.227   9.314  -1.571  1.00  0.00     0.001 A 
ATOM     71  C   UNL     1       7.934   9.528  -0.389  1.00  0.00     0.000 A 
ENDBRANCH  47  66
BRANCH  59  72
ATOM     72  C   UNL     1       4.198  17.668  -1.960  1.00  0.00    -0.014 A 
ATOM     73  C   UNL     1       5.100  17.902  -3.009  1.00  0.00     0.009 A 
ATOM     74  C   UNL     1       4.091  18.615  -0.929  1.00  0.00     0.009 A 
ATOM     75  C   UNL     1       5.903  19.045  -3.006  1.00  0.00     0.001 A 
ATOM     76  C   UNL     1       4.871  19.771  -0.946  1.00  0.00     0.001 A 
ATOM     77  C   UNL     1       5.784  19.980  -1.978  1.00  0.00     0.000 A 
ENDBRANCH  59  72
ENDBRANCH  33  34
ENDBRANCH  25  28
ENDBRANCH  23  24
ENDBRANCH  22  23
ENDBRANCH   1  22
TORSDOF 15
