REMARK SMILES CC1(C)CCSC[C@@]1(Nc1ccccc1Br)C(=O)NCCCNC(=O)c1ccc(-c2c3nc(c(-c4ccccc4)c4ccc([nH]4)c(-c4ccccc4)c4nc(c(-c5ccccc5)c5ccc2[nH]5)C=C4)C=C3)cc1
REMARK SMILES IDX 21 1 20 2 19 3 17 4 18 5 8 7 1 8 2 9 3 10 4 11 5 12 7 13
REMARK SMILES IDX 6 14 9 15 10 17 11 18 15 19 12 20 14 21 16 22 13 23 22 24
REMARK SMILES IDX 23 25 24 26 25 28 26 29 27 30 73 31 28 32 72 33 29 34 30 35
REMARK SMILES IDX 31 36 66 37 32 38 71 39 65 40 67 41 33 42 70 43 64 44 63 45
REMARK SMILES IDX 34 47 56 48 41 49 55 50 42 51 45 52 54 53 68 54 43 55 44 56
REMARK SMILES IDX 53 58 69 59 46 60 35 61 36 62 40 63 37 64 39 65 38 66 57 67
REMARK SMILES IDX 58 68 62 69 59 70 61 71 60 72 47 73 48 74 52 75 49 76 51 77
REMARK SMILES IDX 50 78
REMARK H PARENT 19 6 9 16 23 27 67 46 45 57
REMARK Flexibility Score: inf
ROOT
ATOM      1  C   UNL     1       3.636  -0.326   1.319  1.00  0.00     0.042 C 
ENDROOT
BRANCH   1   2
ATOM      2  C   UNL     1       3.573   0.466   0.023  1.00  0.00     0.117 C 
BRANCH   2   3
ATOM      3  N   UNL     1       3.450  -0.413  -1.126  1.00  0.00    -0.354 N 
ATOM      4  C   UNL     1       2.487  -0.548  -2.080  1.00  0.00     0.247 C 
ATOM      5  O   UNL     1       2.401  -1.704  -2.504  1.00  0.00    -0.272 OA
ATOM      6  H   UNL     1       4.210  -1.030  -1.237  1.00  0.00     0.163 HD
BRANCH   4   7
ATOM      7  C   UNL     1       1.498   0.604  -2.513  1.00  0.00     0.131 C 
ATOM      8  C   UNL     1       0.315  -0.037  -0.195  1.00  0.00     0.014 C 
ATOM      9  C   UNL     1       0.123   0.441  -1.661  1.00  0.00    -0.002 C 
ATOM     10  C   UNL     1      -0.796  -0.652  -2.289  1.00  0.00     0.014 C 
ATOM     11  C   UNL     1      -0.721   1.750  -1.604  1.00  0.00     0.020 C 
ATOM     12  C   UNL     1       0.029   2.998  -1.162  1.00  0.00     0.070 C 
ATOM     13  C   UNL     1       2.222   1.984  -2.375  1.00  0.00     0.108 C 
ATOM     14  S   UNL     1       1.175   3.466  -2.469  1.00  0.00    -0.159 SA
BRANCH   7  15
ATOM     15  N   UNL     1       1.116   0.442  -3.988  1.00  0.00    -0.369 N 
ATOM     16  H   UNL     1       0.173   0.264  -4.208  1.00  0.00     0.161 HD
BRANCH  15  17
ATOM     17  C   UNL     1       2.036   0.534  -5.040  1.00  0.00     0.049 A 
ATOM     18  C   UNL     1       2.315   1.806  -5.575  1.00  0.00     0.027 A 
ATOM     19  C   UNL     1       2.689  -0.557  -5.641  1.00  0.00     0.041 A 
ATOM     20  C   UNL     1       3.294   2.006  -6.551  1.00  0.00     0.002 A 
ATOM     21  C   UNL     1       3.696  -0.358  -6.601  1.00  0.00     0.018 A 
ATOM     22  Br  UNL     1       2.128  -2.358  -5.401  1.00  0.00    -0.049 Br
ATOM     23  C   UNL     1       4.012   0.925  -7.040  1.00  0.00     0.001 A 
ENDBRANCH  15  17
ENDBRANCH   7  15
ENDBRANCH   4   7
ENDBRANCH   2   3
ENDBRANCH   1   2
BRANCH   1  24
ATOM     24  C   UNL     1       4.964  -1.041   1.486  1.00  0.00     0.118 C 
BRANCH  24  25
ATOM     25  N   UNL     1       6.061  -0.092   1.633  1.00  0.00    -0.352 N 
ATOM     26  C   UNL     1       6.712   0.307   2.773  1.00  0.00     0.251 C 
ATOM     27  H   UNL     1       6.379   0.320   0.797  1.00  0.00     0.163 HD
ATOM     28  O   UNL     1       7.374   1.338   2.781  1.00  0.00    -0.269 OA
BRANCH  26  29
ATOM     29  C   UNL     1       6.607  -0.524   3.987  1.00  0.00     0.039 A 
ATOM     30  C   UNL     1       6.469   0.086   5.236  1.00  0.00     0.014 A 
ATOM     31  C   UNL     1       6.659  -1.915   3.881  1.00  0.00     0.014 A 
ATOM     32  C   UNL     1       6.331  -0.710   6.374  1.00  0.00     0.010 A 
ATOM     33  C   UNL     1       6.406  -2.701   4.993  1.00  0.00     0.010 A 
ATOM     34  C   UNL     1       6.271  -2.109   6.255  1.00  0.00    -0.014 A 
BRANCH  34  35
ATOM     35  C   UNL     1       6.130  -2.991   7.436  1.00  0.00     0.031 A 
ATOM     36  C   UNL     1       7.219  -3.983   7.747  1.00  0.00     0.074 A 
ATOM     37  C   UNL     1       5.002  -2.957   8.169  1.00  0.00     0.049 A 
ATOM     38  N   UNL     1       7.244  -4.925   8.654  1.00  0.00    -0.248 NA
ATOM     39  C   UNL     1       8.424  -3.938   6.898  1.00  0.00     0.031 C 
ATOM     40  C   UNL     1       3.856  -2.075   7.932  1.00  0.00     0.029 A 
ATOM     41  N   UNL     1       4.631  -3.697   9.262  1.00  0.00    -0.354 N 
ATOM     42  C   UNL     1       8.445  -5.598   8.462  1.00  0.00     0.074 A 
ATOM     43  C   UNL     1       9.094  -4.999   7.319  1.00  0.00     0.031 C 
ATOM     44  C   UNL     1       2.923  -2.305   8.870  1.00  0.00     0.029 A 
ATOM     45  C   UNL     1       3.387  -3.374   9.748  1.00  0.00     0.049 A 
ATOM     46  H   UNL     1       5.201  -4.393   9.661  1.00  0.00     0.167 HD
ATOM     47  C   UNL     1       8.976  -6.606   9.192  1.00  0.00     0.031 A 
ATOM     48  C   UNL     1       2.699  -3.890  10.783  1.00  0.00     0.031 A 
ATOM     49  C   UNL     1       8.347  -7.171  10.353  1.00  0.00     0.049 A 
ATOM     50  C   UNL     1       3.324  -4.991  11.594  1.00  0.00     0.074 A 
ATOM     51  C   UNL     1       8.822  -8.155  11.199  1.00  0.00     0.029 A 
ATOM     52  N   UNL     1       7.107  -6.785  10.837  1.00  0.00    -0.354 N 
ATOM     53  N   UNL     1       4.486  -5.578  11.434  1.00  0.00    -0.248 NA
ATOM     54  C   UNL     1       2.549  -5.489  12.739  1.00  0.00     0.031 C 
ATOM     55  C   UNL     1       7.854  -8.388  12.181  1.00  0.00     0.029 A 
ATOM     56  C   UNL     1       6.798  -7.516  11.969  1.00  0.00     0.049 A 
ATOM     57  H   UNL     1       6.532  -6.094  10.435  1.00  0.00     0.167 HD
ATOM     58  C   UNL     1       4.592  -6.494  12.471  1.00  0.00     0.074 A 
ATOM     59  C   UNL     1       3.386  -6.371  13.265  1.00  0.00     0.031 C 
ATOM     60  C   UNL     1       5.595  -7.363  12.744  1.00  0.00     0.031 A 
BRANCH  47  61
ATOM     61  C   UNL     1      10.311  -7.145   8.761  1.00  0.00    -0.014 A 
ATOM     62  C   UNL     1      11.482  -6.384   8.913  1.00  0.00     0.009 A 
ATOM     63  C   UNL     1      10.407  -8.438   8.227  1.00  0.00     0.009 A 
ATOM     64  C   UNL     1      12.716  -6.894   8.506  1.00  0.00     0.001 A 
ATOM     65  C   UNL     1      11.647  -8.958   7.848  1.00  0.00     0.001 A 
ATOM     66  C   UNL     1      12.798  -8.182   7.979  1.00  0.00     0.000 A 
ENDBRANCH  47  61
BRANCH  48  67
ATOM     67  C   UNL     1       1.355  -3.361  11.129  1.00  0.00    -0.014 A 
ATOM     68  C   UNL     1       1.168  -2.604  12.297  1.00  0.00     0.009 A 
ATOM     69  C   UNL     1       0.248  -3.621  10.306  1.00  0.00     0.009 A 
ATOM     70  C   UNL     1      -0.105  -2.150  12.651  1.00  0.00     0.001 A 
ATOM     71  C   UNL     1      -1.018  -3.141  10.648  1.00  0.00     0.001 A 
ATOM     72  C   UNL     1      -1.196  -2.417  11.825  1.00  0.00     0.000 A 
ENDBRANCH  48  67
BRANCH  60  73
ATOM     73  C   UNL     1       5.446  -8.214  13.971  1.00  0.00    -0.014 A 
ATOM     74  C   UNL     1       4.552  -9.294  14.002  1.00  0.00     0.009 A 
ATOM     75  C   UNL     1       6.246  -7.955  15.095  1.00  0.00     0.009 A 
ATOM     76  C   UNL     1       4.439 -10.080  15.149  1.00  0.00     0.001 A 
ATOM     77  C   UNL     1       6.151  -8.760  16.230  1.00  0.00     0.001 A 
ATOM     78  C   UNL     1       5.241  -9.816  16.259  1.00  0.00     0.000 A 
ENDBRANCH  60  73
ENDBRANCH  34  35
ENDBRANCH  26  29
ENDBRANCH  24  25
ENDBRANCH   1  24
TORSDOF 12
