REMARK SMILES O=C(NCCCNC(=O)[C@@H](Cc1ccc(O)cc1)Nc1c2ccccc2nc2ccccc12)c1ccc(-c2c3nc(c(-c4ccccc4)c4ccc([nH]4)c(-c4ccccc4)c4nc(c(-c5ccccc5)c5ccc2[nH]5)C=C4)C=C3)cc1
REMARK SMILES IDX 5 1 4 2 3 3 1 4 2 5 34 7 35 8 81 9 36 10 80 11 37 12 38 13
REMARK SMILES IDX 39 14 74 15 40 16 79 17 73 18 75 19 41 20 78 21 72 22 71 23
REMARK SMILES IDX 42 25 64 26 49 27 63 28 50 29 53 30 62 31 76 32 51 33 52 34
REMARK SMILES IDX 61 36 77 37 54 38 43 39 44 40 48 41 45 42 47 43 46 44 65 45
REMARK SMILES IDX 66 46 70 47 67 48 69 49 68 50 55 51 56 52 60 53 57 54 59 55
REMARK SMILES IDX 58 56 6 57 7 58 8 59 9 61 10 62 11 63 12 64 13 65 18 66
REMARK SMILES IDX 14 67 17 68 15 69 16 70 19 72 20 74 21 75 33 76 22 77 26 78
REMARK SMILES IDX 28 79 32 80 23 81 25 82 27 83 29 84 31 85 24 86 30 87
REMARK H PARENT 3 6 75 24 53 35 7 60 16 71 19 73
REMARK Flexibility Score: inf
ROOT
ATOM      1  C   UNL     1       4.313   0.377   2.361  1.00  0.00     0.042 C 
ENDROOT
BRANCH   1   2
ATOM      2  C   UNL     1       3.731  -0.950   1.892  1.00  0.00     0.118 C 
BRANCH   2   3
ATOM      3  N   UNL     1       2.460  -0.783   1.211  1.00  0.00    -0.352 N 
ATOM      4  O   UNL     1       0.912  -0.148  -0.242  1.00  0.00    -0.269 OA
ATOM      5  C   UNL     1       2.110  -0.370  -0.050  1.00  0.00     0.251 C 
ATOM      6  H   UNL     1       1.685  -1.015   1.773  1.00  0.00     0.163 HD
BRANCH   5   7
ATOM      7  C   UNL     1       3.058  -0.172  -1.188  1.00  0.00     0.039 A 
ATOM      8  C   UNL     1       4.254  -0.871  -1.357  1.00  0.00     0.014 A 
ATOM      9  C   UNL     1       2.632   0.662  -2.238  1.00  0.00     0.014 A 
ATOM     10  C   UNL     1       5.022  -0.711  -2.521  1.00  0.00     0.010 A 
ATOM     11  C   UNL     1       3.361   0.768  -3.432  1.00  0.00     0.010 A 
ATOM     12  C   UNL     1       4.565   0.074  -3.591  1.00  0.00    -0.014 A 
BRANCH  12  13
ATOM     13  C   UNL     1       5.286   0.060  -4.897  1.00  0.00     0.031 A 
ATOM     14  C   UNL     1       5.931   1.298  -5.460  1.00  0.00     0.074 A 
ATOM     15  C   UNL     1       5.346  -1.089  -5.603  1.00  0.00     0.049 A 
ATOM     16  N   UNL     1       6.606   1.437  -6.576  1.00  0.00    -0.248 NA
ATOM     17  C   UNL     1       5.794   2.537  -4.683  1.00  0.00     0.031 C 
ATOM     18  C   UNL     1       4.734  -2.359  -5.205  1.00  0.00     0.029 A 
ATOM     19  N   UNL     1       5.960  -1.380  -6.797  1.00  0.00    -0.354 N 
ATOM     20  C   UNL     1       6.960   2.778  -6.644  1.00  0.00     0.074 A 
ATOM     21  C   UNL     1       6.404   3.416  -5.468  1.00  0.00     0.031 C 
ATOM     22  C   UNL     1       5.047  -3.301  -6.107  1.00  0.00     0.029 A 
ATOM     23  C   UNL     1       5.839  -2.696  -7.173  1.00  0.00     0.049 A 
ATOM     24  H   UNL     1       6.442  -0.709  -7.333  1.00  0.00     0.167 HD
ATOM     25  C   UNL     1       7.689   3.420  -7.590  1.00  0.00     0.031 A 
ATOM     26  C   UNL     1       6.306  -3.353  -8.251  1.00  0.00     0.031 A 
ATOM     27  C   UNL     1       8.256   2.799  -8.759  1.00  0.00     0.049 A 
ATOM     28  C   UNL     1       7.104  -2.616  -9.286  1.00  0.00     0.074 A 
ATOM     29  C   UNL     1       9.049   3.373  -9.741  1.00  0.00     0.029 A 
ATOM     30  N   UNL     1       8.091   1.470  -9.110  1.00  0.00    -0.354 N 
ATOM     31  N   UNL     1       7.469  -1.359  -9.304  1.00  0.00    -0.248 NA
ATOM     32  C   UNL     1       7.554  -3.393 -10.452  1.00  0.00     0.031 C 
ATOM     33  C   UNL     1       9.332   2.399 -10.705  1.00  0.00     0.029 A 
ATOM     34  C   UNL     1       8.750   1.209 -10.302  1.00  0.00     0.049 A 
ATOM     35  H   UNL     1       7.582   0.807  -8.589  1.00  0.00     0.167 HD
ATOM     36  C   UNL     1       8.202  -1.196 -10.471  1.00  0.00     0.074 A 
ATOM     37  C   UNL     1       8.246  -2.486 -11.127  1.00  0.00     0.031 C 
ATOM     38  C   UNL     1       8.784  -0.072 -10.954  1.00  0.00     0.031 A 
BRANCH  25  39
ATOM     39  C   UNL     1       7.913   4.895  -7.406  1.00  0.00    -0.014 A 
ATOM     40  C   UNL     1       8.829   5.374  -6.456  1.00  0.00     0.009 A 
ATOM     41  C   UNL     1       7.246   5.812  -8.232  1.00  0.00     0.009 A 
ATOM     42  C   UNL     1       9.050   6.746  -6.319  1.00  0.00     0.001 A 
ATOM     43  C   UNL     1       7.486   7.182  -8.107  1.00  0.00     0.001 A 
ATOM     44  C   UNL     1       8.382   7.648  -7.147  1.00  0.00     0.000 A 
ENDBRANCH  25  39
BRANCH  26  45
ATOM     45  C   UNL     1       6.038  -4.806  -8.405  1.00  0.00    -0.014 A 
ATOM     46  C   UNL     1       7.066  -5.740  -8.210  1.00  0.00     0.009 A 
ATOM     47  C   UNL     1       4.756  -5.262  -8.746  1.00  0.00     0.009 A 
ATOM     48  C   UNL     1       6.818  -7.105  -8.368  1.00  0.00     0.001 A 
ATOM     49  C   UNL     1       4.506  -6.629  -8.880  1.00  0.00     0.001 A 
ATOM     50  C   UNL     1       5.538  -7.548  -8.698  1.00  0.00     0.000 A 
ENDBRANCH  26  45
BRANCH  38  51
ATOM     51  C   UNL     1       9.536  -0.195 -12.248  1.00  0.00    -0.014 A 
ATOM     52  C   UNL     1       8.858  -0.297 -13.473  1.00  0.00     0.009 A 
ATOM     53  C   UNL     1      10.939  -0.187 -12.244  1.00  0.00     0.009 A 
ATOM     54  C   UNL     1       9.572  -0.417 -14.666  1.00  0.00     0.001 A 
ATOM     55  C   UNL     1      11.650  -0.286 -13.441  1.00  0.00     0.001 A 
ATOM     56  C   UNL     1      10.967  -0.409 -14.650  1.00  0.00     0.000 A 
ENDBRANCH  38  51
ENDBRANCH  12  13
ENDBRANCH   5   7
ENDBRANCH   2   3
ENDBRANCH   1   2
BRANCH   1  57
ATOM     57  C   UNL     1       3.908   0.764   3.783  1.00  0.00     0.117 C 
BRANCH  57  58
ATOM     58  N   UNL     1       4.729   0.080   4.767  1.00  0.00    -0.354 N 
ATOM     59  C   UNL     1       5.791   0.472   5.521  1.00  0.00     0.242 C 
ATOM     60  H   UNL     1       4.463  -0.856   4.918  1.00  0.00     0.163 HD
ATOM     61  O   UNL     1       6.398  -0.444   6.094  1.00  0.00    -0.273 OA
BRANCH  59  62
ATOM     62  C   UNL     1       6.280   1.932   5.685  1.00  0.00     0.173 C 
BRANCH  62  63
ATOM     63  C   UNL     1       7.136   2.445   4.499  1.00  0.00     0.070 C 
BRANCH  63  64
ATOM     64  C   UNL     1       6.502   2.937   3.216  1.00  0.00    -0.045 A 
ATOM     65  C   UNL     1       5.559   3.975   3.198  1.00  0.00     0.007 A 
ATOM     66  C   UNL     1       6.930   2.409   1.985  1.00  0.00     0.007 A 
ATOM     67  C   UNL     1       4.972   4.390   1.998  1.00  0.00     0.046 A 
ATOM     68  C   UNL     1       6.353   2.829   0.784  1.00  0.00     0.046 A 
ATOM     69  C   UNL     1       5.361   3.799   0.802  1.00  0.00     0.115 A 
BRANCH  69  70
ATOM     70  O   UNL     1       4.787   4.142  -0.386  1.00  0.00    -0.508 OA
ATOM     71  H   UNL     1       4.114   4.793  -0.410  1.00  0.00     0.293 HD
ENDBRANCH  69  70
ENDBRANCH  63  64
ENDBRANCH  62  63
BRANCH  62  72
ATOM     72  N   UNL     1       5.221   2.865   6.121  1.00  0.00    -0.372 N 
ATOM     73  H   UNL     1       4.640   3.287   5.447  1.00  0.00     0.161 HD
BRANCH  72  74
ATOM     74  C   UNL     1       5.025   3.162   7.489  1.00  0.00     0.054 A 
ATOM     75  C   UNL     1       6.031   3.811   8.269  1.00  0.00     0.024 A 
ATOM     76  C   UNL     1       3.801   2.785   8.123  1.00  0.00     0.024 A 
ATOM     77  C   UNL     1       7.271   4.286   7.771  1.00  0.00     0.012 A 
ATOM     78  C   UNL     1       5.754   4.040   9.632  1.00  0.00     0.073 A 
ATOM     79  C   UNL     1       3.646   3.114   9.485  1.00  0.00     0.073 A 
ATOM     80  C   UNL     1       2.732   2.103   7.485  1.00  0.00     0.012 A 
ATOM     81  C   UNL     1       8.222   4.891   8.594  1.00  0.00     0.001 A 
ATOM     82  C   UNL     1       6.708   4.653  10.436  1.00  0.00     0.029 A 
ATOM     83  N   UNL     1       4.596   3.712  10.210  1.00  0.00    -0.248 NA
ATOM     84  C   UNL     1       2.458   2.811  10.135  1.00  0.00     0.029 A 
ATOM     85  C   UNL     1       1.549   1.797   8.160  1.00  0.00     0.001 A 
ATOM     86  C   UNL     1       7.941   5.068   9.937  1.00  0.00     0.002 A 
ATOM     87  C   UNL     1       1.407   2.163   9.488  1.00  0.00     0.002 A 
ENDBRANCH  72  74
ENDBRANCH  62  72
ENDBRANCH  59  62
ENDBRANCH  57  58
ENDBRANCH   1  57
TORSDOF 15
