REMARK SMILES CCCc1cc(C(N)=O)c(NC(=O)[C@H]2CC(C)=C(C)C[C@@H]2C(=O)NCCCNC(=O)c2ccc(-c3c4nc(c(-c5ccccc5)c5ccc([nH]5)c(-c5ccccc5)c5nc(c(-c6ccccc6)c6ccc3[nH]6)C=C5)C=C4)cc2)s1
REMARK SMILES IDX 25 1 24 2 22 3 23 4 21 6 14 7 15 8 16 9 20 10 17 11 18 12
REMARK SMILES IDX 19 13 12 14 11 15 13 17 10 18 4 19 5 20 79 21 6 22 3 23 2 24
REMARK SMILES IDX 1 25 7 26 8 27 9 28 26 31 27 32 28 33 29 34 30 36 31 37
REMARK SMILES IDX 32 38 78 39 33 40 77 41 34 42 35 43 36 44 71 45 37 46 76 47
REMARK SMILES IDX 70 48 72 49 38 50 75 51 69 52 68 53 39 55 61 56 46 57 60 58
REMARK SMILES IDX 47 59 50 60 59 61 73 62 48 63 49 64 58 66 74 67 51 68 40 69
REMARK SMILES IDX 41 70 45 71 42 72 44 73 43 74 62 75 63 76 67 77 64 78 66 79
REMARK SMILES IDX 65 80 52 81 53 82 57 83 54 84 56 85 55 86
REMARK H PARENT 24 5 11 16 8 29 8 30 28 35 72 54 50 65
REMARK Flexibility Score: inf
ROOT
ATOM      1  C   UNL     1      -5.001  -0.847  -6.724  1.00  0.00     0.117 C 
ENDROOT
BRANCH   1   2
ATOM      2  N   UNL     1      -4.238  -0.721  -7.945  1.00  0.00    -0.356 N 
ATOM      3  C   UNL     1      -2.890  -0.790  -8.130  1.00  0.00     0.224 C 
ATOM      4  O   UNL     1      -2.484  -0.766  -9.296  1.00  0.00    -0.275 OA
ATOM      5  H   UNL     1      -4.768  -0.563  -8.760  1.00  0.00     0.163 HD
BRANCH   3   6
ATOM      6  C   UNL     1      -1.894  -0.778  -6.962  1.00  0.00     0.095 C 
ATOM      7  C   UNL     1      -2.156  -1.868  -5.906  1.00  0.00     0.095 C 
ATOM      8  C   UNL     1      -2.547  -1.423  -4.482  1.00  0.00     0.045 C 
ATOM      9  C   UNL     1      -2.583   0.068  -4.192  1.00  0.00    -0.074 C 
ATOM     10  C   UNL     1      -1.748   0.670  -6.481  1.00  0.00     0.045 C 
ATOM     11  C   UNL     1      -3.074   0.403  -2.805  1.00  0.00     0.039 C 
ATOM     12  C   UNL     1      -2.211   1.004  -5.088  1.00  0.00    -0.074 C 
ATOM     13  C   UNL     1      -2.192   2.484  -4.782  1.00  0.00     0.039 C 
BRANCH   7  14
ATOM     14  C   UNL     1      -1.149  -3.017  -6.053  1.00  0.00     0.229 C 
ATOM     15  N   UNL     1      -0.087  -3.283  -5.254  1.00  0.00    -0.317 N 
ATOM     16  H   UNL     1       0.350  -4.145  -5.438  1.00  0.00     0.170 HD
ATOM     17  O   UNL     1      -1.345  -3.843  -6.959  1.00  0.00    -0.274 OA
BRANCH  15  18
ATOM     18  C   UNL     1       0.488  -2.567  -4.234  1.00  0.00     0.108 A 
ATOM     19  C   UNL     1       1.275  -0.706  -2.831  1.00  0.00     0.008 A 
ATOM     20  C   UNL     1       1.590  -1.940  -2.300  1.00  0.00     0.031 A 
ATOM     21  S   UNL     1       0.681  -0.892  -4.417  1.00  0.00    -0.122 S 
ATOM     22  C   UNL     1       1.125  -3.046  -3.100  1.00  0.00     0.074 A 
BRANCH  19  23
ATOM     23  C   UNL     1       1.471   0.664  -2.253  1.00  0.00     0.046 C 
BRANCH  23  24
ATOM     24  C   UNL     1       0.597   0.953  -1.026  1.00  0.00     0.002 C 
ATOM     25  C   UNL     1       0.956   0.134   0.206  1.00  0.00     0.004 C 
ENDBRANCH  23  24
ENDBRANCH  19  23
BRANCH  22  26
ATOM     26  C   UNL     1       1.284  -4.437  -2.686  1.00  0.00     0.251 C 
ATOM     27  N   UNL     1       0.430  -5.356  -3.224  1.00  0.00    -0.366 N 
ATOM     28  O   UNL     1       2.114  -4.790  -1.853  1.00  0.00    -0.269 OA
ATOM     29  H   UNL     1      -0.237  -5.077  -3.892  1.00  0.00     0.159 HD
ATOM     30  H   UNL     1       0.481  -6.299  -2.944  1.00  0.00     0.159 HD
ENDBRANCH  22  26
ENDBRANCH  15  18
ENDBRANCH   7  14
ENDBRANCH   3   6
ENDBRANCH   1   2
BRANCH   1  31
ATOM     31  C   UNL     1      -6.204   0.059  -6.628  1.00  0.00     0.042 C 
BRANCH  31  32
ATOM     32  C   UNL     1      -7.279  -0.253  -7.646  1.00  0.00     0.118 C 
BRANCH  32  33
ATOM     33  N   UNL     1      -7.879  -1.571  -7.468  1.00  0.00    -0.352 N 
ATOM     34  C   UNL     1      -9.125  -1.943  -7.019  1.00  0.00     0.251 C 
ATOM     35  H   UNL     1      -7.292  -2.323  -7.711  1.00  0.00     0.163 HD
ATOM     36  O   UNL     1      -9.368  -3.126  -6.801  1.00  0.00    -0.269 OA
BRANCH  34  37
ATOM     37  C   UNL     1     -10.160  -0.920  -6.757  1.00  0.00     0.039 A 
ATOM     38  C   UNL     1     -10.998  -1.058  -5.647  1.00  0.00     0.014 A 
ATOM     39  C   UNL     1     -10.293   0.190  -7.588  1.00  0.00     0.014 A 
ATOM     40  C   UNL     1     -11.893  -0.034  -5.325  1.00  0.00     0.010 A 
ATOM     41  C   UNL     1     -11.064   1.268  -7.183  1.00  0.00     0.010 A 
ATOM     42  C   UNL     1     -11.893   1.163  -6.059  1.00  0.00    -0.014 A 
BRANCH  42  43
ATOM     43  C   UNL     1     -12.770   2.306  -5.702  1.00  0.00     0.031 A 
ATOM     44  C   UNL     1     -13.750   2.846  -6.713  1.00  0.00     0.074 A 
ATOM     45  C   UNL     1     -12.635   2.909  -4.504  1.00  0.00     0.049 A 
ATOM     46  N   UNL     1     -14.545   3.882  -6.622  1.00  0.00    -0.248 NA
ATOM     47  C   UNL     1     -13.813   2.159  -8.015  1.00  0.00     0.031 C 
ATOM     48  C   UNL     1     -11.680   2.529  -3.460  1.00  0.00     0.029 A 
ATOM     49  N   UNL     1     -13.308   3.975  -3.962  1.00  0.00    -0.354 N 
ATOM     50  C   UNL     1     -15.169   3.986  -7.860  1.00  0.00     0.074 A 
ATOM     51  C   UNL     1     -14.611   2.957  -8.706  1.00  0.00     0.031 C 
ATOM     52  C   UNL     1     -11.862   3.317  -2.387  1.00  0.00     0.029 A 
ATOM     53  C   UNL     1     -12.915   4.282  -2.682  1.00  0.00     0.049 A 
ATOM     54  H   UNL     1     -14.007   4.472  -4.444  1.00  0.00     0.167 HD
ATOM     55  C   UNL     1     -16.146   4.837  -8.252  1.00  0.00     0.031 A 
ATOM     56  C   UNL     1     -13.358   5.232  -1.837  1.00  0.00     0.031 A 
ATOM     57  C   UNL     1     -16.731   5.834  -7.398  1.00  0.00     0.049 A 
ATOM     58  C   UNL     1     -14.467   6.144  -2.282  1.00  0.00     0.074 A 
ATOM     59  C   UNL     1     -17.772   6.702  -7.673  1.00  0.00     0.029 A 
ATOM     60  N   UNL     1     -16.329   6.085  -6.096  1.00  0.00    -0.354 N 
ATOM     61  N   UNL     1     -15.096   6.182  -3.432  1.00  0.00    -0.248 NA
ATOM     62  C   UNL     1     -14.942   7.131  -1.302  1.00  0.00     0.031 C 
ATOM     63  C   UNL     1     -17.974   7.507  -6.548  1.00  0.00     0.029 A 
ATOM     64  C   UNL     1     -17.095   7.102  -5.555  1.00  0.00     0.049 A 
ATOM     65  H   UNL     1     -15.606   5.610  -5.625  1.00  0.00     0.167 HD
ATOM     66  C   UNL     1     -16.062   7.170  -3.302  1.00  0.00     0.074 A 
ATOM     67  C   UNL     1     -15.945   7.696  -1.957  1.00  0.00     0.031 C 
ATOM     68  C   UNL     1     -16.968   7.603  -4.212  1.00  0.00     0.031 A 
BRANCH  55  69
ATOM     69  C   UNL     1     -16.646   4.712  -9.665  1.00  0.00    -0.014 A 
ATOM     70  C   UNL     1     -17.381   3.588 -10.080  1.00  0.00     0.009 A 
ATOM     71  C   UNL     1     -16.394   5.736 -10.590  1.00  0.00     0.009 A 
ATOM     72  C   UNL     1     -17.814   3.474 -11.402  1.00  0.00     0.001 A 
ATOM     73  C   UNL     1     -16.857   5.634 -11.903  1.00  0.00     0.001 A 
ATOM     74  C   UNL     1     -17.556   4.498 -12.311  1.00  0.00     0.000 A 
ENDBRANCH  55  69
BRANCH  56  75
ATOM     75  C   UNL     1     -12.786   5.343  -0.469  1.00  0.00    -0.014 A 
ATOM     76  C   UNL     1     -13.549   4.974   0.650  1.00  0.00     0.009 A 
ATOM     77  C   UNL     1     -11.483   5.824  -0.272  1.00  0.00     0.009 A 
ATOM     78  C   UNL     1     -13.031   5.114   1.940  1.00  0.00     0.001 A 
ATOM     79  C   UNL     1     -10.957   5.935   1.018  1.00  0.00     0.001 A 
ATOM     80  C   UNL     1     -11.735   5.591   2.122  1.00  0.00     0.000 A 
ENDBRANCH  56  75
BRANCH  68  81
ATOM     81  C   UNL     1     -17.937   8.661  -3.766  1.00  0.00    -0.014 A 
ATOM     82  C   UNL     1     -17.529   9.987  -3.556  1.00  0.00     0.009 A 
ATOM     83  C   UNL     1     -19.288   8.326  -3.587  1.00  0.00     0.009 A 
ATOM     84  C   UNL     1     -18.450  10.948  -3.138  1.00  0.00     0.001 A 
ATOM     85  C   UNL     1     -20.212   9.296  -3.199  1.00  0.00     0.001 A 
ATOM     86  C   UNL     1     -19.791  10.603  -2.964  1.00  0.00     0.000 A 
ENDBRANCH  68  81
ENDBRANCH  42  43
ENDBRANCH  34  37
ENDBRANCH  32  33
ENDBRANCH  31  32
ENDBRANCH   1  31
TORSDOF 15
