REMARK SMILES C[C@@H](C(=O)NCCCNC(=O)c1ccc(-c2c3nc(c(-c4ccccc4)c4ccc([nH]4)c(-c4ccccc4)c4nc(c(-c5ccccc5)c5ccc2[nH]5)C=C4)C=C3)cc1)c1ccc(C[C@H]2CCC[C@@H]2O)cc1F
REMARK SMILES IDX 6 1 5 2 3 3 4 4 2 6 1 7 60 8 61 9 72 10 62 11 71 12 73 13
REMARK SMILES IDX 63 14 64 15 65 16 66 17 69 18 67 19 68 20 70 21 7 23 8 24
REMARK SMILES IDX 9 25 10 26 11 28 12 29 13 30 59 31 14 32 58 33 15 34 16 35
REMARK SMILES IDX 17 36 52 37 18 38 57 39 51 40 53 41 19 42 56 43 50 44 49 45
REMARK SMILES IDX 20 47 42 48 27 49 41 50 28 51 31 52 40 53 54 54 29 55 30 56
REMARK SMILES IDX 39 58 55 59 32 60 21 61 22 62 26 63 23 64 25 65 24 66 43 67
REMARK SMILES IDX 44 68 48 69 45 70 47 71 46 72 33 73 34 74 38 75 35 76 37 77
REMARK SMILES IDX 36 78
REMARK H PARENT 5 5 70 22 9 27 53 46 31 57
REMARK Flexibility Score: inf
ROOT
ATOM      1  C   UNL     1       3.487   1.173   1.371  1.00  0.00     0.117 C 
ENDROOT
BRANCH   1   2
ATOM      2  N   UNL     1       2.480   2.208   1.271  1.00  0.00    -0.356 N 
ATOM      3  C   UNL     1       1.163   2.152   0.926  1.00  0.00     0.227 C 
ATOM      4  O   UNL     1       0.635   3.249   0.737  1.00  0.00    -0.274 OA
ATOM      5  H   UNL     1       2.804   3.112   1.490  1.00  0.00     0.163 HD
BRANCH   3   6
ATOM      6  C   UNL     1       0.439   0.796   0.819  1.00  0.00     0.108 C 
ATOM      7  C   UNL     1       0.835   0.034  -0.446  1.00  0.00     0.023 C 
BRANCH   6   8
ATOM      8  C   UNL     1      -1.086   0.825   0.905  1.00  0.00    -0.000 A 
ATOM      9  C   UNL     1      -1.878   1.916   0.528  1.00  0.00     0.008 A 
ATOM     10  C   UNL     1      -1.756  -0.336   1.319  1.00  0.00     0.127 A 
ATOM     11  C   UNL     1      -3.269   1.871   0.637  1.00  0.00     0.004 A 
ATOM     12  C   UNL     1      -3.145  -0.395   1.420  1.00  0.00     0.043 A 
ATOM     13  F   UNL     1      -1.050  -1.435   1.627  1.00  0.00    -0.207 F 
ATOM     14  C   UNL     1      -3.915   0.731   1.123  1.00  0.00    -0.045 A 
BRANCH  14  15
ATOM     15  C   UNL     1      -5.404   0.745   1.365  1.00  0.00     0.041 C 
BRANCH  15  16
ATOM     16  C   UNL     1      -5.841   1.380   2.697  1.00  0.00     0.022 C 
ATOM     17  C   UNL     1      -5.293   0.714   3.970  1.00  0.00     0.007 C 
ATOM     18  C   UNL     1      -5.498   2.862   2.872  1.00  0.00     0.117 C 
ATOM     19  C   UNL     1      -5.059   1.847   4.974  1.00  0.00     0.003 C 
ATOM     20  C   UNL     1      -5.709   3.079   4.362  1.00  0.00     0.032 C 
BRANCH  18  21
ATOM     21  O   UNL     1      -6.346   3.681   2.091  1.00  0.00    -0.393 OA
ATOM     22  H   UNL     1      -7.271   3.508   2.328  1.00  0.00     0.210 HD
ENDBRANCH  18  21
ENDBRANCH  15  16
ENDBRANCH  14  15
ENDBRANCH   6   8
ENDBRANCH   3   6
ENDBRANCH   1   2
BRANCH   1  23
ATOM     23  C   UNL     1       4.366   1.132   0.121  1.00  0.00     0.042 C 
BRANCH  23  24
ATOM     24  C   UNL     1       5.051   2.453  -0.215  1.00  0.00     0.118 C 
BRANCH  24  25
ATOM     25  N   UNL     1       6.002   2.871   0.803  1.00  0.00    -0.352 N 
ATOM     26  C   UNL     1       7.353   3.081   0.705  1.00  0.00     0.251 C 
ATOM     27  H   UNL     1       5.618   3.026   1.696  1.00  0.00     0.163 HD
ATOM     28  O   UNL     1       8.020   3.249   1.726  1.00  0.00    -0.269 OA
BRANCH  26  29
ATOM     29  C   UNL     1       8.020   3.083  -0.614  1.00  0.00     0.039 A 
ATOM     30  C   UNL     1       9.241   2.418  -0.751  1.00  0.00     0.014 A 
ATOM     31  C   UNL     1       7.462   3.751  -1.708  1.00  0.00     0.014 A 
ATOM     32  C   UNL     1       9.869   2.368  -1.998  1.00  0.00     0.010 A 
ATOM     33  C   UNL     1       8.047   3.633  -2.966  1.00  0.00     0.010 A 
ATOM     34  C   UNL     1       9.258   2.943  -3.124  1.00  0.00    -0.014 A 
BRANCH  34  35
ATOM     35  C   UNL     1       9.870   2.827  -4.473  1.00  0.00     0.031 A 
ATOM     36  C   UNL     1      10.327   4.055  -5.211  1.00  0.00     0.074 A 
ATOM     37  C   UNL     1       9.969   1.616  -5.057  1.00  0.00     0.049 A 
ATOM     38  N   UNL     1      10.838   4.154  -6.412  1.00  0.00    -0.248 NA
ATOM     39  C   UNL     1      10.170   5.344  -4.517  1.00  0.00     0.031 C 
ATOM     40  C   UNL     1       9.539   0.349  -4.461  1.00  0.00     0.029 A 
ATOM     41  N   UNL     1      10.464   1.254  -6.285  1.00  0.00    -0.354 N 
ATOM     42  C   UNL     1      11.055   5.510  -6.620  1.00  0.00     0.074 A 
ATOM     43  C   UNL     1      10.568   6.201  -5.446  1.00  0.00     0.031 C 
ATOM     44  C   UNL     1       9.821  -0.652  -5.309  1.00  0.00     0.029 A 
ATOM     45  C   UNL     1      10.405  -0.097  -6.525  1.00  0.00     0.049 A 
ATOM     46  H   UNL     1      10.827   1.901  -6.932  1.00  0.00     0.167 HD
ATOM     47  C   UNL     1      11.626   6.126  -7.683  1.00  0.00     0.031 A 
ATOM     48  C   UNL     1      10.773  -0.811  -7.606  1.00  0.00     0.031 A 
ATOM     49  C   UNL     1      12.108   5.441  -8.853  1.00  0.00     0.049 A 
ATOM     50  C   UNL     1      11.365  -0.100  -8.790  1.00  0.00     0.074 A 
ATOM     51  C   UNL     1      12.734   5.974  -9.967  1.00  0.00     0.029 A 
ATOM     52  N   UNL     1      12.013   4.075  -9.064  1.00  0.00    -0.354 N 
ATOM     53  N   UNL     1      11.611   1.178  -8.949  1.00  0.00    -0.248 NA
ATOM     54  C   UNL     1      11.740  -0.933  -9.941  1.00  0.00     0.031 C 
ATOM     55  C   UNL     1      12.967   4.937 -10.876  1.00  0.00     0.029 A 
ATOM     56  C   UNL     1      12.547   3.749 -10.300  1.00  0.00     0.049 A 
ATOM     57  H   UNL     1      11.623   3.431  -8.429  1.00  0.00     0.167 HD
ATOM     58  C   UNL     1      12.196   1.298 -10.203  1.00  0.00     0.074 A 
ATOM     59  C   UNL     1      12.283  -0.038 -10.754  1.00  0.00     0.031 C 
ATOM     60  C   UNL     1      12.626   2.416 -10.838  1.00  0.00     0.031 A 
BRANCH  47  61
ATOM     61  C   UNL     1      11.755   7.624  -7.628  1.00  0.00    -0.014 A 
ATOM     62  C   UNL     1      12.643   8.246  -6.734  1.00  0.00     0.009 A 
ATOM     63  C   UNL     1      11.008   8.425  -8.506  1.00  0.00     0.009 A 
ATOM     64  C   UNL     1      12.752   9.637  -6.695  1.00  0.00     0.001 A 
ATOM     65  C   UNL     1      11.142   9.815  -8.487  1.00  0.00     0.001 A 
ATOM     66  C   UNL     1      12.005  10.420  -7.575  1.00  0.00     0.000 A 
ENDBRANCH  47  61
BRANCH  48  67
ATOM     67  C   UNL     1      10.609  -2.289  -7.613  1.00  0.00    -0.014 A 
ATOM     68  C   UNL     1      11.732  -3.130  -7.577  1.00  0.00     0.009 A 
ATOM     69  C   UNL     1       9.331  -2.868  -7.662  1.00  0.00     0.009 A 
ATOM     70  C   UNL     1      11.580  -4.518  -7.614  1.00  0.00     0.001 A 
ATOM     71  C   UNL     1       9.181  -4.256  -7.668  1.00  0.00     0.001 A 
ATOM     72  C   UNL     1      10.305  -5.079  -7.654  1.00  0.00     0.000 A 
ENDBRANCH  48  67
BRANCH  60  73
ATOM     73  C   UNL     1      13.267   2.238 -12.187  1.00  0.00    -0.014 A 
ATOM     74  C   UNL     1      12.513   1.881 -13.316  1.00  0.00     0.009 A 
ATOM     75  C   UNL     1      14.643   2.474 -12.336  1.00  0.00     0.009 A 
ATOM     76  C   UNL     1      13.132   1.729 -14.559  1.00  0.00     0.001 A 
ATOM     77  C   UNL     1      15.252   2.354 -13.586  1.00  0.00     0.001 A 
ATOM     78  C   UNL     1      14.498   1.971 -14.694  1.00  0.00     0.000 A 
ENDBRANCH  60  73
ENDBRANCH  34  35
ENDBRANCH  26  29
ENDBRANCH  24  25
ENDBRANCH  23  24
ENDBRANCH   1  23
TORSDOF 14
