REMARK SMILES CC(C)c1cc(O)cc(C(C)C)c1O[C@@H]1O[C@@H](C(=O)NCCCNC(=O)c2ccc(-c3c4nc(c(-c5ccccc5)c5ccc([nH]5)c(-c5ccccc5)c5nc(c(-c6ccccc6)c6ccc3[nH]6)C=C5)C=C4)cc2)[C@@H](O)[C@H](O)[C@@H]1O
REMARK SMILES IDX 21 1 20 2 18 3 19 4 17 6 15 7 16 8 79 9 77 10 75 11 14 12
REMARK SMILES IDX 13 13 4 14 5 15 6 16 9 17 8 18 2 19 1 20 3 21 7 22 10 24
REMARK SMILES IDX 11 25 12 26 80 27 78 29 76 31 22 33 23 34 24 35 25 36 26 38
REMARK SMILES IDX 27 39 28 40 74 41 29 42 73 43 30 44 31 45 32 46 67 47 33 48
REMARK SMILES IDX 72 49 66 50 68 51 34 52 71 53 65 54 64 55 35 57 57 58 42 59
REMARK SMILES IDX 56 60 43 61 46 62 55 63 69 64 44 65 45 66 54 68 70 69 47 70
REMARK SMILES IDX 36 71 37 72 41 73 38 74 40 75 39 76 58 77 59 78 63 79 60 80
REMARK SMILES IDX 62 81 61 82 48 83 49 84 53 85 50 86 52 87 51 88
REMARK H PARENT 20 5 7 23 80 28 78 30 76 32 24 37 68 56 46 67
REMARK Flexibility Score: inf
ROOT
ATOM      1  C   UNL     1      -2.054   0.551  -0.518  1.00  0.00     0.117 C 
ENDROOT
BRANCH   1   2
ATOM      2  N   UNL     1      -2.132  -0.416  -1.604  1.00  0.00    -0.354 N 
ATOM      3  C   UNL     1      -1.234  -1.189  -2.265  1.00  0.00     0.252 C 
ATOM      4  O   UNL     1      -1.745  -2.065  -2.978  1.00  0.00    -0.272 OA
ATOM      5  H   UNL     1      -3.051  -0.537  -1.936  1.00  0.00     0.163 HD
BRANCH   3   6
ATOM      6  C   UNL     1       0.319  -1.048  -2.236  1.00  0.00     0.242 C 
ATOM      7  C   UNL     1       0.842  -3.205  -1.294  1.00  0.00     0.339 C 
ATOM      8  O   UNL     1       0.994  -2.311  -2.401  1.00  0.00    -0.324 OA
ATOM      9  C   UNL     1       0.974  -2.613   0.145  1.00  0.00     0.214 C 
ATOM     10  C   UNL     1       0.708  -1.098   0.231  1.00  0.00     0.181 C 
ATOM     11  C   UNL     1       1.000  -0.335  -1.079  1.00  0.00     0.184 C 
BRANCH   7  12
ATOM     12  O   UNL     1       1.565  -4.436  -1.427  1.00  0.00    -0.461 OA
BRANCH  12  13
ATOM     13  C   UNL     1       2.893  -4.718  -1.537  1.00  0.00     0.130 A 
ATOM     14  C   UNL     1       3.155  -6.124  -1.501  1.00  0.00     0.001 A 
ATOM     15  C   UNL     1       4.492  -6.581  -1.597  1.00  0.00     0.054 A 
ATOM     16  C   UNL     1       5.546  -5.696  -1.692  1.00  0.00     0.116 A 
ATOM     17  C   UNL     1       3.993  -3.820  -1.644  1.00  0.00     0.001 A 
ATOM     18  C   UNL     1       5.303  -4.341  -1.725  1.00  0.00     0.054 A 
BRANCH  14  19
ATOM     19  C   UNL     1       2.111  -7.248  -1.354  1.00  0.00     0.017 C 
ATOM     20  C   UNL     1       2.318  -8.010  -0.031  1.00  0.00     0.012 C 
ATOM     21  C   UNL     1       0.618  -6.923  -1.482  1.00  0.00     0.012 C 
ENDBRANCH  14  19
BRANCH  16  22
ATOM     22  O   UNL     1       6.841  -6.113  -1.747  1.00  0.00    -0.508 OA
ATOM     23  H   UNL     1       7.039  -7.028  -1.727  1.00  0.00     0.293 HD
ENDBRANCH  16  22
BRANCH  17  24
ATOM     24  C   UNL     1       3.918  -2.309  -1.688  1.00  0.00     0.017 C 
ATOM     25  C   UNL     1       4.794  -1.582  -0.656  1.00  0.00     0.012 C 
ATOM     26  C   UNL     1       4.148  -1.752  -3.093  1.00  0.00     0.012 C 
ENDBRANCH  17  24
ENDBRANCH  12  13
ENDBRANCH   7  12
BRANCH   9  27
ATOM     27  O   UNL     1       2.231  -2.869   0.798  1.00  0.00    -0.384 OA
ATOM     28  H   UNL     1       2.938  -2.390   0.338  1.00  0.00     0.211 HD
ENDBRANCH   9  27
BRANCH  10  29
ATOM     29  O   UNL     1       1.458  -0.521   1.311  1.00  0.00    -0.387 OA
ATOM     30  H   UNL     1       2.407  -0.622   1.135  1.00  0.00     0.211 HD
ENDBRANCH  10  29
BRANCH  11  31
ATOM     31  O   UNL     1       0.718   1.067  -1.073  1.00  0.00    -0.387 OA
ATOM     32  H   UNL     1      -0.237   1.204  -0.970  1.00  0.00     0.211 HD
ENDBRANCH  11  31
ENDBRANCH   3   6
ENDBRANCH   1   2
BRANCH   1  33
ATOM     33  C   UNL     1      -2.459   1.956  -0.915  1.00  0.00     0.042 C 
BRANCH  33  34
ATOM     34  C   UNL     1      -3.965   2.138  -0.853  1.00  0.00     0.118 C 
BRANCH  34  35
ATOM     35  N   UNL     1      -4.484   1.934   0.502  1.00  0.00    -0.352 N 
ATOM     36  C   UNL     1      -4.703   2.827   1.523  1.00  0.00     0.251 C 
ATOM     37  H   UNL     1      -4.714   1.001   0.717  1.00  0.00     0.163 HD
ATOM     38  O   UNL     1      -4.829   2.423   2.674  1.00  0.00    -0.269 OA
BRANCH  36  39
ATOM     39  C   UNL     1      -4.795   4.270   1.232  1.00  0.00     0.039 A 
ATOM     40  C   UNL     1      -4.274   5.202   2.134  1.00  0.00     0.014 A 
ATOM     41  C   UNL     1      -5.431   4.702   0.070  1.00  0.00     0.014 A 
ATOM     42  C   UNL     1      -4.321   6.563   1.821  1.00  0.00     0.010 A 
ATOM     43  C   UNL     1      -5.367   6.035  -0.297  1.00  0.00     0.010 A 
ATOM     44  C   UNL     1      -4.826   6.983   0.581  1.00  0.00    -0.014 A 
BRANCH  44  45
ATOM     45  C   UNL     1      -4.827   8.405   0.162  1.00  0.00     0.031 A 
ATOM     46  C   UNL     1      -6.129   9.075  -0.192  1.00  0.00     0.074 A 
ATOM     47  C   UNL     1      -3.656   9.046  -0.017  1.00  0.00     0.049 A 
ATOM     48  N   UNL     1      -6.333  10.246  -0.736  1.00  0.00    -0.248 NA
ATOM     49  C   UNL     1      -7.363   8.305   0.051  1.00  0.00     0.031 C 
ATOM     50  C   UNL     1      -2.327   8.479   0.229  1.00  0.00     0.029 A 
ATOM     51  N   UNL     1      -3.395  10.314  -0.470  1.00  0.00    -0.354 N 
ATOM     52  C   UNL     1      -7.705  10.331  -0.940  1.00  0.00     0.074 A 
ATOM     53  C   UNL     1      -8.281   9.079  -0.507  1.00  0.00     0.031 C 
ATOM     54  C   UNL     1      -1.395   9.406  -0.048  1.00  0.00     0.029 A 
ATOM     55  C   UNL     1      -2.055  10.610  -0.534  1.00  0.00     0.049 A 
ATOM     56  H   UNL     1      -4.101  10.951  -0.725  1.00  0.00     0.167 HD
ATOM     57  C   UNL     1      -8.425  11.370  -1.424  1.00  0.00     0.031 A 
ATOM     58  C   UNL     1      -1.431  11.727  -0.951  1.00  0.00     0.031 A 
ATOM     59  C   UNL     1      -7.853  12.634  -1.797  1.00  0.00     0.049 A 
ATOM     60  C   UNL     1      -2.258  12.880  -1.444  1.00  0.00     0.074 A 
ATOM     61  C   UNL     1      -8.501  13.787  -2.202  1.00  0.00     0.029 A 
ATOM     62  N   UNL     1      -6.495  12.910  -1.800  1.00  0.00    -0.354 N 
ATOM     63  N   UNL     1      -3.561  12.973  -1.556  1.00  0.00    -0.248 NA
ATOM     64  C   UNL     1      -1.528  14.084  -1.865  1.00  0.00     0.031 C 
ATOM     65  C   UNL     1      -7.530  14.752  -2.487  1.00  0.00     0.029 A 
ATOM     66  C   UNL     1      -6.282  14.210  -2.220  1.00  0.00     0.049 A 
ATOM     67  H   UNL     1      -5.788  12.276  -1.542  1.00  0.00     0.167 HD
ATOM     68  C   UNL     1      -3.808  14.250  -2.039  1.00  0.00     0.074 A 
ATOM     69  C   UNL     1      -2.522  14.902  -2.179  1.00  0.00     0.031 C 
ATOM     70  C   UNL     1      -4.992  14.833  -2.348  1.00  0.00     0.031 A 
BRANCH  57  71
ATOM     71  C   UNL     1      -9.910  11.189  -1.563  1.00  0.00    -0.014 A 
ATOM     72  C   UNL     1     -10.745  11.134  -0.436  1.00  0.00     0.009 A 
ATOM     73  C   UNL     1     -10.488  11.122  -2.840  1.00  0.00     0.009 A 
ATOM     74  C   UNL     1     -12.125  10.986  -0.584  1.00  0.00     0.001 A 
ATOM     75  C   UNL     1     -11.871  11.000  -2.986  1.00  0.00     0.001 A 
ATOM     76  C   UNL     1     -12.687  10.925  -1.859  1.00  0.00     0.000 A 
ENDBRANCH  57  71
BRANCH  58  77
ATOM     77  C   UNL     1       0.051  11.819  -0.910  1.00  0.00    -0.014 A 
ATOM     78  C   UNL     1       0.683  12.656   0.022  1.00  0.00     0.009 A 
ATOM     79  C   UNL     1       0.841  11.086  -1.809  1.00  0.00     0.009 A 
ATOM     80  C   UNL     1       2.074  12.783   0.031  1.00  0.00     0.001 A 
ATOM     81  C   UNL     1       2.234  11.193  -1.778  1.00  0.00     0.001 A 
ATOM     82  C   UNL     1       2.848  12.050  -0.867  1.00  0.00     0.000 A 
ENDBRANCH  58  77
BRANCH  70  83
ATOM     83  C   UNL     1      -4.945  16.247  -2.843  1.00  0.00    -0.014 A 
ATOM     84  C   UNL     1      -4.508  16.542  -4.143  1.00  0.00     0.009 A 
ATOM     85  C   UNL     1      -5.383  17.290  -2.013  1.00  0.00     0.009 A 
ATOM     86  C   UNL     1      -4.483  17.863  -4.593  1.00  0.00     0.001 A 
ATOM     87  C   UNL     1      -5.381  18.606  -2.475  1.00  0.00     0.001 A 
ATOM     88  C   UNL     1      -4.924  18.892  -3.761  1.00  0.00     0.000 A 
ENDBRANCH  70  83
ENDBRANCH  44  45
ENDBRANCH  36  39
ENDBRANCH  34  35
ENDBRANCH  33  34
ENDBRANCH   1  33
TORSDOF 18
