REMARK SMILES O=C(NCCCNC(=O)c1nnn(-c2ccc(C(F)(F)F)cc2)c1-c1cccc(Cl)c1)c1ccc(-c2c3nc(c(-c4ccccc4)c4ccc([nH]4)c(-c4ccccc4)c4nc(c(-c5ccccc5)c5ccc2[nH]5)C=C4)C=C3)cc1
REMARK SMILES IDX 5 1 4 2 3 3 1 4 2 5 32 7 33 8 79 9 34 10 78 11 35 12 36 13
REMARK SMILES IDX 37 14 72 15 38 16 77 17 71 18 73 19 39 20 76 21 70 22 69 23
REMARK SMILES IDX 40 25 62 26 47 27 61 28 48 29 51 30 60 31 74 32 49 33 50 34
REMARK SMILES IDX 59 36 75 37 52 38 41 39 42 40 46 41 43 42 45 43 44 44 63 45
REMARK SMILES IDX 64 46 68 47 65 48 67 49 66 50 53 51 54 52 58 53 55 54 57 55
REMARK SMILES IDX 56 56 6 57 7 58 8 59 9 61 10 62 11 63 24 64 12 65 13 66
REMARK SMILES IDX 25 67 26 68 31 69 27 70 29 71 28 72 30 73 14 74 15 75 23 76
REMARK SMILES IDX 16 77 22 78 17 79 18 80 19 81 20 82 21 83
REMARK H PARENT 3 6 73 24 51 35 7 60
REMARK Flexibility Score: inf
ROOT
ATOM      1  C   UNL     1       5.273   0.680  -1.780  1.00  0.00     0.042 C 
ENDROOT
BRANCH   1   2
ATOM      2  C   UNL     1       4.763   0.968  -0.368  1.00  0.00     0.118 C 
BRANCH   2   3
ATOM      3  N   UNL     1       3.330   1.167  -0.257  1.00  0.00    -0.352 N 
ATOM      4  O   UNL     1       1.187   0.921   0.203  1.00  0.00    -0.269 OA
ATOM      5  C   UNL     1       2.251   0.351  -0.056  1.00  0.00     0.251 C 
ATOM      6  H   UNL     1       3.074   2.114  -0.348  1.00  0.00     0.163 HD
BRANCH   5   7
ATOM      7  C   UNL     1       2.245  -1.134  -0.180  1.00  0.00     0.039 A 
ATOM      8  C   UNL     1       3.340  -1.927  -0.521  1.00  0.00     0.014 A 
ATOM      9  C   UNL     1       1.000  -1.767   0.001  1.00  0.00     0.014 A 
ATOM     10  C   UNL     1       3.183  -3.291  -0.767  1.00  0.00     0.010 A 
ATOM     11  C   UNL     1       0.841  -3.135  -0.214  1.00  0.00     0.010 A 
ATOM     12  C   UNL     1       1.929  -3.893  -0.637  1.00  0.00    -0.014 A 
BRANCH  12  13
ATOM     13  C   UNL     1       1.836  -5.339  -0.848  1.00  0.00     0.031 A 
ATOM     14  C   UNL     1       2.578  -6.198   0.121  1.00  0.00     0.074 A 
ATOM     15  C   UNL     1       1.012  -5.925  -1.739  1.00  0.00     0.049 A 
ATOM     16  N   UNL     1       3.469  -7.105  -0.122  1.00  0.00    -0.248 NA
ATOM     17  C   UNL     1       2.301  -5.994   1.551  1.00  0.00     0.031 C 
ATOM     18  C   UNL     1      -0.036  -5.292  -2.542  1.00  0.00     0.029 A 
ATOM     19  N   UNL     1       0.865  -7.255  -2.020  1.00  0.00    -0.354 N 
ATOM     20  C   UNL     1       3.759  -7.701   1.106  1.00  0.00     0.074 A 
ATOM     21  C   UNL     1       3.083  -6.917   2.110  1.00  0.00     0.031 C 
ATOM     22  C   UNL     1      -0.849  -6.251  -3.039  1.00  0.00     0.029 A 
ATOM     23  C   UNL     1      -0.304  -7.556  -2.700  1.00  0.00     0.049 A 
ATOM     24  H   UNL     1       1.529  -7.935  -1.763  1.00  0.00     0.167 HD
ATOM     25  C   UNL     1       4.382  -8.908   1.209  1.00  0.00     0.031 A 
ATOM     26  C   UNL     1      -0.830  -8.785  -2.917  1.00  0.00     0.031 A 
ATOM     27  C   UNL     1       5.078  -9.276   0.007  1.00  0.00     0.049 A 
ATOM     28  C   UNL     1       0.232  -9.794  -2.721  1.00  0.00     0.074 A 
ATOM     29  C   UNL     1       6.095  -8.730  -0.750  1.00  0.00     0.029 A 
ATOM     30  N   UNL     1       4.536 -10.271  -0.766  1.00  0.00    -0.354 N 
ATOM     31  N   UNL     1       1.233  -9.967  -3.533  1.00  0.00    -0.248 NA
ATOM     32  C   UNL     1       0.369 -10.423  -1.418  1.00  0.00     0.031 C 
ATOM     33  C   UNL     1       5.794  -9.097  -2.095  1.00  0.00     0.029 A 
ATOM     34  C   UNL     1       4.622  -9.854  -2.067  1.00  0.00     0.049 A 
ATOM     35  H   UNL     1       4.157 -11.122  -0.447  1.00  0.00     0.167 HD
ATOM     36  C   UNL     1       2.285 -10.355  -2.719  1.00  0.00     0.074 A 
ATOM     37  C   UNL     1       1.662 -10.753  -1.461  1.00  0.00     0.031 C 
ATOM     38  C   UNL     1       3.576 -10.049  -3.044  1.00  0.00     0.031 A 
BRANCH  25  39
ATOM     39  C   UNL     1       4.057  -9.927   2.278  1.00  0.00    -0.014 A 
ATOM     40  C   UNL     1       4.788 -11.131   2.317  1.00  0.00     0.009 A 
ATOM     41  C   UNL     1       2.881  -9.881   3.050  1.00  0.00     0.009 A 
ATOM     42  C   UNL     1       4.320 -12.250   3.018  1.00  0.00     0.001 A 
ATOM     43  C   UNL     1       2.436 -10.981   3.791  1.00  0.00     0.001 A 
ATOM     44  C   UNL     1       3.139 -12.176   3.748  1.00  0.00     0.000 A 
ENDBRANCH  25  39
BRANCH  26  45
ATOM     45  C   UNL     1      -2.247  -9.166  -3.083  1.00  0.00    -0.014 A 
ATOM     46  C   UNL     1      -2.600 -10.384  -3.682  1.00  0.00     0.009 A 
ATOM     47  C   UNL     1      -3.256  -8.439  -2.427  1.00  0.00     0.009 A 
ATOM     48  C   UNL     1      -3.912 -10.870  -3.603  1.00  0.00     0.001 A 
ATOM     49  C   UNL     1      -4.567  -8.919  -2.353  1.00  0.00     0.001 A 
ATOM     50  C   UNL     1      -4.892 -10.142  -2.930  1.00  0.00     0.000 A 
ENDBRANCH  26  45
BRANCH  38  51
ATOM     51  C   UNL     1       3.859  -9.557  -4.440  1.00  0.00    -0.014 A 
ATOM     52  C   UNL     1       3.265  -8.398  -4.969  1.00  0.00     0.009 A 
ATOM     53  C   UNL     1       4.860 -10.194  -5.188  1.00  0.00     0.009 A 
ATOM     54  C   UNL     1       3.632  -7.916  -6.228  1.00  0.00     0.001 A 
ATOM     55  C   UNL     1       5.244  -9.698  -6.436  1.00  0.00     0.001 A 
ATOM     56  C   UNL     1       4.625  -8.564  -6.959  1.00  0.00     0.000 A 
ENDBRANCH  38  51
ENDBRANCH  12  13
ENDBRANCH   5   7
ENDBRANCH   2   3
ENDBRANCH   1   2
BRANCH   1  57
ATOM     57  C   UNL     1       4.856   1.681  -2.846  1.00  0.00     0.118 C 
BRANCH  57  58
ATOM     58  N   UNL     1       5.452   2.991  -2.694  1.00  0.00    -0.351 N 
ATOM     59  C   UNL     1       6.055   3.789  -3.647  1.00  0.00     0.274 C 
ATOM     60  H   UNL     1       5.424   3.366  -1.784  1.00  0.00     0.163 HD
ATOM     61  O   UNL     1       6.543   4.849  -3.285  1.00  0.00    -0.267 OA
BRANCH  59  62
ATOM     62  C   UNL     1       6.101   3.349  -5.038  1.00  0.00     0.178 A 
ATOM     63  N   UNL     1       7.295   3.208  -5.704  1.00  0.00    -0.124 NA
ATOM     64  C   UNL     1       5.062   2.981  -5.884  1.00  0.00     0.108 A 
ATOM     65  N   UNL     1       7.049   2.694  -6.901  1.00  0.00    -0.061 NA
ATOM     66  N   UNL     1       5.712   2.680  -7.079  1.00  0.00    -0.212 N 
BRANCH  64  67
ATOM     67  C   UNL     1       3.643   2.730  -5.630  1.00  0.00     0.004 A 
ATOM     68  C   UNL     1       3.130   1.430  -5.810  1.00  0.00     0.010 A 
ATOM     69  C   UNL     1       2.792   3.742  -5.182  1.00  0.00     0.031 A 
ATOM     70  C   UNL     1       1.790   1.146  -5.556  1.00  0.00     0.002 A 
ATOM     71  C   UNL     1       1.449   3.451  -4.933  1.00  0.00     0.041 A 
ATOM     72  C   UNL     1       0.947   2.161  -5.116  1.00  0.00     0.020 A 
ATOM     73  Cl  UNL     1       0.396   4.699  -4.392  1.00  0.00    -0.084 Cl
ENDBRANCH  64  67
BRANCH  66  74
ATOM     74  C   UNL     1       5.115   2.257  -8.290  1.00  0.00     0.067 A 
ATOM     75  C   UNL     1       5.630   1.143  -8.959  1.00  0.00     0.029 A 
ATOM     76  C   UNL     1       3.926   2.860  -8.722  1.00  0.00     0.029 A 
ATOM     77  C   UNL     1       4.873   0.556  -9.977  1.00  0.00     0.015 A 
ATOM     78  C   UNL     1       3.193   2.286  -9.756  1.00  0.00     0.015 A 
ATOM     79  C   UNL     1       3.635   1.102 -10.363  1.00  0.00     0.056 A 
BRANCH  79  80
ATOM     80  C   UNL     1       2.769   0.390 -11.376  1.00  0.00     0.416 C 
ATOM     81  F   UNL     1       3.406   0.175 -12.557  1.00  0.00    -0.166 F 
ATOM     82  F   UNL     1       2.369  -0.835 -10.932  1.00  0.00    -0.166 F 
ATOM     83  F   UNL     1       1.625   1.064 -11.680  1.00  0.00    -0.166 F 
ENDBRANCH  79  80
ENDBRANCH  66  74
ENDBRANCH  59  62
ENDBRANCH  57  58
ENDBRANCH   1  57
TORSDOF 13
