REMARK SMILES COc1ccc(-n2nc(C(=O)NCCCNC(=O)c3ccc(-c4c5nc(c(-c6ccccc6)c6ccc([nH]6)c(-c6ccccc6)c6nc(c(-c7ccccc7)c7ccc4[nH]7)C=C6)C=C5)cc3)c(=O)cc2C)cc1
REMARK SMILES IDX 14 1 13 2 12 3 10 4 11 5 9 7 7 8 8 9 70 10 69 11 71 12 67 13
REMARK SMILES IDX 68 14 6 15 3 16 4 17 73 18 5 19 72 20 2 21 1 22 15 23 16 24
REMARK SMILES IDX 17 25 18 27 19 28 20 29 66 30 21 31 65 32 22 33 23 34 24 35
REMARK SMILES IDX 59 36 25 37 64 38 58 39 60 40 26 41 63 42 57 43 56 44 27 46
REMARK SMILES IDX 49 47 34 48 48 49 35 50 38 51 47 52 61 53 36 54 37 55 46 57
REMARK SMILES IDX 62 58 39 59 28 60 29 61 33 62 30 63 32 64 31 65 50 66 51 67
REMARK SMILES IDX 55 68 52 69 54 70 53 71 40 72 41 73 45 74 42 75 44 76 43 77
REMARK H PARENT 12 6 16 26 60 45 38 56
REMARK Flexibility Score: inf
ROOT
ATOM      1  C   UNL     1       2.705  10.720   5.994  1.00  0.00     0.042 C 
ENDROOT
BRANCH   1   2
ATOM      2  C   UNL     1       2.965   9.228   6.230  1.00  0.00     0.118 C 
BRANCH   2   3
ATOM      3  N   UNL     1       1.744   8.455   6.104  1.00  0.00    -0.350 N 
ATOM      4  C   UNL     1       1.202   7.787   5.031  1.00  0.00     0.275 C 
ATOM      5  O   UNL     1       0.044   7.383   5.128  1.00  0.00    -0.267 OA
ATOM      6  H   UNL     1       1.211   8.399   6.929  1.00  0.00     0.163 HD
BRANCH   4   7
ATOM      7  C   UNL     1       1.978   7.468   3.759  1.00  0.00     0.196 A 
ATOM      8  N   UNL     1       2.400   5.894   2.118  1.00  0.00    -0.237 N 
ATOM      9  N   UNL     1       1.792   6.261   3.292  1.00  0.00    -0.158 NA
ATOM     10  C   UNL     1       3.313   6.699   1.431  1.00  0.00     0.044 A 
ATOM     11  C   UNL     1       3.594   7.941   1.844  1.00  0.00     0.078 A 
ATOM     12  C   UNL     1       3.946   6.221   0.146  1.00  0.00     0.067 C 
ATOM     13  C   UNL     1       2.842   8.444   2.998  1.00  0.00     0.213 A 
ATOM     14  O   UNL     1       2.905   9.624   3.297  1.00  0.00    -0.287 OA
BRANCH   8  15
ATOM     15  C   UNL     1       1.903   4.664   1.598  1.00  0.00     0.065 A 
ATOM     16  C   UNL     1       0.904   2.268   0.493  1.00  0.00     0.119 A 
ATOM     17  C   UNL     1       0.067   3.372   0.660  1.00  0.00     0.048 A 
ATOM     18  C   UNL     1       2.241   2.359   0.884  1.00  0.00     0.048 A 
ATOM     19  C   UNL     1       0.555   4.553   1.225  1.00  0.00     0.032 A 
ATOM     20  C   UNL     1       2.736   3.550   1.431  1.00  0.00     0.032 A 
BRANCH  16  21
ATOM     21  O   UNL     1       0.312   1.177  -0.081  1.00  0.00    -0.497 OA
ATOM     22  C   UNL     1       0.973  -0.069   0.104  1.00  0.00     0.278 C 
ENDBRANCH  16  21
ENDBRANCH   8  15
ENDBRANCH   4   7
ENDBRANCH   2   3
ENDBRANCH   1   2
BRANCH   1  23
ATOM     23  C   UNL     1       1.983  11.432   7.135  1.00  0.00     0.118 C 
BRANCH  23  24
ATOM     24  N   UNL     1       2.834  11.632   8.297  1.00  0.00    -0.352 N 
ATOM     25  C   UNL     1       3.227  12.790   8.922  1.00  0.00     0.251 C 
ATOM     26  H   UNL     1       3.184  10.805   8.700  1.00  0.00     0.163 HD
ATOM     27  O   UNL     1       4.112  12.739   9.773  1.00  0.00    -0.269 OA
BRANCH  25  28
ATOM     28  C   UNL     1       2.617  14.098   8.584  1.00  0.00     0.039 A 
ATOM     29  C   UNL     1       3.445  15.225   8.531  1.00  0.00     0.014 A 
ATOM     30  C   UNL     1       1.242  14.242   8.380  1.00  0.00     0.014 A 
ATOM     31  C   UNL     1       2.908  16.477   8.217  1.00  0.00     0.010 A 
ATOM     32  C   UNL     1       0.716  15.479   8.005  1.00  0.00     0.010 A 
ATOM     33  C   UNL     1       1.543  16.610   7.919  1.00  0.00    -0.014 A 
BRANCH  33  34
ATOM     34  C   UNL     1       0.973  17.915   7.495  1.00  0.00     0.031 A 
ATOM     35  C   UNL     1      -0.039  18.626   8.351  1.00  0.00     0.074 A 
ATOM     36  C   UNL     1       1.323  18.434   6.301  1.00  0.00     0.049 A 
ATOM     37  N   UNL     1      -0.685  19.740   8.112  1.00  0.00    -0.248 NA
ATOM     38  C   UNL     1      -0.385  17.993   9.633  1.00  0.00     0.031 C 
ATOM     39  C   UNL     1       2.268  17.829   5.359  1.00  0.00     0.029 A 
ATOM     40  N   UNL     1       0.918  19.585   5.672  1.00  0.00    -0.354 N 
ATOM     41  C   UNL     1      -1.524  19.933   9.202  1.00  0.00     0.074 A 
ATOM     42  C   UNL     1      -1.334  18.801  10.085  1.00  0.00     0.031 C 
ATOM     43  C   UNL     1       2.385  18.624   4.284  1.00  0.00     0.029 A 
ATOM     44  C   UNL     1       1.497  19.771   4.441  1.00  0.00     0.049 A 
ATOM     45  H   UNL     1       0.274  20.216   6.066  1.00  0.00     0.167 HD
ATOM     46  C   UNL     1      -2.367  20.963   9.454  1.00  0.00     0.031 A 
ATOM     47  C   UNL     1       1.326  20.749   3.531  1.00  0.00     0.031 A 
ATOM     48  C   UNL     1      -2.553  22.094   8.582  1.00  0.00     0.049 A 
ATOM     49  C   UNL     1       0.371  21.870   3.825  1.00  0.00     0.074 A 
ATOM     50  C   UNL     1      -3.338  23.216   8.780  1.00  0.00     0.029 A 
ATOM     51  N   UNL     1      -1.950  22.242   7.343  1.00  0.00    -0.354 N 
ATOM     52  N   UNL     1      -0.365  22.069   4.891  1.00  0.00    -0.248 NA
ATOM     53  C   UNL     1       0.227  22.904   2.790  1.00  0.00     0.031 C 
ATOM     54  C   UNL     1      -3.248  24.021   7.639  1.00  0.00     0.029 A 
ATOM     55  C   UNL     1      -2.368  23.423   6.752  1.00  0.00     0.049 A 
ATOM     56  H   UNL     1      -1.318  21.602   6.942  1.00  0.00     0.167 HD
ATOM     57  C   UNL     1      -1.045  23.258   4.664  1.00  0.00     0.074 A 
ATOM     58  C   UNL     1      -0.619  23.745   3.368  1.00  0.00     0.031 C 
ATOM     59  C   UNL     1      -1.944  23.889   5.458  1.00  0.00     0.031 A 
BRANCH  46  60
ATOM     60  C   UNL     1      -3.166  20.910  10.727  1.00  0.00    -0.014 A 
ATOM     61  C   UNL     1      -2.555  21.098  11.977  1.00  0.00     0.009 A 
ATOM     62  C   UNL     1      -4.554  20.708  10.673  1.00  0.00     0.009 A 
ATOM     63  C   UNL     1      -3.313  21.047  13.149  1.00  0.00     0.001 A 
ATOM     64  C   UNL     1      -5.313  20.686  11.845  1.00  0.00     0.001 A 
ATOM     65  C   UNL     1      -4.691  20.846  13.082  1.00  0.00     0.000 A 
ENDBRANCH  46  60
BRANCH  47  66
ATOM     66  C   UNL     1       2.084  20.714   2.254  1.00  0.00    -0.014 A 
ATOM     67  C   UNL     1       3.125  21.625   2.020  1.00  0.00     0.009 A 
ATOM     68  C   UNL     1       1.771  19.771   1.262  1.00  0.00     0.009 A 
ATOM     69  C   UNL     1       3.823  21.606   0.811  1.00  0.00     0.001 A 
ATOM     70  C   UNL     1       2.489  19.738   0.065  1.00  0.00     0.001 A 
ATOM     71  C   UNL     1       3.508  20.660  -0.163  1.00  0.00     0.000 A 
ENDBRANCH  47  66
BRANCH  59  72
ATOM     72  C   UNL     1      -2.512  25.184   4.952  1.00  0.00    -0.014 A 
ATOM     73  C   UNL     1      -3.456  25.204   3.913  1.00  0.00     0.009 A 
ATOM     74  C   UNL     1      -2.123  26.395   5.543  1.00  0.00     0.009 A 
ATOM     75  C   UNL     1      -3.975  26.417   3.455  1.00  0.00     0.001 A 
ATOM     76  C   UNL     1      -2.663  27.604   5.101  1.00  0.00     0.001 A 
ATOM     77  C   UNL     1      -3.582  27.614   4.052  1.00  0.00     0.000 A 
ENDBRANCH  59  72
ENDBRANCH  33  34
ENDBRANCH  25  28
ENDBRANCH  23  24
ENDBRANCH   1  23
TORSDOF 12
