REMARK SMILES Cc1ccc(C[C@@H](Cc2cc(F)cc(Br)c2)C(=O)NCCCNC(=O)c2ccc(-c3c4nc(c(-c5ccccc5)c5ccc([nH]5)c(-c5ccccc5)c5nc(c(-c6ccccc6)c6ccc3[nH]6)C=C5)C=C4)cc2)cc1
REMARK SMILES IDX 21 1 20 2 19 3 17 4 18 5 7 7 6 8 5 9 1 10 2 11 3 12 75 13
REMARK SMILES IDX 4 14 74 15 8 16 9 17 10 18 16 19 11 20 14 21 12 22 13 23
REMARK SMILES IDX 15 24 22 25 23 26 24 27 25 29 26 30 27 31 73 32 28 33 72 34
REMARK SMILES IDX 29 35 30 36 31 37 66 38 32 39 71 40 65 41 67 42 33 43 70 44
REMARK SMILES IDX 64 45 63 46 34 48 56 49 41 50 55 51 42 52 45 53 54 54 68 55
REMARK SMILES IDX 43 56 44 57 53 59 69 60 46 61 35 62 36 63 40 64 37 65 39 66
REMARK SMILES IDX 38 67 57 68 58 69 62 70 59 71 61 72 60 73 47 74 48 75 52 76
REMARK SMILES IDX 49 77 51 78 50 79
REMARK H PARENT 19 6 23 28 67 47 45 58
REMARK Flexibility Score: inf
ROOT
ATOM      1  C   UNL     1      -5.017  -1.573   2.367  1.00  0.00     0.042 C 
ENDROOT
BRANCH   1   2
ATOM      2  C   UNL     1      -5.296  -2.100   0.966  1.00  0.00     0.117 C 
BRANCH   2   3
ATOM      3  N   UNL     1      -5.822  -1.064   0.086  1.00  0.00    -0.356 N 
ATOM      4  C   UNL     1      -5.233  -0.418  -0.963  1.00  0.00     0.223 C 
ATOM      5  O   UNL     1      -5.911   0.399  -1.592  1.00  0.00    -0.275 OA
ATOM      6  H   UNL     1      -6.747  -0.786   0.278  1.00  0.00     0.163 HD
BRANCH   4   7
ATOM      7  C   UNL     1      -3.776  -0.669  -1.347  1.00  0.00     0.087 C 
BRANCH   7   8
ATOM      8  C   UNL     1      -2.923  -0.102  -0.185  1.00  0.00     0.049 C 
BRANCH   8   9
ATOM      9  C   UNL     1      -1.421  -0.053  -0.284  1.00  0.00    -0.047 A 
ATOM     10  C   UNL     1       2.886   0.166  -0.019  1.00  0.00     0.044 C 
ATOM     11  C   UNL     1       1.392   0.102  -0.119  1.00  0.00    -0.051 A 
ATOM     12  C   UNL     1       0.738  -1.118   0.066  1.00  0.00     0.004 A 
ATOM     13  C   UNL     1       0.634   1.241  -0.407  1.00  0.00     0.004 A 
ATOM     14  C   UNL     1      -0.654  -1.190   0.002  1.00  0.00     0.004 A 
ATOM     15  C   UNL     1      -0.760   1.164  -0.493  1.00  0.00     0.004 A 
ENDBRANCH   8   9
ENDBRANCH   7   8
BRANCH   7  16
ATOM     16  C   UNL     1      -3.443  -2.104  -1.847  1.00  0.00     0.049 C 
BRANCH  16  17
ATOM     17  C   UNL     1      -4.525  -3.165  -1.990  1.00  0.00    -0.043 A 
ATOM     18  C   UNL     1      -4.266  -4.466  -1.521  1.00  0.00     0.043 A 
ATOM     19  C   UNL     1      -5.787  -2.908  -2.546  1.00  0.00     0.019 A 
ATOM     20  C   UNL     1      -5.269  -5.433  -1.519  1.00  0.00     0.124 A 
ATOM     21  C   UNL     1      -6.795  -3.880  -2.498  1.00  0.00     0.021 A 
ATOM     22  F   UNL     1      -5.004  -6.651  -1.028  1.00  0.00    -0.207 F 
ATOM     23  C   UNL     1      -6.543  -5.145  -1.980  1.00  0.00     0.055 A 
ATOM     24  Br  UNL     1      -8.542  -3.449  -3.080  1.00  0.00    -0.051 Br
ENDBRANCH  16  17
ENDBRANCH   7  16
ENDBRANCH   4   7
ENDBRANCH   2   3
ENDBRANCH   1   2
BRANCH   1  25
ATOM     25  C   UNL     1      -6.252  -1.601   3.243  1.00  0.00     0.118 C 
BRANCH  25  26
ATOM     26  N   UNL     1      -6.409  -2.824   4.017  1.00  0.00    -0.352 N 
ATOM     27  C   UNL     1      -7.471  -3.239   4.806  1.00  0.00     0.251 C 
ATOM     28  H   UNL     1      -5.649  -3.448   3.974  1.00  0.00     0.163 HD
ATOM     29  O   UNL     1      -7.383  -4.267   5.447  1.00  0.00    -0.269 OA
BRANCH  27  30
ATOM     30  C   UNL     1      -8.766  -2.507   4.732  1.00  0.00     0.039 A 
ATOM     31  C   UNL     1      -9.928  -3.280   4.634  1.00  0.00     0.014 A 
ATOM     32  C   UNL     1      -8.819  -1.139   4.494  1.00  0.00     0.014 A 
ATOM     33  C   UNL     1     -11.053  -2.738   4.021  1.00  0.00     0.010 A 
ATOM     34  C   UNL     1      -9.879  -0.635   3.772  1.00  0.00     0.010 A 
ATOM     35  C   UNL     1     -10.966  -1.459   3.476  1.00  0.00    -0.014 A 
BRANCH  35  36
ATOM     36  C   UNL     1     -11.911  -0.948   2.495  1.00  0.00     0.031 A 
ATOM     37  C   UNL     1     -12.912   0.057   2.890  1.00  0.00     0.074 A 
ATOM     38  C   UNL     1     -11.875  -1.397   1.222  1.00  0.00     0.049 A 
ATOM     39  N   UNL     1     -14.086   0.142   2.362  1.00  0.00    -0.248 NA
ATOM     40  C   UNL     1     -12.683   1.021   3.961  1.00  0.00     0.031 C 
ATOM     41  C   UNL     1     -12.594  -0.862   0.069  1.00  0.00     0.029 A 
ATOM     42  N   UNL     1     -11.320  -2.576   0.751  1.00  0.00    -0.354 N 
ATOM     43  C   UNL     1     -14.644   1.316   2.804  1.00  0.00     0.074 A 
ATOM     44  C   UNL     1     -13.774   1.785   3.858  1.00  0.00     0.031 C 
ATOM     45  C   UNL     1     -12.633  -1.800  -0.893  1.00  0.00     0.029 A 
ATOM     46  C   UNL     1     -12.067  -3.021  -0.342  1.00  0.00     0.049 A 
ATOM     47  H   UNL     1     -10.528  -3.026   1.125  1.00  0.00     0.167 HD
ATOM     48  C   UNL     1     -15.698   1.860   2.137  1.00  0.00     0.031 A 
ATOM     49  C   UNL     1     -12.706  -4.228  -0.314  1.00  0.00     0.031 A 
ATOM     50  C   UNL     1     -16.094   1.051   0.989  1.00  0.00     0.049 A 
ATOM     51  C   UNL     1     -14.214  -4.114  -0.398  1.00  0.00     0.074 A 
ATOM     52  C   UNL     1     -15.808   1.151  -0.363  1.00  0.00     0.029 A 
ATOM     53  N   UNL     1     -16.621  -0.218   1.189  1.00  0.00    -0.354 N 
ATOM     54  N   UNL     1     -14.881  -3.020  -0.157  1.00  0.00    -0.248 NA
ATOM     55  C   UNL     1     -15.090  -5.238  -0.721  1.00  0.00     0.031 C 
ATOM     56  C   UNL     1     -16.126  -0.089  -0.972  1.00  0.00     0.029 A 
ATOM     57  C   UNL     1     -16.628  -0.930   0.004  1.00  0.00     0.049 A 
ATOM     58  H   UNL     1     -16.945  -0.562   2.053  1.00  0.00     0.167 HD
ATOM     59  C   UNL     1     -16.226  -3.264  -0.273  1.00  0.00     0.074 A 
ATOM     60  C   UNL     1     -16.305  -4.665  -0.639  1.00  0.00     0.031 C 
ATOM     61  C   UNL     1     -17.154  -2.288  -0.043  1.00  0.00     0.031 A 
BRANCH  48  62
ATOM     62  C   UNL     1     -16.137   3.284   2.352  1.00  0.00    -0.014 A 
ATOM     63  C   UNL     1     -16.617   4.037   1.266  1.00  0.00     0.009 A 
ATOM     64  C   UNL     1     -16.056   3.951   3.586  1.00  0.00     0.009 A 
ATOM     65  C   UNL     1     -16.896   5.404   1.378  1.00  0.00     0.001 A 
ATOM     66  C   UNL     1     -16.291   5.329   3.697  1.00  0.00     0.001 A 
ATOM     67  C   UNL     1     -16.700   6.058   2.588  1.00  0.00     0.000 A 
ENDBRANCH  48  62
BRANCH  49  68
ATOM     68  C   UNL     1     -11.988  -5.270   0.473  1.00  0.00    -0.014 A 
ATOM     69  C   UNL     1     -10.772  -5.771  -0.032  1.00  0.00     0.009 A 
ATOM     70  C   UNL     1     -12.292  -5.485   1.824  1.00  0.00     0.009 A 
ATOM     71  C   UNL     1      -9.836  -6.369   0.818  1.00  0.00     0.001 A 
ATOM     72  C   UNL     1     -11.354  -6.092   2.670  1.00  0.00     0.001 A 
ATOM     73  C   UNL     1     -10.116  -6.500   2.175  1.00  0.00     0.000 A 
ENDBRANCH  49  68
BRANCH  61  74
ATOM     74  C   UNL     1     -18.650  -2.471   0.089  1.00  0.00    -0.014 A 
ATOM     75  C   UNL     1     -19.287  -3.694   0.331  1.00  0.00     0.009 A 
ATOM     76  C   UNL     1     -19.478  -1.322   0.093  1.00  0.00     0.009 A 
ATOM     77  C   UNL     1     -20.675  -3.769   0.527  1.00  0.00     0.001 A 
ATOM     78  C   UNL     1     -20.852  -1.386   0.336  1.00  0.00     0.001 A 
ATOM     79  C   UNL     1     -21.454  -2.617   0.542  1.00  0.00     0.000 A 
ENDBRANCH  61  74
ENDBRANCH  35  36
ENDBRANCH  27  30
ENDBRANCH  25  26
ENDBRANCH   1  25
TORSDOF 14
