REMARK SMILES O=C(NCCCNC(=O)C1CCN(C(=O)COc2ccc(Cl)cc2Cl)CC1)c1ccc(-c2c3nc(c(-c4ccccc4)c4ccc([nH]4)c(-c4ccccc4)c4nc(c(-c5ccccc5)c5ccc2[nH]5)C=C4)C=C3)cc1
REMARK SMILES IDX 5 1 4 2 3 3 1 4 2 5 28 7 29 8 75 9 30 10 74 11 31 12 32 13
REMARK SMILES IDX 33 14 68 15 34 16 73 17 67 18 69 19 35 20 72 21 66 22 65 23
REMARK SMILES IDX 36 25 58 26 43 27 57 28 44 29 47 30 56 31 70 32 45 33 46 34
REMARK SMILES IDX 55 36 71 37 48 38 37 39 38 40 42 41 39 42 41 43 40 44 59 45
REMARK SMILES IDX 60 46 64 47 61 48 63 49 62 50 49 51 50 52 54 53 51 54 53 55
REMARK SMILES IDX 52 56 6 57 7 58 8 59 9 61 10 62 11 63 27 64 12 65 26 66
REMARK SMILES IDX 13 67 14 68 15 69 16 70 17 71 18 72 19 73 24 74 20 75 23 76
REMARK SMILES IDX 25 77 21 78 22 79
REMARK H PARENT 3 6 69 24 47 35 7 60
REMARK Flexibility Score: inf
ROOT
ATOM      1  C   UNL     1       4.984   2.371   0.903  1.00  0.00     0.042 C 
ENDROOT
BRANCH   1   2
ATOM      2  C   UNL     1       4.583   0.917   1.105  1.00  0.00     0.118 C 
BRANCH   2   3
ATOM      3  N   UNL     1       3.149   0.699   0.976  1.00  0.00    -0.352 N 
ATOM      4  O   UNL     1       1.223   0.053   0.004  1.00  0.00    -0.269 OA
ATOM      5  C   UNL     1       2.450  -0.022   0.042  1.00  0.00     0.251 C 
ATOM      6  H   UNL     1       2.597   1.136   1.665  1.00  0.00     0.163 HD
BRANCH   5   7
ATOM      7  C   UNL     1       3.165  -0.876  -0.928  1.00  0.00     0.039 A 
ATOM      8  C   UNL     1       4.219  -1.695  -0.515  1.00  0.00     0.014 A 
ATOM      9  C   UNL     1       2.745  -0.894  -2.261  1.00  0.00     0.014 A 
ATOM     10  C   UNL     1       4.933  -2.432  -1.452  1.00  0.00     0.010 A 
ATOM     11  C   UNL     1       3.403  -1.709  -3.186  1.00  0.00     0.010 A 
ATOM     12  C   UNL     1       4.508  -2.477  -2.789  1.00  0.00    -0.014 A 
BRANCH  12  13
ATOM     13  C   UNL     1       5.143  -3.443  -3.718  1.00  0.00     0.031 A 
ATOM     14  C   UNL     1       5.913  -2.986  -4.922  1.00  0.00     0.074 A 
ATOM     15  C   UNL     1       4.996  -4.758  -3.459  1.00  0.00     0.049 A 
ATOM     16  N   UNL     1       6.500  -3.712  -5.841  1.00  0.00    -0.248 NA
ATOM     17  C   UNL     1       6.042  -1.536  -5.131  1.00  0.00     0.031 C 
ATOM     18  C   UNL     1       4.257  -5.317  -2.321  1.00  0.00     0.029 A 
ATOM     19  N   UNL     1       5.457  -5.863  -4.126  1.00  0.00    -0.354 N 
ATOM     20  C   UNL     1       7.045  -2.813  -6.747  1.00  0.00     0.074 A 
ATOM     21  C   UNL     1       6.713  -1.485  -6.276  1.00  0.00     0.031 C 
ATOM     22  C   UNL     1       4.337  -6.654  -2.356  1.00  0.00     0.029 A 
ATOM     23  C   UNL     1       5.064  -7.050  -3.554  1.00  0.00     0.049 A 
ATOM     24  H   UNL     1       6.015  -5.812  -4.936  1.00  0.00     0.167 HD
ATOM     25  C   UNL     1       7.753  -3.078  -7.871  1.00  0.00     0.031 A 
ATOM     26  C   UNL     1       5.231  -8.319  -3.967  1.00  0.00     0.031 A 
ATOM     27  C   UNL     1       8.080  -4.404  -8.328  1.00  0.00     0.049 A 
ATOM     28  C   UNL     1       5.974  -8.572  -5.246  1.00  0.00     0.074 A 
ATOM     29  C   UNL     1       8.853  -4.770  -9.418  1.00  0.00     0.029 A 
ATOM     30  N   UNL     1       7.640  -5.578  -7.739  1.00  0.00    -0.354 N 
ATOM     31  N   UNL     1       6.555  -7.711  -6.045  1.00  0.00    -0.248 NA
ATOM     32  C   UNL     1       6.079  -9.970  -5.684  1.00  0.00     0.031 C 
ATOM     33  C   UNL     1       8.816  -6.162  -9.532  1.00  0.00     0.029 A 
ATOM     34  C   UNL     1       8.077  -6.667  -8.475  1.00  0.00     0.049 A 
ATOM     35  H   UNL     1       7.097  -5.630  -6.919  1.00  0.00     0.167 HD
ATOM     36  C   UNL     1       7.103  -8.463  -7.074  1.00  0.00     0.074 A 
ATOM     37  C   UNL     1       6.815  -9.851  -6.780  1.00  0.00     0.031 C 
ATOM     38  C   UNL     1       7.776  -8.041  -8.171  1.00  0.00     0.031 A 
BRANCH  25  39
ATOM     39  C   UNL     1       8.204  -1.922  -8.720  1.00  0.00    -0.014 A 
ATOM     40  C   UNL     1       9.260  -1.088  -8.326  1.00  0.00     0.009 A 
ATOM     41  C   UNL     1       7.630  -1.737  -9.989  1.00  0.00     0.009 A 
ATOM     42  C   UNL     1       9.724  -0.084  -9.180  1.00  0.00     0.001 A 
ATOM     43  C   UNL     1       8.111  -0.749 -10.851  1.00  0.00     0.001 A 
ATOM     44  C   UNL     1       9.155   0.079 -10.444  1.00  0.00     0.000 A 
ENDBRANCH  25  39
BRANCH  26  45
ATOM     45  C   UNL     1       4.626  -9.440  -3.201  1.00  0.00    -0.014 A 
ATOM     46  C   UNL     1       5.430 -10.401  -2.572  1.00  0.00     0.009 A 
ATOM     47  C   UNL     1       3.229  -9.567  -3.120  1.00  0.00     0.009 A 
ATOM     48  C   UNL     1       4.848 -11.485  -1.911  1.00  0.00     0.001 A 
ATOM     49  C   UNL     1       2.650 -10.630  -2.425  1.00  0.00     0.001 A 
ATOM     50  C   UNL     1       3.460 -11.596  -1.835  1.00  0.00     0.000 A 
ENDBRANCH  26  45
BRANCH  38  51
ATOM     51  C   UNL     1       8.256  -9.096  -9.126  1.00  0.00    -0.014 A 
ATOM     52  C   UNL     1       7.355  -9.791  -9.948  1.00  0.00     0.009 A 
ATOM     53  C   UNL     1       9.629  -9.366  -9.238  1.00  0.00     0.009 A 
ATOM     54  C   UNL     1       7.818 -10.757 -10.843  1.00  0.00     0.001 A 
ATOM     55  C   UNL     1      10.091 -10.309 -10.156  1.00  0.00     0.001 A 
ATOM     56  C   UNL     1       9.185 -11.009 -10.952  1.00  0.00     0.000 A 
ENDBRANCH  38  51
ENDBRANCH  12  13
ENDBRANCH   5   7
ENDBRANCH   2   3
ENDBRANCH   1   2
BRANCH   1  57
ATOM     57  C   UNL     1       4.377   3.335   1.912  1.00  0.00     0.117 C 
BRANCH  57  58
ATOM     58  N   UNL     1       4.650   2.945   3.282  1.00  0.00    -0.356 N 
ATOM     59  C   UNL     1       5.519   3.453   4.194  1.00  0.00     0.223 C 
ATOM     60  H   UNL     1       4.116   2.184   3.606  1.00  0.00     0.163 HD
ATOM     61  O   UNL     1       5.643   2.838   5.253  1.00  0.00    -0.275 OA
BRANCH  59  62
ATOM     62  C   UNL     1       6.305   4.723   3.882  1.00  0.00     0.082 C 
ATOM     63  C   UNL     1       7.396   4.953   4.949  1.00  0.00     0.035 C 
ATOM     64  C   UNL     1       5.403   5.966   3.766  1.00  0.00     0.035 C 
ATOM     65  C   UNL     1       6.817   5.450   6.281  1.00  0.00     0.120 C 
ATOM     66  C   UNL     1       4.894   6.449   5.120  1.00  0.00     0.120 C 
ATOM     67  N   UNL     1       6.000   6.635   6.048  1.00  0.00    -0.340 N 
ATOM     68  C   UNL     1       6.318   7.821   6.695  1.00  0.00     0.260 C 
ATOM     69  O   UNL     1       7.101   7.860   7.647  1.00  0.00    -0.271 OA
BRANCH  68  70
ATOM     70  C   UNL     1       5.738   9.126   6.135  1.00  0.00     0.329 C 
BRANCH  70  71
ATOM     71  O   UNL     1       5.847   9.321   4.727  1.00  0.00    -0.482 OA
BRANCH  71  72
ATOM     72  C   UNL     1       7.085   9.696   4.270  1.00  0.00     0.138 A 
ATOM     73  C   UNL     1       8.232   8.935   4.516  1.00  0.00     0.049 A 
ATOM     74  C   UNL     1       7.175  10.797   3.407  1.00  0.00     0.084 A 
ATOM     75  C   UNL     1       9.450   9.273   3.922  1.00  0.00     0.024 A 
ATOM     76  C   UNL     1       8.394  11.141   2.815  1.00  0.00     0.045 A 
ATOM     77  Cl  UNL     1       5.790  11.766   3.045  1.00  0.00    -0.080 Cl
ATOM     78  C   UNL     1       9.525  10.371   3.072  1.00  0.00     0.042 A 
ATOM     79  Cl  UNL     1      11.021  10.761   2.319  1.00  0.00    -0.084 Cl
ENDBRANCH  71  72
ENDBRANCH  70  71
ENDBRANCH  68  70
ENDBRANCH  59  62
ENDBRANCH  57  58
ENDBRANCH   1  57
TORSDOF 13
