REMARK SMILES C[C@H]1[C@H](C(=O)NCCCNC(=O)c2ccc(-c3c4nc(c(-c5ccccc5)c5ccc([nH]5)c(-c5ccccc5)c5nc(c(-c6ccccc6)c6ccc3[nH]6)C=C5)C=C4)cc2)CC[N@@H+]1Cc1ccc(C(F)(F)F)cc1
REMARK SMILES IDX 7 1 6 2 4 3 5 4 3 6 1 7 2 8 63 9 61 10 62 11 64 13 65 14
REMARK SMILES IDX 66 15 74 16 67 17 73 18 68 19 69 20 70 21 71 22 72 23 8 24
REMARK SMILES IDX 9 25 10 26 11 27 12 29 13 30 14 31 60 32 15 33 59 34 16 35
REMARK SMILES IDX 17 36 18 37 53 38 19 39 58 40 52 41 54 42 20 43 57 44 51 45
REMARK SMILES IDX 50 46 21 48 43 49 28 50 42 51 29 52 32 53 41 54 55 55 30 56
REMARK SMILES IDX 31 57 40 59 56 60 33 61 22 62 23 63 27 64 24 65 26 66 25 67
REMARK SMILES IDX 44 68 45 69 49 70 46 71 48 72 47 73 34 74 35 75 39 76 36 77
REMARK SMILES IDX 38 78 37 79
REMARK H PARENT 6 5 63 12 10 28 54 47 32 58
REMARK Flexibility Score: inf
ROOT
ATOM      1  C   UNL     1      -0.535   1.600   3.051  1.00  0.00     0.117 C 
ENDROOT
BRANCH   1   2
ATOM      2  N   UNL     1       0.078   2.577   2.184  1.00  0.00    -0.356 N 
ATOM      3  C   UNL     1       0.411   2.494   0.871  1.00  0.00     0.229 C 
ATOM      4  O   UNL     1       0.888   3.516   0.364  1.00  0.00    -0.275 OA
ATOM      5  H   UNL     1       0.289   3.438   2.613  1.00  0.00     0.163 HD
BRANCH   3   6
ATOM      6  C   UNL     1       0.180   1.260   0.003  1.00  0.00     0.142 C 
ATOM      7  C   UNL     1       2.014  -0.444  -0.160  1.00  0.00     0.076 C 
ATOM      8  C   UNL     1       0.674  -0.111   0.511  1.00  0.00     0.193 C 
ATOM      9  N   UNL     1      -0.329  -1.097   0.060  1.00  0.00    -0.328 N 
ATOM     10  C   UNL     1      -1.265   1.021  -0.403  1.00  0.00     0.081 C 
ATOM     11  C   UNL     1      -1.221  -0.425  -0.876  1.00  0.00     0.263 C 
ATOM     12  H   UNL     1       0.170  -1.842  -0.427  1.00  0.00     0.348 HD
BRANCH   9  13
ATOM     13  C   UNL     1      -0.927  -2.017   1.047  1.00  0.00     0.299 C 
BRANCH  13  14
ATOM     14  C   UNL     1      -1.960  -1.497   2.039  1.00  0.00     0.006 A 
ATOM     15  C   UNL     1      -1.748  -1.611   3.422  1.00  0.00     0.010 A 
ATOM     16  C   UNL     1      -3.160  -0.905   1.626  1.00  0.00     0.010 A 
ATOM     17  C   UNL     1      -2.597  -0.971   4.339  1.00  0.00     0.013 A 
ATOM     18  C   UNL     1      -3.989  -0.233   2.529  1.00  0.00     0.013 A 
ATOM     19  C   UNL     1      -3.685  -0.210   3.891  1.00  0.00     0.056 A 
BRANCH  19  20
ATOM     20  C   UNL     1      -4.449   0.698   4.827  1.00  0.00     0.416 C 
ATOM     21  F   UNL     1      -4.811   0.101   5.990  1.00  0.00    -0.166 F 
ATOM     22  F   UNL     1      -3.717   1.805   5.147  1.00  0.00    -0.166 F 
ATOM     23  F   UNL     1      -5.602   1.180   4.279  1.00  0.00    -0.166 F 
ENDBRANCH  19  20
ENDBRANCH  13  14
ENDBRANCH   9  13
ENDBRANCH   3   6
ENDBRANCH   1   2
BRANCH   1  24
ATOM     24  C   UNL     1       0.446   1.044   4.081  1.00  0.00     0.042 C 
BRANCH  24  25
ATOM     25  C   UNL     1       0.441   1.808   5.400  1.00  0.00     0.118 C 
BRANCH  25  26
ATOM     26  N   UNL     1      -0.839   1.728   6.099  1.00  0.00    -0.352 N 
ATOM     27  C   UNL     1      -1.251   1.037   7.206  1.00  0.00     0.251 C 
ATOM     28  H   UNL     1      -1.546   2.280   5.693  1.00  0.00     0.163 HD
ATOM     29  O   UNL     1      -2.460   1.004   7.466  1.00  0.00    -0.269 OA
BRANCH  27  30
ATOM     30  C   UNL     1      -0.328   0.304   8.092  1.00  0.00     0.039 A 
ATOM     31  C   UNL     1      -0.805  -0.841   8.749  1.00  0.00     0.014 A 
ATOM     32  C   UNL     1       0.955   0.770   8.371  1.00  0.00     0.014 A 
ATOM     33  C   UNL     1       0.011  -1.530   9.648  1.00  0.00     0.010 A 
ATOM     34  C   UNL     1       1.802   0.029   9.187  1.00  0.00     0.010 A 
ATOM     35  C   UNL     1       1.332  -1.112   9.854  1.00  0.00    -0.014 A 
BRANCH  35  36
ATOM     36  C   UNL     1       2.233  -1.797  10.811  1.00  0.00     0.031 A 
ATOM     37  C   UNL     1       2.776  -1.032  11.988  1.00  0.00     0.074 A 
ATOM     38  C   UNL     1       2.636  -3.058  10.572  1.00  0.00     0.049 A 
ATOM     39  N   UNL     1       3.727  -1.360  12.824  1.00  0.00    -0.248 NA
ATOM     40  C   UNL     1       2.200   0.303  12.227  1.00  0.00     0.031 C 
ATOM     41  C   UNL     1       2.197  -3.894   9.452  1.00  0.00     0.029 A 
ATOM     42  N   UNL     1       3.528  -3.849  11.248  1.00  0.00    -0.354 N 
ATOM     43  C   UNL     1       3.896  -0.256  13.651  1.00  0.00     0.074 A 
ATOM     44  C   UNL     1       2.979   0.764  13.192  1.00  0.00     0.031 C 
ATOM     45  C   UNL     1       2.813  -5.084   9.526  1.00  0.00     0.029 A 
ATOM     46  C   UNL     1       3.723  -5.077  10.665  1.00  0.00     0.049 A 
ATOM     47  H   UNL     1       3.985  -3.564  12.073  1.00  0.00     0.167 HD
ATOM     48  C   UNL     1       4.731  -0.110  14.708  1.00  0.00     0.031 A 
ATOM     49  C   UNL     1       4.558  -6.077  11.002  1.00  0.00     0.031 A 
ATOM     50  C   UNL     1       5.612  -1.144  15.180  1.00  0.00     0.049 A 
ATOM     51  C   UNL     1       5.451  -5.906  12.198  1.00  0.00     0.074 A 
ATOM     52  C   UNL     1       6.462  -1.126  16.270  1.00  0.00     0.029 A 
ATOM     53  N   UNL     1       5.740  -2.393  14.590  1.00  0.00    -0.354 N 
ATOM     54  N   UNL     1       5.587  -4.865  12.984  1.00  0.00    -0.248 NA
ATOM     55  C   UNL     1       6.297  -7.051  12.557  1.00  0.00     0.031 C 
ATOM     56  C   UNL     1       7.130  -2.355  16.322  1.00  0.00     0.029 A 
ATOM     57  C   UNL     1       6.659  -3.154  15.291  1.00  0.00     0.049 A 
ATOM     58  H   UNL     1       5.249  -2.694  13.792  1.00  0.00     0.167 HD
ATOM     59  C   UNL     1       6.519  -5.236  13.944  1.00  0.00     0.074 A 
ATOM     60  C   UNL     1       6.898  -6.604  13.652  1.00  0.00     0.031 C 
ATOM     61  C   UNL     1       7.020  -4.511  14.974  1.00  0.00     0.031 A 
BRANCH  48  62
ATOM     62  C   UNL     1       4.730   1.221  15.410  1.00  0.00    -0.014 A 
ATOM     63  C   UNL     1       3.625   1.648  16.165  1.00  0.00     0.009 A 
ATOM     64  C   UNL     1       5.852   2.059  15.320  1.00  0.00     0.009 A 
ATOM     65  C   UNL     1       3.626   2.906  16.774  1.00  0.00     0.001 A 
ATOM     66  C   UNL     1       5.862   3.303  15.956  1.00  0.00     0.001 A 
ATOM     67  C   UNL     1       4.745   3.730  16.671  1.00  0.00     0.000 A 
ENDBRANCH  48  62
BRANCH  49  68
ATOM     68  C   UNL     1       4.573  -7.329  10.204  1.00  0.00    -0.014 A 
ATOM     69  C   UNL     1       4.019  -8.509  10.724  1.00  0.00     0.009 A 
ATOM     70  C   UNL     1       5.121  -7.349   8.912  1.00  0.00     0.009 A 
ATOM     71  C   UNL     1       4.032  -9.687   9.975  1.00  0.00     0.001 A 
ATOM     72  C   UNL     1       5.108  -8.522   8.154  1.00  0.00     0.001 A 
ATOM     73  C   UNL     1       4.571  -9.692   8.689  1.00  0.00     0.000 A 
ENDBRANCH  49  68
BRANCH  61  74
ATOM     74  C   UNL     1       8.007  -5.201  15.870  1.00  0.00    -0.014 A 
ATOM     75  C   UNL     1       9.319  -5.457  15.446  1.00  0.00     0.009 A 
ATOM     76  C   UNL     1       7.622  -5.576  17.167  1.00  0.00     0.009 A 
ATOM     77  C   UNL     1      10.218  -6.110  16.291  1.00  0.00     0.001 A 
ATOM     78  C   UNL     1       8.531  -6.204  18.019  1.00  0.00     0.001 A 
ATOM     79  C   UNL     1       9.824  -6.479  17.577  1.00  0.00     0.000 A 
ENDBRANCH  61  74
ENDBRANCH  35  36
ENDBRANCH  27  30
ENDBRANCH  25  26
ENDBRANCH  24  25
ENDBRANCH   1  24
TORSDOF 13
