REMARK SMILES CC[C@@H](NC(=O)N[C@H]1CCCCC[C@@H]1C(=O)NCCCNC(=O)c1ccc(-c2c3nc(c(-c4ccccc4)c4ccc([nH]4)c(-c4ccccc4)c4nc(c(-c5ccccc5)c5ccc2[nH]5)C=C4)C=C3)cc1)C(C)C
REMARK SMILES IDX 18 1 17 2 15 3 16 4 14 6 8 7 7 8 4 9 5 10 6 12 3 14 2 15
REMARK SMILES IDX 1 16 72 17 73 18 74 19 9 20 10 21 11 22 13 24 12 25 19 27
REMARK SMILES IDX 20 28 21 29 22 30 23 32 24 33 25 34 71 35 26 36 70 37 27 38
REMARK SMILES IDX 28 39 29 40 64 41 30 42 69 43 63 44 65 45 31 46 68 47 62 48
REMARK SMILES IDX 61 49 32 51 54 52 39 53 53 54 40 55 43 56 52 57 66 58 41 59
REMARK SMILES IDX 42 60 51 62 67 63 44 64 33 65 34 66 38 67 35 68 37 69 36 70
REMARK SMILES IDX 55 71 56 72 60 73 57 74 59 75 58 76 45 77 46 78 50 79 47 80
REMARK SMILES IDX 49 81 48 82
REMARK H PARENT 17 5 4 11 7 13 21 31 65 50 43 61
REMARK Flexibility Score: 100.00
ROOT
ATOM      1  C   UNL     1       3.548   7.005  -3.624  1.00  0.00     0.117 C 
ENDROOT
BRANCH   1   2
ATOM      2  N   UNL     1       2.856   5.925  -4.315  1.00  0.00    -0.356 N 
ATOM      3  C   UNL     1       1.608   5.430  -4.059  1.00  0.00     0.225 C 
ATOM      4  O   UNL     1       1.155   4.534  -4.769  1.00  0.00    -0.275 OA
ATOM      5  H   UNL     1       3.346   5.501  -5.056  1.00  0.00     0.163 HD
BRANCH   3   6
ATOM      6  C   UNL     1       0.835   6.109  -2.952  1.00  0.00     0.101 C 
BRANCH   6   7
ATOM      7  C   UNL     1      -0.347   5.239  -2.424  1.00  0.00     0.096 C 
BRANCH   7   8
ATOM      8  N   UNL     1       0.169   4.264  -1.360  1.00  0.00    -0.335 N 
ATOM      9  N   UNL     1      -1.070   2.277  -0.858  1.00  0.00    -0.335 N 
ATOM     10  C   UNL     1       0.038   2.903  -1.351  1.00  0.00     0.315 C 
ATOM     11  H   UNL     1      -1.356   1.470  -1.342  1.00  0.00     0.165 HD
ATOM     12  O   UNL     1       1.016   2.209  -1.639  1.00  0.00    -0.249 OA
ATOM     13  H   UNL     1       0.647   4.662  -0.598  1.00  0.00     0.165 HD
BRANCH   9  14
ATOM     14  C   UNL     1      -1.900   2.654   0.313  1.00  0.00     0.086 C 
BRANCH  14  15
ATOM     15  C   UNL     1      -2.953   1.583   0.684  1.00  0.00     0.022 C 
ATOM     16  C   UNL     1      -3.846   1.984   1.867  1.00  0.00     0.006 C 
ENDBRANCH  14  15
BRANCH  14  17
ATOM     17  C   UNL     1      -2.537   4.019   0.102  1.00  0.00     0.005 C 
ATOM     18  C   UNL     1      -3.860   4.059  -0.675  1.00  0.00     0.009 C 
ATOM     19  C   UNL     1      -2.403   4.941   1.307  1.00  0.00     0.009 C 
ENDBRANCH  14  17
ENDBRANCH   9  14
ENDBRANCH   7   8
BRANCH   7  20
ATOM     20  C   UNL     1      -1.446   6.240  -1.961  1.00  0.00     0.026 C 
BRANCH  20  21
ATOM     21  C   UNL     1      -0.999   7.231  -0.877  1.00  0.00     0.002 C 
BRANCH  21  22
ATOM     22  C   UNL     1      -0.695   8.604  -1.463  1.00  0.00     0.000 CG0
ATOM     23  G   UNL     1       0.509   8.611  -2.390  1.00  0.00     0.000 G0
ENDBRANCH  21  22
ENDBRANCH  20  21
ENDBRANCH   7  20
ENDBRANCH   6   7
BRANCH   6  24
ATOM     24  C   UNL     1       0.476   7.537  -3.484  1.00  0.00     0.015 C 
BRANCH  24  25
ATOM     25  C   UNL     1       0.509   8.611  -2.390  1.00  0.00     0.001 CG0
ATOM     26  G   UNL     1      -0.695   8.604  -1.463  1.00  0.00     0.000 G0
ENDBRANCH  24  25
ENDBRANCH   6  24
ENDBRANCH   3   6
ENDBRANCH   1   2
BRANCH   1  27
ATOM     27  C   UNL     1       4.906   6.574  -3.130  1.00  0.00     0.042 C 
BRANCH  27  28
ATOM     28  C   UNL     1       5.801   6.139  -4.270  1.00  0.00     0.118 C 
BRANCH  28  29
ATOM     29  N   UNL     1       5.915   7.173  -5.295  1.00  0.00    -0.352 N 
ATOM     30  C   UNL     1       7.005   7.907  -5.656  1.00  0.00     0.251 C 
ATOM     31  H   UNL     1       5.089   7.367  -5.796  1.00  0.00     0.163 HD
ATOM     32  O   UNL     1       6.871   8.938  -6.329  1.00  0.00    -0.269 OA
BRANCH  30  33
ATOM     33  C   UNL     1       8.341   7.459  -5.242  1.00  0.00     0.039 A 
ATOM     34  C   UNL     1       9.298   8.397  -4.857  1.00  0.00     0.014 A 
ATOM     35  C   UNL     1       8.639   6.093  -5.239  1.00  0.00     0.014 A 
ATOM     36  C   UNL     1      10.550   7.954  -4.441  1.00  0.00     0.010 A 
ATOM     37  C   UNL     1       9.832   5.650  -4.701  1.00  0.00     0.010 A 
ATOM     38  C   UNL     1      10.816   6.578  -4.347  1.00  0.00    -0.014 A 
BRANCH  38  39
ATOM     39  C   UNL     1      12.152   6.078  -3.966  1.00  0.00     0.031 A 
ATOM     40  C   UNL     1      12.952   5.283  -4.962  1.00  0.00     0.074 A 
ATOM     41  C   UNL     1      12.613   6.297  -2.723  1.00  0.00     0.049 A 
ATOM     42  N   UNL     1      14.133   4.739  -4.824  1.00  0.00    -0.248 NA
ATOM     43  C   UNL     1      12.329   5.033  -6.274  1.00  0.00     0.031 C 
ATOM     44  C   UNL     1      11.892   6.998  -1.658  1.00  0.00     0.029 A 
ATOM     45  N   UNL     1      13.807   5.952  -2.148  1.00  0.00    -0.354 N 
ATOM     46  C   UNL     1      14.375   4.065  -6.014  1.00  0.00     0.074 A 
ATOM     47  C   UNL     1      13.197   4.209  -6.837  1.00  0.00     0.031 C 
ATOM     48  C   UNL     1      12.680   7.072  -0.572  1.00  0.00     0.029 A 
ATOM     49  C   UNL     1      13.942   6.401  -0.859  1.00  0.00     0.049 A 
ATOM     50  H   UNL     1      14.501   5.434  -2.615  1.00  0.00     0.167 HD
ATOM     51  C   UNL     1      15.492   3.410  -6.403  1.00  0.00     0.031 A 
ATOM     52  C   UNL     1      14.982   6.293  -0.012  1.00  0.00     0.031 A 
ATOM     53  C   UNL     1      16.673   3.300  -5.593  1.00  0.00     0.049 A 
ATOM     54  C   UNL     1      16.231   5.606  -0.484  1.00  0.00     0.074 A 
ATOM     55  C   UNL     1      17.886   2.716  -5.907  1.00  0.00     0.029 A 
ATOM     56  N   UNL     1      16.786   3.801  -4.305  1.00  0.00    -0.354 N 
ATOM     57  N   UNL     1      16.475   5.036  -1.640  1.00  0.00    -0.248 NA
ATOM     58  C   UNL     1      17.356   5.571   0.458  1.00  0.00     0.031 C 
ATOM     59  C   UNL     1      18.724   2.834  -4.792  1.00  0.00     0.029 A 
ATOM     60  C   UNL     1      18.047   3.533  -3.805  1.00  0.00     0.049 A 
ATOM     61  H   UNL     1      16.074   4.277  -3.819  1.00  0.00     0.167 HD
ATOM     62  C   UNL     1      17.790   4.596  -1.574  1.00  0.00     0.074 A 
ATOM     63  C   UNL     1      18.295   4.986  -0.272  1.00  0.00     0.031 C 
ATOM     64  C   UNL     1      18.518   3.931  -2.504  1.00  0.00     0.031 A 
BRANCH  51  65
ATOM     65  C   UNL     1      15.477   2.774  -7.765  1.00  0.00    -0.014 A 
ATOM     66  C   UNL     1      15.475   3.555  -8.933  1.00  0.00     0.009 A 
ATOM     67  C   UNL     1      15.464   1.376  -7.883  1.00  0.00     0.009 A 
ATOM     68  C   UNL     1      15.416   2.950 -10.190  1.00  0.00     0.001 A 
ATOM     69  C   UNL     1      15.437   0.773  -9.143  1.00  0.00     0.001 A 
ATOM     70  C   UNL     1      15.401   1.560 -10.293  1.00  0.00     0.000 A 
ENDBRANCH  51  65
BRANCH  52  71
ATOM     71  C   UNL     1      14.903   6.899   1.340  1.00  0.00    -0.014 A 
ATOM     72  C   UNL     1      15.630   8.061   1.640  1.00  0.00     0.009 A 
ATOM     73  C   UNL     1      14.097   6.326   2.335  1.00  0.00     0.009 A 
ATOM     74  C   UNL     1      15.576   8.620   2.918  1.00  0.00     0.001 A 
ATOM     75  C   UNL     1      14.024   6.903   3.605  1.00  0.00     0.001 A 
ATOM     76  C   UNL     1      14.770   8.043   3.898  1.00  0.00     0.000 A 
ENDBRANCH  52  71
BRANCH  64  77
ATOM     77  C   UNL     1      19.942   3.617  -2.150  1.00  0.00    -0.014 A 
ATOM     78  C   UNL     1      20.256   2.627  -1.206  1.00  0.00     0.009 A 
ATOM     79  C   UNL     1      20.983   4.312  -2.785  1.00  0.00     0.009 A 
ATOM     80  C   UNL     1      21.587   2.370  -0.874  1.00  0.00     0.001 A 
ATOM     81  C   UNL     1      22.312   4.032  -2.472  1.00  0.00     0.001 A 
ATOM     82  C   UNL     1      22.613   3.070  -1.509  1.00  0.00     0.000 A 
ENDBRANCH  64  77
ENDBRANCH  38  39
ENDBRANCH  30  33
ENDBRANCH  28  29
ENDBRANCH  27  28
ENDBRANCH   1  27
TORSDOF 14
