REMARK SMILES O=C(NCCCNC(=O)C1(n2cnc3ccccc32)CC[NH+](Cc2cccc3nonc23)CC1)c1ccc(-c2c3nc(c(-c4ccccc4)c4ccc([nH]4)c(-c4ccccc4)c4nc(c(-c5ccccc5)c5ccc2[nH]5)C=C4)C=C3)cc1
REMARK SMILES IDX 5 1 4 2 3 3 1 4 2 5 35 7 36 8 82 9 37 10 81 11 38 12 39 13
REMARK SMILES IDX 40 14 75 15 41 16 80 17 74 18 76 19 42 20 79 21 73 22 72 23
REMARK SMILES IDX 43 25 65 26 50 27 64 28 51 29 54 30 63 31 77 32 52 33 53 34
REMARK SMILES IDX 62 36 78 37 55 38 44 39 45 40 49 41 46 42 48 43 47 44 66 45
REMARK SMILES IDX 67 46 71 47 68 48 70 49 69 50 56 51 57 52 61 53 58 54 60 55
REMARK SMILES IDX 59 56 6 57 7 58 8 59 9 61 10 62 20 63 34 64 21 65 33 66
REMARK SMILES IDX 22 67 11 69 12 70 19 71 13 72 14 73 18 74 15 75 17 76 16 77
REMARK SMILES IDX 23 78 24 79 25 80 32 81 26 82 28 83 31 84 27 85 29 86 30 87
REMARK H PARENT 3 6 76 24 54 35 7 60 22 68
REMARK Flexibility Score: inf
ROOT
ATOM      1  C   UNL     1       4.929   2.148  -1.702  1.00  0.00     0.042 C 
ENDROOT
BRANCH   1   2
ATOM      2  C   UNL     1       4.479   1.115  -0.696  1.00  0.00     0.118 C 
BRANCH   2   3
ATOM      3  N   UNL     1       3.035   0.843  -0.727  1.00  0.00    -0.352 N 
ATOM      4  O   UNL     1       1.203  -0.412  -0.210  1.00  0.00    -0.269 OA
ATOM      5  C   UNL     1       2.317  -0.034   0.081  1.00  0.00     0.251 C 
ATOM      6  H   UNL     1       2.514   1.340  -1.398  1.00  0.00     0.163 HD
BRANCH   5   7
ATOM      7  C   UNL     1       2.977  -0.493   1.318  1.00  0.00     0.039 A 
ATOM      8  C   UNL     1       3.019  -1.834   1.694  1.00  0.00     0.014 A 
ATOM      9  C   UNL     1       3.701   0.467   2.007  1.00  0.00     0.014 A 
ATOM     10  C   UNL     1       3.893  -2.200   2.715  1.00  0.00     0.010 A 
ATOM     11  C   UNL     1       4.753   0.059   2.774  1.00  0.00     0.010 A 
ATOM     12  C   UNL     1       4.793  -1.247   3.227  1.00  0.00    -0.014 A 
BRANCH  12  13
ATOM     13  C   UNL     1       5.818  -1.593   4.205  1.00  0.00     0.031 A 
ATOM     14  C   UNL     1       6.534  -2.861   3.935  1.00  0.00     0.074 A 
ATOM     15  C   UNL     1       6.192  -0.787   5.224  1.00  0.00     0.049 A 
ATOM     16  N   UNL     1       6.360  -3.980   4.552  1.00  0.00    -0.248 NA
ATOM     17  C   UNL     1       7.419  -2.948   2.765  1.00  0.00     0.031 C 
ATOM     18  C   UNL     1       5.801   0.604   5.505  1.00  0.00     0.029 A 
ATOM     19  N   UNL     1       7.099  -1.033   6.207  1.00  0.00    -0.354 N 
ATOM     20  C   UNL     1       7.261  -4.872   3.990  1.00  0.00     0.074 A 
ATOM     21  C   UNL     1       7.750  -4.242   2.788  1.00  0.00     0.031 C 
ATOM     22  C   UNL     1       6.638   1.146   6.415  1.00  0.00     0.029 A 
ATOM     23  C   UNL     1       7.469   0.085   6.942  1.00  0.00     0.049 A 
ATOM     24  H   UNL     1       7.463  -1.931   6.383  1.00  0.00     0.167 HD
ATOM     25  C   UNL     1       7.708  -5.945   4.698  1.00  0.00     0.031 A 
ATOM     26  C   UNL     1       8.376   0.136   7.943  1.00  0.00     0.031 A 
ATOM     27  C   UNL     1       6.893  -6.177   5.867  1.00  0.00     0.049 A 
ATOM     28  C   UNL     1       8.493  -1.234   8.484  1.00  0.00     0.074 A 
ATOM     29  C   UNL     1       5.562  -6.476   6.079  1.00  0.00     0.029 A 
ATOM     30  N   UNL     1       7.369  -5.681   7.058  1.00  0.00    -0.354 N 
ATOM     31  N   UNL     1       7.529  -1.840   9.116  1.00  0.00    -0.248 NA
ATOM     32  C   UNL     1       9.537  -2.095   7.958  1.00  0.00     0.031 C 
ATOM     33  C   UNL     1       5.195  -5.730   7.237  1.00  0.00     0.029 A 
ATOM     34  C   UNL     1       6.332  -5.080   7.724  1.00  0.00     0.049 A 
ATOM     35  H   UNL     1       8.297  -5.747   7.379  1.00  0.00     0.167 HD
ATOM     36  C   UNL     1       7.599  -3.154   8.679  1.00  0.00     0.074 A 
ATOM     37  C   UNL     1       8.925  -3.276   8.076  1.00  0.00     0.031 C 
ATOM     38  C   UNL     1       6.478  -3.929   8.596  1.00  0.00     0.031 A 
BRANCH  25  39
ATOM     39  C   UNL     1       9.102  -6.508   4.572  1.00  0.00    -0.014 A 
ATOM     40  C   UNL     1      10.150  -5.850   3.902  1.00  0.00     0.009 A 
ATOM     41  C   UNL     1       9.462  -7.606   5.375  1.00  0.00     0.009 A 
ATOM     42  C   UNL     1      11.484  -6.242   4.040  1.00  0.00     0.001 A 
ATOM     43  C   UNL     1      10.801  -7.976   5.549  1.00  0.00     0.001 A 
ATOM     44  C   UNL     1      11.812  -7.290   4.886  1.00  0.00     0.000 A 
ENDBRANCH  25  39
BRANCH  26  45
ATOM     45  C   UNL     1       9.380   1.184   8.213  1.00  0.00    -0.014 A 
ATOM     46  C   UNL     1       9.878   1.973   7.160  1.00  0.00     0.009 A 
ATOM     47  C   UNL     1      10.081   1.188   9.429  1.00  0.00     0.009 A 
ATOM     48  C   UNL     1      11.075   2.684   7.296  1.00  0.00     0.001 A 
ATOM     49  C   UNL     1      11.280   1.898   9.562  1.00  0.00     0.001 A 
ATOM     50  C   UNL     1      11.788   2.627   8.489  1.00  0.00     0.000 A 
ENDBRANCH  26  45
BRANCH  38  51
ATOM     51  C   UNL     1       5.211  -3.434   9.263  1.00  0.00    -0.014 A 
ATOM     52  C   UNL     1       4.543  -4.310  10.134  1.00  0.00     0.009 A 
ATOM     53  C   UNL     1       4.578  -2.221   8.935  1.00  0.00     0.009 A 
ATOM     54  C   UNL     1       3.280  -3.999  10.645  1.00  0.00     0.001 A 
ATOM     55  C   UNL     1       3.325  -1.896   9.470  1.00  0.00     0.001 A 
ATOM     56  C   UNL     1       2.672  -2.791  10.315  1.00  0.00     0.000 A 
ENDBRANCH  38  51
ENDBRANCH  12  13
ENDBRANCH   5   7
ENDBRANCH   2   3
ENDBRANCH   1   2
BRANCH   1  57
ATOM     57  C   UNL     1       4.342   3.529  -1.425  1.00  0.00     0.117 C 
BRANCH  57  58
ATOM     58  N   UNL     1       4.944   4.241  -0.302  1.00  0.00    -0.354 N 
ATOM     59  C   UNL     1       5.790   5.317  -0.236  1.00  0.00     0.246 C 
ATOM     60  H   UNL     1       4.694   3.878   0.578  1.00  0.00     0.163 HD
ATOM     61  O   UNL     1       6.128   5.672   0.899  1.00  0.00    -0.272 OA
BRANCH  59  62
ATOM     62  C   UNL     1       6.324   6.035  -1.513  1.00  0.00     0.135 C 
ATOM     63  C   UNL     1       7.155   7.310  -1.183  1.00  0.00     0.101 C 
ATOM     64  C   UNL     1       5.146   6.595  -2.362  1.00  0.00     0.101 C 
ATOM     65  C   UNL     1       6.338   8.394  -0.481  1.00  0.00     0.265 C 
ATOM     66  C   UNL     1       4.300   7.586  -1.555  1.00  0.00     0.265 C 
ATOM     67  N   UNL     1       5.106   8.741  -1.180  1.00  0.00    -0.331 N 
ATOM     68  H   UNL     1       5.419   9.152  -2.059  1.00  0.00     0.348 HD
BRANCH  62  69
ATOM     69  N   UNL     1       7.215   5.071  -2.186  1.00  0.00    -0.315 N 
ATOM     70  C   UNL     1       7.038   4.522  -3.428  1.00  0.00     0.201 A 
ATOM     71  C   UNL     1       8.352   4.483  -1.642  1.00  0.00     0.069 A 
ATOM     72  N   UNL     1       7.943   3.612  -3.705  1.00  0.00    -0.237 NA
ATOM     73  C   UNL     1       8.782   3.590  -2.622  1.00  0.00     0.088 A 
ATOM     74  C   UNL     1       9.039   4.622  -0.422  1.00  0.00     0.028 A 
ATOM     75  C   UNL     1       9.937   2.820  -2.402  1.00  0.00     0.030 A 
ATOM     76  C   UNL     1      10.206   3.871  -0.236  1.00  0.00     0.002 A 
ATOM     77  C   UNL     1      10.651   2.981  -1.209  1.00  0.00     0.002 A 
ENDBRANCH  62  69
BRANCH  67  78
ATOM     78  C   UNL     1       4.317   9.797  -0.508  1.00  0.00     0.301 C 
BRANCH  78  79
ATOM     79  C   UNL     1       3.704   9.447   0.826  1.00  0.00     0.038 A 
ATOM     80  C   UNL     1       4.476   9.318   2.013  1.00  0.00     0.012 A 
ATOM     81  C   UNL     1       2.323   9.231   1.053  1.00  0.00     0.144 A 
ATOM     82  C   UNL     1       3.959   8.916   3.272  1.00  0.00     0.003 A 
ATOM     83  C   UNL     1       1.786   8.850   2.358  1.00  0.00     0.135 A 
ATOM     84  N   UNL     1       1.296   9.319   0.198  1.00  0.00    -0.049 NA
ATOM     85  C   UNL     1       2.598   8.659   3.489  1.00  0.00     0.034 A 
ATOM     86  N   UNL     1       0.458   8.728   2.249  1.00  0.00    -0.050 NA
ATOM     87  O   UNL     1       0.159   9.033   0.934  1.00  0.00    -0.243 OA
ENDBRANCH  78  79
ENDBRANCH  67  78
ENDBRANCH  59  62
ENDBRANCH  57  58
ENDBRANCH   1  57
TORSDOF 13
