REMARK SMILES CC[NH2+][C@]1(C(=O)NCCCNC(=O)c2ccc(-c3c4nc(c(-c5ccccc5)c5ccc([nH]5)c(-c5ccccc5)c5nc(c(-c6ccccc6)c6ccc3[nH]6)C=C5)C=C4)cc2)CCC[C@H]1CC[N@H+]1CCC[C@@H](CC)C1
REMARK SMILES IDX 8 1 7 2 5 3 6 4 4 6 62 7 65 8 63 9 64 10 3 11 2 14 1 15
REMARK SMILES IDX 66 16 67 17 68 18 69 19 75 20 70 22 72 23 71 24 73 25 74 26
REMARK SMILES IDX 9 27 10 28 11 29 12 30 13 32 14 33 15 34 61 35 16 36 60 37
REMARK SMILES IDX 17 38 18 39 19 40 54 41 20 42 59 43 53 44 55 45 21 46 58 47
REMARK SMILES IDX 52 48 51 49 22 51 44 52 29 53 43 54 30 55 33 56 42 57 56 58
REMARK SMILES IDX 31 59 32 60 41 62 57 63 34 64 23 65 24 66 28 67 25 68 27 69
REMARK SMILES IDX 26 70 45 71 46 72 50 73 47 74 49 75 48 76 35 77 36 78 40 79
REMARK SMILES IDX 37 80 39 81 38 82
REMARK H PARENT 7 5 3 12 3 13 68 21 11 31 55 50 33 61
REMARK Flexibility Score: inf
ROOT
ATOM      1  C   UNL     1       0.753  -1.346  -2.775  1.00  0.00     0.118 C 
ENDROOT
BRANCH   1   2
ATOM      2  N   UNL     1       1.405  -1.403  -1.484  1.00  0.00    -0.351 N 
ATOM      3  C   UNL     1       1.272  -2.280  -0.453  1.00  0.00     0.281 C 
ATOM      4  O   UNL     1       1.601  -1.831   0.644  1.00  0.00    -0.268 OA
ATOM      5  H   UNL     1       2.057  -0.683  -1.325  1.00  0.00     0.163 HD
BRANCH   3   6
ATOM      6  C   UNL     1       0.669  -3.698  -0.659  1.00  0.00     0.178 C 
ATOM      7  C   UNL     1       1.432  -4.447  -1.769  1.00  0.00     0.079 C 
ATOM      8  C   UNL     1       0.849  -4.668   0.559  1.00  0.00     0.066 C 
ATOM      9  C   UNL     1       1.244  -5.935  -1.527  1.00  0.00     0.008 C 
ATOM     10  C   UNL     1       0.744  -6.073  -0.098  1.00  0.00     0.011 C 
BRANCH   6  11
ATOM     11  N   UNL     1      -0.802  -3.542  -0.790  1.00  0.00    -0.334 N 
ATOM     12  H   UNL     1      -1.209  -3.927   0.063  1.00  0.00     0.347 HD
ATOM     13  H   UNL     1      -0.899  -2.543  -0.973  1.00  0.00     0.347 HD
BRANCH  11  14
ATOM     14  C   UNL     1      -1.535  -4.127  -1.889  1.00  0.00     0.257 C 
ATOM     15  C   UNL     1      -3.011  -3.770  -1.748  1.00  0.00     0.071 C 
ENDBRANCH  11  14
ENDBRANCH   6  11
BRANCH   8  16
ATOM     16  C   UNL     1       2.126  -4.647   1.438  1.00  0.00     0.072 C 
BRANCH  16  17
ATOM     17  C   UNL     1       2.227  -3.749   2.701  1.00  0.00     0.262 C 
BRANCH  17  18
ATOM     18  N   UNL     1       1.153  -3.622   3.700  1.00  0.00    -0.335 N 
ATOM     19  C   UNL     1       0.452  -2.343   3.588  1.00  0.00     0.262 C 
ATOM     20  C   UNL     1       0.268  -4.771   3.860  1.00  0.00     0.265 C 
ATOM     21  H   UNL     1       1.646  -3.624   4.593  1.00  0.00     0.348 HD
ATOM     22  C   UNL     1      -0.469  -2.125   4.785  1.00  0.00     0.062 C 
ATOM     23  C   UNL     1      -0.807  -4.613   4.962  1.00  0.00     0.044 C 
ATOM     24  C   UNL     1      -1.496  -3.244   4.873  1.00  0.00     0.015 C 
BRANCH  23  25
ATOM     25  C   UNL     1      -1.777  -5.825   4.908  1.00  0.00     0.006 C 
ATOM     26  C   UNL     1      -3.251  -5.521   4.671  1.00  0.00     0.004 C 
ENDBRANCH  23  25
ENDBRANCH  17  18
ENDBRANCH  16  17
ENDBRANCH   8  16
ENDBRANCH   3   6
ENDBRANCH   1   2
BRANCH   1  27
ATOM     27  C   UNL     1      -0.491  -0.464  -2.734  1.00  0.00     0.042 C 
BRANCH  27  28
ATOM     28  C   UNL     1      -0.240   0.929  -2.166  1.00  0.00     0.118 C 
BRANCH  28  29
ATOM     29  N   UNL     1       0.828   1.626  -2.866  1.00  0.00    -0.352 N 
ATOM     30  C   UNL     1       0.788   2.688  -3.730  1.00  0.00     0.251 C 
ATOM     31  H   UNL     1       1.731   1.277  -2.688  1.00  0.00     0.163 HD
ATOM     32  O   UNL     1       1.780   2.957  -4.399  1.00  0.00    -0.269 OA
BRANCH  30  33
ATOM     33  C   UNL     1      -0.434   3.506  -3.866  1.00  0.00     0.039 A 
ATOM     34  C   UNL     1      -0.769   4.003  -5.129  1.00  0.00     0.014 A 
ATOM     35  C   UNL     1      -1.205   3.852  -2.753  1.00  0.00     0.014 A 
ATOM     36  C   UNL     1      -1.890   4.821  -5.278  1.00  0.00     0.010 A 
ATOM     37  C   UNL     1      -2.371   4.591  -2.916  1.00  0.00     0.010 A 
ATOM     38  C   UNL     1      -2.707   5.111  -4.174  1.00  0.00    -0.014 A 
BRANCH  38  39
ATOM     39  C   UNL     1      -3.874   6.016  -4.302  1.00  0.00     0.031 A 
ATOM     40  C   UNL     1      -3.881   7.334  -3.575  1.00  0.00     0.074 A 
ATOM     41  C   UNL     1      -4.939   5.639  -5.034  1.00  0.00     0.049 A 
ATOM     42  N   UNL     1      -4.820   8.244  -3.524  1.00  0.00    -0.248 NA
ATOM     43  C   UNL     1      -2.687   7.659  -2.776  1.00  0.00     0.031 C 
ATOM     44  C   UNL     1      -5.071   4.371  -5.753  1.00  0.00     0.029 A 
ATOM     45  N   UNL     1      -6.116   6.294  -5.293  1.00  0.00    -0.354 N 
ATOM     46  C   UNL     1      -4.342   9.229  -2.668  1.00  0.00     0.074 A 
ATOM     47  C   UNL     1      -3.054   8.785  -2.184  1.00  0.00     0.031 C 
ATOM     48  C   UNL     1      -6.249   4.354  -6.399  1.00  0.00     0.029 A 
ATOM     49  C   UNL     1      -6.964   5.594  -6.115  1.00  0.00     0.049 A 
ATOM     50  H   UNL     1      -6.332   7.181  -4.924  1.00  0.00     0.167 HD
ATOM     51  C   UNL     1      -4.912  10.411  -2.331  1.00  0.00     0.031 A 
ATOM     52  C   UNL     1      -8.178   5.921  -6.593  1.00  0.00     0.031 A 
ATOM     53  C   UNL     1      -6.176  10.869  -2.836  1.00  0.00     0.049 A 
ATOM     54  C   UNL     1      -8.774   7.254  -6.234  1.00  0.00     0.074 A 
ATOM     55  C   UNL     1      -6.818  12.072  -2.597  1.00  0.00     0.029 A 
ATOM     56  N   UNL     1      -6.986  10.145  -3.697  1.00  0.00    -0.354 N 
ATOM     57  N   UNL     1      -8.286   8.197  -5.466  1.00  0.00    -0.248 NA
ATOM     58  C   UNL     1     -10.079   7.574  -6.829  1.00  0.00     0.031 C 
ATOM     59  C   UNL     1      -8.032  12.063  -3.292  1.00  0.00     0.029 A 
ATOM     60  C   UNL     1      -8.124  10.873  -3.997  1.00  0.00     0.049 A 
ATOM     61  H   UNL     1      -6.782   9.246  -4.043  1.00  0.00     0.167 HD
ATOM     62  C   UNL     1      -9.207   9.235  -5.510  1.00  0.00     0.074 A 
ATOM     63  C   UNL     1     -10.276   8.809  -6.390  1.00  0.00     0.031 C 
ATOM     64  C   UNL     1      -9.170  10.435  -4.882  1.00  0.00     0.031 A 
BRANCH  51  65
ATOM     65  C   UNL     1      -4.160  11.286  -1.367  1.00  0.00    -0.014 A 
ATOM     66  C   UNL     1      -2.980  11.943  -1.750  1.00  0.00     0.009 A 
ATOM     67  C   UNL     1      -4.645  11.467  -0.063  1.00  0.00     0.009 A 
ATOM     68  C   UNL     1      -2.278  12.729  -0.834  1.00  0.00     0.001 A 
ATOM     69  C   UNL     1      -3.957  12.277   0.843  1.00  0.00     0.001 A 
ATOM     70  C   UNL     1      -2.769  12.898   0.460  1.00  0.00     0.000 A 
ENDBRANCH  51  65
BRANCH  52  71
ATOM     71  C   UNL     1      -8.895   4.990  -7.501  1.00  0.00    -0.014 A 
ATOM     72  C   UNL     1      -9.003   5.280  -8.870  1.00  0.00     0.009 A 
ATOM     73  C   UNL     1      -9.473   3.812  -7.007  1.00  0.00     0.009 A 
ATOM     74  C   UNL     1      -9.700   4.421  -9.722  1.00  0.00     0.001 A 
ATOM     75  C   UNL     1     -10.148   2.942  -7.867  1.00  0.00     0.001 A 
ATOM     76  C   UNL     1     -10.269   3.252  -9.220  1.00  0.00     0.000 A 
ENDBRANCH  52  71
BRANCH  64  77
ATOM     77  C   UNL     1     -10.294  11.389  -5.165  1.00  0.00    -0.014 A 
ATOM     78  C   UNL     1     -11.573  11.191  -4.625  1.00  0.00     0.009 A 
ATOM     79  C   UNL     1     -10.055  12.521  -5.960  1.00  0.00     0.009 A 
ATOM     80  C   UNL     1     -12.602  12.092  -4.905  1.00  0.00     0.001 A 
ATOM     81  C   UNL     1     -11.079  13.433  -6.217  1.00  0.00     0.001 A 
ATOM     82  C   UNL     1     -12.353  13.213  -5.697  1.00  0.00     0.000 A 
ENDBRANCH  64  77
ENDBRANCH  38  39
ENDBRANCH  30  33
ENDBRANCH  28  29
ENDBRANCH  27  28
ENDBRANCH   1  27
TORSDOF 16
