REMARK SMILES Cc1nc(C[NH2+][C@@H](C(=O)NCCCNC(=O)c2ccc(-c3c4nc(c(-c5ccccc5)c5ccc([nH]5)c(-c5ccccc5)c5nc(c(-c6ccccc6)c6ccc3[nH]6)C=C5)C=C4)cc2)c2ccccc2)sc1C
REMARK SMILES IDX 11 1 10 2 8 3 9 4 7 6 6 7 5 10 4 11 1 12 2 13 3 14 72 15
REMARK SMILES IDX 71 16 73 17 65 18 66 19 70 20 67 21 69 22 68 23 12 24 13 25
REMARK SMILES IDX 14 26 15 27 16 29 17 30 18 31 64 32 19 33 63 34 20 35 21 36
REMARK SMILES IDX 22 37 57 38 23 39 62 40 56 41 58 42 24 43 61 44 55 45 54 46
REMARK SMILES IDX 25 48 47 49 32 50 46 51 33 52 36 53 45 54 59 55 34 56 35 57
REMARK SMILES IDX 44 59 60 60 37 61 26 62 27 63 31 64 28 65 30 66 29 67 48 68
REMARK SMILES IDX 49 69 53 70 50 71 52 72 51 73 38 74 39 75 43 76 40 77 42 78
REMARK SMILES IDX 41 79
REMARK H PARENT 10 5 6 8 6 9 14 28 58 47 36 58
REMARK Flexibility Score: inf
ROOT
ATOM      1  C   UNL     1      -4.122   3.338  -1.081  1.00  0.00     0.118 C 
ENDROOT
BRANCH   1   2
ATOM      2  N   UNL     1      -4.523   3.308   0.321  1.00  0.00    -0.351 N 
ATOM      3  C   UNL     1      -3.877   3.599   1.491  1.00  0.00     0.283 C 
ATOM      4  O   UNL     1      -4.461   3.224   2.514  1.00  0.00    -0.268 OA
ATOM      5  H   UNL     1      -5.454   3.016   0.452  1.00  0.00     0.163 HD
BRANCH   3   6
ATOM      6  C   UNL     1      -2.477   4.308   1.530  1.00  0.00     0.304 C 
BRANCH   6   7
ATOM      7  N   UNL     1      -1.369   3.324   1.697  1.00  0.00    -0.326 N 
ATOM      8  H   UNL     1      -0.490   3.828   1.817  1.00  0.00     0.347 HD
ATOM      9  H   UNL     1      -1.566   2.749   2.517  1.00  0.00     0.347 HD
BRANCH   7  10
ATOM     10  C   UNL     1      -1.264   2.452   0.534  1.00  0.00     0.330 C 
BRANCH  10  11
ATOM     11  C   UNL     1      -0.269   1.329   0.616  1.00  0.00     0.148 A 
ATOM     12  C   UNL     1       3.039   0.083  -0.032  1.00  0.00     0.068 C 
ATOM     13  C   UNL     1       1.586   0.165   0.264  1.00  0.00     0.052 A 
ATOM     14  N   UNL     1       1.022   1.428   0.381  1.00  0.00    -0.240 NA
ATOM     15  C   UNL     1       0.693  -0.886   0.393  1.00  0.00     0.025 A 
ATOM     16  S   UNL     1      -0.854  -0.282   0.800  1.00  0.00    -0.118 S 
ATOM     17  C   UNL     1       0.910  -2.349   0.230  1.00  0.00     0.058 C 
ENDBRANCH  10  11
ENDBRANCH   7  10
ENDBRANCH   6   7
BRANCH   6  18
ATOM     18  C   UNL     1      -2.408   5.331   2.670  1.00  0.00     0.019 A 
ATOM     19  C   UNL     1      -2.545   4.936   4.015  1.00  0.00     0.010 A 
ATOM     20  C   UNL     1      -2.190   6.691   2.402  1.00  0.00     0.010 A 
ATOM     21  C   UNL     1      -2.479   5.866   5.054  1.00  0.00     0.001 A 
ATOM     22  C   UNL     1      -2.122   7.623   3.445  1.00  0.00     0.001 A 
ATOM     23  C   UNL     1      -2.268   7.211   4.768  1.00  0.00     0.000 A 
ENDBRANCH   6  18
ENDBRANCH   3   6
ENDBRANCH   1   2
BRANCH   1  24
ATOM     24  C   UNL     1      -3.978   1.931  -1.688  1.00  0.00     0.042 C 
BRANCH  24  25
ATOM     25  C   UNL     1      -5.234   1.061  -1.629  1.00  0.00     0.118 C 
BRANCH  25  26
ATOM     26  N   UNL     1      -6.000   1.127  -2.859  1.00  0.00    -0.352 N 
ATOM     27  C   UNL     1      -6.228   0.166  -3.816  1.00  0.00     0.251 C 
ATOM     28  H   UNL     1      -6.425   1.997  -3.037  1.00  0.00     0.163 HD
ATOM     29  O   UNL     1      -6.721   0.505  -4.888  1.00  0.00    -0.269 OA
BRANCH  27  30
ATOM     30  C   UNL     1      -5.882  -1.262  -3.595  1.00  0.00     0.039 A 
ATOM     31  C   UNL     1      -5.386  -1.998  -4.678  1.00  0.00     0.014 A 
ATOM     32  C   UNL     1      -6.115  -1.911  -2.379  1.00  0.00     0.014 A 
ATOM     33  C   UNL     1      -5.093  -3.358  -4.535  1.00  0.00     0.010 A 
ATOM     34  C   UNL     1      -5.758  -3.254  -2.216  1.00  0.00     0.010 A 
ATOM     35  C   UNL     1      -5.257  -3.998  -3.296  1.00  0.00    -0.014 A 
BRANCH  35  36
ATOM     36  C   UNL     1      -4.929  -5.441  -3.131  1.00  0.00     0.031 A 
ATOM     37  C   UNL     1      -6.011  -6.444  -2.823  1.00  0.00     0.074 A 
ATOM     38  C   UNL     1      -3.651  -5.856  -3.229  1.00  0.00     0.049 A 
ATOM     39  N   UNL     1      -5.908  -7.736  -2.629  1.00  0.00    -0.248 NA
ATOM     40  C   UNL     1      -7.382  -5.927  -2.698  1.00  0.00     0.031 C 
ATOM     41  C   UNL     1      -2.496  -4.995  -3.492  1.00  0.00     0.029 A 
ATOM     42  N   UNL     1      -3.108  -7.114  -3.118  1.00  0.00    -0.354 N 
ATOM     43  C   UNL     1      -7.193  -8.180  -2.339  1.00  0.00     0.074 A 
ATOM     44  C   UNL     1      -8.051  -7.015  -2.344  1.00  0.00     0.031 C 
ATOM     45  C   UNL     1      -1.389  -5.752  -3.551  1.00  0.00     0.029 A 
ATOM     46  C   UNL     1      -1.747  -7.144  -3.299  1.00  0.00     0.049 A 
ATOM     47  H   UNL     1      -3.644  -7.917  -2.928  1.00  0.00     0.167 HD
ATOM     48  C   UNL     1      -7.628  -9.442  -2.106  1.00  0.00     0.031 A 
ATOM     49  C   UNL     1      -0.880  -8.175  -3.267  1.00  0.00     0.031 A 
ATOM     50  C   UNL     1      -6.789 -10.611  -2.121  1.00  0.00     0.049 A 
ATOM     51  C   UNL     1      -1.386  -9.566  -3.011  1.00  0.00     0.074 A 
ATOM     52  C   UNL     1      -7.155 -11.937  -1.956  1.00  0.00     0.029 A 
ATOM     53  N   UNL     1      -5.418 -10.596  -2.313  1.00  0.00    -0.354 N 
ATOM     54  N   UNL     1      -2.614  -9.972  -2.799  1.00  0.00    -0.248 NA
ATOM     55  C   UNL     1      -0.384 -10.643  -3.001  1.00  0.00     0.031 C 
ATOM     56  C   UNL     1      -5.997 -12.720  -2.009  1.00  0.00     0.029 A 
ATOM     57  C   UNL     1      -4.918 -11.886  -2.251  1.00  0.00     0.049 A 
ATOM     58  H   UNL     1      -4.878  -9.787  -2.471  1.00  0.00     0.167 HD
ATOM     59  C   UNL     1      -2.536 -11.351  -2.654  1.00  0.00     0.074 A 
ATOM     60  C   UNL     1      -1.143 -11.714  -2.815  1.00  0.00     0.031 C 
ATOM     61  C   UNL     1      -3.532 -12.236  -2.411  1.00  0.00     0.031 A 
BRANCH  48  62
ATOM     62  C   UNL     1      -9.090  -9.625  -1.808  1.00  0.00    -0.014 A 
ATOM     63  C   UNL     1     -10.059  -9.492  -2.815  1.00  0.00     0.009 A 
ATOM     64  C   UNL     1      -9.500  -9.974  -0.512  1.00  0.00     0.009 A 
ATOM     65  C   UNL     1     -11.412  -9.670  -2.522  1.00  0.00     0.001 A 
ATOM     66  C   UNL     1     -10.852 -10.176  -0.227  1.00  0.00     0.001 A 
ATOM     67  C   UNL     1     -11.807 -10.015  -1.230  1.00  0.00     0.000 A 
ENDBRANCH  48  62
BRANCH  49  68
ATOM     68  C   UNL     1       0.566  -7.933  -3.506  1.00  0.00    -0.014 A 
ATOM     69  C   UNL     1       1.161  -8.330  -4.713  1.00  0.00     0.009 A 
ATOM     70  C   UNL     1       1.356  -7.308  -2.530  1.00  0.00     0.009 A 
ATOM     71  C   UNL     1       2.526  -8.124  -4.929  1.00  0.00     0.001 A 
ATOM     72  C   UNL     1       2.715  -7.081  -2.759  1.00  0.00     0.001 A 
ATOM     73  C   UNL     1       3.300  -7.496  -3.954  1.00  0.00     0.000 A 
ENDBRANCH  49  68
BRANCH  61  74
ATOM     74  C   UNL     1      -3.158 -13.688  -2.331  1.00  0.00    -0.014 A 
ATOM     75  C   UNL     1      -2.496 -14.207  -1.207  1.00  0.00     0.009 A 
ATOM     76  C   UNL     1      -3.507 -14.556  -3.377  1.00  0.00     0.009 A 
ATOM     77  C   UNL     1      -2.166 -15.562  -1.146  1.00  0.00     0.001 A 
ATOM     78  C   UNL     1      -3.198 -15.915  -3.303  1.00  0.00     0.001 A 
ATOM     79  C   UNL     1      -2.521 -16.415  -2.192  1.00  0.00     0.000 A 
ENDBRANCH  61  74
ENDBRANCH  35  36
ENDBRANCH  27  30
ENDBRANCH  25  26
ENDBRANCH  24  25
ENDBRANCH   1  24
TORSDOF 14
