REMARK SMILES O=C(NCCCNC(=O)[C@@H]1CN(C(=O)C2CCCC2)C[C@H]1c1ccccc1)c1ccc(-c2c3nc(c(-c4ccccc4)c4ccc([nH]4)c(-c4ccccc4)c4nc(c(-c5ccccc5)c5ccc2[nH]5)C=C4)C=C3)cc1
REMARK SMILES IDX 5 1 4 2 3 3 1 4 2 5 28 7 29 8 75 9 30 10 74 11 31 12 32 13
REMARK SMILES IDX 33 14 68 15 34 16 73 17 67 18 69 19 35 20 72 21 66 22 65 23
REMARK SMILES IDX 36 25 58 26 43 27 57 28 44 29 47 30 56 31 70 32 45 33 46 34
REMARK SMILES IDX 55 36 71 37 48 38 37 39 38 40 42 41 39 42 41 43 40 44 59 45
REMARK SMILES IDX 60 46 64 47 61 48 63 49 62 50 49 51 50 52 54 53 51 54 53 55
REMARK SMILES IDX 52 56 6 57 7 58 8 59 9 61 10 62 11 63 21 64 12 65 20 66
REMARK SMILES IDX 22 67 23 68 27 69 24 70 26 71 25 72 13 73 14 74 15 75 16 76
REMARK SMILES IDX 19 77 17 78 18 79
REMARK H PARENT 3 6 69 24 47 35 7 60
REMARK Flexibility Score: inf
ROOT
ATOM      1  C   UNL     1       4.313   0.760  -2.686  1.00  0.00     0.042 C 
ENDROOT
BRANCH   1   2
ATOM      2  C   UNL     1       4.201   0.943  -1.182  1.00  0.00     0.118 C 
BRANCH   2   3
ATOM      3  N   UNL     1       2.821   0.882  -0.723  1.00  0.00    -0.352 N 
ATOM      4  O   UNL     1       1.007  -0.056   0.227  1.00  0.00    -0.269 OA
ATOM      5  C   UNL     1       2.225  -0.025   0.122  1.00  0.00     0.251 C 
ATOM      6  H   UNL     1       2.231   1.591  -1.066  1.00  0.00     0.163 HD
BRANCH   5   7
ATOM      7  C   UNL     1       3.064  -0.967   0.895  1.00  0.00     0.039 A 
ATOM      8  C   UNL     1       4.258  -0.535   1.473  1.00  0.00     0.014 A 
ATOM      9  C   UNL     1       2.643  -2.290   1.064  1.00  0.00     0.014 A 
ATOM     10  C   UNL     1       5.102  -1.452   2.079  1.00  0.00     0.010 A 
ATOM     11  C   UNL     1       3.440  -3.187   1.783  1.00  0.00     0.010 A 
ATOM     12  C   UNL     1       4.687  -2.779   2.279  1.00  0.00    -0.014 A 
BRANCH  12  13
ATOM     13  C   UNL     1       5.543  -3.662   3.109  1.00  0.00     0.031 A 
ATOM     14  C   UNL     1       6.192  -4.893   2.547  1.00  0.00     0.074 A 
ATOM     15  C   UNL     1       5.785  -3.285   4.381  1.00  0.00     0.049 A 
ATOM     16  N   UNL     1       7.039  -5.707   3.127  1.00  0.00    -0.248 NA
ATOM     17  C   UNL     1       5.848  -5.269   1.168  1.00  0.00     0.031 C 
ATOM     18  C   UNL     1       5.192  -2.115   5.040  1.00  0.00     0.029 A 
ATOM     19  N   UNL     1       6.620  -3.809   5.333  1.00  0.00    -0.354 N 
ATOM     20  C   UNL     1       7.323  -6.693   2.190  1.00  0.00     0.074 A 
ATOM     21  C   UNL     1       6.533  -6.395   1.014  1.00  0.00     0.031 C 
ATOM     22  C   UNL     1       5.739  -1.968   6.253  1.00  0.00     0.029 A 
ATOM     23  C   UNL     1       6.658  -3.072   6.491  1.00  0.00     0.049 A 
ATOM     24  H   UNL     1       7.141  -4.634   5.199  1.00  0.00     0.167 HD
ATOM     25  C   UNL     1       8.170  -7.745   2.301  1.00  0.00     0.031 A 
ATOM     26  C   UNL     1       7.346  -3.265   7.630  1.00  0.00     0.031 A 
ATOM     27  C   UNL     1       8.944  -8.043   3.480  1.00  0.00     0.049 A 
ATOM     28  C   UNL     1       8.258  -4.450   7.727  1.00  0.00     0.074 A 
ATOM     29  C   UNL     1       9.832  -9.084   3.689  1.00  0.00     0.029 A 
ATOM     30  N   UNL     1       8.920  -7.299   4.651  1.00  0.00    -0.354 N 
ATOM     31  N   UNL     1       8.531  -5.357   6.821  1.00  0.00    -0.248 NA
ATOM     32  C   UNL     1       8.957  -4.638   9.004  1.00  0.00     0.031 C 
ATOM     33  C   UNL     1      10.309  -8.997   5.002  1.00  0.00     0.029 A 
ATOM     34  C   UNL     1       9.764  -7.868   5.591  1.00  0.00     0.049 A 
ATOM     35  H   UNL     1       8.383  -6.486   4.793  1.00  0.00     0.167 HD
ATOM     36  C   UNL     1       9.438  -6.221   7.416  1.00  0.00     0.074 A 
ATOM     37  C   UNL     1       9.699  -5.704   8.744  1.00  0.00     0.031 C 
ATOM     38  C   UNL     1       9.998  -7.348   6.913  1.00  0.00     0.031 A 
BRANCH  25  39
ATOM     39  C   UNL     1       8.296  -8.667   1.120  1.00  0.00    -0.014 A 
ATOM     40  C   UNL     1       8.967  -8.267  -0.047  1.00  0.00     0.009 A 
ATOM     41  C   UNL     1       7.791  -9.975   1.195  1.00  0.00     0.009 A 
ATOM     42  C   UNL     1       9.109  -9.150  -1.121  1.00  0.00     0.001 A 
ATOM     43  C   UNL     1       7.957 -10.864   0.131  1.00  0.00     0.001 A 
ATOM     44  C   UNL     1       8.611 -10.449  -1.028  1.00  0.00     0.000 A 
ENDBRANCH  25  39
BRANCH  26  45
ATOM     45  C   UNL     1       7.169  -2.332   8.773  1.00  0.00    -0.014 A 
ATOM     46  C   UNL     1       8.218  -1.507   9.203  1.00  0.00     0.009 A 
ATOM     47  C   UNL     1       5.937  -2.267   9.444  1.00  0.00     0.009 A 
ATOM     48  C   UNL     1       8.046  -0.658  10.299  1.00  0.00     0.001 A 
ATOM     49  C   UNL     1       5.756  -1.391  10.515  1.00  0.00     0.001 A 
ATOM     50  C   UNL     1       6.814  -0.597  10.950  1.00  0.00     0.000 A 
ENDBRANCH  26  45
BRANCH  38  51
ATOM     51  C   UNL     1      10.957  -8.078   7.810  1.00  0.00    -0.014 A 
ATOM     52  C   UNL     1      10.506  -8.771   8.945  1.00  0.00     0.009 A 
ATOM     53  C   UNL     1      12.329  -8.068   7.518  1.00  0.00     0.009 A 
ATOM     54  C   UNL     1      11.417  -9.397   9.797  1.00  0.00     0.001 A 
ATOM     55  C   UNL     1      13.234  -8.723   8.354  1.00  0.00     0.001 A 
ATOM     56  C   UNL     1      12.779  -9.374   9.499  1.00  0.00     0.000 A 
ENDBRANCH  38  51
ENDBRANCH  12  13
ENDBRANCH   5   7
ENDBRANCH   2   3
ENDBRANCH   1   2
BRANCH   1  57
ATOM     57  C   UNL     1       3.842   1.980  -3.467  1.00  0.00     0.117 C 
BRANCH  57  58
ATOM     58  N   UNL     1       4.740   3.104  -3.271  1.00  0.00    -0.356 N 
ATOM     59  C   UNL     1       5.838   3.517  -3.951  1.00  0.00     0.225 C 
ATOM     60  H   UNL     1       4.509   3.672  -2.501  1.00  0.00     0.163 HD
ATOM     61  O   UNL     1       6.474   4.451  -3.453  1.00  0.00    -0.275 OA
BRANCH  59  62
ATOM     62  C   UNL     1       6.255   2.960  -5.298  1.00  0.00     0.107 C 
ATOM     63  C   UNL     1       5.234   3.393  -6.339  1.00  0.00     0.133 C 
ATOM     64  C   UNL     1       6.402   1.440  -5.504  1.00  0.00     0.053 C 
ATOM     65  N   UNL     1       5.433   2.488  -7.449  1.00  0.00    -0.341 N 
ATOM     66  C   UNL     1       6.132   1.287  -7.017  1.00  0.00     0.128 C 
BRANCH  64  67
ATOM     67  C   UNL     1       7.691   0.811  -4.991  1.00  0.00    -0.042 A 
ATOM     68  C   UNL     1       8.306  -0.256  -5.668  1.00  0.00     0.004 A 
ATOM     69  C   UNL     1       8.251   1.207  -3.763  1.00  0.00     0.004 A 
ATOM     70  C   UNL     1       9.451  -0.876  -5.158  1.00  0.00     0.000 A 
ATOM     71  C   UNL     1       9.390   0.579  -3.248  1.00  0.00     0.000 A 
ATOM     72  C   UNL     1       9.992  -0.460  -3.946  1.00  0.00     0.000 A 
ENDBRANCH  64  67
BRANCH  65  73
ATOM     73  C   UNL     1       5.074   2.628  -8.768  1.00  0.00     0.225 C 
ATOM     74  O   UNL     1       5.229   1.689  -9.556  1.00  0.00    -0.275 OA
BRANCH  73  75
ATOM     75  C   UNL     1       4.541   3.953  -9.301  1.00  0.00     0.078 C 
ATOM     76  C   UNL     1       3.260   4.489  -8.675  1.00  0.00     0.013 C 
ATOM     77  C   UNL     1       5.548   5.104  -9.238  1.00  0.00     0.013 C 
ATOM     78  C   UNL     1       3.261   5.955  -9.077  1.00  0.00     0.001 C 
ATOM     79  C   UNL     1       4.725   6.376  -9.043  1.00  0.00     0.001 C 
ENDBRANCH  73  75
ENDBRANCH  65  73
ENDBRANCH  59  62
ENDBRANCH  57  58
ENDBRANCH   1  57
TORSDOF 13
