REMARK SMILES C[NH2+]C[C@H](C)C(=O)N1CCC[C@@H]1C(=O)NCCCNC(=O)c1ccc(-c2c3nc(c(-c4ccccc4)c4ccc([nH]4)c(-c4ccccc4)c4nc(c(-c5ccccc5)c5ccc2[nH]5)C=C4)C=C3)cc1
REMARK SMILES IDX 16 1 15 2 13 3 14 4 12 6 8 7 9 8 10 9 11 10 6 11 7 12 4 13
REMARK SMILES IDX 5 14 3 15 2 16 1 17 17 20 18 21 19 22 20 23 21 25 22 26
REMARK SMILES IDX 23 27 69 28 24 29 68 30 25 31 26 32 27 33 62 34 28 35 67 36
REMARK SMILES IDX 61 37 63 38 29 39 66 40 60 41 59 42 30 44 52 45 37 46 51 47
REMARK SMILES IDX 38 48 41 49 50 50 64 51 39 52 40 53 49 55 65 56 42 57 31 58
REMARK SMILES IDX 32 59 36 60 33 61 35 62 34 63 53 64 54 65 58 66 55 67 57 68
REMARK SMILES IDX 56 69 43 70 44 71 48 72 45 73 47 74 46 75
REMARK H PARENT 15 5 2 18 2 19 19 24 63 43 41 54
REMARK Flexibility Score: inf
ROOT
ATOM      1  C   UNL     1      -3.146   5.207  -1.680  1.00  0.00     0.117 C 
ENDROOT
BRANCH   1   2
ATOM      2  N   UNL     1      -4.308   5.036  -0.840  1.00  0.00    -0.354 N 
ATOM      3  C   UNL     1      -5.075   3.934  -0.603  1.00  0.00     0.242 C 
ATOM      4  O   UNL     1      -6.082   4.119   0.092  1.00  0.00    -0.273 OA
ATOM      5  H   UNL     1      -4.593   5.847  -0.360  1.00  0.00     0.163 HD
BRANCH   3   6
ATOM      6  C   UNL     1      -4.862   2.586  -1.330  1.00  0.00     0.174 C 
ATOM      7  N   UNL     1      -3.496   2.046  -1.392  1.00  0.00    -0.330 N 
ATOM      8  C   UNL     1      -3.117   1.746  -2.760  1.00  0.00     0.120 C 
ATOM      9  C   UNL     1      -4.155   2.396  -3.662  1.00  0.00     0.024 C 
ATOM     10  C   UNL     1      -5.364   2.652  -2.775  1.00  0.00     0.037 C 
BRANCH   7  11
ATOM     11  C   UNL     1      -2.958   1.503  -0.236  1.00  0.00     0.231 C 
ATOM     12  O   UNL     1      -3.611   1.548   0.816  1.00  0.00    -0.274 OA
BRANCH  11  13
ATOM     13  C   UNL     1      -1.534   0.921  -0.163  1.00  0.00     0.130 C 
ATOM     14  C   UNL     1      -1.018   0.119  -1.351  1.00  0.00     0.024 C 
BRANCH  13  15
ATOM     15  C   UNL     1      -0.457   1.899   0.368  1.00  0.00     0.273 C 
BRANCH  15  16
ATOM     16  N   UNL     1      -0.661   3.331   0.160  1.00  0.00    -0.348 N 
ATOM     17  C   UNL     1      -1.305   3.956   1.313  1.00  0.00     0.330 C 
ATOM     18  H   UNL     1       0.244   3.775   0.006  1.00  0.00     0.346 HD
ATOM     19  H   UNL     1      -1.269   3.452  -0.649  1.00  0.00     0.346 HD
ENDBRANCH  15  16
ENDBRANCH  13  15
ENDBRANCH  11  13
ENDBRANCH   7  11
ENDBRANCH   3   6
ENDBRANCH   1   2
BRANCH   1  20
ATOM     20  C   UNL     1      -3.071   6.579  -2.326  1.00  0.00     0.042 C 
BRANCH  20  21
ATOM     21  C   UNL     1      -2.723   7.688  -1.339  1.00  0.00     0.118 C 
BRANCH  21  22
ATOM     22  N   UNL     1      -1.386   7.558  -0.765  1.00  0.00    -0.352 N 
ATOM     23  C   UNL     1      -0.263   8.341  -0.902  1.00  0.00     0.251 C 
ATOM     24  H   UNL     1      -1.268   6.775  -0.180  1.00  0.00     0.163 HD
ATOM     25  O   UNL     1       0.802   7.987  -0.414  1.00  0.00    -0.269 OA
BRANCH  23  26
ATOM     26  C   UNL     1      -0.330   9.588  -1.687  1.00  0.00     0.039 A 
ATOM     27  C   UNL     1       0.659   9.835  -2.643  1.00  0.00     0.014 A 
ATOM     28  C   UNL     1      -1.391  10.476  -1.523  1.00  0.00     0.014 A 
ATOM     29  C   UNL     1       0.508  10.905  -3.526  1.00  0.00     0.010 A 
ATOM     30  C   UNL     1      -1.593  11.476  -2.464  1.00  0.00     0.010 A 
ATOM     31  C   UNL     1      -0.658  11.683  -3.490  1.00  0.00    -0.014 A 
BRANCH  31  32
ATOM     32  C   UNL     1      -0.963  12.685  -4.539  1.00  0.00     0.031 A 
ATOM     33  C   UNL     1      -1.167  14.125  -4.166  1.00  0.00     0.074 A 
ATOM     34  C   UNL     1      -1.180  12.273  -5.804  1.00  0.00     0.049 A 
ATOM     35  N   UNL     1      -1.604  15.113  -4.902  1.00  0.00    -0.248 NA
ATOM     36  C   UNL     1      -0.876  14.494  -2.771  1.00  0.00     0.031 C 
ATOM     37  C   UNL     1      -1.064  10.893  -6.283  1.00  0.00     0.029 A 
ATOM     38  N   UNL     1      -1.566  12.976  -6.917  1.00  0.00    -0.354 N 
ATOM     39  C   UNL     1      -1.674  16.210  -4.053  1.00  0.00     0.074 A 
ATOM     40  C   UNL     1      -1.273  15.757  -2.739  1.00  0.00     0.031 C 
ATOM     41  C   UNL     1      -1.347  10.855  -7.595  1.00  0.00     0.029 A 
ATOM     42  C   UNL     1      -1.715  12.195  -8.038  1.00  0.00     0.049 A 
ATOM     43  H   UNL     1      -1.722  13.948  -6.914  1.00  0.00     0.167 HD
ATOM     44  C   UNL     1      -2.027  17.483  -4.346  1.00  0.00     0.031 A 
ATOM     45  C   UNL     1      -2.123  12.516  -9.279  1.00  0.00     0.031 A 
ATOM     46  C   UNL     1      -2.395  17.937  -5.658  1.00  0.00     0.049 A 
ATOM     47  C   UNL     1      -2.512  13.935  -9.577  1.00  0.00     0.074 A 
ATOM     48  C   UNL     1      -2.688  19.224  -6.075  1.00  0.00     0.029 A 
ATOM     49  N   UNL     1      -2.519  17.116  -6.768  1.00  0.00    -0.354 N 
ATOM     50  N   UNL     1      -2.515  14.973  -8.777  1.00  0.00    -0.248 NA
ATOM     51  C   UNL     1      -2.960  14.225 -10.947  1.00  0.00     0.031 C 
ATOM     52  C   UNL     1      -3.029  19.174  -7.431  1.00  0.00     0.029 A 
ATOM     53  C   UNL     1      -2.910  17.863  -7.865  1.00  0.00     0.049 A 
ATOM     54  H   UNL     1      -2.353  16.146  -6.775  1.00  0.00     0.167 HD
ATOM     55  C   UNL     1      -2.954  16.041  -9.547  1.00  0.00     0.074 A 
ATOM     56  C   UNL     1      -3.190  15.529 -10.882  1.00  0.00     0.031 C 
ATOM     57  C   UNL     1      -3.148  17.331  -9.180  1.00  0.00     0.031 A 
BRANCH  44  58
ATOM     58  C   UNL     1      -2.030  18.472  -3.216  1.00  0.00    -0.014 A 
ATOM     59  C   UNL     1      -0.830  18.930  -2.649  1.00  0.00     0.009 A 
ATOM     60  C   UNL     1      -3.247  18.965  -2.723  1.00  0.00     0.009 A 
ATOM     61  C   UNL     1      -0.851  19.832  -1.584  1.00  0.00     0.001 A 
ATOM     62  C   UNL     1      -3.264  19.887  -1.675  1.00  0.00     0.001 A 
ATOM     63  C   UNL     1      -2.067  20.312  -1.100  1.00  0.00     0.000 A 
ENDBRANCH  44  58
BRANCH  45  64
ATOM     64  C   UNL     1      -2.187  11.474 -10.335  1.00  0.00    -0.014 A 
ATOM     65  C   UNL     1      -1.234  11.451 -11.364  1.00  0.00     0.009 A 
ATOM     66  C   UNL     1      -3.193  10.496 -10.318  1.00  0.00     0.009 A 
ATOM     67  C   UNL     1      -1.300  10.482 -12.367  1.00  0.00     0.001 A 
ATOM     68  C   UNL     1      -3.242   9.514 -11.309  1.00  0.00     0.001 A 
ATOM     69  C   UNL     1      -2.300   9.512 -12.337  1.00  0.00     0.000 A 
ENDBRANCH  45  64
BRANCH  57  70
ATOM     70  C   UNL     1      -3.631  18.275 -10.240  1.00  0.00    -0.014 A 
ATOM     71  C   UNL     1      -4.974  18.272 -10.647  1.00  0.00     0.009 A 
ATOM     72  C   UNL     1      -2.747  19.210 -10.798  1.00  0.00     0.009 A 
ATOM     73  C   UNL     1      -5.418  19.178 -11.611  1.00  0.00     0.001 A 
ATOM     74  C   UNL     1      -3.199  20.129 -11.746  1.00  0.00     0.001 A 
ATOM     75  C   UNL     1      -4.532  20.108 -12.155  1.00  0.00     0.000 A 
ENDBRANCH  57  70
ENDBRANCH  31  32
ENDBRANCH  23  26
ENDBRANCH  21  22
ENDBRANCH  20  21
ENDBRANCH   1  20
TORSDOF 14
