REMARK SMILES [NH3+][C@@]1(C(=O)NCCCNC(=O)c2ccc(-c3c4nc(c(-c5ccccc5)c5ccc([nH]5)c(-c5ccccc5)c5nc(c(-c6ccccc6)c6ccc3[nH]6)C=C5)C=C4)cc2)CC[C@H](Oc2ccccc2[N+](=O)[O-])C1
REMARK SMILES IDX 6 1 5 2 3 3 4 4 2 6 60 7 73 8 61 9 62 10 1 11 63 15 64 16
REMARK SMILES IDX 65 17 69 18 66 19 68 20 67 21 70 22 71 23 72 24 7 25 8 26
REMARK SMILES IDX 9 27 10 28 11 30 12 31 13 32 59 33 14 34 58 35 15 36 16 37
REMARK SMILES IDX 17 38 52 39 18 40 57 41 51 42 53 43 19 44 56 45 50 46 49 47
REMARK SMILES IDX 20 49 42 50 27 51 41 52 28 53 31 54 40 55 54 56 29 57 30 58
REMARK SMILES IDX 39 60 55 61 32 62 21 63 22 64 26 65 23 66 25 67 24 68 43 69
REMARK SMILES IDX 44 70 48 71 45 72 47 73 46 74 33 75 34 76 38 77 35 78 37 79
REMARK SMILES IDX 36 80
REMARK H PARENT 5 5 1 12 1 13 1 14 9 29 53 48 31 59
REMARK Flexibility Score: inf
ROOT
ATOM      1  C   UNL     1      -0.061   0.994  -4.194  1.00  0.00     0.118 C 
ENDROOT
BRANCH   1   2
ATOM      2  N   UNL     1       0.753   0.073  -3.440  1.00  0.00    -0.351 N 
ATOM      3  C   UNL     1       0.975  -0.065  -2.111  1.00  0.00     0.281 C 
ATOM      4  O   UNL     1       1.744  -0.989  -1.803  1.00  0.00    -0.268 OA
ATOM      5  H   UNL     1       1.239  -0.578  -3.996  1.00  0.00     0.163 HD
BRANCH   3   6
ATOM      6  C   UNL     1       0.332   0.828  -0.981  1.00  0.00     0.177 C 
ATOM      7  C   UNL     1      -1.192   0.859  -0.980  1.00  0.00     0.083 C 
ATOM      8  C   UNL     1       0.798   2.288  -0.971  1.00  0.00     0.124 C 
ATOM      9  C   UNL     1      -1.623   2.263  -1.389  1.00  0.00     0.052 C 
ATOM     10  C   UNL     1      -0.397   3.183  -1.352  1.00  0.00     0.180 C 
BRANCH   6  11
ATOM     11  N   UNL     1       0.757   0.209   0.311  1.00  0.00    -0.345 N 
ATOM     12  H   UNL     1       0.461  -0.767   0.335  1.00  0.00     0.345 HD
ATOM     13  H   UNL     1       0.328   0.714   1.087  1.00  0.00     0.345 HD
ATOM     14  H   UNL     1       1.773   0.258   0.394  1.00  0.00     0.345 HD
ENDBRANCH   6  11
BRANCH  10  15
ATOM     15  O   UNL     1      -0.016   3.804  -2.582  1.00  0.00    -0.483 OA
BRANCH  15  16
ATOM     16  C   UNL     1      -0.768   4.704  -3.273  1.00  0.00     0.197 A 
ATOM     17  C   UNL     1      -2.152   4.821  -3.160  1.00  0.00     0.054 A 
ATOM     18  C   UNL     1      -0.130   5.423  -4.303  1.00  0.00     0.310 A 
ATOM     19  C   UNL     1      -2.889   5.508  -4.135  1.00  0.00     0.004 A 
ATOM     20  C   UNL     1      -0.863   6.119  -5.279  1.00  0.00     0.090 A 
ATOM     21  C   UNL     1      -2.251   6.130  -5.206  1.00  0.00     0.007 A 
BRANCH  18  22
ATOM     22  N   UNL     1       1.330   5.444  -4.411  1.00  0.00     0.066 N 
ATOM     23  O   UNL     1       1.811   5.470  -5.555  1.00  0.00    -0.258 OA
ATOM     24  O   UNL     1       1.997   5.474  -3.368  1.00  0.00    -0.258 OA
ENDBRANCH  18  22
ENDBRANCH  15  16
ENDBRANCH  10  15
ENDBRANCH   3   6
ENDBRANCH   1   2
BRANCH   1  25
ATOM     25  C   UNL     1       0.772   1.963  -5.013  1.00  0.00     0.042 C 
BRANCH  25  26
ATOM     26  C   UNL     1       1.240   1.375  -6.331  1.00  0.00     0.118 C 
BRANCH  26  27
ATOM     27  N   UNL     1       0.137   1.263  -7.283  1.00  0.00    -0.352 N 
ATOM     28  C   UNL     1      -0.227   2.070  -8.335  1.00  0.00     0.251 C 
ATOM     29  H   UNL     1      -0.443   0.479  -7.147  1.00  0.00     0.163 HD
ATOM     30  O   UNL     1      -1.353   1.959  -8.813  1.00  0.00    -0.269 OA
BRANCH  28  31
ATOM     31  C   UNL     1       0.712   3.069  -8.894  1.00  0.00     0.039 A 
ATOM     32  C   UNL     1       0.211   4.265  -9.421  1.00  0.00     0.014 A 
ATOM     33  C   UNL     1       2.081   2.813  -8.955  1.00  0.00     0.014 A 
ATOM     34  C   UNL     1       1.089   5.221  -9.942  1.00  0.00     0.010 A 
ATOM     35  C   UNL     1       2.960   3.810  -9.358  1.00  0.00     0.010 A 
ATOM     36  C   UNL     1       2.477   5.017  -9.879  1.00  0.00    -0.014 A 
BRANCH  36  37
ATOM     37  C   UNL     1       3.454   6.011 -10.395  1.00  0.00     0.031 A 
ATOM     38  C   UNL     1       4.421   5.609 -11.480  1.00  0.00     0.074 A 
ATOM     39  C   UNL     1       3.534   7.236  -9.840  1.00  0.00     0.049 A 
ATOM     40  N   UNL     1       5.454   6.259 -11.953  1.00  0.00    -0.248 NA
ATOM     41  C   UNL     1       4.221   4.282 -12.090  1.00  0.00     0.031 C 
ATOM     42  C   UNL     1       2.684   7.741  -8.759  1.00  0.00     0.029 A 
ATOM     43  N   UNL     1       4.388   8.279 -10.103  1.00  0.00    -0.354 N 
ATOM     44  C   UNL     1       6.038   5.411 -12.887  1.00  0.00     0.074 A 
ATOM     45  C   UNL     1       5.283   4.179 -12.874  1.00  0.00     0.031 C 
ATOM     46  C   UNL     1       3.040   9.004  -8.473  1.00  0.00     0.029 A 
ATOM     47  C   UNL     1       4.179   9.378  -9.305  1.00  0.00     0.049 A 
ATOM     48  H   UNL     1       5.085   8.242 -10.797  1.00  0.00     0.167 HD
ATOM     49  C   UNL     1       7.091   5.644 -13.704  1.00  0.00     0.031 A 
ATOM     50  C   UNL     1       4.845  10.546  -9.237  1.00  0.00     0.031 A 
ATOM     51  C   UNL     1       7.826   6.878 -13.740  1.00  0.00     0.049 A 
ATOM     52  C   UNL     1       6.026  10.770 -10.143  1.00  0.00     0.074 A 
ATOM     53  C   UNL     1       8.890   7.225 -14.554  1.00  0.00     0.029 A 
ATOM     54  N   UNL     1       7.560   7.973 -12.935  1.00  0.00    -0.354 N 
ATOM     55  N   UNL     1       6.541   9.971 -11.046  1.00  0.00    -0.248 NA
ATOM     56  C   UNL     1       6.713  12.064 -10.025  1.00  0.00     0.031 C 
ATOM     57  C   UNL     1       9.290   8.521 -14.219  1.00  0.00     0.029 A 
ATOM     58  C   UNL     1       8.440   8.998 -13.233  1.00  0.00     0.049 A 
ATOM     59  H   UNL     1       6.851   8.016 -12.254  1.00  0.00     0.167 HD
ATOM     60  C   UNL     1       7.583  10.680 -11.629  1.00  0.00     0.074 A 
ATOM     61  C   UNL     1       7.619  11.978 -10.988  1.00  0.00     0.031 C 
ATOM     62  C   UNL     1       8.438  10.293 -12.606  1.00  0.00     0.031 A 
BRANCH  49  63
ATOM     63  C   UNL     1       7.497   4.544 -14.646  1.00  0.00    -0.014 A 
ATOM     64  C   UNL     1       6.689   4.198 -15.741  1.00  0.00     0.009 A 
ATOM     65  C   UNL     1       8.721   3.880 -14.468  1.00  0.00     0.009 A 
ATOM     66  C   UNL     1       7.083   3.189 -16.621  1.00  0.00     0.001 A 
ATOM     67  C   UNL     1       9.127   2.892 -15.368  1.00  0.00     0.001 A 
ATOM     68  C   UNL     1       8.305   2.542 -16.438  1.00  0.00     0.000 A 
ENDBRANCH  49  63
BRANCH  50  69
ATOM     69  C   UNL     1       4.423  11.605  -8.281  1.00  0.00    -0.014 A 
ATOM     70  C   UNL     1       3.892  12.816  -8.752  1.00  0.00     0.009 A 
ATOM     71  C   UNL     1       4.594  11.434  -6.899  1.00  0.00     0.009 A 
ATOM     72  C   UNL     1       3.584  13.850  -7.864  1.00  0.00     0.001 A 
ATOM     73  C   UNL     1       4.253  12.457  -6.010  1.00  0.00     0.001 A 
ATOM     74  C   UNL     1       3.763  13.669  -6.494  1.00  0.00     0.000 A 
ENDBRANCH  50  69
BRANCH  62  75
ATOM     75  C   UNL     1       9.433  11.305 -13.095  1.00  0.00    -0.014 A 
ATOM     76  C   UNL     1      10.541  11.679 -12.319  1.00  0.00     0.009 A 
ATOM     77  C   UNL     1       9.281  11.854 -14.378  1.00  0.00     0.009 A 
ATOM     78  C   UNL     1      11.460  12.608 -12.809  1.00  0.00     0.001 A 
ATOM     79  C   UNL     1      10.218  12.759 -14.876  1.00  0.00     0.001 A 
ATOM     80  C   UNL     1      11.302  13.142 -14.088  1.00  0.00     0.000 A 
ENDBRANCH  62  75
ENDBRANCH  36  37
ENDBRANCH  28  31
ENDBRANCH  26  27
ENDBRANCH  25  26
ENDBRANCH   1  25
TORSDOF 14
