REMARK SMILES O=C(NCCCNC(=O)[C@@H]1CC[C@@H](CNC(=O)c2cccc(O)c2)O1)c1ccc(-c2c3nc(c(-c4ccccc4)c4ccc([nH]4)c(-c4ccccc4)c4nc(c(-c5ccccc5)c5ccc2[nH]5)C=C4)C=C3)cc1
REMARK SMILES IDX 6 1 5 2 4 3 3 4 1 5 2 6 26 8 27 9 73 10 28 11 72 12 29 13
REMARK SMILES IDX 30 14 31 15 66 16 32 17 71 18 65 19 67 20 33 21 70 22 64 23
REMARK SMILES IDX 63 24 34 26 56 27 41 28 55 29 42 30 45 31 54 32 68 33 43 34
REMARK SMILES IDX 44 35 53 37 69 38 46 39 35 40 36 41 40 42 37 43 39 44 38 45
REMARK SMILES IDX 57 46 58 47 62 48 59 49 61 50 60 51 47 52 48 53 52 54 49 55
REMARK SMILES IDX 51 56 50 57 7 58 8 59 9 61 10 62 11 63 25 64 12 65 13 66
REMARK SMILES IDX 14 67 15 68 16 69 17 71 18 72 19 73 24 74 20 75 22 76 21 77
REMARK SMILES IDX 23 78
REMARK H PARENT 3 7 67 25 45 36 7 60 15 70 23 79
REMARK Flexibility Score: inf
ROOT
ATOM      1  C   UNL     1       4.105  -2.851   2.362  1.00  0.00     0.117 C 
ENDROOT
BRANCH   1   2
ATOM      2  C   UNL     1       4.688  -1.517   1.920  1.00  0.00     0.042 C 
BRANCH   2   3
ATOM      3  C   UNL     1       4.408  -1.195   0.459  1.00  0.00     0.118 C 
BRANCH   3   4
ATOM      4  N   UNL     1       2.983  -1.072   0.183  1.00  0.00    -0.352 N 
ATOM      5  O   UNL     1       1.018  -0.028  -0.154  1.00  0.00    -0.269 OA
ATOM      6  C   UNL     1       2.246   0.025  -0.182  1.00  0.00     0.251 C 
ATOM      7  H   UNL     1       2.469  -1.906   0.272  1.00  0.00     0.163 HD
BRANCH   6   8
ATOM      8  C   UNL     1       2.920   1.272  -0.591  1.00  0.00     0.039 A 
ATOM      9  C   UNL     1       4.040   1.239  -1.425  1.00  0.00     0.014 A 
ATOM     10  C   UNL     1       2.404   2.496  -0.158  1.00  0.00     0.014 A 
ATOM     11  C   UNL     1       4.730   2.412  -1.704  1.00  0.00     0.010 A 
ATOM     12  C   UNL     1       3.044   3.683  -0.518  1.00  0.00     0.010 A 
ATOM     13  C   UNL     1       4.230   3.647  -1.268  1.00  0.00    -0.014 A 
BRANCH  13  14
ATOM     14  C   UNL     1       4.928   4.899  -1.649  1.00  0.00     0.031 A 
ATOM     15  C   UNL     1       5.536   5.793  -0.606  1.00  0.00     0.074 A 
ATOM     16  C   UNL     1       5.005   5.230  -2.952  1.00  0.00     0.049 A 
ATOM     17  N   UNL     1       6.151   6.938  -0.760  1.00  0.00    -0.248 NA
ATOM     18  C   UNL     1       5.434   5.348   0.793  1.00  0.00     0.031 C 
ATOM     19  C   UNL     1       4.458   4.440  -4.058  1.00  0.00     0.029 A 
ATOM     20  N   UNL     1       5.578   6.312  -3.568  1.00  0.00    -0.354 N 
ATOM     21  C   UNL     1       6.489   7.362   0.518  1.00  0.00     0.074 A 
ATOM     22  C   UNL     1       5.986   6.366   1.439  1.00  0.00     0.031 C 
ATOM     23  C   UNL     1       4.749   5.047  -5.217  1.00  0.00     0.029 A 
ATOM     24  C   UNL     1       5.438   6.300  -4.934  1.00  0.00     0.049 A 
ATOM     25  H   UNL     1       6.043   7.029  -3.079  1.00  0.00     0.167 HD
ATOM     26  C   UNL     1       7.160   8.480   0.890  1.00  0.00     0.031 A 
ATOM     27  C   UNL     1       5.797   7.209  -5.858  1.00  0.00     0.031 A 
ATOM     28  C   UNL     1       7.645   9.475  -0.032  1.00  0.00     0.049 A 
ATOM     29  C   UNL     1       6.486   8.466  -5.416  1.00  0.00     0.074 A 
ATOM     30  C   UNL     1       8.360  10.629   0.243  1.00  0.00     0.029 A 
ATOM     31  N   UNL     1       7.454   9.442  -1.405  1.00  0.00    -0.354 N 
ATOM     32  N   UNL     1       6.831   8.837  -4.207  1.00  0.00    -0.248 NA
ATOM     33  C   UNL     1       6.840   9.428  -6.468  1.00  0.00     0.031 C 
ATOM     34  C   UNL     1       8.544  11.325  -0.956  1.00  0.00     0.029 A 
ATOM     35  C   UNL     1       8.009  10.570  -1.988  1.00  0.00     0.049 A 
ATOM     36  H   UNL     1       6.991   8.724  -1.894  1.00  0.00     0.167 HD
ATOM     37  C   UNL     1       7.468  10.061  -4.354  1.00  0.00     0.074 A 
ATOM     38  C   UNL     1       7.472  10.363  -5.771  1.00  0.00     0.031 C 
ATOM     39  C   UNL     1       8.005  10.860  -3.400  1.00  0.00     0.031 A 
BRANCH  26  40
ATOM     40  C   UNL     1       7.370   8.705   2.363  1.00  0.00    -0.014 A 
ATOM     41  C   UNL     1       8.234   7.893   3.116  1.00  0.00     0.009 A 
ATOM     42  C   UNL     1       6.711   9.766   3.005  1.00  0.00     0.009 A 
ATOM     43  C   UNL     1       8.398   8.111   4.486  1.00  0.00     0.001 A 
ATOM     44  C   UNL     1       6.902  10.003   4.367  1.00  0.00     0.001 A 
ATOM     45  C   UNL     1       7.735   9.168   5.109  1.00  0.00     0.000 A 
ENDBRANCH  26  40
BRANCH  27  46
ATOM     46  C   UNL     1       5.493   6.959  -7.291  1.00  0.00    -0.014 A 
ATOM     47  C   UNL     1       6.523   6.695  -8.205  1.00  0.00     0.009 A 
ATOM     48  C   UNL     1       4.164   6.960  -7.745  1.00  0.00     0.009 A 
ATOM     49  C   UNL     1       6.229   6.457  -9.550  1.00  0.00     0.001 A 
ATOM     50  C   UNL     1       3.871   6.689  -9.083  1.00  0.00     0.001 A 
ATOM     51  C   UNL     1       4.904   6.447  -9.986  1.00  0.00     0.000 A 
ENDBRANCH  27  46
BRANCH  39  52
ATOM     52  C   UNL     1       8.687  12.118  -3.861  1.00  0.00    -0.014 A 
ATOM     53  C   UNL     1       7.959  13.208  -4.364  1.00  0.00     0.009 A 
ATOM     54  C   UNL     1      10.082  12.227  -3.749  1.00  0.00     0.009 A 
ATOM     55  C   UNL     1       8.620  14.368  -4.776  1.00  0.00     0.001 A 
ATOM     56  C   UNL     1      10.736  13.399  -4.130  1.00  0.00     0.001 A 
ATOM     57  C   UNL     1      10.005  14.464  -4.652  1.00  0.00     0.000 A 
ENDBRANCH  39  52
ENDBRANCH  13  14
ENDBRANCH   6   8
ENDBRANCH   3   4
ENDBRANCH   2   3
ENDBRANCH   1   2
BRANCH   1  58
ATOM     58  N   UNL     1       4.713  -3.960   1.652  1.00  0.00    -0.354 N 
ATOM     59  C   UNL     1       5.630  -4.867   2.105  1.00  0.00     0.249 C 
ATOM     60  H   UNL     1       4.426  -4.075   0.717  1.00  0.00     0.163 HD
ATOM     61  O   UNL     1       6.073  -5.695   1.309  1.00  0.00    -0.272 OA
BRANCH  59  62
ATOM     62  C   UNL     1       6.072  -4.784   3.571  1.00  0.00     0.207 C 
ATOM     63  C   UNL     1       7.178  -3.751   3.739  1.00  0.00     0.045 C 
ATOM     64  O   UNL     1       6.567  -6.022   4.082  1.00  0.00    -0.363 OA
ATOM     65  C   UNL     1       8.017  -4.336   4.846  1.00  0.00     0.037 C 
ATOM     66  C   UNL     1       7.902  -5.826   4.575  1.00  0.00     0.138 C 
BRANCH  66  67
ATOM     67  C   UNL     1       8.119  -6.672   5.831  1.00  0.00     0.148 C 
BRANCH  67  68
ATOM     68  N   UNL     1       7.468  -7.969   5.719  1.00  0.00    -0.349 N 
ATOM     69  C   UNL     1       7.950  -9.243   5.795  1.00  0.00     0.251 C 
ATOM     70  H   UNL     1       6.498  -7.917   5.558  1.00  0.00     0.163 HD
ATOM     71  O   UNL     1       7.209 -10.196   5.569  1.00  0.00    -0.269 OA
BRANCH  69  72
ATOM     72  C   UNL     1       9.371  -9.488   6.105  1.00  0.00     0.043 A 
ATOM     73  C   UNL     1      10.014  -8.869   7.182  1.00  0.00     0.014 A 
ATOM     74  C   UNL     1      10.062 -10.403   5.306  1.00  0.00     0.060 A 
ATOM     75  C   UNL     1      11.370  -9.109   7.412  1.00  0.00     0.005 A 
ATOM     76  C   UNL     1      11.404 -10.651   5.558  1.00  0.00     0.116 A 
ATOM     77  C   UNL     1      12.069  -9.999   6.594  1.00  0.00     0.046 A 
BRANCH  76  78
ATOM     78  O   UNL     1      12.044 -11.549   4.757  1.00  0.00    -0.508 OA
ATOM     79  H   UNL     1      12.950 -11.740   4.898  1.00  0.00     0.293 HD
ENDBRANCH  76  78
ENDBRANCH  69  72
ENDBRANCH  67  68
ENDBRANCH  66  67
ENDBRANCH  59  62
ENDBRANCH   1  58
TORSDOF 14
