REMARK SMILES O=C(NCCCNC(=O)C1(Cc2ccncc2)Cc2ccccc2C1)c1ccc(-c2c3nc(c(-c4ccccc4)c4ccc([nH]4)c(-c4ccccc4)c4nc(c(-c5ccccc5)c5ccc2[nH]5)C=C4)C=C3)cc1
REMARK SMILES IDX 5 1 4 2 3 3 1 4 2 5 26 7 27 8 73 9 28 10 72 11 29 12 30 13
REMARK SMILES IDX 31 14 66 15 32 16 71 17 65 18 67 19 33 20 70 21 64 22 63 23
REMARK SMILES IDX 34 25 56 26 41 27 55 28 42 29 45 30 54 31 68 32 43 33 44 34
REMARK SMILES IDX 53 36 69 37 46 38 35 39 36 40 40 41 37 42 39 43 38 44 57 45
REMARK SMILES IDX 58 46 62 47 59 48 61 49 60 50 47 51 48 52 52 53 49 54 51 55
REMARK SMILES IDX 50 56 6 57 7 58 8 59 9 61 10 62 18 63 25 64 19 65 24 66
REMARK SMILES IDX 20 67 23 68 21 69 22 70 11 71 12 72 13 73 17 74 14 75 16 76
REMARK SMILES IDX 15 77
REMARK H PARENT 3 6 67 24 45 35 7 60
REMARK Flexibility Score: inf
ROOT
ATOM      1  C   UNL     1       4.425  -0.575  -2.626  1.00  0.00     0.042 C 
ENDROOT
BRANCH   1   2
ATOM      2  C   UNL     1       4.318   0.242  -1.347  1.00  0.00     0.118 C 
BRANCH   2   3
ATOM      3  N   UNL     1       2.928   0.445  -0.962  1.00  0.00    -0.352 N 
ATOM      4  O   UNL     1       1.058   0.086   0.241  1.00  0.00    -0.269 OA
ATOM      5  C   UNL     1       2.281   0.060   0.186  1.00  0.00     0.251 C 
ATOM      6  H   UNL     1       2.373   0.925  -1.618  1.00  0.00     0.163 HD
BRANCH   5   7
ATOM      7  C   UNL     1       3.069  -0.385   1.353  1.00  0.00     0.039 A 
ATOM      8  C   UNL     1       4.245   0.283   1.703  1.00  0.00     0.014 A 
ATOM      9  C   UNL     1       2.613  -1.458   2.123  1.00  0.00     0.014 A 
ATOM     10  C   UNL     1       5.033  -0.205   2.734  1.00  0.00     0.010 A 
ATOM     11  C   UNL     1       3.354  -1.881   3.228  1.00  0.00     0.010 A 
ATOM     12  C   UNL     1       4.579  -1.268   3.531  1.00  0.00    -0.014 A 
BRANCH  12  13
ATOM     13  C   UNL     1       5.370  -1.644   4.727  1.00  0.00     0.031 A 
ATOM     14  C   UNL     1       6.006  -2.998   4.850  1.00  0.00     0.074 A 
ATOM     15  C   UNL     1       5.543  -0.717   5.689  1.00  0.00     0.049 A 
ATOM     16  N   UNL     1       6.763  -3.462   5.813  1.00  0.00    -0.248 NA
ATOM     17  C   UNL     1       5.763  -3.956   3.761  1.00  0.00     0.031 C 
ATOM     18  C   UNL     1       4.963   0.631   5.676  1.00  0.00     0.029 A 
ATOM     19  N   UNL     1       6.275  -0.748   6.846  1.00  0.00    -0.354 N 
ATOM     20  C   UNL     1       7.080  -4.765   5.451  1.00  0.00     0.074 A 
ATOM     21  C   UNL     1       6.405  -5.031   4.199  1.00  0.00     0.031 C 
ATOM     22  C   UNL     1       5.409   1.314   6.738  1.00  0.00     0.029 A 
ATOM     23  C   UNL     1       6.240   0.434   7.547  1.00  0.00     0.049 A 
ATOM     24  H   UNL     1       6.778  -1.539   7.147  1.00  0.00     0.167 HD
ATOM     25  C   UNL     1       7.872  -5.652   6.101  1.00  0.00     0.031 A 
ATOM     26  C   UNL     1       6.798   0.768   8.724  1.00  0.00     0.031 A 
ATOM     27  C   UNL     1       8.526  -5.383   7.356  1.00  0.00     0.049 A 
ATOM     28  C   UNL     1       7.624  -0.255   9.444  1.00  0.00     0.074 A 
ATOM     29  C   UNL     1       9.348  -6.215   8.097  1.00  0.00     0.029 A 
ATOM     30  N   UNL     1       8.429  -4.191   8.059  1.00  0.00    -0.354 N 
ATOM     31  N   UNL     1       7.935  -1.474   9.075  1.00  0.00    -0.248 NA
ATOM     32  C   UNL     1       8.180   0.145  10.743  1.00  0.00     0.031 C 
ATOM     33  C   UNL     1       9.705  -5.545   9.272  1.00  0.00     0.029 A 
ATOM     34  C   UNL     1       9.159  -4.272   9.233  1.00  0.00     0.049 A 
ATOM     35  H   UNL     1       7.916  -3.403   7.766  1.00  0.00     0.167 HD
ATOM     36  C   UNL     1       8.738  -1.981  10.086  1.00  0.00     0.074 A 
ATOM     37  C   UNL     1       8.891  -0.924  11.067  1.00  0.00     0.031 C 
ATOM     38  C   UNL     1       9.296  -3.211  10.198  1.00  0.00     0.031 A 
BRANCH  25  39
ATOM     39  C   UNL     1       8.060  -7.007   5.474  1.00  0.00    -0.014 A 
ATOM     40  C   UNL     1       8.818  -7.168   4.303  1.00  0.00     0.009 A 
ATOM     41  C   UNL     1       7.514  -8.145   6.088  1.00  0.00     0.009 A 
ATOM     42  C   UNL     1       9.000  -8.436   3.745  1.00  0.00     0.001 A 
ATOM     43  C   UNL     1       7.722  -9.415   5.545  1.00  0.00     0.001 A 
ATOM     44  C   UNL     1       8.457  -9.558   4.369  1.00  0.00     0.000 A 
ENDBRANCH  25  39
BRANCH  26  45
ATOM     45  C   UNL     1       6.563   2.116   9.305  1.00  0.00    -0.014 A 
ATOM     46  C   UNL     1       7.615   3.031   9.456  1.00  0.00     0.009 A 
ATOM     47  C   UNL     1       5.275   2.489   9.726  1.00  0.00     0.009 A 
ATOM     48  C   UNL     1       7.389   4.276  10.047  1.00  0.00     0.001 A 
ATOM     49  C   UNL     1       5.045   3.748  10.281  1.00  0.00     0.001 A 
ATOM     50  C   UNL     1       6.105   4.635  10.455  1.00  0.00     0.000 A 
ENDBRANCH  26  45
BRANCH  38  51
ATOM     51  C   UNL     1      10.151  -3.458  11.408  1.00  0.00    -0.014 A 
ATOM     52  C   UNL     1       9.591  -3.565  12.691  1.00  0.00     0.009 A 
ATOM     53  C   UNL     1      11.540  -3.595  11.258  1.00  0.00     0.009 A 
ATOM     54  C   UNL     1      10.410  -3.758  13.805  1.00  0.00     0.001 A 
ATOM     55  C   UNL     1      12.353  -3.823  12.369  1.00  0.00     0.001 A 
ATOM     56  C   UNL     1      11.789  -3.891  13.642  1.00  0.00     0.000 A 
ENDBRANCH  38  51
ENDBRANCH  12  13
ENDBRANCH   5   7
ENDBRANCH   2   3
ENDBRANCH   1   2
BRANCH   1  57
ATOM     57  C   UNL     1       4.012   0.234  -3.852  1.00  0.00     0.117 C 
BRANCH  57  58
ATOM     58  N   UNL     1       5.093   1.118  -4.244  1.00  0.00    -0.356 N 
ATOM     59  C   UNL     1       6.150   0.953  -5.076  1.00  0.00     0.227 C 
ATOM     60  H   UNL     1       5.051   2.008  -3.825  1.00  0.00     0.163 HD
ATOM     61  O   UNL     1       6.988   1.864  -5.045  1.00  0.00    -0.274 OA
BRANCH  59  62
ATOM     62  C   UNL     1       6.282  -0.175  -6.109  1.00  0.00     0.061 C 
ATOM     63  C   UNL     1       7.807  -0.563  -6.125  1.00  0.00     0.053 C 
ATOM     64  C   UNL     1       5.568  -1.518  -5.830  1.00  0.00     0.053 C 
ATOM     65  C   UNL     1       7.794  -2.018  -6.480  1.00  0.00    -0.044 A 
ATOM     66  C   UNL     1       6.515  -2.550  -6.345  1.00  0.00    -0.044 A 
ATOM     67  C   UNL     1       8.863  -2.829  -6.819  1.00  0.00     0.004 A 
ATOM     68  C   UNL     1       6.262  -3.894  -6.559  1.00  0.00     0.004 A 
ATOM     69  C   UNL     1       8.623  -4.188  -7.039  1.00  0.00     0.000 A 
ATOM     70  C   UNL     1       7.329  -4.717  -6.915  1.00  0.00     0.000 A 
BRANCH  62  71
ATOM     71  C   UNL     1       5.902   0.421  -7.502  1.00  0.00     0.053 C 
BRANCH  71  72
ATOM     72  C   UNL     1       4.445   0.775  -7.712  1.00  0.00    -0.044 A 
ATOM     73  C   UNL     1       3.880   1.918  -7.138  1.00  0.00     0.024 A 
ATOM     74  C   UNL     1       3.627  -0.027  -8.514  1.00  0.00     0.024 A 
ATOM     75  C   UNL     1       2.532   2.176  -7.338  1.00  0.00     0.111 A 
ATOM     76  C   UNL     1       2.294   0.324  -8.671  1.00  0.00     0.111 A 
ATOM     77  N   UNL     1       1.724   1.398  -8.086  1.00  0.00    -0.265 NA
ENDBRANCH  71  72
ENDBRANCH  62  71
ENDBRANCH  59  62
ENDBRANCH  57  58
ENDBRANCH   1  57
TORSDOF 12
