REMARK SMILES CC[C@@H](Oc1ccccc1/C=C1/SC(Nc2ccc(F)cc2)=[NH+]C1=O)C(=O)NCCCNC(=O)c1ccc(-c2c3nc(c(-c4ccccc4)c4ccc([nH]4)c(-c4ccccc4)c4nc(c(-c5ccccc5)c5ccc2[nH]5)C=C4)C=C3)cc1
REMARK SMILES IDX 29 1 28 2 26 3 27 4 3 6 2 7 1 8 4 9 5 10 6 11 10 12 7 13
REMARK SMILES IDX 9 14 8 15 11 16 12 17 13 18 24 19 14 20 23 21 25 22 15 23
REMARK SMILES IDX 16 26 17 27 22 28 18 29 21 30 19 31 20 32 30 33 31 34 32 35
REMARK SMILES IDX 33 36 34 38 35 39 36 40 82 41 37 42 81 43 38 44 39 45 40 46
REMARK SMILES IDX 75 47 41 48 80 49 74 50 76 51 42 52 79 53 73 54 72 55 43 57
REMARK SMILES IDX 65 58 50 59 64 60 51 61 54 62 63 63 77 64 52 65 53 66 62 68
REMARK SMILES IDX 78 69 55 70 44 71 45 72 49 73 46 74 48 75 47 76 66 77 67 78
REMARK SMILES IDX 71 79 68 80 70 81 69 82 56 83 57 84 61 85 58 86 60 87 59 88
REMARK H PARENT 28 5 23 24 15 25 32 37 76 56 54 67
REMARK Flexibility Score: inf
ROOT
ATOM      1  C   UNL     1      -1.779   0.679   3.717  1.00  0.00     0.118 C 
ENDROOT
BRANCH   1   2
ATOM      2  N   UNL     1      -0.484   0.459   4.340  1.00  0.00    -0.353 N 
ATOM      3  C   UNL     1       0.788   0.585   3.858  1.00  0.00     0.261 C 
ATOM      4  O   UNL     1       1.698   0.510   4.693  1.00  0.00    -0.271 OA
ATOM      5  H   UNL     1      -0.533   0.167   5.279  1.00  0.00     0.163 HD
BRANCH   3   6
ATOM      6  C   UNL     1       1.134   0.662   2.350  1.00  0.00     0.261 C 
BRANCH   6   7
ATOM      7  C   UNL     1       1.132  -0.782   1.813  1.00  0.00     0.052 C 
ATOM      8  C   UNL     1       2.225  -1.036   0.779  1.00  0.00     0.008 C 
ENDBRANCH   6   7
BRANCH   6   9
ATOM      9  O   UNL     1       0.226   1.477   1.610  1.00  0.00    -0.480 OA
BRANCH   9  10
ATOM     10  C   UNL     1       0.771   2.144   0.540  1.00  0.00     0.127 A 
ATOM     11  C   UNL     1       1.435   3.353   0.754  1.00  0.00     0.047 A 
ATOM     12  C   UNL     1       0.510   1.702  -0.774  1.00  0.00     0.018 A 
ATOM     13  C   UNL     1       1.881   4.101  -0.338  1.00  0.00     0.004 A 
ATOM     14  C   UNL     1       0.983   2.448  -1.859  1.00  0.00     0.012 A 
ATOM     15  C   UNL     1       1.663   3.647  -1.640  1.00  0.00     0.001 A 
BRANCH  12  16
ATOM     16  C   UNL     1      -0.238   0.467  -1.035  1.00  0.00     0.036 C 
ATOM     17  C   UNL     1      -1.528   0.297  -0.721  1.00  0.00     0.110 C 
ATOM     18  S   UNL     1      -2.323  -1.238  -0.744  1.00  0.00     0.006 SA
ATOM     19  C   UNL     1      -2.478   1.340  -0.232  1.00  0.00     0.346 C 
ATOM     20  C   UNL     1      -3.740  -0.491  -0.053  1.00  0.00     0.322 C 
ATOM     21  N   UNL     1      -3.671   0.786   0.137  1.00  0.00    -0.199 N 
ATOM     22  O   UNL     1      -2.247   2.541  -0.186  1.00  0.00    -0.240 OA
ATOM     23  N   UNL     1      -4.803  -1.290   0.275  1.00  0.00    -0.235 N 
ATOM     24  H   UNL     1      -4.412   1.312   0.515  1.00  0.00     0.316 HD
ATOM     25  H   UNL     1      -4.753  -2.268   0.170  1.00  0.00     0.313 HD
BRANCH  23  26
ATOM     26  C   UNL     1      -5.968  -0.675   0.766  1.00  0.00     0.125 A 
ATOM     27  C   UNL     1      -6.165  -0.546   2.140  1.00  0.00     0.055 A 
ATOM     28  C   UNL     1      -6.789   0.051  -0.107  1.00  0.00     0.055 A 
ATOM     29  C   UNL     1      -7.113   0.352   2.636  1.00  0.00     0.043 A 
ATOM     30  C   UNL     1      -7.779   0.899   0.387  1.00  0.00     0.043 A 
ATOM     31  C   UNL     1      -7.921   1.054   1.757  1.00  0.00     0.123 A 
ATOM     32  F   UNL     1      -8.829   1.912   2.240  1.00  0.00    -0.207 F 
ENDBRANCH  23  26
ENDBRANCH  12  16
ENDBRANCH   9  10
ENDBRANCH   6   9
ENDBRANCH   3   6
ENDBRANCH   1   2
BRANCH   1  33
ATOM     33  C   UNL     1      -2.590  -0.599   3.535  1.00  0.00     0.042 C 
BRANCH  33  34
ATOM     34  C   UNL     1      -3.097  -1.269   4.814  1.00  0.00     0.118 C 
BRANCH  34  35
ATOM     35  N   UNL     1      -4.183  -0.567   5.494  1.00  0.00    -0.352 N 
ATOM     36  C   UNL     1      -5.490  -0.901   5.780  1.00  0.00     0.251 C 
ATOM     37  H   UNL     1      -3.930   0.329   5.813  1.00  0.00     0.163 HD
ATOM     38  O   UNL     1      -6.178  -0.092   6.401  1.00  0.00    -0.269 OA
BRANCH  36  39
ATOM     39  C   UNL     1      -6.136  -2.145   5.282  1.00  0.00     0.039 A 
ATOM     40  C   UNL     1      -7.468  -2.058   4.840  1.00  0.00     0.014 A 
ATOM     41  C   UNL     1      -5.488  -3.376   5.223  1.00  0.00     0.014 A 
ATOM     42  C   UNL     1      -8.092  -3.137   4.211  1.00  0.00     0.010 A 
ATOM     43  C   UNL     1      -6.103  -4.460   4.593  1.00  0.00     0.010 A 
ATOM     44  C   UNL     1      -7.406  -4.345   4.079  1.00  0.00    -0.014 A 
BRANCH  44  45
ATOM     45  C   UNL     1      -8.121  -5.570   3.661  1.00  0.00     0.031 A 
ATOM     46  C   UNL     1      -8.632  -6.466   4.751  1.00  0.00     0.074 A 
ATOM     47  C   UNL     1      -8.293  -5.892   2.367  1.00  0.00     0.049 A 
ATOM     48  N   UNL     1      -9.166  -7.655   4.670  1.00  0.00    -0.248 NA
ATOM     49  C   UNL     1      -8.506  -5.947   6.124  1.00  0.00     0.031 C 
ATOM     50  C   UNL     1      -7.907  -5.069   1.222  1.00  0.00     0.029 A 
ATOM     51  N   UNL     1      -8.836  -7.020   1.803  1.00  0.00    -0.354 N 
ATOM     52  C   UNL     1      -9.419  -8.033   5.983  1.00  0.00     0.074 A 
ATOM     53  C   UNL     1      -8.951  -6.966   6.837  1.00  0.00     0.031 C 
ATOM     54  C   UNL     1      -8.217  -5.726   0.089  1.00  0.00     0.029 A 
ATOM     55  C   UNL     1      -8.785  -7.030   0.430  1.00  0.00     0.049 A 
ATOM     56  H   UNL     1      -9.226  -7.752   2.333  1.00  0.00     0.167 HD
ATOM     57  C   UNL     1      -9.992  -9.170   6.439  1.00  0.00     0.031 A 
ATOM     58  C   UNL     1      -9.138  -7.996  -0.442  1.00  0.00     0.031 A 
ATOM     59  C   UNL     1     -10.430 -10.238   5.586  1.00  0.00     0.049 A 
ATOM     60  C   UNL     1      -9.693  -9.295   0.091  1.00  0.00     0.074 A 
ATOM     61  C   UNL     1     -11.004 -11.445   5.937  1.00  0.00     0.029 A 
ATOM     62  N   UNL     1     -10.332 -10.224   4.202  1.00  0.00    -0.354 N 
ATOM     63  N   UNL     1      -9.925  -9.649   1.333  1.00  0.00    -0.248 NA
ATOM     64  C   UNL     1     -10.036 -10.326  -0.899  1.00  0.00     0.031 C 
ATOM     65  C   UNL     1     -11.201 -12.186   4.767  1.00  0.00     0.029 A 
ATOM     66  C   UNL     1     -10.813 -11.412   3.684  1.00  0.00     0.049 A 
ATOM     67  H   UNL     1      -9.973  -9.478   3.668  1.00  0.00     0.167 HD
ATOM     68  C   UNL     1     -10.470 -10.927   1.271  1.00  0.00     0.074 A 
ATOM     69  C   UNL     1     -10.543 -11.281  -0.132  1.00  0.00     0.031 C 
ATOM     70  C   UNL     1     -10.878 -11.736   2.281  1.00  0.00     0.031 A 
BRANCH  57  71
ATOM     71  C   UNL     1     -10.106  -9.318   7.929  1.00  0.00    -0.014 A 
ATOM     72  C   UNL     1     -10.977  -8.513   8.682  1.00  0.00     0.009 A 
ATOM     73  C   UNL     1      -9.292 -10.247   8.596  1.00  0.00     0.009 A 
ATOM     74  C   UNL     1     -10.989  -8.597  10.076  1.00  0.00     0.001 A 
ATOM     75  C   UNL     1      -9.332 -10.352   9.987  1.00  0.00     0.001 A 
ATOM     76  C   UNL     1     -10.168  -9.517  10.726  1.00  0.00     0.000 A 
ENDBRANCH  57  71
BRANCH  58  77
ATOM     77  C   UNL     1      -8.962  -7.794  -1.907  1.00  0.00    -0.014 A 
ATOM     78  C   UNL     1     -10.075  -7.696  -2.757  1.00  0.00     0.009 A 
ATOM     79  C   UNL     1      -7.677  -7.728  -2.470  1.00  0.00     0.009 A 
ATOM     80  C   UNL     1      -9.905  -7.563  -4.139  1.00  0.00     0.001 A 
ATOM     81  C   UNL     1      -7.510  -7.565  -3.848  1.00  0.00     0.001 A 
ATOM     82  C   UNL     1      -8.624  -7.493  -4.683  1.00  0.00     0.000 A 
ENDBRANCH  58  77
BRANCH  70  83
ATOM     83  C   UNL     1     -11.483 -13.061   1.909  1.00  0.00    -0.014 A 
ATOM     84  C   UNL     1     -10.698 -14.114   1.417  1.00  0.00     0.009 A 
ATOM     85  C   UNL     1     -12.854 -13.278   2.126  1.00  0.00     0.009 A 
ATOM     86  C   UNL     1     -11.280 -15.349   1.122  1.00  0.00     0.001 A 
ATOM     87  C   UNL     1     -13.426 -14.522   1.861  1.00  0.00     0.001 A 
ATOM     88  C   UNL     1     -12.640 -15.554   1.352  1.00  0.00     0.000 A 
ENDBRANCH  70  83
ENDBRANCH  44  45
ENDBRANCH  36  39
ENDBRANCH  34  35
ENDBRANCH  33  34
ENDBRANCH   1  33
TORSDOF 15
