REMARK SMILES Cc1ccc(-c2cc(Cl)cc3c2O[C@H](C(F)(F)F)C(C(=O)NCCCNC(=O)c2ccc(-c4c5nc(c(-c6ccccc6)c6ccc([nH]6)c(-c6ccccc6)c6nc(c(-c7ccccc7)c7ccc4[nH]7)C=C6)C=C5)cc2)=C3)cc1F
REMARK SMILES IDX 24 1 23 2 22 3 20 4 21 5 19 7 6 8 7 9 12 10 8 11 11 12 13 13
REMARK SMILES IDX 9 14 10 15 77 16 14 17 5 18 1 19 2 20 3 21 79 22 4 23 78 24
REMARK SMILES IDX 80 25 15 26 16 27 17 28 18 29 25 30 26 31 27 32 28 34 29 35
REMARK SMILES IDX 30 36 76 37 31 38 75 39 32 40 33 41 34 42 69 43 35 44 74 45
REMARK SMILES IDX 68 46 70 47 36 48 73 49 67 50 66 51 37 53 59 54 44 55 58 56
REMARK SMILES IDX 45 57 48 58 57 59 71 60 46 61 47 62 56 64 72 65 49 66 38 67
REMARK SMILES IDX 39 68 43 69 40 70 42 71 41 72 60 73 61 74 65 75 62 76 64 77
REMARK SMILES IDX 63 78 50 79 51 80 55 81 52 82 54 83 53 84
REMARK H PARENT 22 6 26 33 70 52 48 63
REMARK Flexibility Score: inf
ROOT
ATOM      1  C   UNL     1      -1.443  -3.976   6.740  1.00  0.00     0.042 C 
ENDROOT
BRANCH   1   2
ATOM      2  C   UNL     1      -1.405  -4.982   5.603  1.00  0.00     0.118 C 
BRANCH   2   3
ATOM      3  N   UNL     1      -2.732  -5.483   5.274  1.00  0.00    -0.352 N 
ATOM      4  C   UNL     1      -3.638  -5.317   4.281  1.00  0.00     0.251 C 
ATOM      5  O   UNL     1      -4.679  -5.970   4.400  1.00  0.00    -0.270 OA
ATOM      6  H   UNL     1      -3.059  -6.112   5.957  1.00  0.00     0.163 HD
BRANCH   4   7
ATOM      7  C   UNL     1      -3.457  -4.423   3.103  1.00  0.00     0.067 C 
ATOM      8  C   UNL     1      -3.088  -1.739  -0.114  1.00  0.00     0.026 A 
ATOM      9  C   UNL     1      -4.034  -1.786  -1.146  1.00  0.00     0.033 A 
ATOM     10  C   UNL     1      -3.274  -2.594   0.988  1.00  0.00     0.135 A 
ATOM     11  C   UNL     1      -5.118  -2.665  -1.070  1.00  0.00     0.042 A 
ATOM     12  C   UNL     1      -4.351  -3.486   1.064  1.00  0.00     0.019 A 
ATOM     13  O   UNL     1      -2.389  -2.470   2.027  1.00  0.00    -0.475 OA
ATOM     14  Cl  UNL     1      -6.273  -2.697  -2.346  1.00  0.00    -0.084 Cl
ATOM     15  C   UNL     1      -5.281  -3.515   0.025  1.00  0.00     0.032 A 
ATOM     16  C   UNL     1      -4.490  -4.338   2.242  1.00  0.00     0.025 C 
ATOM     17  C   UNL     1      -2.201  -3.649   2.841  1.00  0.00     0.314 C 
BRANCH   8  18
ATOM     18  C   UNL     1      -1.926  -0.837  -0.177  1.00  0.00    -0.012 A 
ATOM     19  C   UNL     1       1.527   1.767  -0.014  1.00  0.00     0.047 C 
ATOM     20  C   UNL     1       0.321   0.882  -0.094  1.00  0.00    -0.015 A 
ATOM     21  C   UNL     1      -0.975   1.408  -0.104  1.00  0.00     0.007 A 
ATOM     22  C   UNL     1       0.479  -0.503  -0.142  1.00  0.00     0.126 A 
ATOM     23  C   UNL     1      -2.086   0.557  -0.147  1.00  0.00     0.009 A 
ATOM     24  C   UNL     1      -0.621  -1.355  -0.192  1.00  0.00     0.048 A 
ATOM     25  F   UNL     1       1.709  -1.036  -0.122  1.00  0.00    -0.207 F 
ENDBRANCH   8  18
BRANCH  17  26
ATOM     26  C   UNL     1      -1.070  -4.516   2.251  1.00  0.00     0.429 C 
ATOM     27  F   UNL     1       0.127  -3.898   2.406  1.00  0.00    -0.167 F 
ATOM     28  F   UNL     1      -0.964  -5.720   2.863  1.00  0.00    -0.167 F 
ATOM     29  F   UNL     1      -1.232  -4.762   0.932  1.00  0.00    -0.167 F 
ENDBRANCH  17  26
ENDBRANCH   4   7
ENDBRANCH   2   3
ENDBRANCH   1   2
BRANCH   1  30
ATOM     30  C   UNL     1      -1.539  -4.655   8.097  1.00  0.00     0.118 C 
BRANCH  30  31
ATOM     31  N   UNL     1      -0.352  -5.456   8.399  1.00  0.00    -0.352 N 
ATOM     32  C   UNL     1       0.639  -5.281   9.333  1.00  0.00     0.251 C 
ATOM     33  H   UNL     1      -0.246  -6.256   7.836  1.00  0.00     0.163 HD
ATOM     34  O   UNL     1       1.669  -5.947   9.258  1.00  0.00    -0.269 OA
BRANCH  32  35
ATOM     35  C   UNL     1       0.477  -4.290  10.414  1.00  0.00     0.039 A 
ATOM     36  C   UNL     1      -0.772  -4.084  10.993  1.00  0.00     0.014 A 
ATOM     37  C   UNL     1       1.582  -3.560  10.862  1.00  0.00     0.014 A 
ATOM     38  C   UNL     1      -0.965  -3.006  11.840  1.00  0.00     0.010 A 
ATOM     39  C   UNL     1       1.411  -2.565  11.830  1.00  0.00     0.010 A 
ATOM     40  C   UNL     1       0.125  -2.242  12.287  1.00  0.00    -0.014 A 
BRANCH  40  41
ATOM     41  C   UNL     1      -0.134  -1.143  13.253  1.00  0.00     0.031 A 
ATOM     42  C   UNL     1       0.192   0.286  12.914  1.00  0.00     0.074 A 
ATOM     43  C   UNL     1      -0.753  -1.441  14.414  1.00  0.00     0.049 A 
ATOM     44  N   UNL     1      -0.056   1.366  13.613  1.00  0.00    -0.248 NA
ATOM     45  C   UNL     1       0.884   0.548  11.642  1.00  0.00     0.031 C 
ATOM     46  C   UNL     1      -1.111  -2.794  14.852  1.00  0.00     0.029 A 
ATOM     47  N   UNL     1      -1.232  -0.634  15.414  1.00  0.00    -0.354 N 
ATOM     48  C   UNL     1       0.466   2.424  12.880  1.00  0.00     0.074 A 
ATOM     49  C   UNL     1       1.071   1.861  11.694  1.00  0.00     0.031 C 
ATOM     50  C   UNL     1      -1.821  -2.717  15.985  1.00  0.00     0.029 A 
ATOM     51  C   UNL     1      -1.893  -1.323  16.404  1.00  0.00     0.049 A 
ATOM     52  H   UNL     1      -1.116   0.343  15.422  1.00  0.00     0.167 HD
ATOM     53  C   UNL     1       0.428   3.746  13.166  1.00  0.00     0.031 A 
ATOM     54  C   UNL     1      -2.481  -0.892  17.536  1.00  0.00     0.031 A 
ATOM     55  C   UNL     1      -0.200   4.302  14.336  1.00  0.00     0.049 A 
ATOM     56  C   UNL     1      -2.495   0.579  17.828  1.00  0.00     0.074 A 
ATOM     57  C   UNL     1      -0.321   5.636  14.687  1.00  0.00     0.029 A 
ATOM     58  N   UNL     1      -0.812   3.567  15.339  1.00  0.00    -0.354 N 
ATOM     59  N   UNL     1      -2.030   1.566  17.101  1.00  0.00    -0.248 NA
ATOM     60  C   UNL     1      -3.118   1.000  19.090  1.00  0.00     0.031 C 
ATOM     61  C   UNL     1      -0.939   5.704  15.936  1.00  0.00     0.029 A 
ATOM     62  C   UNL     1      -1.280   4.419  16.326  1.00  0.00     0.049 A 
ATOM     63  H   UNL     1      -0.901   2.587  15.348  1.00  0.00     0.167 HD
ATOM     64  C   UNL     1      -2.302   2.724  17.816  1.00  0.00     0.074 A 
ATOM     65  C   UNL     1      -3.016   2.320  19.010  1.00  0.00     0.031 C 
ATOM     66  C   UNL     1      -1.975   4.005  17.518  1.00  0.00     0.031 A 
BRANCH  53  67
ATOM     67  C   UNL     1       1.079   4.711  12.213  1.00  0.00    -0.014 A 
ATOM     68  C   UNL     1       2.210   5.435  12.625  1.00  0.00     0.009 A 
ATOM     69  C   UNL     1       0.491   5.019  10.977  1.00  0.00     0.009 A 
ATOM     70  C   UNL     1       2.718   6.470  11.838  1.00  0.00     0.001 A 
ATOM     71  C   UNL     1       1.019   6.036  10.177  1.00  0.00     0.001 A 
ATOM     72  C   UNL     1       2.121   6.771  10.616  1.00  0.00     0.000 A 
ENDBRANCH  53  67
BRANCH  54  73
ATOM     73  C   UNL     1      -3.081  -1.882  18.472  1.00  0.00    -0.014 A 
ATOM     74  C   UNL     1      -2.267  -2.835  19.110  1.00  0.00     0.009 A 
ATOM     75  C   UNL     1      -4.463  -1.916  18.703  1.00  0.00     0.009 A 
ATOM     76  C   UNL     1      -2.824  -3.818  19.928  1.00  0.00     0.001 A 
ATOM     77  C   UNL     1      -5.014  -2.875  19.558  1.00  0.00     0.001 A 
ATOM     78  C   UNL     1      -4.197  -3.832  20.159  1.00  0.00     0.000 A 
ENDBRANCH  54  73
BRANCH  66  79
ATOM     79  C   UNL     1      -2.373   5.072  18.500  1.00  0.00    -0.014 A 
ATOM     80  C   UNL     1      -3.314   6.048  18.134  1.00  0.00     0.009 A 
ATOM     81  C   UNL     1      -1.757   5.161  19.758  1.00  0.00     0.009 A 
ATOM     82  C   UNL     1      -3.621   7.098  19.002  1.00  0.00     0.001 A 
ATOM     83  C   UNL     1      -2.096   6.189  20.640  1.00  0.00     0.001 A 
ATOM     84  C   UNL     1      -3.018   7.162  20.257  1.00  0.00     0.000 A 
ENDBRANCH  66  79
ENDBRANCH  40  41
ENDBRANCH  32  35
ENDBRANCH  30  31
ENDBRANCH   1  30
TORSDOF 12
