REMARK SMILES Cc1cc(C(=O)N[C@H](CC(C)C)C(=O)NCCCNC(=O)c2ccc(-c3c4nc(c(-c5ccccc5)c5ccc([nH]5)c(-c5ccccc5)c5nc(c(-c6ccccc6)c6ccc3[nH]6)C=C5)C=C4)cc2)sc1Br
REMARK SMILES IDX 17 1 16 2 15 3 13 4 14 5 8 7 7 8 5 9 6 10 4 12 1 13 2 14
REMARK SMILES IDX 3 15 71 16 70 17 72 18 9 19 10 20 11 21 12 22 18 23 19 24
REMARK SMILES IDX 20 25 21 27 22 28 23 29 69 30 24 31 68 32 25 33 26 34 27 35
REMARK SMILES IDX 62 36 28 37 67 38 61 39 63 40 29 41 66 42 60 43 59 44 30 46
REMARK SMILES IDX 52 47 37 48 51 49 38 50 41 51 50 52 64 53 39 54 40 55 49 57
REMARK SMILES IDX 65 58 42 59 31 60 32 61 36 62 33 63 35 64 34 65 53 66 54 67
REMARK SMILES IDX 58 68 55 69 57 70 56 71 43 72 44 73 48 74 45 75 47 76 46 77
REMARK H PARENT 15 6 7 11 19 26 63 45 41 56
REMARK Flexibility Score: inf
ROOT
ATOM      1  C   UNL     1      -2.056  -0.865  -8.308  1.00  0.00     0.042 C 
ENDROOT
BRANCH   1   2
ATOM      2  C   UNL     1      -2.352  -1.794  -7.129  1.00  0.00     0.117 C 
BRANCH   2   3
ATOM      3  N   UNL     1      -1.153  -2.377  -6.543  1.00  0.00    -0.354 N 
ATOM      4  C   UNL     1      -0.478  -2.083  -5.395  1.00  0.00     0.242 C 
ATOM      5  O   UNL     1       0.612  -2.634  -5.216  1.00  0.00    -0.273 OA
ATOM      6  H   UNL     1      -0.762  -3.112  -7.067  1.00  0.00     0.163 HD
BRANCH   4   7
ATOM      7  C   UNL     1      -1.010  -1.044  -4.387  1.00  0.00     0.171 C 
BRANCH   7   8
ATOM      8  N   UNL     1      -2.328  -1.470  -3.910  1.00  0.00    -0.340 N 
ATOM      9  C   UNL     1      -2.980  -1.446  -2.706  1.00  0.00     0.262 C 
ATOM     10  O   UNL     1      -4.119  -1.924  -2.755  1.00  0.00    -0.268 OA
ATOM     11  H   UNL     1      -2.875  -1.867  -4.625  1.00  0.00     0.164 HD
BRANCH   9  12
ATOM     12  C   UNL     1      -2.385  -0.926  -1.482  1.00  0.00     0.093 A 
ATOM     13  C   UNL     1       0.278   0.622   0.701  1.00  0.00     0.046 C 
ATOM     14  C   UNL     1      -0.978  -0.001   0.189  1.00  0.00    -0.025 A 
ATOM     15  C   UNL     1      -1.162  -0.357  -1.188  1.00  0.00     0.030 A 
ATOM     16  C   UNL     1      -2.107  -0.320   0.903  1.00  0.00     0.074 A 
ATOM     17  S   UNL     1      -3.331  -1.013  -0.037  1.00  0.00    -0.123 S 
ATOM     18  Br  UNL     1      -2.313  -0.031   2.747  1.00  0.00    -0.039 Br
ENDBRANCH   9  12
ENDBRANCH   7   8
BRANCH   7  19
ATOM     19  C   UNL     1      -1.028   0.359  -5.029  1.00  0.00     0.038 C 
BRANCH  19  20
ATOM     20  C   UNL     1      -0.390   1.496  -4.208  1.00  0.00    -0.015 C 
ATOM     21  C   UNL     1       1.103   1.269  -3.958  1.00  0.00     0.007 C 
ATOM     22  C   UNL     1      -0.574   2.827  -4.948  1.00  0.00     0.007 C 
ENDBRANCH  19  20
ENDBRANCH   7  19
ENDBRANCH   4   7
ENDBRANCH   2   3
ENDBRANCH   1   2
BRANCH   1  23
ATOM     23  C   UNL     1      -1.489  -1.599  -9.507  1.00  0.00     0.118 C 
BRANCH  23  24
ATOM     24  N   UNL     1      -2.439  -2.530 -10.117  1.00  0.00    -0.352 N 
ATOM     25  C   UNL     1      -2.244  -3.314 -11.245  1.00  0.00     0.251 C 
ATOM     26  H   UNL     1      -3.316  -2.610  -9.677  1.00  0.00     0.163 HD
ATOM     27  O   UNL     1      -3.170  -3.813 -11.850  1.00  0.00    -0.269 OA
BRANCH  25  28
ATOM     28  C   UNL     1      -0.853  -3.529 -11.675  1.00  0.00     0.039 A 
ATOM     29  C   UNL     1      -0.450  -3.353 -13.001  1.00  0.00     0.014 A 
ATOM     30  C   UNL     1       0.065  -3.811 -10.670  1.00  0.00     0.014 A 
ATOM     31  C   UNL     1       0.912  -3.383 -13.288  1.00  0.00     0.010 A 
ATOM     32  C   UNL     1       1.394  -3.634 -10.919  1.00  0.00     0.010 A 
ATOM     33  C   UNL     1       1.828  -3.505 -12.233  1.00  0.00    -0.014 A 
BRANCH  33  34
ATOM     34  C   UNL     1       3.266  -3.426 -12.448  1.00  0.00     0.031 A 
ATOM     35  C   UNL     1       3.742  -2.175 -13.096  1.00  0.00     0.074 A 
ATOM     36  C   UNL     1       4.114  -4.301 -11.864  1.00  0.00     0.049 A 
ATOM     37  N   UNL     1       4.294  -2.053 -14.256  1.00  0.00    -0.248 NA
ATOM     38  C   UNL     1       3.469  -0.890 -12.429  1.00  0.00     0.031 C 
ATOM     39  C   UNL     1       3.802  -5.386 -10.920  1.00  0.00     0.029 A 
ATOM     40  N   UNL     1       5.471  -4.310 -11.877  1.00  0.00    -0.354 N 
ATOM     41  C   UNL     1       4.626  -0.707 -14.388  1.00  0.00     0.074 A 
ATOM     42  C   UNL     1       3.940  -0.018 -13.323  1.00  0.00     0.031 C 
ATOM     43  C   UNL     1       4.923  -5.751 -10.261  1.00  0.00     0.029 A 
ATOM     44  C   UNL     1       6.050  -5.075 -10.872  1.00  0.00     0.049 A 
ATOM     45  H   UNL     1       6.001  -3.816 -12.543  1.00  0.00     0.167 HD
ATOM     46  C   UNL     1       5.638  -0.304 -15.206  1.00  0.00     0.031 A 
ATOM     47  C   UNL     1       7.363  -5.128 -10.546  1.00  0.00     0.031 A 
ATOM     48  C   UNL     1       6.056  -1.362 -16.090  1.00  0.00     0.049 A 
ATOM     49  C   UNL     1       8.124  -4.611 -11.706  1.00  0.00     0.074 A 
ATOM     50  C   UNL     1       5.437  -2.118 -17.065  1.00  0.00     0.029 A 
ATOM     51  N   UNL     1       7.187  -2.058 -15.733  1.00  0.00    -0.354 N 
ATOM     52  N   UNL     1       8.164  -5.219 -12.858  1.00  0.00    -0.248 NA
ATOM     53  C   UNL     1       8.430  -3.189 -11.740  1.00  0.00     0.031 C 
ATOM     54  C   UNL     1       5.947  -3.437 -16.877  1.00  0.00     0.029 A 
ATOM     55  C   UNL     1       6.906  -3.393 -15.863  1.00  0.00     0.049 A 
ATOM     56  H   UNL     1       8.042  -1.669 -15.438  1.00  0.00     0.167 HD
ATOM     57  C   UNL     1       8.048  -4.202 -13.797  1.00  0.00     0.074 A 
ATOM     58  C   UNL     1       8.319  -2.971 -13.055  1.00  0.00     0.031 C 
ATOM     59  C   UNL     1       7.457  -4.424 -15.009  1.00  0.00     0.031 A 
BRANCH  46  60
ATOM     60  C   UNL     1       6.534   0.877 -14.924  1.00  0.00    -0.014 A 
ATOM     61  C   UNL     1       7.519   1.214 -15.871  1.00  0.00     0.009 A 
ATOM     62  C   UNL     1       6.646   1.475 -13.655  1.00  0.00     0.009 A 
ATOM     63  C   UNL     1       8.602   2.035 -15.536  1.00  0.00     0.001 A 
ATOM     64  C   UNL     1       7.703   2.328 -13.330  1.00  0.00     0.001 A 
ATOM     65  C   UNL     1       8.699   2.583 -14.261  1.00  0.00     0.000 A 
ENDBRANCH  46  60
BRANCH  47  66
ATOM     66  C   UNL     1       7.967  -5.331  -9.213  1.00  0.00    -0.014 A 
ATOM     67  C   UNL     1       9.289  -5.777  -9.072  1.00  0.00     0.009 A 
ATOM     68  C   UNL     1       7.318  -4.834  -8.066  1.00  0.00     0.009 A 
ATOM     69  C   UNL     1       9.947  -5.700  -7.835  1.00  0.00     0.001 A 
ATOM     70  C   UNL     1       7.974  -4.755  -6.833  1.00  0.00     0.001 A 
ATOM     71  C   UNL     1       9.294  -5.177  -6.721  1.00  0.00     0.000 A 
ENDBRANCH  47  66
BRANCH  59  72
ATOM     72  C   UNL     1       7.123  -5.848 -15.389  1.00  0.00    -0.014 A 
ATOM     73  C   UNL     1       6.208  -6.642 -14.675  1.00  0.00     0.009 A 
ATOM     74  C   UNL     1       7.618  -6.338 -16.605  1.00  0.00     0.009 A 
ATOM     75  C   UNL     1       5.820  -7.899 -15.156  1.00  0.00     0.001 A 
ATOM     76  C   UNL     1       7.217  -7.583 -17.095  1.00  0.00     0.001 A 
ATOM     77  C   UNL     1       6.322  -8.365 -16.369  1.00  0.00     0.000 A 
ENDBRANCH  59  72
ENDBRANCH  33  34
ENDBRANCH  25  28
ENDBRANCH  23  24
ENDBRANCH   1  23
TORSDOF 14
