REMARK SMILES CC1(C)CSC[C@H]([NH2+][C@H](C(=O)NCCCNC(=O)c2ccc(-c3c4nc(c(-c5ccccc5)c5ccc([nH]5)c(-c5ccccc5)c5nc(c(-c6ccccc6)c6ccc3[nH]6)C=C5)C=C4)cc2)c2ccccc2)C1
REMARK SMILES IDX 14 1 13 2 12 3 10 4 11 5 9 7 8 8 7 11 1 12 2 13 3 14 4 15
REMARK SMILES IDX 73 16 5 17 6 18 67 19 68 20 72 21 69 22 71 23 70 24 15 25
REMARK SMILES IDX 16 26 17 27 18 29 19 30 20 31 66 32 21 33 65 34 22 35 23 36
REMARK SMILES IDX 24 37 59 38 25 39 64 40 58 41 60 42 26 43 63 44 57 45 56 46
REMARK SMILES IDX 27 48 49 49 34 50 48 51 35 52 38 53 47 54 61 55 36 56 37 57
REMARK SMILES IDX 46 59 62 60 39 61 28 62 29 63 33 64 30 65 32 66 31 67 50 68
REMARK SMILES IDX 51 69 55 70 52 71 54 72 53 73 40 74 41 75 45 76 42 77 44 78
REMARK SMILES IDX 43 79
REMARK H PARENT 12 6 8 9 8 10 16 28 60 47 38 58
REMARK Flexibility Score: inf
ROOT
ATOM      1  C   UNL     1       0.359  -1.479  -1.907  1.00  0.00     0.042 C 
ENDROOT
BRANCH   1   2
ATOM      2  C   UNL     1      -1.097  -1.166  -2.251  1.00  0.00     0.118 C 
BRANCH   2   3
ATOM      3  N   UNL     1      -1.516   0.045  -1.581  1.00  0.00    -0.351 N 
ATOM      4  C   UNL     1      -1.587   1.321  -2.058  1.00  0.00     0.283 C 
ATOM      5  O   UNL     1      -1.642   2.217  -1.211  1.00  0.00    -0.268 OA
ATOM      6  H   UNL     1      -1.791  -0.069  -0.642  1.00  0.00     0.163 HD
BRANCH   4   7
ATOM      7  C   UNL     1      -1.674   1.586  -3.593  1.00  0.00     0.304 C 
BRANCH   7   8
ATOM      8  N   UNL     1      -3.054   1.365  -4.112  1.00  0.00    -0.329 N 
ATOM      9  H   UNL     1      -3.204   2.028  -4.873  1.00  0.00     0.347 HD
ATOM     10  H   UNL     1      -3.076   0.381  -4.380  1.00  0.00     0.347 HD
BRANCH   8  11
ATOM     11  C   UNL     1      -4.172   1.520  -3.167  1.00  0.00     0.193 C 
ATOM     12  C   UNL     1      -6.447  -0.352  -1.966  1.00  0.00     0.012 C 
ATOM     13  C   UNL     1      -6.678   0.865  -2.889  1.00  0.00    -0.021 C 
ATOM     14  C   UNL     1      -7.939   0.569  -3.729  1.00  0.00     0.012 C 
ATOM     15  C   UNL     1      -6.968   2.138  -2.060  1.00  0.00     0.076 C 
ATOM     16  C   UNL     1      -5.471   1.038  -3.855  1.00  0.00     0.073 C 
ATOM     17  S   UNL     1      -5.547   2.885  -1.216  1.00  0.00    -0.155 SA
ATOM     18  C   UNL     1      -4.391   2.942  -2.622  1.00  0.00     0.134 C 
ENDBRANCH   8  11
ENDBRANCH   7   8
BRANCH   7  19
ATOM     19  C   UNL     1      -0.991   2.896  -3.992  1.00  0.00     0.019 A 
ATOM     20  C   UNL     1       0.352   3.085  -3.598  1.00  0.00     0.010 A 
ATOM     21  C   UNL     1      -1.586   3.899  -4.771  1.00  0.00     0.010 A 
ATOM     22  C   UNL     1       1.061   4.235  -3.948  1.00  0.00     0.001 A 
ATOM     23  C   UNL     1      -0.870   5.047  -5.132  1.00  0.00     0.001 A 
ATOM     24  C   UNL     1       0.449   5.216  -4.718  1.00  0.00     0.000 A 
ENDBRANCH   7  19
ENDBRANCH   4   7
ENDBRANCH   2   3
ENDBRANCH   1   2
BRANCH   1  25
ATOM     25  C   UNL     1       0.628  -1.626  -0.408  1.00  0.00     0.118 C 
BRANCH  25  26
ATOM     26  N   UNL     1      -0.123  -2.715   0.195  1.00  0.00    -0.352 N 
ATOM     27  C   UNL     1       0.303  -3.724   1.021  1.00  0.00     0.251 C 
ATOM     28  H   UNL     1      -1.083  -2.731  -0.023  1.00  0.00     0.163 HD
ATOM     29  O   UNL     1      -0.459  -4.646   1.296  1.00  0.00    -0.269 OA
BRANCH  27  30
ATOM     30  C   UNL     1       1.678  -3.722   1.565  1.00  0.00     0.039 A 
ATOM     31  C   UNL     1       2.388  -4.926   1.581  1.00  0.00     0.014 A 
ATOM     32  C   UNL     1       2.252  -2.564   2.099  1.00  0.00     0.014 A 
ATOM     33  C   UNL     1       3.687  -4.961   2.089  1.00  0.00     0.010 A 
ATOM     34  C   UNL     1       3.570  -2.587   2.552  1.00  0.00     0.010 A 
ATOM     35  C   UNL     1       4.298  -3.787   2.559  1.00  0.00    -0.014 A 
BRANCH  35  36
ATOM     36  C   UNL     1       5.694  -3.810   3.062  1.00  0.00     0.031 A 
ATOM     37  C   UNL     1       5.988  -3.542   4.513  1.00  0.00     0.074 A 
ATOM     38  C   UNL     1       6.707  -4.029   2.202  1.00  0.00     0.049 A 
ATOM     39  N   UNL     1       7.144  -3.510   5.127  1.00  0.00    -0.248 NA
ATOM     40  C   UNL     1       4.837  -3.252   5.383  1.00  0.00     0.031 C 
ATOM     41  C   UNL     1       6.564  -4.252   0.761  1.00  0.00     0.029 A 
ATOM     42  N   UNL     1       8.061  -4.096   2.416  1.00  0.00    -0.354 N 
ATOM     43  C   UNL     1       6.862  -3.175   6.446  1.00  0.00     0.074 A 
ATOM     44  C   UNL     1       5.431  -2.978   6.535  1.00  0.00     0.031 C 
ATOM     45  C   UNL     1       7.779  -4.453   0.225  1.00  0.00     0.029 A 
ATOM     46  C   UNL     1       8.786  -4.348   1.276  1.00  0.00     0.049 A 
ATOM     47  H   UNL     1       8.473  -3.976   3.301  1.00  0.00     0.167 HD
ATOM     48  C   UNL     1       7.714  -3.056   7.492  1.00  0.00     0.031 A 
ATOM     49  C   UNL     1      10.113  -4.481   1.097  1.00  0.00     0.031 A 
ATOM     50  C   UNL     1       9.134  -3.272   7.414  1.00  0.00     0.049 A 
ATOM     51  C   UNL     1      11.033  -4.377   2.280  1.00  0.00     0.074 A 
ATOM     52  C   UNL     1      10.068  -3.242   8.435  1.00  0.00     0.029 A 
ATOM     53  N   UNL     1       9.825  -3.558   6.248  1.00  0.00    -0.354 N 
ATOM     54  N   UNL     1      10.740  -4.139   3.535  1.00  0.00    -0.248 NA
ATOM     55  C   UNL     1      12.465  -4.580   2.023  1.00  0.00     0.031 C 
ATOM     56  C   UNL     1      11.332  -3.472   7.880  1.00  0.00     0.029 A 
ATOM     57  C   UNL     1      11.176  -3.689   6.520  1.00  0.00     0.049 A 
ATOM     58  H   UNL     1       9.416  -3.653   5.357  1.00  0.00     0.167 HD
ATOM     59  C   UNL     1      11.946  -4.188   4.220  1.00  0.00     0.074 A 
ATOM     60  C   UNL     1      12.972  -4.497   3.245  1.00  0.00     0.031 C 
ATOM     61  C   UNL     1      12.184  -3.995   5.540  1.00  0.00     0.031 A 
BRANCH  48  62
ATOM     62  C   UNL     1       7.128  -2.667   8.820  1.00  0.00    -0.014 A 
ATOM     63  C   UNL     1       6.353  -3.570   9.566  1.00  0.00     0.009 A 
ATOM     64  C   UNL     1       7.387  -1.393   9.351  1.00  0.00     0.009 A 
ATOM     65  C   UNL     1       5.823  -3.193  10.802  1.00  0.00     0.001 A 
ATOM     66  C   UNL     1       6.876  -1.029  10.598  1.00  0.00     0.001 A 
ATOM     67  C   UNL     1       6.088  -1.925  11.318  1.00  0.00     0.000 A 
ENDBRANCH  48  62
BRANCH  49  68
ATOM     68  C   UNL     1      10.656  -4.752  -0.259  1.00  0.00    -0.014 A 
ATOM     69  C   UNL     1      11.166  -6.019  -0.581  1.00  0.00     0.009 A 
ATOM     70  C   UNL     1      10.677  -3.741  -1.232  1.00  0.00     0.009 A 
ATOM     71  C   UNL     1      11.713  -6.260  -1.843  1.00  0.00     0.001 A 
ATOM     72  C   UNL     1      11.200  -3.994  -2.502  1.00  0.00     0.001 A 
ATOM     73  C   UNL     1      11.727  -5.249  -2.803  1.00  0.00     0.000 A 
ENDBRANCH  49  68
BRANCH  61  74
ATOM     74  C   UNL     1      13.604  -4.145   6.007  1.00  0.00    -0.014 A 
ATOM     75  C   UNL     1      14.573  -3.174   5.714  1.00  0.00     0.009 A 
ATOM     76  C   UNL     1      13.969  -5.265   6.770  1.00  0.00     0.009 A 
ATOM     77  C   UNL     1      15.890  -3.340   6.145  1.00  0.00     0.001 A 
ATOM     78  C   UNL     1      15.281  -5.415   7.222  1.00  0.00     0.001 A 
ATOM     79  C   UNL     1      16.242  -4.459   6.900  1.00  0.00     0.000 A 
ENDBRANCH  61  74
ENDBRANCH  35  36
ENDBRANCH  27  30
ENDBRANCH  25  26
ENDBRANCH   1  25
TORSDOF 13
