REMARK SMILES O=C(C[C@H]1S/C(=[NH+]/N=C/c2cccc(Cl)c2)NC1=O)NCCCNC(=O)c1ccc(-c2c3nc(c(-c4ccccc4)c4ccc([nH]4)c(-c4ccccc4)c4nc(c(-c5ccccc5)c5ccc2[nH]5)C=C4)C=C3)cc1
REMARK SMILES IDX 21 1 20 2 1 3 2 4 3 6 4 7 5 8 18 9 6 10 17 11 19 12 7 13
REMARK SMILES IDX 8 16 9 17 10 18 11 19 16 20 12 21 14 22 13 23 15 24 22 25
REMARK SMILES IDX 23 26 24 27 25 28 26 30 27 31 28 32 74 33 29 34 73 35 30 36
REMARK SMILES IDX 31 37 32 38 67 39 33 40 72 41 66 42 68 43 34 44 71 45 65 46
REMARK SMILES IDX 64 47 35 49 57 50 42 51 56 52 43 53 46 54 55 55 69 56 44 57
REMARK SMILES IDX 45 58 54 60 70 61 47 62 36 63 37 64 41 65 38 66 40 67 39 68
REMARK SMILES IDX 58 69 59 70 63 71 60 72 62 73 61 74 48 75 49 76 53 77 50 78
REMARK SMILES IDX 52 79 51 80
REMARK H PARENT 20 5 17 14 7 15 24 29 68 48 46 59
REMARK Flexibility Score: inf
ROOT
ATOM      1  C   UNL     1       2.004   2.217  -0.666  1.00  0.00     0.117 C 
ENDROOT
BRANCH   1   2
ATOM      2  N   UNL     1       2.704   1.021  -0.240  1.00  0.00    -0.356 N 
ATOM      3  O   UNL     1       0.837  -0.303  -0.042  1.00  0.00    -0.275 OA
ATOM      4  C   UNL     1       2.055  -0.167  -0.003  1.00  0.00     0.221 C 
ATOM      5  H   UNL     1       3.680   1.061  -0.117  1.00  0.00     0.163 HD
BRANCH   4   6
ATOM      6  C   UNL     1       2.968  -1.324   0.338  1.00  0.00     0.127 C 
BRANCH   6   7
ATOM      7  C   UNL     1       3.803  -1.869  -0.819  1.00  0.00     0.183 C 
ATOM      8  S   UNL     1       3.583  -3.683  -0.994  1.00  0.00    -0.020 SA
ATOM      9  C   UNL     1       3.502  -1.308  -2.199  1.00  0.00     0.322 C 
ATOM     10  C   UNL     1       2.983  -3.539  -2.613  1.00  0.00     0.337 C 
ATOM     11  N   UNL     1       2.997  -2.255  -3.033  1.00  0.00    -0.202 N 
ATOM     12  O   UNL     1       3.745  -0.157  -2.542  1.00  0.00    -0.246 OA
ATOM     13  N   UNL     1       2.588  -4.541  -3.322  1.00  0.00    -0.142 N 
ATOM     14  H   UNL     1       2.650  -2.011  -3.921  1.00  0.00     0.316 HD
ATOM     15  H   UNL     1       2.573  -5.470  -2.998  1.00  0.00     0.343 HD
BRANCH  13  16
ATOM     16  N   UNL     1       2.183  -4.154  -4.605  1.00  0.00    -0.093 NA
ATOM     17  C   UNL     1       1.403  -5.047  -5.128  1.00  0.00     0.166 C 
BRANCH  17  18
ATOM     18  C   UNL     1       0.818  -4.867  -6.468  1.00  0.00    -0.002 A 
ATOM     19  C   UNL     1       1.312  -3.890  -7.339  1.00  0.00     0.010 A 
ATOM     20  C   UNL     1      -0.256  -5.676  -6.844  1.00  0.00     0.030 A 
ATOM     21  C   UNL     1       0.724  -3.715  -8.592  1.00  0.00     0.002 A 
ATOM     22  C   UNL     1      -0.843  -5.485  -8.094  1.00  0.00     0.041 A 
ATOM     23  C   UNL     1      -0.359  -4.511  -8.968  1.00  0.00     0.020 A 
ATOM     24  Cl  UNL     1      -2.188  -6.454  -8.558  1.00  0.00    -0.084 Cl
ENDBRANCH  17  18
ENDBRANCH  13  16
ENDBRANCH   6   7
ENDBRANCH   4   6
ENDBRANCH   1   2
BRANCH   1  25
ATOM     25  C   UNL     1       2.293   3.412   0.233  1.00  0.00     0.042 C 
BRANCH  25  26
ATOM     26  C   UNL     1       3.763   3.809   0.326  1.00  0.00     0.118 C 
BRANCH  26  27
ATOM     27  N   UNL     1       4.332   4.237  -0.942  1.00  0.00    -0.352 N 
ATOM     28  C   UNL     1       5.060   5.358  -1.257  1.00  0.00     0.251 C 
ATOM     29  H   UNL     1       4.169   3.626  -1.695  1.00  0.00     0.163 HD
ATOM     30  O   UNL     1       5.343   5.580  -2.432  1.00  0.00    -0.269 OA
BRANCH  28  31
ATOM     31  C   UNL     1       5.496   6.318  -0.213  1.00  0.00     0.039 A 
ATOM     32  C   UNL     1       5.479   7.683  -0.521  1.00  0.00     0.014 A 
ATOM     33  C   UNL     1       5.971   5.899   1.032  1.00  0.00     0.014 A 
ATOM     34  C   UNL     1       5.896   8.622   0.427  1.00  0.00     0.010 A 
ATOM     35  C   UNL     1       6.314   6.841   2.005  1.00  0.00     0.010 A 
ATOM     36  C   UNL     1       6.297   8.211   1.708  1.00  0.00    -0.014 A 
BRANCH  36  37
ATOM     37  C   UNL     1       6.728   9.207   2.725  1.00  0.00     0.031 A 
ATOM     38  C   UNL     1       8.149   9.224   3.223  1.00  0.00     0.074 A 
ATOM     39  C   UNL     1       5.836  10.086   3.223  1.00  0.00     0.049 A 
ATOM     40  N   UNL     1       8.710  10.026   4.095  1.00  0.00    -0.248 NA
ATOM     41  C   UNL     1       9.054   8.192   2.691  1.00  0.00     0.031 C 
ATOM     42  C   UNL     1       4.418  10.153   2.864  1.00  0.00     0.029 A 
ATOM     43  N   UNL     1       5.995  11.097   4.139  1.00  0.00    -0.354 N 
ATOM     44  C   UNL     1      10.021   9.587   4.225  1.00  0.00     0.074 A 
ATOM     45  C   UNL     1      10.160   8.417   3.385  1.00  0.00     0.031 C 
ATOM     46  C   UNL     1       3.847  11.174   3.523  1.00  0.00     0.029 A 
ATOM     47  C   UNL     1       4.847  11.814   4.371  1.00  0.00     0.049 A 
ATOM     48  H   UNL     1       6.851  11.289   4.586  1.00  0.00     0.167 HD
ATOM     49  C   UNL     1      11.030  10.118   4.958  1.00  0.00     0.031 A 
ATOM     50  C   UNL     1       4.625  12.876   5.169  1.00  0.00     0.031 A 
ATOM     51  C   UNL     1      10.905  11.289   5.784  1.00  0.00     0.049 A 
ATOM     52  C   UNL     1       5.764  13.459   5.958  1.00  0.00     0.074 A 
ATOM     53  C   UNL     1      11.882  11.930   6.526  1.00  0.00     0.029 A 
ATOM     54  N   UNL     1       9.729  11.997   5.975  1.00  0.00    -0.354 N 
ATOM     55  N   UNL     1       7.015  13.071   6.016  1.00  0.00    -0.248 NA
ATOM     56  C   UNL     1       5.462  14.643   6.774  1.00  0.00     0.031 C 
ATOM     57  C   UNL     1      11.288  13.005   7.198  1.00  0.00     0.029 A 
ATOM     58  C   UNL     1       9.953  13.062   6.832  1.00  0.00     0.049 A 
ATOM     59  H   UNL     1       8.863  11.775   5.563  1.00  0.00     0.167 HD
ATOM     60  C   UNL     1       7.655  13.984   6.845  1.00  0.00     0.074 A 
ATOM     61  C   UNL     1       6.658  14.951   7.254  1.00  0.00     0.031 C 
ATOM     62  C   UNL     1       8.955  14.020   7.229  1.00  0.00     0.031 A 
BRANCH  49  63
ATOM     63  C   UNL     1      12.364   9.426   4.896  1.00  0.00    -0.014 A 
ATOM     64  C   UNL     1      13.152   9.470   3.734  1.00  0.00     0.009 A 
ATOM     65  C   UNL     1      12.853   8.745   6.021  1.00  0.00     0.009 A 
ATOM     66  C   UNL     1      14.382   8.811   3.688  1.00  0.00     0.001 A 
ATOM     67  C   UNL     1      14.097   8.112   5.982  1.00  0.00     0.001 A 
ATOM     68  C   UNL     1      14.855   8.136   4.812  1.00  0.00     0.000 A 
ENDBRANCH  49  63
BRANCH  50  69
ATOM     69  C   UNL     1       3.274  13.490   5.232  1.00  0.00    -0.014 A 
ATOM     70  C   UNL     1       3.035  14.744   4.649  1.00  0.00     0.009 A 
ATOM     71  C   UNL     1       2.220  12.833   5.886  1.00  0.00     0.009 A 
ATOM     72  C   UNL     1       1.777  15.342   4.745  1.00  0.00     0.001 A 
ATOM     73  C   UNL     1       0.956  13.421   5.957  1.00  0.00     0.001 A 
ATOM     74  C   UNL     1       0.738  14.679   5.396  1.00  0.00     0.000 A 
ENDBRANCH  50  69
BRANCH  62  75
ATOM     75  C   UNL     1       9.381  15.170   8.097  1.00  0.00    -0.014 A 
ATOM     76  C   UNL     1       8.984  15.263   9.440  1.00  0.00     0.009 A 
ATOM     77  C   UNL     1      10.210  16.169   7.562  1.00  0.00     0.009 A 
ATOM     78  C   UNL     1       9.372  16.357  10.216  1.00  0.00     0.001 A 
ATOM     79  C   UNL     1      10.621  17.246   8.349  1.00  0.00     0.001 A 
ATOM     80  C   UNL     1      10.192  17.346   9.671  1.00  0.00     0.000 A 
ENDBRANCH  62  75
ENDBRANCH  36  37
ENDBRANCH  28  31
ENDBRANCH  26  27
ENDBRANCH  25  26
ENDBRANCH   1  25
TORSDOF 13
