REMARK SMILES CC/C=C/C/C=C/C/C=C/C/C=C/CCSCCCC(=O)NCCCNC(=O)c1ccc(-c2c3nc(c(-c4ccccc4)c4ccc([nH]4)c(-c4ccccc4)c4nc(c(-c5ccccc5)c5ccc2[nH]5)C=C4)C=C3)cc1
REMARK SMILES IDX 17 1 16 2 15 3 14 4 13 5 12 6 11 7 10 8 9 9 8 10 7 11 6 12
REMARK SMILES IDX 5 13 4 14 3 15 2 16 1 17 18 18 19 19 20 20 21 21 22 22 23 24
REMARK SMILES IDX 24 25 25 26 26 27 27 28 28 30 29 31 30 32 76 33 31 34 75 35
REMARK SMILES IDX 32 36 33 37 34 38 69 39 35 40 74 41 68 42 70 43 36 44 73 45
REMARK SMILES IDX 67 46 66 47 37 49 59 50 44 51 58 52 45 53 48 54 57 55 71 56
REMARK SMILES IDX 46 57 47 58 56 60 72 61 49 62 38 63 39 64 43 65 40 66 42 67
REMARK SMILES IDX 41 68 60 69 61 70 65 71 62 72 64 73 63 74 50 75 51 76 55 77
REMARK SMILES IDX 52 78 54 79 53 80
REMARK H PARENT 22 23 26 29 70 48 48 59
REMARK Flexibility Score: inf
ROOT
ATOM      1  C   UNL     1      -6.122  -8.030 -11.106  1.00  0.00     0.070 C 
ENDROOT
BRANCH   1   2
ATOM      2  S   UNL     1      -6.579  -6.461 -11.973  1.00  0.00    -0.162 SA
BRANCH   2   3
ATOM      3  C   UNL     1      -5.514  -5.063 -11.411  1.00  0.00     0.073 C 
BRANCH   3   4
ATOM      4  C   UNL     1      -6.035  -4.141 -10.271  1.00  0.00     0.038 C 
BRANCH   4   5
ATOM      5  C   UNL     1      -5.282  -4.230  -8.965  1.00  0.00    -0.030 C 
ATOM      6  C   UNL     1      -5.486  -3.486  -7.862  1.00  0.00    -0.027 C 
BRANCH   6   7
ATOM      7  C   UNL     1      -4.963  -3.842  -6.482  1.00  0.00     0.054 C 
BRANCH   7   8
ATOM      8  C   UNL     1      -3.527  -4.280  -6.403  1.00  0.00    -0.027 C 
ATOM      9  C   UNL     1      -2.756  -4.055  -5.325  1.00  0.00    -0.027 C 
BRANCH   9  10
ATOM     10  C   UNL     1      -1.298  -4.411  -5.233  1.00  0.00     0.054 C 
BRANCH  10  11
ATOM     11  C   UNL     1      -0.494  -3.149  -5.340  1.00  0.00    -0.027 C 
ATOM     12  C   UNL     1       0.291  -2.659  -4.368  1.00  0.00    -0.027 C 
BRANCH  12  13
ATOM     13  C   UNL     1       0.911  -1.292  -4.421  1.00  0.00     0.054 C 
BRANCH  13  14
ATOM     14  C   UNL     1       0.389  -0.468  -3.279  1.00  0.00    -0.027 C 
ATOM     15  C   UNL     1       1.158   0.056  -2.312  1.00  0.00    -0.031 C 
BRANCH  15  16
ATOM     16  C   UNL     1       0.612   0.788  -1.121  1.00  0.00     0.023 C 
ATOM     17  C   UNL     1       1.029   0.096   0.168  1.00  0.00     0.008 C 
ENDBRANCH  15  16
ENDBRANCH  13  14
ENDBRANCH  12  13
ENDBRANCH  10  11
ENDBRANCH   9  10
ENDBRANCH   7   8
ENDBRANCH   6   7
ENDBRANCH   4   5
ENDBRANCH   3   4
ENDBRANCH   2   3
ENDBRANCH   1   2
BRANCH   1  18
ATOM     18  C   UNL     1      -4.743  -8.449 -10.599  1.00  0.00     0.021 C 
BRANCH  18  19
ATOM     19  C   UNL     1      -4.021  -7.610  -9.564  1.00  0.00     0.101 C 
BRANCH  19  20
ATOM     20  C   UNL     1      -4.345  -7.804  -8.091  1.00  0.00     0.220 C 
ATOM     21  O   UNL     1      -3.465  -8.182  -7.313  1.00  0.00    -0.275 OA
ATOM     22  N   UNL     1      -5.553  -7.514  -7.548  1.00  0.00    -0.356 N 
ATOM     23  H   UNL     1      -5.659  -7.808  -6.614  1.00  0.00     0.163 HD
BRANCH  22  24
ATOM     24  C   UNL     1      -6.713  -6.849  -8.097  1.00  0.00     0.117 C 
BRANCH  24  25
ATOM     25  C   UNL     1      -7.984  -7.663  -7.944  1.00  0.00     0.042 C 
BRANCH  25  26
ATOM     26  C   UNL     1      -8.918  -7.009  -6.945  1.00  0.00     0.118 C 
BRANCH  26  27
ATOM     27  N   UNL     1      -9.629  -5.857  -7.494  1.00  0.00    -0.352 N 
ATOM     28  C   UNL     1     -10.964  -5.537  -7.344  1.00  0.00     0.251 C 
ATOM     29  H   UNL     1      -9.092  -5.234  -8.035  1.00  0.00     0.163 HD
ATOM     30  O   UNL     1     -11.467  -4.610  -7.955  1.00  0.00    -0.269 OA
BRANCH  28  31
ATOM     31  C   UNL     1     -11.783  -6.380  -6.445  1.00  0.00     0.039 A 
ATOM     32  C   UNL     1     -13.009  -6.875  -6.889  1.00  0.00     0.014 A 
ATOM     33  C   UNL     1     -11.274  -6.757  -5.201  1.00  0.00     0.014 A 
ATOM     34  C   UNL     1     -13.694  -7.806  -6.104  1.00  0.00     0.010 A 
ATOM     35  C   UNL     1     -11.881  -7.783  -4.498  1.00  0.00     0.010 A 
ATOM     36  C   UNL     1     -13.117  -8.293  -4.919  1.00  0.00    -0.014 A 
BRANCH  36  37
ATOM     37  C   UNL     1     -13.812  -9.277  -4.054  1.00  0.00     0.031 A 
ATOM     38  C   UNL     1     -14.127  -8.909  -2.626  1.00  0.00     0.074 A 
ATOM     39  C   UNL     1     -14.099 -10.510  -4.515  1.00  0.00     0.049 A 
ATOM     40  N   UNL     1     -14.659  -9.639  -1.679  1.00  0.00    -0.248 NA
ATOM     41  C   UNL     1     -13.746  -7.554  -2.190  1.00  0.00     0.031 C 
ATOM     42  C   UNL     1     -13.785 -11.016  -5.854  1.00  0.00     0.029 A 
ATOM     43  N   UNL     1     -14.723 -11.566  -3.901  1.00  0.00    -0.354 N 
ATOM     44  C   UNL     1     -14.641  -8.843  -0.541  1.00  0.00     0.074 A 
ATOM     45  C   UNL     1     -13.968  -7.614  -0.888  1.00  0.00     0.031 C 
ATOM     46  C   UNL     1     -14.257 -12.268  -5.972  1.00  0.00     0.029 A 
ATOM     47  C   UNL     1     -14.874 -12.665  -4.711  1.00  0.00     0.049 A 
ATOM     48  H   UNL     1     -15.033 -11.538  -2.967  1.00  0.00     0.167 HD
ATOM     49  C   UNL     1     -15.177  -9.087   0.678  1.00  0.00     0.031 A 
ATOM     50  C   UNL     1     -15.457 -13.853  -4.465  1.00  0.00     0.031 A 
ATOM     51  C   UNL     1     -15.882 -10.292   1.011  1.00  0.00     0.049 A 
ATOM     52  C   UNL     1     -16.085 -14.091  -3.119  1.00  0.00     0.074 A 
ATOM     53  C   UNL     1     -16.514 -10.626   2.195  1.00  0.00     0.029 A 
ATOM     54  N   UNL     1     -16.058 -11.360   0.144  1.00  0.00    -0.354 N 
ATOM     55  N   UNL     1     -16.120 -13.302  -2.071  1.00  0.00    -0.248 NA
ATOM     56  C   UNL     1     -16.779 -15.373  -2.932  1.00  0.00     0.031 C 
ATOM     57  C   UNL     1     -17.043 -11.914   2.055  1.00  0.00     0.029 A 
ATOM     58  C   UNL     1     -16.787 -12.356   0.766  1.00  0.00     0.049 A 
ATOM     59  H   UNL     1     -15.714 -11.402  -0.778  1.00  0.00     0.167 HD
ATOM     60  C   UNL     1     -16.867 -13.976  -1.113  1.00  0.00     0.074 A 
ATOM     61  C   UNL     1     -17.278 -15.230  -1.712  1.00  0.00     0.031 C 
ATOM     62  C   UNL     1     -17.188 -13.593   0.147  1.00  0.00     0.031 A 
BRANCH  49  63
ATOM     63  C   UNL     1     -15.025  -8.012   1.720  1.00  0.00    -0.014 A 
ATOM     64  C   UNL     1     -15.669  -6.770   1.584  1.00  0.00     0.009 A 
ATOM     65  C   UNL     1     -14.218  -8.235   2.845  1.00  0.00     0.009 A 
ATOM     66  C   UNL     1     -15.462  -5.756   2.520  1.00  0.00     0.001 A 
ATOM     67  C   UNL     1     -14.042  -7.231   3.800  1.00  0.00     0.001 A 
ATOM     68  C   UNL     1     -14.651  -5.989   3.630  1.00  0.00     0.000 A 
ENDBRANCH  49  63
BRANCH  50  69
ATOM     69  C   UNL     1     -15.519 -14.888  -5.531  1.00  0.00    -0.014 A 
ATOM     70  C   UNL     1     -16.737 -15.193  -6.158  1.00  0.00     0.009 A 
ATOM     71  C   UNL     1     -14.361 -15.573  -5.931  1.00  0.00     0.009 A 
ATOM     72  C   UNL     1     -16.801 -16.183  -7.142  1.00  0.00     0.001 A 
ATOM     73  C   UNL     1     -14.423 -16.542  -6.936  1.00  0.00     0.001 A 
ATOM     74  C   UNL     1     -15.643 -16.853  -7.534  1.00  0.00     0.000 A 
ENDBRANCH  50  69
BRANCH  62  75
ATOM     75  C   UNL     1     -18.067 -14.517   0.942  1.00  0.00    -0.014 A 
ATOM     76  C   UNL     1     -17.589 -15.739   1.437  1.00  0.00     0.009 A 
ATOM     77  C   UNL     1     -19.387 -14.134   1.229  1.00  0.00     0.009 A 
ATOM     78  C   UNL     1     -18.430 -16.579   2.170  1.00  0.00     0.001 A 
ATOM     79  C   UNL     1     -20.215 -14.960   1.988  1.00  0.00     0.001 A 
ATOM     80  C   UNL     1     -19.739 -16.187   2.448  1.00  0.00     0.000 A 
ENDBRANCH  62  75
ENDBRANCH  36  37
ENDBRANCH  28  31
ENDBRANCH  26  27
ENDBRANCH  25  26
ENDBRANCH  24  25
ENDBRANCH  22  24
ENDBRANCH  19  20
ENDBRANCH  18  19
ENDBRANCH   1  18
TORSDOF 23
