REMARK SMILES O=C(COc1ccccc1[C@@H]1[NH2+]CCc2cc(O)c(O)cc21)NCCCNC(=O)c1ccc(-c2c3nc(c(-c4ccccc4)c4ccc([nH]4)c(-c4ccccc4)c4nc(c(-c5ccccc5)c5ccc2[nH]5)C=C4)C=C3)cc1
REMARK SMILES IDX 24 1 23 2 1 3 2 4 3 6 4 7 5 8 6 9 10 10 7 11 9 12 8 13 11 14
REMARK SMILES IDX 12 15 22 16 13 17 15 20 21 21 14 22 16 23 19 24 17 25 20 26
REMARK SMILES IDX 18 28 25 30 26 31 27 32 28 33 29 35 30 36 31 37 77 38 32 39
REMARK SMILES IDX 76 40 33 41 34 42 35 43 70 44 36 45 75 46 69 47 71 48 37 49
REMARK SMILES IDX 74 50 68 51 67 52 38 54 60 55 45 56 59 57 46 58 49 59 58 60
REMARK SMILES IDX 72 61 47 62 48 63 57 65 73 66 50 67 39 68 40 69 44 70 41 71
REMARK SMILES IDX 43 72 42 73 61 74 62 75 66 76 63 77 65 78 64 79 51 80 52 81
REMARK SMILES IDX 56 82 53 83 55 84 54 85
REMARK H PARENT 23 5 12 18 12 19 20 27 18 29 27 34 71 53 49 64
REMARK Flexibility Score: inf
ROOT
ATOM      1  C   UNL     1       2.551  -1.913  -1.488  1.00  0.00     0.117 C 
ENDROOT
BRANCH   1   2
ATOM      2  N   UNL     1       3.368  -1.027  -0.684  1.00  0.00    -0.353 N 
ATOM      3  O   UNL     1       2.546   0.929  -1.554  1.00  0.00    -0.271 OA
ATOM      4  C   UNL     1       3.190   0.342  -0.687  1.00  0.00     0.257 C 
ATOM      5  H   UNL     1       4.073  -1.414  -0.117  1.00  0.00     0.163 HD
BRANCH   4   6
ATOM      6  C   UNL     1       3.852   1.075   0.485  1.00  0.00     0.329 C 
BRANCH   6   7
ATOM      7  O   UNL     1       4.233   0.384   1.653  1.00  0.00    -0.483 OA
BRANCH   7   8
ATOM      8  C   UNL     1       3.453  -0.367   2.482  1.00  0.00     0.129 A 
ATOM      9  C   UNL     1       4.274  -0.873   3.515  1.00  0.00     0.047 A 
ATOM     10  C   UNL     1       2.090  -0.740   2.444  1.00  0.00     0.056 A 
ATOM     11  C   UNL     1       3.821  -1.806   4.440  1.00  0.00     0.004 A 
ATOM     12  C   UNL     1       1.681  -1.756   3.351  1.00  0.00     0.014 A 
ATOM     13  C   UNL     1       2.529  -2.281   4.330  1.00  0.00     0.001 A 
BRANCH  10  14
ATOM     14  C   UNL     1       1.030  -0.159   1.504  1.00  0.00     0.249 C 
ATOM     15  N   UNL     1       1.090   1.308   1.410  1.00  0.00    -0.336 N 
ATOM     16  C   UNL     1      -0.443  -0.528   1.704  1.00  0.00     0.021 A 
ATOM     17  C   UNL     1       0.607   1.985   2.622  1.00  0.00     0.266 C 
ATOM     18  H   UNL     1       0.516   1.606   0.621  1.00  0.00     0.347 HD
ATOM     19  H   UNL     1       2.070   1.565   1.288  1.00  0.00     0.347 HD
ATOM     20  C   UNL     1      -1.184   0.226   2.643  1.00  0.00    -0.029 A 
ATOM     21  C   UNL     1      -1.097  -1.463   0.884  1.00  0.00     0.060 A 
ATOM     22  C   UNL     1      -0.422   1.222   3.475  1.00  0.00     0.097 C 
ATOM     23  C   UNL     1      -2.565   0.063   2.746  1.00  0.00     0.054 A 
ATOM     24  C   UNL     1      -2.478  -1.591   0.977  1.00  0.00     0.157 A 
ATOM     25  C   UNL     1      -3.201  -0.826   1.892  1.00  0.00     0.157 A 
BRANCH  24  26
ATOM     26  O   UNL     1      -3.184  -2.433   0.161  1.00  0.00    -0.504 OA
ATOM     27  H   UNL     1      -4.115  -2.498   0.248  1.00  0.00     0.293 HD
ENDBRANCH  24  26
BRANCH  25  28
ATOM     28  O   UNL     1      -4.564  -0.919   1.928  1.00  0.00    -0.504 OA
ATOM     29  H   UNL     1      -5.052  -0.406   2.541  1.00  0.00     0.293 HD
ENDBRANCH  25  28
ENDBRANCH  10  14
ENDBRANCH   7   8
ENDBRANCH   6   7
ENDBRANCH   4   6
ENDBRANCH   1   2
BRANCH   1  30
ATOM     30  C   UNL     1       2.787  -1.818  -2.983  1.00  0.00     0.042 C 
BRANCH  30  31
ATOM     31  C   UNL     1       4.237  -2.018  -3.376  1.00  0.00     0.118 C 
BRANCH  31  32
ATOM     32  N   UNL     1       4.741  -3.342  -3.033  1.00  0.00    -0.352 N 
ATOM     33  C   UNL     1       5.376  -4.265  -3.832  1.00  0.00     0.251 C 
ATOM     34  H   UNL     1       4.607  -3.615  -2.097  1.00  0.00     0.163 HD
ATOM     35  O   UNL     1       5.614  -5.387  -3.420  1.00  0.00    -0.269 OA
BRANCH  33  36
ATOM     36  C   UNL     1       5.731  -3.883  -5.215  1.00  0.00     0.039 A 
ATOM     37  C   UNL     1       5.397  -4.745  -6.262  1.00  0.00     0.014 A 
ATOM     38  C   UNL     1       6.336  -2.651  -5.475  1.00  0.00     0.014 A 
ATOM     39  C   UNL     1       5.590  -4.329  -7.580  1.00  0.00     0.010 A 
ATOM     40  C   UNL     1       6.441  -2.203  -6.785  1.00  0.00     0.010 A 
ATOM     41  C   UNL     1       6.067  -3.037  -7.850  1.00  0.00    -0.014 A 
BRANCH  41  42
ATOM     42  C   UNL     1       6.189  -2.520  -9.235  1.00  0.00     0.031 A 
ATOM     43  C   UNL     1       7.538  -2.124  -9.765  1.00  0.00     0.074 A 
ATOM     44  C   UNL     1       5.082  -2.313  -9.974  1.00  0.00     0.049 A 
ATOM     45  N   UNL     1       7.841  -1.529 -10.890  1.00  0.00    -0.248 NA
ATOM     46  C   UNL     1       8.697  -2.406  -8.902  1.00  0.00     0.031 C 
ATOM     47  C   UNL     1       3.711  -2.620  -9.560  1.00  0.00     0.029 A 
ATOM     48  N   UNL     1       4.936  -1.776 -11.229  1.00  0.00    -0.354 N 
ATOM     49  C   UNL     1       9.217  -1.340 -10.855  1.00  0.00     0.074 A 
ATOM     50  C   UNL     1       9.683  -1.842  -9.581  1.00  0.00     0.031 C 
ATOM     51  C   UNL     1       2.867  -2.286 -10.550  1.00  0.00     0.029 A 
ATOM     52  C   UNL     1       3.629  -1.697 -11.646  1.00  0.00     0.049 A 
ATOM     53  H   UNL     1       5.696  -1.476 -11.778  1.00  0.00     0.167 HD
ATOM     54  C   UNL     1      10.023  -0.812 -11.805  1.00  0.00     0.031 A 
ATOM     55  C   UNL     1       3.102  -1.192 -12.777  1.00  0.00     0.031 A 
ATOM     56  C   UNL     1       9.561  -0.332 -13.079  1.00  0.00     0.049 A 
ATOM     57  C   UNL     1       4.017  -0.599 -13.812  1.00  0.00     0.074 A 
ATOM     58  C   UNL     1      10.306   0.165 -14.133  1.00  0.00     0.029 A 
ATOM     59  N   UNL     1       8.232  -0.291 -13.469  1.00  0.00    -0.354 N 
ATOM     60  N   UNL     1       5.323  -0.483 -13.790  1.00  0.00    -0.248 NA
ATOM     61  C   UNL     1       3.386  -0.072 -15.031  1.00  0.00     0.031 C 
ATOM     62  C   UNL     1       9.422   0.550 -15.146  1.00  0.00     0.029 A 
ATOM     63  C   UNL     1       8.133   0.243 -14.742  1.00  0.00     0.049 A 
ATOM     64  H   UNL     1       7.471  -0.595 -12.922  1.00  0.00     0.167 HD
ATOM     65  C   UNL     1       5.671   0.099 -15.002  1.00  0.00     0.074 A 
ATOM     66  C   UNL     1       4.441   0.305 -15.739  1.00  0.00     0.031 C 
ATOM     67  C   UNL     1       6.901   0.430 -15.464  1.00  0.00     0.031 A 
BRANCH  54  68
ATOM     68  C   UNL     1      11.490  -0.723 -11.495  1.00  0.00    -0.014 A 
ATOM     69  C   UNL     1      12.290  -1.875 -11.420  1.00  0.00     0.009 A 
ATOM     70  C   UNL     1      12.088   0.532 -11.304  1.00  0.00     0.009 A 
ATOM     71  C   UNL     1      13.650  -1.773 -11.123  1.00  0.00     0.001 A 
ATOM     72  C   UNL     1      13.454   0.633 -11.036  1.00  0.00     0.001 A 
ATOM     73  C   UNL     1      14.232  -0.520 -10.936  1.00  0.00     0.000 A 
ENDBRANCH  54  68
BRANCH  55  74
ATOM     74  C   UNL     1       1.633  -1.233 -12.998  1.00  0.00    -0.014 A 
ATOM     75  C   UNL     1       1.084  -2.100 -13.956  1.00  0.00     0.009 A 
ATOM     76  C   UNL     1       0.773  -0.407 -12.259  1.00  0.00     0.009 A 
ATOM     77  C   UNL     1      -0.293  -2.119 -14.187  1.00  0.00     0.001 A 
ATOM     78  C   UNL     1      -0.607  -0.449 -12.472  1.00  0.00     0.001 A 
ATOM     79  C   UNL     1      -1.138  -1.298 -13.442  1.00  0.00     0.000 A 
ENDBRANCH  55  74
BRANCH  67  80
ATOM     80  C   UNL     1       6.989   1.004 -16.848  1.00  0.00    -0.014 A 
ATOM     81  C   UNL     1       6.597   2.324 -17.117  1.00  0.00     0.009 A 
ATOM     82  C   UNL     1       7.537   0.230 -17.883  1.00  0.00     0.009 A 
ATOM     83  C   UNL     1       6.732   2.849 -18.404  1.00  0.00     0.001 A 
ATOM     84  C   UNL     1       7.696   0.767 -19.161  1.00  0.00     0.001 A 
ATOM     85  C   UNL     1       7.287   2.074 -19.422  1.00  0.00     0.000 A 
ENDBRANCH  67  80
ENDBRANCH  41  42
ENDBRANCH  33  36
ENDBRANCH  31  32
ENDBRANCH  30  31
ENDBRANCH   1  30
TORSDOF 15
