REMARK SMILES Cc1ccc([C@@H](C)Nc2ccc(N)cc2C(=O)NCCCNC(=O)c2ccc(-c3c4nc(c(-c5ccccc5)c5ccc([nH]5)c(-c5ccccc5)c5nc(c(-c6ccccc6)c6ccc3[nH]6)C=C5)C=C4)cc2)cc1F
REMARK SMILES IDX 19 1 18 2 16 3 17 4 15 6 9 7 10 8 11 9 14 10 12 11 8 12 6 14
REMARK SMILES IDX 7 15 5 16 1 17 2 18 3 19 74 20 4 21 73 22 75 23 13 24 20 27
REMARK SMILES IDX 21 28 22 29 23 30 24 32 25 33 26 34 72 35 27 36 71 37 28 38
REMARK SMILES IDX 29 39 30 40 65 41 31 42 70 43 64 44 66 45 32 46 69 47 63 48
REMARK SMILES IDX 62 49 33 51 55 52 40 53 54 54 41 55 44 56 53 57 67 58 42 59
REMARK SMILES IDX 43 60 52 62 68 63 45 64 34 65 35 66 39 67 36 68 38 69 37 70
REMARK SMILES IDX 56 71 57 72 61 73 58 74 60 75 59 76 46 77 47 78 51 79 48 80
REMARK SMILES IDX 50 81 49 82
REMARK H PARENT 18 5 8 13 13 25 13 26 22 31 66 50 44 61
REMARK Flexibility Score: inf
ROOT
ATOM      1  C   UNL     1      -0.841  -2.836   0.590  1.00  0.00     0.118 C 
ENDROOT
BRANCH   1   2
ATOM      2  N   UNL     1      -0.955  -3.686  -0.586  1.00  0.00    -0.352 N 
ATOM      3  C   UNL     1      -1.989  -4.498  -0.981  1.00  0.00     0.253 C 
ATOM      4  O   UNL     1      -2.011  -4.945  -2.126  1.00  0.00    -0.269 OA
ATOM      5  H   UNL     1      -0.175  -3.678  -1.186  1.00  0.00     0.163 HD
BRANCH   3   6
ATOM      6  C   UNL     1      -2.949  -4.985   0.028  1.00  0.00     0.065 A 
ATOM      7  C   UNL     1      -3.626  -4.183   0.955  1.00  0.00     0.048 A 
ATOM      8  C   UNL     1      -3.964  -4.835   2.158  1.00  0.00     0.028 A 
ATOM      9  C   UNL     1      -3.768  -6.214   2.356  1.00  0.00     0.027 A 
ATOM     10  C   UNL     1      -2.877  -6.389   0.169  1.00  0.00     0.041 A 
ATOM     11  C   UNL     1      -3.318  -7.021   1.321  1.00  0.00     0.032 A 
BRANCH   7  12
ATOM     12  N   UNL     1      -3.975  -2.848   0.839  1.00  0.00    -0.378 N 
ATOM     13  H   UNL     1      -4.290  -2.447   1.681  1.00  0.00     0.161 HD
BRANCH  12  14
ATOM     14  C   UNL     1      -3.967  -1.913  -0.294  1.00  0.00     0.106 C 
ATOM     15  C   UNL     1      -4.536  -2.465  -1.587  1.00  0.00     0.036 C 
BRANCH  14  16
ATOM     16  C   UNL     1      -2.664  -1.135  -0.323  1.00  0.00    -0.023 A 
ATOM     17  C   UNL     1       1.817   1.186   0.475  1.00  0.00     0.047 C 
ATOM     18  C   UNL     1       0.486   0.600   0.148  1.00  0.00    -0.015 A 
ATOM     19  C   UNL     1      -0.892   0.911   1.248  1.00  0.00     0.007 A 
ATOM     20  C   UNL     1       0.278  -0.562  -1.228  1.00  0.00     0.126 A 
ATOM     21  C   UNL     1      -2.454   0.028   1.043  1.00  0.00     0.006 A 
ATOM     22  C   UNL     1      -1.293  -1.416  -1.482  1.00  0.00     0.045 A 
ATOM     23  F   UNL     1       1.312  -0.817  -2.038  1.00  0.00    -0.207 F 
ENDBRANCH  14  16
ENDBRANCH  12  14
ENDBRANCH   7  12
BRANCH  11  24
ATOM     24  N   UNL     1      -3.112  -8.379   1.496  1.00  0.00    -0.399 N 
ATOM     25  H   UNL     1      -3.427  -8.823   2.316  1.00  0.00     0.156 HD
ATOM     26  H   UNL     1      -2.651  -8.901   0.799  1.00  0.00     0.156 HD
ENDBRANCH  11  24
ENDBRANCH   3   6
ENDBRANCH   1   2
BRANCH   1  27
ATOM     27  C   UNL     1      -0.760  -1.095   0.521  1.00  0.00     0.042 C 
BRANCH  27  28
ATOM     28  C   UNL     1      -1.462   0.528  -0.760  1.00  0.00     0.118 C 
BRANCH  28  29
ATOM     29  N   UNL     1      -2.617   1.618  -0.672  1.00  0.00    -0.352 N 
ATOM     30  C   UNL     1      -2.560   2.992  -0.831  1.00  0.00     0.251 C 
ATOM     31  H   UNL     1      -3.513   1.260  -0.475  1.00  0.00     0.163 HD
ATOM     32  O   UNL     1      -3.592   3.652  -0.913  1.00  0.00    -0.269 OA
BRANCH  30  33
ATOM     33  C   UNL     1      -1.252   3.691  -0.824  1.00  0.00     0.039 A 
ATOM     34  C   UNL     1      -0.987   4.608   0.196  1.00  0.00     0.014 A 
ATOM     35  C   UNL     1      -0.267   3.400  -1.766  1.00  0.00     0.014 A 
ATOM     36  C   UNL     1       0.299   5.146   0.338  1.00  0.00     0.010 A 
ATOM     37  C   UNL     1       1.038   3.842  -1.550  1.00  0.00     0.010 A 
ATOM     38  C   UNL     1       1.345   4.723  -0.497  1.00  0.00    -0.014 A 
BRANCH  38  39
ATOM     39  C   UNL     1       2.755   5.191  -0.317  1.00  0.00     0.031 A 
ATOM     40  C   UNL     1       3.471   5.843  -1.477  1.00  0.00     0.074 A 
ATOM     41  C   UNL     1       3.435   4.962   0.829  1.00  0.00     0.049 A 
ATOM     42  N   UNL     1       4.722   6.218  -1.578  1.00  0.00    -0.248 NA
ATOM     43  C   UNL     1       2.679   6.078  -2.697  1.00  0.00     0.031 C 
ATOM     44  C   UNL     1       2.902   4.328   2.037  1.00  0.00     0.029 A 
ATOM     45  N   UNL     1       4.750   5.214   1.155  1.00  0.00    -0.354 N 
ATOM     46  C   UNL     1       4.860   6.719  -2.867  1.00  0.00     0.074 A 
ATOM     47  C   UNL     1       3.602   6.504  -3.543  1.00  0.00     0.031 C 
ATOM     48  C   UNL     1       3.878   4.213   2.953  1.00  0.00     0.029 A 
ATOM     49  C   UNL     1       5.111   4.768   2.407  1.00  0.00     0.049 A 
ATOM     50  H   UNL     1       5.375   5.673   0.548  1.00  0.00     0.167 HD
ATOM     51  C   UNL     1       5.914   7.357  -3.430  1.00  0.00     0.031 A 
ATOM     52  C   UNL     1       6.295   4.803   3.050  1.00  0.00     0.031 A 
ATOM     53  C   UNL     1       7.160   7.603  -2.761  1.00  0.00     0.049 A 
ATOM     54  C   UNL     1       7.469   5.481   2.394  1.00  0.00     0.074 A 
ATOM     55  C   UNL     1       8.263   8.299  -3.222  1.00  0.00     0.029 A 
ATOM     56  N   UNL     1       7.465   7.163  -1.484  1.00  0.00    -0.354 N 
ATOM     57  N   UNL     1       7.545   6.038   1.210  1.00  0.00    -0.248 NA
ATOM     58  C   UNL     1       8.707   5.574   3.182  1.00  0.00     0.031 C 
ATOM     59  C   UNL     1       9.258   8.234  -2.241  1.00  0.00     0.029 A 
ATOM     60  C   UNL     1       8.749   7.554  -1.147  1.00  0.00     0.049 A 
ATOM     61  H   UNL     1       6.859   6.648  -0.902  1.00  0.00     0.167 HD
ATOM     62  C   UNL     1       8.818   6.590   1.133  1.00  0.00     0.074 A 
ATOM     63  C   UNL     1       9.475   6.309   2.391  1.00  0.00     0.031 C 
ATOM     64  C   UNL     1       9.387   7.278   0.113  1.00  0.00     0.031 A 
BRANCH  51  65
ATOM     65  C   UNL     1       5.739   7.860  -4.838  1.00  0.00    -0.014 A 
ATOM     66  C   UNL     1       4.838   8.901  -5.126  1.00  0.00     0.009 A 
ATOM     67  C   UNL     1       6.489   7.305  -5.885  1.00  0.00     0.009 A 
ATOM     68  C   UNL     1       4.654   9.337  -6.439  1.00  0.00     0.001 A 
ATOM     69  C   UNL     1       6.329   7.769  -7.193  1.00  0.00     0.001 A 
ATOM     70  C   UNL     1       5.403   8.774  -7.470  1.00  0.00     0.000 A 
ENDBRANCH  51  65
BRANCH  52  71
ATOM     71  C   UNL     1       6.434   4.222   4.416  1.00  0.00    -0.014 A 
ATOM     72  C   UNL     1       6.617   5.054   5.532  1.00  0.00     0.009 A 
ATOM     73  C   UNL     1       6.427   2.831   4.607  1.00  0.00     0.009 A 
ATOM     74  C   UNL     1       6.833   4.508   6.800  1.00  0.00     0.001 A 
ATOM     75  C   UNL     1       6.613   2.288   5.881  1.00  0.00     0.001 A 
ATOM     76  C   UNL     1       6.829   3.125   6.974  1.00  0.00     0.000 A 
ENDBRANCH  52  71
BRANCH  64  77
ATOM     77  C   UNL     1      10.772   7.821   0.329  1.00  0.00    -0.014 A 
ATOM     78  C   UNL     1      11.891   6.977   0.393  1.00  0.00     0.009 A 
ATOM     79  C   UNL     1      10.963   9.210   0.413  1.00  0.00     0.009 A 
ATOM     80  C   UNL     1      13.168   7.512   0.570  1.00  0.00     0.001 A 
ATOM     81  C   UNL     1      12.244   9.743   0.554  1.00  0.00     0.001 A 
ATOM     82  C   UNL     1      13.345   8.893   0.642  1.00  0.00     0.000 A 
ENDBRANCH  64  77
ENDBRANCH  38  39
ENDBRANCH  30  33
ENDBRANCH  28  29
ENDBRANCH  27  28
ENDBRANCH   1  27
TORSDOF 14
