REMARK SMILES O=C(COc1cccc(/C=C2\SC(=O)N(c3cccc(Cl)c3)C2=O)c1)NCCCNC(=O)c1ccc(-c2c3nc(c(-c4ccccc4)c4ccc([nH]4)c(-c4ccccc4)c4nc(c(-c5ccccc5)c5ccc2[nH]5)C=C4)C=C3)cc1
REMARK SMILES IDX 27 1 26 2 1 3 2 4 3 6 4 7 5 8 6 9 25 10 7 11 9 12 8 13 10 14
REMARK SMILES IDX 11 15 12 16 23 17 13 18 15 19 24 20 14 21 16 22 17 23 22 24
REMARK SMILES IDX 18 25 20 26 19 27 21 28 28 29 29 30 30 31 31 32 32 34 33 35
REMARK SMILES IDX 34 36 80 37 35 38 79 39 36 40 37 41 38 42 73 43 39 44 78 45
REMARK SMILES IDX 72 46 74 47 40 48 77 49 71 50 70 51 41 53 63 54 48 55 62 56
REMARK SMILES IDX 49 57 52 58 61 59 75 60 50 61 51 62 60 64 76 65 53 66 42 67
REMARK SMILES IDX 43 68 47 69 44 70 46 71 45 72 64 73 65 74 69 75 66 76 68 77
REMARK SMILES IDX 67 78 54 79 55 80 59 81 56 82 58 83 57 84
REMARK H PARENT 26 5 30 33 74 52 52 63
REMARK Flexibility Score: inf
ROOT
ATOM      1  C   UNL     1       2.198   1.907   1.522  1.00  0.00     0.117 C 
ENDROOT
BRANCH   1   2
ATOM      2  N   UNL     1       2.860   0.872   0.753  1.00  0.00    -0.353 N 
ATOM      3  O   UNL     1       1.077  -0.574   0.718  1.00  0.00    -0.271 OA
ATOM      4  C   UNL     1       2.186  -0.248   0.306  1.00  0.00     0.257 C 
ATOM      5  H   UNL     1       3.817   0.971   0.542  1.00  0.00     0.163 HD
BRANCH   4   6
ATOM      6  C   UNL     1       2.926  -1.043  -0.781  1.00  0.00     0.329 C 
BRANCH   6   7
ATOM      7  O   UNL     1       3.826  -0.319  -1.619  1.00  0.00    -0.484 OA
BRANCH   7   8
ATOM      8  C   UNL     1       3.225   0.380  -2.633  1.00  0.00     0.120 A 
ATOM      9  C   UNL     1       3.702   0.195  -3.928  1.00  0.00     0.046 A 
ATOM     10  C   UNL     1       2.263   1.359  -2.401  1.00  0.00     0.054 A 
ATOM     11  C   UNL     1       3.193   0.966  -4.980  1.00  0.00     0.004 A 
ATOM     12  C   UNL     1       1.787   2.173  -3.434  1.00  0.00    -0.021 A 
ATOM     13  C   UNL     1       2.238   1.958  -4.735  1.00  0.00     0.008 A 
BRANCH  12  14
ATOM     14  C   UNL     1       0.837   3.237  -3.092  1.00  0.00     0.029 C 
ATOM     15  C   UNL     1       1.125   4.280  -2.297  1.00  0.00     0.083 C 
ATOM     16  S   UNL     1       2.656   4.721  -1.658  1.00  0.00    -0.022 SA
ATOM     17  C   UNL     1       0.077   5.224  -1.823  1.00  0.00     0.272 C 
ATOM     18  C   UNL     1       2.000   6.103  -0.798  1.00  0.00     0.298 C 
ATOM     19  N   UNL     1       0.639   6.192  -1.003  1.00  0.00    -0.236 N 
ATOM     20  O   UNL     1      -1.093   5.117  -2.169  1.00  0.00    -0.268 OA
ATOM     21  O   UNL     1       2.714   6.793  -0.089  1.00  0.00    -0.260 OA
BRANCH  19  22
ATOM     22  C   UNL     1      -0.145   7.223  -0.405  1.00  0.00     0.054 A 
ATOM     23  C   UNL     1      -1.453   6.968   0.039  1.00  0.00     0.027 A 
ATOM     24  C   UNL     1       0.365   8.523  -0.264  1.00  0.00     0.047 A 
ATOM     25  C   UNL     1      -2.233   7.982   0.602  1.00  0.00     0.004 A 
ATOM     26  C   UNL     1      -0.432   9.540   0.265  1.00  0.00     0.043 A 
ATOM     27  C   UNL     1      -1.726   9.275   0.702  1.00  0.00     0.020 A 
ATOM     28  Cl  UNL     1       0.180  11.147   0.345  1.00  0.00    -0.084 Cl
ENDBRANCH  19  22
ENDBRANCH  12  14
ENDBRANCH   7   8
ENDBRANCH   6   7
ENDBRANCH   4   6
ENDBRANCH   1   2
BRANCH   1  29
ATOM     29  C   UNL     1       2.497   1.845   3.010  1.00  0.00     0.042 C 
BRANCH  29  30
ATOM     30  C   UNL     1       3.966   2.042   3.359  1.00  0.00     0.118 C 
BRANCH  30  31
ATOM     31  N   UNL     1       4.483   3.352   2.987  1.00  0.00    -0.352 N 
ATOM     32  C   UNL     1       5.185   4.275   3.724  1.00  0.00     0.251 C 
ATOM     33  H   UNL     1       4.300   3.619   2.058  1.00  0.00     0.163 HD
ATOM     34  O   UNL     1       5.443   5.369   3.231  1.00  0.00    -0.269 OA
BRANCH  32  35
ATOM     35  C   UNL     1       5.612   3.985   5.111  1.00  0.00     0.039 A 
ATOM     36  C   UNL     1       5.520   5.007   6.061  1.00  0.00     0.014 A 
ATOM     37  C   UNL     1       6.127   2.740   5.479  1.00  0.00     0.014 A 
ATOM     38  C   UNL     1       5.885   4.763   7.386  1.00  0.00     0.010 A 
ATOM     39  C   UNL     1       6.413   2.473   6.817  1.00  0.00     0.010 A 
ATOM     40  C   UNL     1       6.301   3.482   7.784  1.00  0.00    -0.014 A 
BRANCH  40  41
ATOM     41  C   UNL     1       6.617   3.191   9.206  1.00  0.00     0.031 A 
ATOM     42  C   UNL     1       8.009   2.793   9.615  1.00  0.00     0.074 A 
ATOM     43  C   UNL     1       5.637   3.243  10.129  1.00  0.00     0.049 A 
ATOM     44  N   UNL     1       8.465   2.489  10.805  1.00  0.00    -0.248 NA
ATOM     45  C   UNL     1       9.017   2.701   8.546  1.00  0.00     0.031 C 
ATOM     46  C   UNL     1       4.235   3.573   9.860  1.00  0.00     0.029 A 
ATOM     47  N   UNL     1       5.671   3.020  11.483  1.00  0.00    -0.354 N 
ATOM     48  C   UNL     1       9.803   2.159  10.625  1.00  0.00     0.074 A 
ATOM     49  C   UNL     1      10.072   2.247   9.207  1.00  0.00     0.031 C 
ATOM     50  C   UNL     1       3.553   3.566  11.017  1.00  0.00     0.029 A 
ATOM     51  C   UNL     1       4.456   3.195  12.101  1.00  0.00     0.049 A 
ATOM     52  H   UNL     1       6.488   2.760  11.966  1.00  0.00     0.167 HD
ATOM     53  C   UNL     1      10.730   1.833  11.557  1.00  0.00     0.031 A 
ATOM     54  C   UNL     1       4.106   3.071  13.395  1.00  0.00     0.031 A 
ATOM     55  C   UNL     1      10.468   1.752  12.970  1.00  0.00     0.049 A 
ATOM     56  C   UNL     1       5.152   2.698  14.407  1.00  0.00     0.074 A 
ATOM     57  C   UNL     1      11.355   1.483  13.997  1.00  0.00     0.029 A 
ATOM     58  N   UNL     1       9.224   1.937  13.553  1.00  0.00    -0.354 N 
ATOM     59  N   UNL     1       6.428   2.460  14.229  1.00  0.00    -0.248 NA
ATOM     60  C   UNL     1       4.708   2.591  15.805  1.00  0.00     0.031 C 
ATOM     61  C   UNL     1      10.638   1.453  15.198  1.00  0.00     0.029 A 
ATOM     62  C   UNL     1       9.316   1.763  14.925  1.00  0.00     0.049 A 
ATOM     63  H   UNL     1       8.398   2.159  13.066  1.00  0.00     0.167 HD
ATOM     64  C   UNL     1       6.946   2.205  15.492  1.00  0.00     0.074 A 
ATOM     65  C   UNL     1       5.848   2.335  16.429  1.00  0.00     0.031 C 
ATOM     66  C   UNL     1       8.216   1.891  15.845  1.00  0.00     0.031 A 
BRANCH  53  67
ATOM     67  C   UNL     1      12.122   1.531  11.072  1.00  0.00    -0.014 A 
ATOM     68  C   UNL     1      12.948   2.542  10.555  1.00  0.00     0.009 A 
ATOM     69  C   UNL     1      12.628   0.225  11.167  1.00  0.00     0.009 A 
ATOM     70  C   UNL     1      14.237   2.244  10.107  1.00  0.00     0.001 A 
ATOM     71  C   UNL     1      13.928  -0.064  10.748  1.00  0.00     0.001 A 
ATOM     72  C   UNL     1      14.728   0.943  10.209  1.00  0.00     0.000 A 
ENDBRANCH  53  67
BRANCH  54  73
ATOM     73  C   UNL     1       2.702   3.323  13.814  1.00  0.00    -0.014 A 
ATOM     74  C   UNL     1       2.380   4.456  14.578  1.00  0.00     0.009 A 
ATOM     75  C   UNL     1       1.679   2.429  13.462  1.00  0.00     0.009 A 
ATOM     76  C   UNL     1       1.068   4.672  15.005  1.00  0.00     0.001 A 
ATOM     77  C   UNL     1       0.363   2.664  13.865  1.00  0.00     0.001 A 
ATOM     78  C   UNL     1       0.060   3.779  14.645  1.00  0.00     0.000 A 
ENDBRANCH  54  73
BRANCH  66  79
ATOM     79  C   UNL     1       8.494   1.703  17.311  1.00  0.00    -0.014 A 
ATOM     80  C   UNL     1       8.018   0.582  18.008  1.00  0.00     0.009 A 
ATOM     81  C   UNL     1       9.270   2.651  17.997  1.00  0.00     0.009 A 
ATOM     82  C   UNL     1       8.279   0.435  19.372  1.00  0.00     0.001 A 
ATOM     83  C   UNL     1       9.555   2.486  19.352  1.00  0.00     0.001 A 
ATOM     84  C   UNL     1       9.050   1.385  20.041  1.00  0.00     0.000 A 
ENDBRANCH  66  79
ENDBRANCH  40  41
ENDBRANCH  32  35
ENDBRANCH  30  31
ENDBRANCH  29  30
ENDBRANCH   1  29
TORSDOF 14
