REMARK SMILES COc1ccc(-c2cc(F)cc(C(=O)NCCCNC(=O)c3ccc(-c4c5nc(c(-c6ccccc6)c6ccc([nH]6)c(-c6ccccc6)c6nc(c(-c7ccccc7)c7ccc4[nH]7)C=C6)C=C5)cc3)c2)cc1C
REMARK SMILES IDX 17 1 16 2 15 3 13 4 14 5 12 7 7 8 8 9 70 10 9 11 10 12 11 13
REMARK SMILES IDX 6 14 3 15 4 16 72 17 5 18 71 19 73 20 2 21 1 22 18 23 19 24
REMARK SMILES IDX 20 25 21 27 22 28 23 29 69 30 24 31 68 32 25 33 26 34 27 35
REMARK SMILES IDX 62 36 28 37 67 38 61 39 63 40 29 41 66 42 60 43 59 44 30 46
REMARK SMILES IDX 52 47 37 48 51 49 38 50 41 51 50 52 64 53 39 54 40 55 49 57
REMARK SMILES IDX 65 58 42 59 31 60 32 61 36 62 33 63 35 64 34 65 53 66 54 67
REMARK SMILES IDX 58 68 55 69 57 70 56 71 43 72 44 73 48 74 45 75 47 76 46 77
REMARK H PARENT 15 6 19 26 63 45 41 56
REMARK Flexibility Score: inf
ROOT
ATOM      1  C   UNL     1       1.234  10.880   5.182  1.00  0.00     0.042 C 
ENDROOT
BRANCH   1   2
ATOM      2  C   UNL     1       1.618   9.783   6.178  1.00  0.00     0.118 C 
BRANCH   2   3
ATOM      3  N   UNL     1       0.663   8.685   6.182  1.00  0.00    -0.352 N 
ATOM      4  C   UNL     1       0.455   7.603   5.359  1.00  0.00     0.251 C 
ATOM      5  O   UNL     1      -0.425   6.814   5.710  1.00  0.00    -0.269 OA
ATOM      6  H   UNL     1       0.030   8.725   6.936  1.00  0.00     0.163 HD
BRANCH   4   7
ATOM      7  C   UNL     1       1.196   7.325   4.085  1.00  0.00     0.043 A 
ATOM      8  C   UNL     1       1.536   5.753   2.213  1.00  0.00    -0.015 A 
ATOM      9  C   UNL     1       2.426   6.665   1.635  1.00  0.00     0.048 A 
ATOM     10  C   UNL     1       0.920   6.102   3.431  1.00  0.00     0.022 A 
ATOM     11  C   UNL     1       2.700   7.862   2.269  1.00  0.00     0.124 A 
ATOM     12  F   UNL     1       3.551   8.729   1.706  1.00  0.00    -0.207 F 
ATOM     13  C   UNL     1       2.106   8.188   3.481  1.00  0.00     0.053 A 
BRANCH   8  14
ATOM     14  C   UNL     1       1.278   4.476   1.535  1.00  0.00    -0.018 A 
ATOM     15  C   UNL     1       0.874   2.130   0.039  1.00  0.00     0.121 A 
ATOM     16  C   UNL     1      -0.207   2.951   0.367  1.00  0.00     0.047 A 
ATOM     17  C   UNL     1       2.171   2.467   0.436  1.00  0.00    -0.008 A 
ATOM     18  C   UNL     1      -0.009   4.112   1.118  1.00  0.00     0.012 A 
ATOM     19  C   UNL     1       2.351   3.626   1.206  1.00  0.00     0.016 A 
ATOM     20  C   UNL     1       3.369   1.642   0.068  1.00  0.00     0.048 C 
BRANCH  15  21
ATOM     21  O   UNL     1       0.612   1.060  -0.774  1.00  0.00    -0.496 OA
ATOM     22  C   UNL     1       0.682  -0.173  -0.060  1.00  0.00     0.278 C 
ENDBRANCH  15  21
ENDBRANCH   8  14
ENDBRANCH   4   7
ENDBRANCH   2   3
ENDBRANCH   1   2
BRANCH   1  23
ATOM     23  C   UNL     1       0.505  12.055   5.813  1.00  0.00     0.118 C 
BRANCH  23  24
ATOM     24  N   UNL     1       1.352  13.229   6.013  1.00  0.00    -0.352 N 
ATOM     25  C   UNL     1       1.059  14.405   6.681  1.00  0.00     0.251 C 
ATOM     26  H   UNL     1       2.253  13.176   5.620  1.00  0.00     0.163 HD
ATOM     27  O   UNL     1       1.883  15.303   6.757  1.00  0.00    -0.269 OA
BRANCH  25  28
ATOM     28  C   UNL     1      -0.223  14.498   7.416  1.00  0.00     0.039 A 
ATOM     29  C   UNL     1      -0.158  14.800   8.779  1.00  0.00     0.014 A 
ATOM     30  C   UNL     1      -1.405  14.036   6.841  1.00  0.00     0.014 A 
ATOM     31  C   UNL     1      -1.192  14.385   9.609  1.00  0.00     0.010 A 
ATOM     32  C   UNL     1      -2.392  13.544   7.672  1.00  0.00     0.010 A 
ATOM     33  C   UNL     1      -2.240  13.646   9.059  1.00  0.00    -0.014 A 
BRANCH  33  34
ATOM     34  C   UNL     1      -3.115  12.816   9.877  1.00  0.00     0.031 A 
ATOM     35  C   UNL     1      -4.491  13.242  10.178  1.00  0.00     0.074 A 
ATOM     36  C   UNL     1      -2.650  11.646  10.367  1.00  0.00     0.049 A 
ATOM     37  N   UNL     1      -5.152  12.872  11.223  1.00  0.00    -0.248 NA
ATOM     38  C   UNL     1      -5.204  14.208   9.352  1.00  0.00     0.031 C 
ATOM     39  C   UNL     1      -3.407  10.582  11.017  1.00  0.00     0.029 A 
ATOM     40  N   UNL     1      -1.315  11.303  10.579  1.00  0.00    -0.354 N 
ATOM     41  C   UNL     1      -6.450  13.293  11.056  1.00  0.00     0.074 A 
ATOM     42  C   UNL     1      -6.398  14.221   9.950  1.00  0.00     0.031 C 
ATOM     43  C   UNL     1      -2.566   9.846  11.761  1.00  0.00     0.029 A 
ATOM     44  C   UNL     1      -1.266  10.499  11.729  1.00  0.00     0.049 A 
ATOM     45  H   UNL     1      -0.547  11.574  10.024  1.00  0.00     0.167 HD
ATOM     46  C   UNL     1      -7.442  12.690  11.771  1.00  0.00     0.031 A 
ATOM     47  C   UNL     1      -0.569  10.899  12.831  1.00  0.00     0.031 A 
ATOM     48  C   UNL     1      -6.903  11.805  12.807  1.00  0.00     0.049 A 
ATOM     49  C   UNL     1      -1.427  11.104  14.062  1.00  0.00     0.074 A 
ATOM     50  C   UNL     1      -6.782  10.429  12.917  1.00  0.00     0.029 A 
ATOM     51  N   UNL     1      -6.121  12.348  13.822  1.00  0.00    -0.354 N 
ATOM     52  N   UNL     1      -2.729  11.176  14.050  1.00  0.00    -0.248 NA
ATOM     53  C   UNL     1      -0.871  11.310  15.399  1.00  0.00     0.031 C 
ATOM     54  C   UNL     1      -5.848  10.152  13.952  1.00  0.00     0.029 A 
ATOM     55  C   UNL     1      -5.431  11.355  14.492  1.00  0.00     0.049 A 
ATOM     56  H   UNL     1      -6.067  13.307  14.034  1.00  0.00     0.167 HD
ATOM     57  C   UNL     1      -3.183  11.477  15.307  1.00  0.00     0.074 A 
ATOM     58  C   UNL     1      -1.984  11.515  16.124  1.00  0.00     0.031 C 
ATOM     59  C   UNL     1      -4.505  11.704  15.564  1.00  0.00     0.031 A 
BRANCH  46  60
ATOM     60  C   UNL     1      -8.897  12.683  11.342  1.00  0.00    -0.014 A 
ATOM     61  C   UNL     1      -9.761  11.685  11.834  1.00  0.00     0.009 A 
ATOM     62  C   UNL     1      -9.463  13.555  10.396  1.00  0.00     0.009 A 
ATOM     63  C   UNL     1     -11.068  11.521  11.348  1.00  0.00     0.001 A 
ATOM     64  C   UNL     1     -10.760  13.388   9.889  1.00  0.00     0.001 A 
ATOM     65  C   UNL     1     -11.560  12.360  10.357  1.00  0.00     0.000 A 
ENDBRANCH  46  60
BRANCH  47  66
ATOM     66  C   UNL     1       0.652  11.694  12.520  1.00  0.00    -0.014 A 
ATOM     67  C   UNL     1       1.716  11.058  11.850  1.00  0.00     0.009 A 
ATOM     68  C   UNL     1       0.638  13.094  12.575  1.00  0.00     0.009 A 
ATOM     69  C   UNL     1       2.681  11.804  11.166  1.00  0.00     0.001 A 
ATOM     70  C   UNL     1       1.613  13.838  11.896  1.00  0.00     0.001 A 
ATOM     71  C   UNL     1       2.612  13.194  11.167  1.00  0.00     0.000 A 
ENDBRANCH  47  66
BRANCH  59  72
ATOM     72  C   UNL     1      -5.071  12.241  16.857  1.00  0.00    -0.014 A 
ATOM     73  C   UNL     1      -4.350  13.013  17.778  1.00  0.00     0.009 A 
ATOM     74  C   UNL     1      -6.451  12.076  17.114  1.00  0.00     0.009 A 
ATOM     75  C   UNL     1      -4.962  13.547  18.922  1.00  0.00     0.001 A 
ATOM     76  C   UNL     1      -7.074  12.646  18.228  1.00  0.00     0.001 A 
ATOM     77  C   UNL     1      -6.324  13.371  19.141  1.00  0.00     0.000 A 
ENDBRANCH  59  72
ENDBRANCH  33  34
ENDBRANCH  25  28
ENDBRANCH  23  24
ENDBRANCH   1  23
TORSDOF 12
