REMARK SMILES O=C(Cn1c(-c2nc(-c3ccc(C(F)(F)F)cc3)no2)cc2ccccc21)NCCCNC(=O)c1ccc(-c2c3nc(c(-c4ccccc4)c4ccc([nH]4)c(-c4ccccc4)c4nc(c(-c5ccccc5)c5ccc2[nH]5)C=C4)C=C3)cc1
REMARK SMILES IDX 29 1 28 2 1 3 2 4 3 6 4 7 5 8 27 9 21 10 22 11 26 12 23 13
REMARK SMILES IDX 25 14 24 15 6 16 7 17 20 18 8 19 19 20 9 21 10 22 18 23
REMARK SMILES IDX 11 24 17 25 12 26 13 27 14 28 15 29 16 30 30 31 31 32 32 33
REMARK SMILES IDX 33 34 34 36 35 37 36 38 82 39 37 40 81 41 38 42 39 43 40 44
REMARK SMILES IDX 75 45 41 46 80 47 74 48 76 49 42 50 79 51 73 52 72 53 43 55
REMARK SMILES IDX 65 56 50 57 64 58 51 59 54 60 63 61 77 62 52 63 53 64 62 66
REMARK SMILES IDX 78 67 55 68 44 69 45 70 49 71 46 72 48 73 47 74 66 75 67 76
REMARK SMILES IDX 71 77 68 78 70 79 69 80 56 81 57 82 61 83 58 84 60 85 59 86
REMARK H PARENT 28 5 32 35 76 54 54 65
REMARK Flexibility Score: inf
ROOT
ATOM      1  C   UNL     1       2.312   1.343   2.253  1.00  0.00     0.117 C 
ENDROOT
BRANCH   1   2
ATOM      2  N   UNL     1       2.904   0.584   1.167  1.00  0.00    -0.354 N 
ATOM      3  O   UNL     1       0.917  -0.201   0.317  1.00  0.00    -0.273 OA
ATOM      4  C   UNL     1       2.133  -0.045   0.210  1.00  0.00     0.239 C 
ATOM      5  H   UNL     1       3.884   0.516   1.112  1.00  0.00     0.163 HD
BRANCH   4   6
ATOM      6  C   UNL     1       2.909  -0.617  -0.949  1.00  0.00     0.222 C 
BRANCH   6   7
ATOM      7  N   UNL     1       3.578   0.318  -1.861  1.00  0.00    -0.327 N 
ATOM      8  C   UNL     1       3.440   1.685  -2.005  1.00  0.00     0.109 A 
ATOM      9  C   UNL     1       4.585  -0.133  -2.726  1.00  0.00     0.049 A 
ATOM     10  C   UNL     1       4.321   2.090  -2.992  1.00  0.00     0.042 A 
ATOM     11  C   UNL     1       5.063   0.974  -3.428  1.00  0.00     0.000 A 
ATOM     12  C   UNL     1       5.130  -1.414  -2.937  1.00  0.00     0.027 A 
ATOM     13  C   UNL     1       6.122   0.818  -4.343  1.00  0.00     0.010 A 
ATOM     14  C   UNL     1       6.184  -1.547  -3.850  1.00  0.00     0.002 A 
ATOM     15  C   UNL     1       6.678  -0.447  -4.542  1.00  0.00     0.001 A 
BRANCH   8  16
ATOM     16  C   UNL     1       2.710   2.611  -1.194  1.00  0.00     0.274 A 
ATOM     17  N   UNL     1       1.405   2.713  -1.038  1.00  0.00    -0.185 NA
ATOM     18  O   UNL     1       3.393   3.583  -0.515  1.00  0.00    -0.332 OA
ATOM     19  C   UNL     1       1.283   3.825  -0.216  1.00  0.00     0.202 A 
ATOM     20  N   UNL     1       2.463   4.369   0.124  1.00  0.00    -0.057 NA
BRANCH  19  21
ATOM     21  C   UNL     1       0.027   4.385   0.288  1.00  0.00     0.023 A 
ATOM     22  C   UNL     1       0.075   5.487   1.163  1.00  0.00     0.013 A 
ATOM     23  C   UNL     1      -1.226   3.872  -0.060  1.00  0.00     0.013 A 
ATOM     24  C   UNL     1      -1.087   6.059   1.682  1.00  0.00     0.014 A 
ATOM     25  C   UNL     1      -2.400   4.449   0.460  1.00  0.00     0.014 A 
ATOM     26  C   UNL     1      -2.341   5.546   1.337  1.00  0.00     0.056 A 
BRANCH  26  27
ATOM     27  C   UNL     1      -3.578   6.179   1.929  1.00  0.00     0.416 C 
ATOM     28  F   UNL     1      -3.626   6.048   3.285  1.00  0.00    -0.166 F 
ATOM     29  F   UNL     1      -3.644   7.519   1.686  1.00  0.00    -0.166 F 
ATOM     30  F   UNL     1      -4.744   5.656   1.460  1.00  0.00    -0.166 F 
ENDBRANCH  26  27
ENDBRANCH  19  21
ENDBRANCH   8  16
ENDBRANCH   6   7
ENDBRANCH   4   6
ENDBRANCH   1   2
BRANCH   1  31
ATOM     31  C   UNL     1       2.894   1.011   3.621  1.00  0.00     0.042 C 
BRANCH  31  32
ATOM     32  C   UNL     1       4.416   1.117   3.709  1.00  0.00     0.118 C 
BRANCH  32  33
ATOM     33  N   UNL     1       4.973   2.377   3.260  1.00  0.00    -0.352 N 
ATOM     34  C   UNL     1       5.364   3.524   3.891  1.00  0.00     0.251 C 
ATOM     35  H   UNL     1       5.096   2.416   2.284  1.00  0.00     0.163 HD
ATOM     36  O   UNL     1       6.092   4.280   3.243  1.00  0.00    -0.269 OA
BRANCH  34  37
ATOM     37  C   UNL     1       4.893   3.962   5.230  1.00  0.00     0.039 A 
ATOM     38  C   UNL     1       4.082   3.220   6.090  1.00  0.00     0.014 A 
ATOM     39  C   UNL     1       5.210   5.290   5.574  1.00  0.00     0.014 A 
ATOM     40  C   UNL     1       3.483   3.829   7.185  1.00  0.00     0.010 A 
ATOM     41  C   UNL     1       4.629   5.899   6.674  1.00  0.00     0.010 A 
ATOM     42  C   UNL     1       3.712   5.182   7.435  1.00  0.00    -0.014 A 
BRANCH  42  43
ATOM     43  C   UNL     1       3.037   5.799   8.569  1.00  0.00     0.031 A 
ATOM     44  C   UNL     1       3.471   5.295   9.902  1.00  0.00     0.074 A 
ATOM     45  C   UNL     1       2.195   6.842   8.418  1.00  0.00     0.049 A 
ATOM     46  N   UNL     1       2.749   4.798  10.852  1.00  0.00    -0.248 NA
ATOM     47  C   UNL     1       4.921   5.249  10.164  1.00  0.00     0.031 C 
ATOM     48  C   UNL     1       1.924   7.604   7.195  1.00  0.00     0.029 A 
ATOM     49  N   UNL     1       1.500   7.531   9.365  1.00  0.00    -0.354 N 
ATOM     50  C   UNL     1       3.628   4.526  11.900  1.00  0.00     0.074 A 
ATOM     51  C   UNL     1       4.957   4.687  11.370  1.00  0.00     0.031 C 
ATOM     52  C   UNL     1       1.345   8.782   7.523  1.00  0.00     0.029 A 
ATOM     53  C   UNL     1       1.077   8.789   8.950  1.00  0.00     0.049 A 
ATOM     54  H   UNL     1       1.314   7.171  10.262  1.00  0.00     0.167 HD
ATOM     55  C   UNL     1       3.203   4.402  13.187  1.00  0.00     0.031 A 
ATOM     56  C   UNL     1       0.624   9.793   9.742  1.00  0.00     0.031 A 
ATOM     57  C   UNL     1       1.799   4.101  13.259  1.00  0.00     0.049 A 
ATOM     58  C   UNL     1       0.231   9.200  11.040  1.00  0.00     0.074 A 
ATOM     59  C   UNL     1       1.012   3.056  12.821  1.00  0.00     0.029 A 
ATOM     60  N   UNL     1       0.936   5.133  13.536  1.00  0.00    -0.354 N 
ATOM     61  N   UNL     1      -0.775   8.390  11.192  1.00  0.00    -0.248 NA
ATOM     62  C   UNL     1       1.228   9.170  12.098  1.00  0.00     0.031 C 
ATOM     63  C   UNL     1      -0.201   3.667  12.392  1.00  0.00     0.029 A 
ATOM     64  C   UNL     1      -0.113   5.035  12.660  1.00  0.00     0.049 A 
ATOM     65  H   UNL     1       1.050   5.817  14.235  1.00  0.00     0.167 HD
ATOM     66  C   UNL     1      -0.332   7.450  12.110  1.00  0.00     0.074 A 
ATOM     67  C   UNL     1       0.867   8.037  12.705  1.00  0.00     0.031 C 
ATOM     68  C   UNL     1      -0.810   6.171  12.098  1.00  0.00     0.031 A 
BRANCH  55  69
ATOM     69  C   UNL     1       3.981   4.939  14.367  1.00  0.00    -0.014 A 
ATOM     70  C   UNL     1       5.104   5.779  14.241  1.00  0.00     0.009 A 
ATOM     71  C   UNL     1       3.423   4.833  15.655  1.00  0.00     0.009 A 
ATOM     72  C   UNL     1       5.624   6.500  15.319  1.00  0.00     0.001 A 
ATOM     73  C   UNL     1       3.914   5.587  16.730  1.00  0.00     0.001 A 
ATOM     74  C   UNL     1       5.009   6.427  16.559  1.00  0.00     0.000 A 
ENDBRANCH  55  69
BRANCH  56  75
ATOM     75  C   UNL     1       0.876  11.246   9.604  1.00  0.00    -0.014 A 
ATOM     76  C   UNL     1       2.062  11.702   8.999  1.00  0.00     0.009 A 
ATOM     77  C   UNL     1       0.113  12.177  10.328  1.00  0.00     0.009 A 
ATOM     78  C   UNL     1       2.495  13.023   9.151  1.00  0.00     0.001 A 
ATOM     79  C   UNL     1       0.549  13.501  10.482  1.00  0.00     0.001 A 
ATOM     80  C   UNL     1       1.747  13.918   9.908  1.00  0.00     0.000 A 
ENDBRANCH  56  75
BRANCH  68  81
ATOM     81  C   UNL     1      -1.990   5.848  11.209  1.00  0.00    -0.014 A 
ATOM     82  C   UNL     1      -3.076   5.163  11.776  1.00  0.00     0.009 A 
ATOM     83  C   UNL     1      -1.968   6.014   9.812  1.00  0.00     0.009 A 
ATOM     84  C   UNL     1      -4.095   4.641  10.977  1.00  0.00     0.001 A 
ATOM     85  C   UNL     1      -3.003   5.514   9.013  1.00  0.00     0.001 A 
ATOM     86  C   UNL     1      -4.059   4.816   9.595  1.00  0.00     0.000 A 
ENDBRANCH  68  81
ENDBRANCH  42  43
ENDBRANCH  34  37
ENDBRANCH  32  33
ENDBRANCH  31  32
ENDBRANCH   1  31
TORSDOF 14
