REMARK SMILES COc1ccc(COc2cncc(C(=O)NCCCNC(=O)c3ccc(-c4c5nc(c(-c6ccccc6)c6ccc([nH]6)c(-c6ccccc6)c6nc(c(-c7ccccc7)c7ccc4[nH]7)C=C6)C=C5)cc3)n2)cc1
REMARK SMILES IDX 17 1 16 2 14 3 15 4 13 6 9 7 10 8 71 9 11 10 12 11 8 12 7 13
REMARK SMILES IDX 6 14 3 15 4 16 73 17 5 18 72 19 2 20 1 21 18 22 19 23 20 24
REMARK SMILES IDX 21 25 22 27 23 28 24 29 70 30 25 31 69 32 26 33 27 34 28 35
REMARK SMILES IDX 63 36 29 37 68 38 62 39 64 40 30 41 67 42 61 43 60 44 31 46
REMARK SMILES IDX 53 47 38 48 52 49 39 50 42 51 51 52 65 53 40 54 41 55 50 57
REMARK SMILES IDX 66 58 43 59 32 60 33 61 37 62 34 63 36 64 35 65 54 66 55 67
REMARK SMILES IDX 59 68 56 69 58 70 57 71 44 72 45 73 49 74 46 75 48 76 47 77
REMARK H PARENT 16 5 20 26 64 45 42 56
REMARK Flexibility Score: inf
ROOT
ATOM      1  C   UNL     1       3.177  -1.290 -11.020  1.00  0.00     0.118 C 
ENDROOT
BRANCH   1   2
ATOM      2  N   UNL     1       3.963  -2.465 -10.682  1.00  0.00    -0.351 N 
ATOM      3  C   UNL     1       4.246  -3.053  -9.471  1.00  0.00     0.271 C 
ATOM      4  O   UNL     1       4.987  -4.037  -9.476  1.00  0.00    -0.267 OA
ATOM      5  H   UNL     1       4.365  -2.921 -11.457  1.00  0.00     0.163 HD
BRANCH   3   6
ATOM      6  C   UNL     1       3.666  -2.585  -8.182  1.00  0.00     0.150 A 
ATOM      7  C   UNL     1       2.376  -1.139  -6.960  1.00  0.00     0.233 A 
ATOM      8  C   UNL     1       2.433  -2.013  -5.879  1.00  0.00     0.179 A 
ATOM      9  N   UNL     1       2.996  -1.405  -8.127  1.00  0.00    -0.205 NA
ATOM     10  N   UNL     1       3.159  -3.156  -5.897  1.00  0.00    -0.257 NA
ATOM     11  C   UNL     1       3.765  -3.426  -7.079  1.00  0.00     0.145 A 
BRANCH   7  12
ATOM     12  O   UNL     1       1.551  -0.047  -6.985  1.00  0.00    -0.472 OA
BRANCH  12  13
ATOM     13  C   UNL     1       2.010   1.012  -6.135  1.00  0.00     0.267 C 
BRANCH  13  14
ATOM     14  C   UNL     1       1.539   0.800  -4.716  1.00  0.00    -0.010 A 
ATOM     15  C   UNL     1       0.709   0.072  -2.135  1.00  0.00     0.118 A 
ATOM     16  C   UNL     1      -0.213   0.132  -3.180  1.00  0.00     0.047 A 
ATOM     17  C   UNL     1       2.043   0.404  -2.373  1.00  0.00     0.047 A 
ATOM     18  C   UNL     1       0.191   0.513  -4.459  1.00  0.00     0.011 A 
ATOM     19  C   UNL     1       2.456   0.774  -3.657  1.00  0.00     0.011 A 
BRANCH  15  20
ATOM     20  O   UNL     1       0.208  -0.382  -0.948  1.00  0.00    -0.497 OA
ATOM     21  C   UNL     1       0.876   0.081   0.219  1.00  0.00     0.278 C 
ENDBRANCH  15  20
ENDBRANCH  13  14
ENDBRANCH  12  13
ENDBRANCH   7  12
ENDBRANCH   3   6
ENDBRANCH   1   2
BRANCH   1  22
ATOM     22  C   UNL     1       4.073  -0.083 -11.281  1.00  0.00     0.042 C 
BRANCH  22  23
ATOM     23  C   UNL     1       4.924  -0.227 -12.543  1.00  0.00     0.118 C 
BRANCH  23  24
ATOM     24  N   UNL     1       4.112  -0.305 -13.754  1.00  0.00    -0.352 N 
ATOM     25  C   UNL     1       4.120   0.477 -14.876  1.00  0.00     0.251 C 
ATOM     26  H   UNL     1       3.454  -1.037 -13.765  1.00  0.00     0.163 HD
ATOM     27  O   UNL     1       3.211   0.367 -15.701  1.00  0.00    -0.269 OA
BRANCH  25  28
ATOM     28  C   UNL     1       5.197   1.459 -15.107  1.00  0.00     0.039 A 
ATOM     29  C   UNL     1       4.864   2.716 -15.622  1.00  0.00     0.014 A 
ATOM     30  C   UNL     1       6.535   1.134 -14.863  1.00  0.00     0.014 A 
ATOM     31  C   UNL     1       5.864   3.665 -15.838  1.00  0.00     0.010 A 
ATOM     32  C   UNL     1       7.522   2.104 -15.016  1.00  0.00     0.010 A 
ATOM     33  C   UNL     1       7.198   3.377 -15.507  1.00  0.00    -0.014 A 
BRANCH  33  34
ATOM     34  C   UNL     1       8.268   4.392 -15.672  1.00  0.00     0.031 A 
ATOM     35  C   UNL     1       9.377   4.166 -16.663  1.00  0.00     0.074 A 
ATOM     36  C   UNL     1       8.271   5.490 -14.892  1.00  0.00     0.049 A 
ATOM     37  N   UNL     1      10.442   4.894 -16.889  1.00  0.00    -0.248 NA
ATOM     38  C   UNL     1       9.288   2.956 -17.496  1.00  0.00     0.031 C 
ATOM     39  C   UNL     1       7.265   5.817 -13.879  1.00  0.00     0.029 A 
ATOM     40  N   UNL     1       9.158   6.535 -14.827  1.00  0.00    -0.354 N 
ATOM     41  C   UNL     1      11.152   4.225 -17.878  1.00  0.00     0.074 A 
ATOM     42  C   UNL     1      10.424   3.012 -18.177  1.00  0.00     0.031 C 
ATOM     43  C   UNL     1       7.580   6.992 -13.310  1.00  0.00     0.029 A 
ATOM     44  C   UNL     1       8.828   7.480 -13.886  1.00  0.00     0.049 A 
ATOM     45  H   UNL     1       9.956   6.602 -15.400  1.00  0.00     0.167 HD
ATOM     46  C   UNL     1      12.297   4.598 -18.498  1.00  0.00     0.031 A 
ATOM     47  C   UNL     1       9.466   8.608 -13.520  1.00  0.00     0.031 A 
ATOM     48  C   UNL     1      13.020   5.808 -18.210  1.00  0.00     0.049 A 
ATOM     49  C   UNL     1      10.753   8.979 -14.203  1.00  0.00     0.074 A 
ATOM     50  C   UNL     1      14.178   6.282 -18.802  1.00  0.00     0.029 A 
ATOM     51  N   UNL     1      12.648   6.738 -17.253  1.00  0.00    -0.354 N 
ATOM     52  N   UNL     1      11.389   8.354 -15.163  1.00  0.00    -0.248 NA
ATOM     53  C   UNL     1      11.403  10.219 -13.756  1.00  0.00     0.031 C 
ATOM     54  C   UNL     1      14.526   7.484 -18.179  1.00  0.00     0.029 A 
ATOM     55  C   UNL     1      13.559   7.780 -17.232  1.00  0.00     0.049 A 
ATOM     56  H   UNL     1      11.855   6.668 -16.675  1.00  0.00     0.167 HD
ATOM     57  C   UNL     1      12.495   9.141 -15.457  1.00  0.00     0.074 A 
ATOM     58  C   UNL     1      12.435  10.295 -14.585  1.00  0.00     0.031 C 
ATOM     59  C   UNL     1      13.475   8.927 -16.368  1.00  0.00     0.031 A 
BRANCH  46  60
ATOM     60  C   UNL     1      12.838   3.685 -19.562  1.00  0.00    -0.014 A 
ATOM     61  C   UNL     1      12.206   3.580 -20.811  1.00  0.00     0.009 A 
ATOM     62  C   UNL     1      14.021   2.963 -19.336  1.00  0.00     0.009 A 
ATOM     63  C   UNL     1      12.731   2.750 -21.802  1.00  0.00     0.001 A 
ATOM     64  C   UNL     1      14.558   2.154 -20.338  1.00  0.00     0.001 A 
ATOM     65  C   UNL     1      13.910   2.043 -21.568  1.00  0.00     0.000 A 
ENDBRANCH  46  60
BRANCH  47  66
ATOM     66  C   UNL     1       8.903   9.480 -12.457  1.00  0.00    -0.014 A 
ATOM     67  C   UNL     1       8.391  10.748 -12.775  1.00  0.00     0.009 A 
ATOM     68  C   UNL     1       8.911   9.069 -11.115  1.00  0.00     0.009 A 
ATOM     69  C   UNL     1       7.935  11.601 -11.767  1.00  0.00     0.001 A 
ATOM     70  C   UNL     1       8.427   9.912 -10.113  1.00  0.00     0.001 A 
ATOM     71  C   UNL     1       7.952  11.181 -10.438  1.00  0.00     0.000 A 
ENDBRANCH  47  66
BRANCH  59  72
ATOM     72  C   UNL     1      14.530   9.987 -16.502  1.00  0.00    -0.014 A 
ATOM     73  C   UNL     1      15.521  10.157 -15.523  1.00  0.00     0.009 A 
ATOM     74  C   UNL     1      14.549  10.805 -17.643  1.00  0.00     0.009 A 
ATOM     75  C   UNL     1      16.492  11.150 -15.671  1.00  0.00     0.001 A 
ATOM     76  C   UNL     1      15.537  11.777 -17.800  1.00  0.00     0.001 A 
ATOM     77  C   UNL     1      16.501  11.955 -16.809  1.00  0.00     0.000 A 
ENDBRANCH  59  72
ENDBRANCH  33  34
ENDBRANCH  25  28
ENDBRANCH  23  24
ENDBRANCH  22  23
ENDBRANCH   1  22
TORSDOF 14
