REMARK SMILES Cc1cc(OCCc2nc(CC(=O)NCCCNC(=O)c3ccc(-c4c5nc(c(-c6ccccc6)c6ccc([nH]6)c(-c6ccccc6)c6nc(c(-c7ccccc7)c7ccc4[nH]7)C=C6)C=C5)cc3)cs2)ccc1Cl
REMARK SMILES IDX 12 1 13 2 14 3 11 5 10 6 8 7 9 8 70 9 69 10 7 11 6 12 5 13
REMARK SMILES IDX 4 14 1 15 2 16 3 17 73 18 72 19 74 20 71 21 15 22 16 23
REMARK SMILES IDX 17 24 18 25 19 26 20 28 21 29 22 30 68 31 23 32 67 33 24 34
REMARK SMILES IDX 25 35 26 36 61 37 27 38 66 39 60 40 62 41 28 42 65 43 59 44
REMARK SMILES IDX 58 45 29 47 51 48 36 49 50 50 37 51 40 52 49 53 63 54 38 55
REMARK SMILES IDX 39 56 48 58 64 59 41 60 30 61 31 62 35 63 32 64 34 65 33 66
REMARK SMILES IDX 52 67 53 68 57 69 54 70 56 71 55 72 42 73 43 74 47 75 44 76
REMARK SMILES IDX 46 77 45 78
REMARK H PARENT 14 4 18 27 62 46 40 57
REMARK Flexibility Score: inf
ROOT
ATOM      1  C   UNL     1       2.005   1.951   0.135  1.00  0.00     0.226 C 
ATOM      2  O   UNL     1       2.617   3.012   0.359  1.00  0.00    -0.275 OA
ATOM      3  N   UNL     1       1.973   1.624  -1.204  1.00  0.00    -0.356 N 
ATOM      4  H   UNL     1       2.029   2.434  -1.762  1.00  0.00     0.163 HD
ENDROOT
BRANCH   1   5
ATOM      5  C   UNL     1       1.350   1.241   1.357  1.00  0.00     0.157 C 
BRANCH   5   6
ATOM      6  C   UNL     1       0.081   1.942   1.887  1.00  0.00     0.061 A 
ATOM      7  C   UNL     1      -2.139   2.051   2.386  1.00  0.00     0.096 A 
ATOM      8  N   UNL     1      -1.138   1.242   2.055  1.00  0.00    -0.246 NA
ATOM      9  S   UNL     1      -1.640   3.684   2.651  1.00  0.00    -0.127 S 
ATOM     10  C   UNL     1      -0.018   3.268   2.269  1.00  0.00     0.091 A 
BRANCH   7  11
ATOM     11  C   UNL     1      -3.598   1.659   2.665  1.00  0.00     0.109 C 
BRANCH  11  12
ATOM     12  C   UNL     1      -4.629   1.888   1.529  1.00  0.00     0.237 C 
BRANCH  12  13
ATOM     13  O   UNL     1      -5.149   0.673   0.911  1.00  0.00    -0.493 OA
BRANCH  13  14
ATOM     14  C   UNL     1      -4.172   0.042   0.192  1.00  0.00     0.119 A 
ATOM     15  C   UNL     1      -1.228   1.718  -1.015  1.00  0.00     0.046 C 
ATOM     16  C   UNL     1      -2.044   0.490  -0.725  1.00  0.00    -0.029 A 
ATOM     17  C   UNL     1      -3.391   0.789  -0.666  1.00  0.00     0.051 A 
ATOM     18  C   UNL     1      -1.631  -0.793  -0.299  1.00  0.00     0.044 A 
ATOM     19  C   UNL     1      -2.547  -1.687   0.261  1.00  0.00     0.024 A 
ATOM     20  Cl  UNL     1      -0.038  -1.418  -0.311  1.00  0.00    -0.084 Cl
ATOM     21  C   UNL     1      -3.824  -1.249   0.556  1.00  0.00     0.048 A 
ENDBRANCH  13  14
ENDBRANCH  12  13
ENDBRANCH  11  12
ENDBRANCH   7  11
ENDBRANCH   5   6
ENDBRANCH   1   5
BRANCH   3  22
ATOM     22  C   UNL     1       1.880   0.412  -2.049  1.00  0.00     0.117 C 
BRANCH  22  23
ATOM     23  C   UNL     1       0.704   0.207  -3.062  1.00  0.00     0.042 C 
BRANCH  23  24
ATOM     24  C   UNL     1       0.614   1.079  -4.337  1.00  0.00     0.118 C 
BRANCH  24  25
ATOM     25  N   UNL     1       0.097   0.269  -5.459  1.00  0.00    -0.352 N 
ATOM     26  C   UNL     1      -0.959   0.354  -6.319  1.00  0.00     0.251 C 
ATOM     27  H   UNL     1       0.650  -0.528  -5.628  1.00  0.00     0.163 HD
ATOM     28  O   UNL     1      -1.234  -0.678  -6.976  1.00  0.00    -0.269 OA
BRANCH  26  29
ATOM     29  C   UNL     1      -1.777   1.562  -6.575  1.00  0.00     0.039 A 
ATOM     30  C   UNL     1      -3.088   1.396  -7.061  1.00  0.00     0.014 A 
ATOM     31  C   UNL     1      -1.248   2.852  -6.516  1.00  0.00     0.014 A 
ATOM     32  C   UNL     1      -3.860   2.495  -7.464  1.00  0.00     0.010 A 
ATOM     33  C   UNL     1      -2.038   3.958  -6.878  1.00  0.00     0.010 A 
ATOM     34  C   UNL     1      -3.347   3.795  -7.365  1.00  0.00    -0.014 A 
BRANCH  34  35
ATOM     35  C   UNL     1      -4.157   4.981  -7.774  1.00  0.00     0.031 A 
ATOM     36  C   UNL     1      -3.730   5.847  -8.933  1.00  0.00     0.074 A 
ATOM     37  C   UNL     1      -5.260   5.321  -7.074  1.00  0.00     0.049 A 
ATOM     38  N   UNL     1      -4.254   6.967  -9.371  1.00  0.00    -0.248 NA
ATOM     39  C   UNL     1      -2.546   5.406  -9.686  1.00  0.00     0.031 C 
ATOM     40  C   UNL     1      -5.791   4.588  -5.924  1.00  0.00     0.029 A 
ATOM     41  N   UNL     1      -6.127   6.378  -7.222  1.00  0.00    -0.354 N 
ATOM     42  C   UNL     1      -3.448   7.379 -10.427  1.00  0.00     0.074 A 
ATOM     43  C   UNL     1      -2.383   6.406 -10.546  1.00  0.00     0.031 C 
ATOM     44  C   UNL     1      -6.896   5.208  -5.479  1.00  0.00     0.029 A 
ATOM     45  C   UNL     1      -7.132   6.402  -6.285  1.00  0.00     0.049 A 
ATOM     46  H   UNL     1      -6.036   7.053  -7.933  1.00  0.00     0.167 HD
ATOM     47  C   UNL     1      -3.583   8.461 -11.234  1.00  0.00     0.031 A 
ATOM     48  C   UNL     1      -8.125   7.290  -6.082  1.00  0.00     0.031 A 
ATOM     49  C   UNL     1      -4.652   9.421 -11.141  1.00  0.00     0.049 A 
ATOM     50  C   UNL     1      -8.249   8.487  -6.983  1.00  0.00     0.074 A 
ATOM     51  C   UNL     1      -4.903  10.515 -11.954  1.00  0.00     0.029 A 
ATOM     52  N   UNL     1      -5.649   9.403 -10.179  1.00  0.00    -0.354 N 
ATOM     53  N   UNL     1      -7.502   8.834  -8.002  1.00  0.00    -0.248 NA
ATOM     54  C   UNL     1      -9.358   9.412  -6.706  1.00  0.00     0.031 C 
ATOM     55  C   UNL     1      -6.027  11.184 -11.456  1.00  0.00     0.029 A 
ATOM     56  C   UNL     1      -6.503  10.479 -10.363  1.00  0.00     0.049 A 
ATOM     57  H   UNL     1      -5.738   8.726  -9.470  1.00  0.00     0.167 HD
ATOM     58  C   UNL     1      -8.061  10.003  -8.500  1.00  0.00     0.074 A 
ATOM     59  C   UNL     1      -9.220  10.298  -7.684  1.00  0.00     0.031 C 
ATOM     60  C   UNL     1      -7.648  10.766  -9.541  1.00  0.00     0.031 A 
BRANCH  47  61
ATOM     61  C   UNL     1      -2.535   8.675 -12.292  1.00  0.00    -0.014 A 
ATOM     62  C   UNL     1      -2.462   7.848 -13.424  1.00  0.00     0.009 A 
ATOM     63  C   UNL     1      -1.635   9.748 -12.177  1.00  0.00     0.009 A 
ATOM     64  C   UNL     1      -1.486   8.068 -14.400  1.00  0.00     0.001 A 
ATOM     65  C   UNL     1      -0.679   9.981 -13.167  1.00  0.00     0.001 A 
ATOM     66  C   UNL     1      -0.598   9.136 -14.273  1.00  0.00     0.000 A 
ENDBRANCH  47  61
BRANCH  48  67
ATOM     67  C   UNL     1      -9.093   7.081  -4.973  1.00  0.00    -0.014 A 
ATOM     68  C   UNL     1     -10.417   6.705  -5.246  1.00  0.00     0.009 A 
ATOM     69  C   UNL     1      -8.700   7.261  -3.638  1.00  0.00     0.009 A 
ATOM     70  C   UNL     1     -11.333   6.534  -4.206  1.00  0.00     0.001 A 
ATOM     71  C   UNL     1      -9.611   7.063  -2.598  1.00  0.00     0.001 A 
ATOM     72  C   UNL     1     -10.929   6.708  -2.883  1.00  0.00     0.000 A 
ENDBRANCH  48  67
BRANCH  60  73
ATOM     73  C   UNL     1      -8.468  11.982  -9.868  1.00  0.00    -0.014 A 
ATOM     74  C   UNL     1      -8.423  13.127  -9.058  1.00  0.00     0.009 A 
ATOM     75  C   UNL     1      -9.270  11.993 -11.020  1.00  0.00     0.009 A 
ATOM     76  C   UNL     1      -9.189  14.249  -9.379  1.00  0.00     0.001 A 
ATOM     77  C   UNL     1     -10.016  13.126 -11.352  1.00  0.00     0.001 A 
ATOM     78  C   UNL     1      -9.981  14.249 -10.527  1.00  0.00     0.000 A 
ENDBRANCH  60  73
ENDBRANCH  34  35
ENDBRANCH  26  29
ENDBRANCH  24  25
ENDBRANCH  23  24
ENDBRANCH  22  23
ENDBRANCH   3  22
TORSDOF 15
