REMARK SMILES C[C@H]1[C@H](C(=O)NCCCNC(=O)c2ccc(-c3c4nc(c(-c5ccccc5)c5ccc([nH]5)c(-c5ccccc5)c5nc(c(-c6ccccc6)c6ccc3[nH]6)C=C5)C=C4)cc2)CCN1C(=O)[C@H]1CC=CCC1
REMARK SMILES IDX 8 1 7 2 6 3 4 4 5 5 3 7 1 8 2 9 63 10 61 11 62 12 64 13
REMARK SMILES IDX 65 14 66 15 67 16 71 17 68 18 70 19 69 20 9 21 10 22 11 23
REMARK SMILES IDX 12 25 13 26 14 27 60 28 15 29 59 30 16 31 17 32 18 33 53 34
REMARK SMILES IDX 19 35 58 36 52 37 54 38 20 39 57 40 51 41 50 42 21 44 43 45
REMARK SMILES IDX 28 46 42 47 29 48 32 49 41 50 55 51 30 52 31 53 40 55 56 56
REMARK SMILES IDX 33 57 22 58 23 59 27 60 24 61 26 62 25 63 44 64 45 65 49 66
REMARK SMILES IDX 46 67 48 68 47 69 34 70 35 71 39 72 36 73 38 74 37 75
REMARK H PARENT 6 6 10 24 54 43 32 54
REMARK Flexibility Score: inf
ROOT
ATOM      1  C   UNL     1      -0.705   0.089   4.102  1.00  0.00     0.042 C 
ENDROOT
BRANCH   1   2
ATOM      2  C   UNL     1      -1.410   0.686   2.890  1.00  0.00     0.117 C 
BRANCH   2   3
ATOM      3  N   UNL     1      -0.713   1.844   2.355  1.00  0.00    -0.356 N 
ATOM      4  C   UNL     1      -0.271   2.173   1.119  1.00  0.00     0.225 C 
ATOM      5  O   UNL     1       0.291   3.271   1.022  1.00  0.00    -0.275 OA
ATOM      6  H   UNL     1      -0.522   2.532   3.033  1.00  0.00     0.163 HD
BRANCH   4   7
ATOM      7  C   UNL     1      -0.368   1.285  -0.109  1.00  0.00     0.102 C 
ATOM      8  C   UNL     1       1.435   0.256  -1.490  1.00  0.00     0.032 C 
ATOM      9  C   UNL     1       0.714   0.193  -0.138  1.00  0.00     0.094 C 
ATOM     10  N   UNL     1      -0.019  -1.058   0.032  1.00  0.00    -0.339 N 
ATOM     11  C   UNL     1      -1.700   0.591  -0.377  1.00  0.00     0.037 C 
ATOM     12  C   UNL     1      -1.383  -0.896  -0.455  1.00  0.00     0.120 C 
BRANCH  10  13
ATOM     13  C   UNL     1       0.374  -2.293   0.496  1.00  0.00     0.226 C 
ATOM     14  O   UNL     1      -0.453  -3.219   0.495  1.00  0.00    -0.275 OA
BRANCH  13  15
ATOM     15  C   UNL     1       1.765  -2.612   1.075  1.00  0.00     0.083 C 
ATOM     16  C   UNL     1       2.967  -2.470   0.143  1.00  0.00     0.040 C 
ATOM     17  C   UNL     1       2.012  -2.122   2.505  1.00  0.00     0.018 C 
ATOM     18  C   UNL     1       3.896  -1.337   0.460  1.00  0.00    -0.030 C 
ATOM     19  C   UNL     1       2.795  -0.817   2.641  1.00  0.00     0.028 C 
ATOM     20  C   UNL     1       3.820  -0.600   1.575  1.00  0.00    -0.031 C 
ENDBRANCH  13  15
ENDBRANCH  10  13
ENDBRANCH   4   7
ENDBRANCH   2   3
ENDBRANCH   1   2
BRANCH   1  21
ATOM     21  C   UNL     1      -0.554   1.014   5.302  1.00  0.00     0.118 C 
BRANCH  21  22
ATOM     22  N   UNL     1      -1.750   1.073   6.122  1.00  0.00    -0.352 N 
ATOM     23  C   UNL     1      -1.993   0.574   7.378  1.00  0.00     0.251 C 
ATOM     24  H   UNL     1      -2.509   1.546   5.711  1.00  0.00     0.163 HD
ATOM     25  O   UNL     1      -3.146   0.587   7.811  1.00  0.00    -0.269 OA
BRANCH  23  26
ATOM     26  C   UNL     1      -0.912   0.002   8.219  1.00  0.00     0.039 A 
ATOM     27  C   UNL     1      -1.202  -1.122   8.999  1.00  0.00     0.014 A 
ATOM     28  C   UNL     1       0.354   0.588   8.311  1.00  0.00     0.014 A 
ATOM     29  C   UNL     1      -0.222  -1.679   9.828  1.00  0.00     0.010 A 
ATOM     30  C   UNL     1       1.357  -0.015   9.075  1.00  0.00     0.010 A 
ATOM     31  C   UNL     1       1.076  -1.145   9.856  1.00  0.00    -0.014 A 
BRANCH  31  32
ATOM     32  C   UNL     1       2.129  -1.743  10.721  1.00  0.00     0.031 A 
ATOM     33  C   UNL     1       2.719  -0.959  11.864  1.00  0.00     0.074 A 
ATOM     34  C   UNL     1       2.584  -2.985  10.466  1.00  0.00     0.049 A 
ATOM     35  N   UNL     1       3.653  -1.312  12.713  1.00  0.00    -0.248 NA
ATOM     36  C   UNL     1       2.211   0.407  12.067  1.00  0.00     0.031 C 
ATOM     37  C   UNL     1       2.136  -3.845   9.369  1.00  0.00     0.029 A 
ATOM     38  N   UNL     1       3.528  -3.742  11.116  1.00  0.00    -0.354 N 
ATOM     39  C   UNL     1       3.854  -0.210  13.535  1.00  0.00     0.074 A 
ATOM     40  C   UNL     1       2.980   0.839  13.056  1.00  0.00     0.031 C 
ATOM     41  C   UNL     1       2.782  -5.020   9.440  1.00  0.00     0.029 A 
ATOM     42  C   UNL     1       3.710  -4.987  10.567  1.00  0.00     0.049 A 
ATOM     43  H   UNL     1       4.027  -3.421  11.902  1.00  0.00     0.167 HD
ATOM     44  C   UNL     1       4.675  -0.082  14.606  1.00  0.00     0.031 A 
ATOM     45  C   UNL     1       4.527  -5.994  10.928  1.00  0.00     0.031 A 
ATOM     46  C   UNL     1       5.534  -1.122  15.105  1.00  0.00     0.049 A 
ATOM     47  C   UNL     1       5.418  -5.836  12.128  1.00  0.00     0.074 A 
ATOM     48  C   UNL     1       6.361  -1.100  16.216  1.00  0.00     0.029 A 
ATOM     49  N   UNL     1       5.676  -2.373  14.526  1.00  0.00    -0.354 N 
ATOM     50  N   UNL     1       5.550  -4.806  12.927  1.00  0.00    -0.248 NA
ATOM     51  C   UNL     1       6.261  -6.987  12.481  1.00  0.00     0.031 C 
ATOM     52  C   UNL     1       7.030  -2.326  16.288  1.00  0.00     0.029 A 
ATOM     53  C   UNL     1       6.588  -3.126  15.248  1.00  0.00     0.049 A 
ATOM     54  H   UNL     1       5.199  -2.681  13.722  1.00  0.00     0.167 HD
ATOM     55  C   UNL     1       6.476  -5.191  13.888  1.00  0.00     0.074 A 
ATOM     56  C   UNL     1       6.858  -6.554  13.583  1.00  0.00     0.031 C 
ATOM     57  C   UNL     1       6.966  -4.477  14.930  1.00  0.00     0.031 A 
BRANCH  44  58
ATOM     58  C   UNL     1       4.679   1.244  15.314  1.00  0.00    -0.014 A 
ATOM     59  C   UNL     1       3.590   1.647  16.103  1.00  0.00     0.009 A 
ATOM     60  C   UNL     1       5.796   2.088  15.213  1.00  0.00     0.009 A 
ATOM     61  C   UNL     1       3.604   2.886  16.747  1.00  0.00     0.001 A 
ATOM     62  C   UNL     1       5.818   3.315  15.880  1.00  0.00     0.001 A 
ATOM     63  C   UNL     1       4.719   3.717  16.638  1.00  0.00     0.000 A 
ENDBRANCH  44  58
BRANCH  45  64
ATOM     64  C   UNL     1       4.527  -7.260  10.153  1.00  0.00    -0.014 A 
ATOM     65  C   UNL     1       3.936  -8.418  10.682  1.00  0.00     0.009 A 
ATOM     66  C   UNL     1       5.116  -7.317   8.880  1.00  0.00     0.009 A 
ATOM     67  C   UNL     1       3.955  -9.613   9.961  1.00  0.00     0.001 A 
ATOM     68  C   UNL     1       5.111  -8.508   8.152  1.00  0.00     0.001 A 
ATOM     69  C   UNL     1       4.538  -9.657   8.696  1.00  0.00     0.000 A 
ENDBRANCH  45  64
BRANCH  57  70
ATOM     70  C   UNL     1       7.954  -5.166  15.827  1.00  0.00    -0.014 A 
ATOM     71  C   UNL     1       9.275  -5.394  15.411  1.00  0.00     0.009 A 
ATOM     72  C   UNL     1       7.565  -5.569  17.114  1.00  0.00     0.009 A 
ATOM     73  C   UNL     1      10.178  -6.042  16.256  1.00  0.00     0.001 A 
ATOM     74  C   UNL     1       8.477  -6.195  17.965  1.00  0.00     0.001 A 
ATOM     75  C   UNL     1       9.780  -6.439  17.532  1.00  0.00     0.000 A 
ENDBRANCH  57  70
ENDBRANCH  31  32
ENDBRANCH  23  26
ENDBRANCH  21  22
ENDBRANCH   1  21
TORSDOF 12
