REMARK SMILES Cc1nc(C(=O)NCCCNC(=O)c2ccc(-c3c4nc(c(-c5ccccc5)c5ccc([nH]5)c(-c5ccccc5)c5nc(c(-c6ccccc6)c6ccc3[nH]6)C=C5)C=C4)cc2)nn1-c1cccc(C(F)(F)F)c1
REMARK SMILES IDX 9 1 8 2 7 3 5 4 6 5 4 7 1 8 2 9 3 10 63 11 62 12 64 13 65 14
REMARK SMILES IDX 73 15 66 16 68 17 67 18 69 19 70 20 71 21 72 22 10 23 11 24
REMARK SMILES IDX 12 25 13 27 14 28 15 29 61 30 16 31 60 32 17 33 18 34 19 35
REMARK SMILES IDX 54 36 20 37 59 38 53 39 55 40 21 41 58 42 52 43 51 44 22 46
REMARK SMILES IDX 44 47 29 48 43 49 30 50 33 51 42 52 56 53 31 54 32 55 41 57
REMARK SMILES IDX 57 58 34 59 23 60 24 61 28 62 25 63 27 64 26 65 45 66 46 67
REMARK SMILES IDX 50 68 47 69 49 70 48 71 35 72 36 73 40 74 37 75 39 76 38 77
REMARK H PARENT 7 6 11 26 55 45 33 56
REMARK Flexibility Score: inf
ROOT
ATOM      1  C   UNL     1      -2.023   2.455   6.038  1.00  0.00     0.042 C 
ENDROOT
BRANCH   1   2
ATOM      2  C   UNL     1      -0.712   1.671   6.162  1.00  0.00     0.118 C 
BRANCH   2   3
ATOM      3  N   UNL     1      -0.897   0.229   6.033  1.00  0.00    -0.349 N 
ATOM      4  C   UNL     1      -0.663  -0.633   4.973  1.00  0.00     0.290 C 
ATOM      5  O   UNL     1      -0.964  -1.817   5.148  1.00  0.00    -0.266 OA
ATOM      6  H   UNL     1      -1.250  -0.208   6.841  1.00  0.00     0.163 HD
BRANCH   4   7
ATOM      7  C   UNL     1      -0.113  -0.136   3.692  1.00  0.00     0.239 A 
ATOM      8  C   UNL     1       0.764  -0.377   0.233  1.00  0.00     0.090 C 
ATOM      9  C   UNL     1       0.341  -0.032   1.610  1.00  0.00     0.130 A 
ATOM     10  N   UNL     1      -0.138  -0.865   2.515  1.00  0.00    -0.207 NA
ATOM     11  N   UNL     1       0.548   1.194   2.205  1.00  0.00    -0.217 N 
ATOM     12  N   UNL     1       0.476   1.059   3.540  1.00  0.00    -0.140 NA
BRANCH  11  13
ATOM     13  C   UNL     1       0.660   2.491   1.658  1.00  0.00     0.067 A 
ATOM     14  C   UNL     1       1.401   3.458   2.351  1.00  0.00     0.028 A 
ATOM     15  C   UNL     1      -0.082   2.849   0.527  1.00  0.00     0.041 A 
ATOM     16  C   UNL     1       1.446   4.769   1.881  1.00  0.00     0.003 A 
ATOM     17  C   UNL     1      -0.083   4.182   0.082  1.00  0.00     0.058 A 
ATOM     18  C   UNL     1       0.708   5.129   0.754  1.00  0.00     0.013 A 
BRANCH  17  19
ATOM     19  C   UNL     1      -0.953   4.615  -1.074  1.00  0.00     0.416 C 
ATOM     20  F   UNL     1      -1.774   5.651  -0.748  1.00  0.00    -0.166 F 
ATOM     21  F   UNL     1      -0.225   5.030  -2.145  1.00  0.00    -0.166 F 
ATOM     22  F   UNL     1      -1.768   3.625  -1.534  1.00  0.00    -0.166 F 
ENDBRANCH  17  19
ENDBRANCH  11  13
ENDBRANCH   4   7
ENDBRANCH   2   3
ENDBRANCH   1   2
BRANCH   1  23
ATOM     23  C   UNL     1      -2.808   2.435   7.340  1.00  0.00     0.118 C 
BRANCH  23  24
ATOM     24  N   UNL     1      -2.160   3.203   8.408  1.00  0.00    -0.352 N 
ATOM     25  C   UNL     1      -2.603   3.447   9.695  1.00  0.00     0.251 C 
ATOM     26  H   UNL     1      -1.289   3.600   8.176  1.00  0.00     0.163 HD
ATOM     27  O   UNL     1      -2.119   4.347  10.363  1.00  0.00    -0.269 OA
BRANCH  25  28
ATOM     28  C   UNL     1      -3.680   2.605  10.248  1.00  0.00     0.039 A 
ATOM     29  C   UNL     1      -4.683   3.149  11.055  1.00  0.00     0.014 A 
ATOM     30  C   UNL     1      -3.690   1.252   9.925  1.00  0.00     0.014 A 
ATOM     31  C   UNL     1      -5.739   2.333  11.452  1.00  0.00     0.010 A 
ATOM     32  C   UNL     1      -4.808   0.498  10.166  1.00  0.00     0.010 A 
ATOM     33  C   UNL     1      -5.809   1.012  10.977  1.00  0.00    -0.014 A 
BRANCH  33  34
ATOM     34  C   UNL     1      -7.001   0.200  11.191  1.00  0.00     0.031 A 
ATOM     35  C   UNL     1      -8.254   0.853  10.735  1.00  0.00     0.074 A 
ATOM     36  C   UNL     1      -6.966  -1.103  11.550  1.00  0.00     0.049 A 
ATOM     37  N   UNL     1      -9.210   1.304  11.476  1.00  0.00    -0.248 NA
ATOM     38  C   UNL     1      -8.393   1.193   9.308  1.00  0.00     0.031 C 
ATOM     39  C   UNL     1      -5.791  -1.966  11.720  1.00  0.00     0.029 A 
ATOM     40  N   UNL     1      -7.996  -1.976  11.720  1.00  0.00    -0.354 N 
ATOM     41  C   UNL     1     -10.181   1.770  10.597  1.00  0.00     0.074 A 
ATOM     42  C   UNL     1      -9.542   1.872   9.309  1.00  0.00     0.031 C 
ATOM     43  C   UNL     1      -6.174  -3.262  11.716  1.00  0.00     0.029 A 
ATOM     44  C   UNL     1      -7.624  -3.318  11.715  1.00  0.00     0.049 A 
ATOM     45  H   UNL     1      -8.929  -1.683  11.836  1.00  0.00     0.167 HD
ATOM     46  C   UNL     1     -11.499   1.738  10.939  1.00  0.00     0.031 A 
ATOM     47  C   UNL     1      -8.447  -4.396  11.683  1.00  0.00     0.031 A 
ATOM     48  C   UNL     1     -11.670   1.539  12.359  1.00  0.00     0.049 A 
ATOM     49  C   UNL     1      -9.786  -3.940  12.121  1.00  0.00     0.074 A 
ATOM     50  C   UNL     1     -11.226   2.191  13.494  1.00  0.00     0.029 A 
ATOM     51  N   UNL     1     -12.045   0.282  12.772  1.00  0.00    -0.354 N 
ATOM     52  N   UNL     1     -10.048  -3.561  13.338  1.00  0.00    -0.248 NA
ATOM     53  C   UNL     1     -10.709  -3.466  11.103  1.00  0.00     0.031 C 
ATOM     54  C   UNL     1     -10.892   1.147  14.407  1.00  0.00     0.029 A 
ATOM     55  C   UNL     1     -11.239  -0.071  13.821  1.00  0.00     0.049 A 
ATOM     56  H   UNL     1     -12.764  -0.267  12.383  1.00  0.00     0.167 HD
ATOM     57  C   UNL     1     -10.854  -2.443  13.183  1.00  0.00     0.074 A 
ATOM     58  C   UNL     1     -11.314  -2.496  11.795  1.00  0.00     0.031 C 
ATOM     59  C   UNL     1     -10.830  -1.429  14.098  1.00  0.00     0.031 A 
BRANCH  46  60
ATOM     60  C   UNL     1     -12.596   1.397   9.955  1.00  0.00    -0.014 A 
ATOM     61  C   UNL     1     -13.923   1.361  10.422  1.00  0.00     0.009 A 
ATOM     62  C   UNL     1     -12.357   0.819   8.694  1.00  0.00     0.009 A 
ATOM     63  C   UNL     1     -14.926   0.690   9.713  1.00  0.00     0.001 A 
ATOM     64  C   UNL     1     -13.366   0.188   7.963  1.00  0.00     0.001 A 
ATOM     65  C   UNL     1     -14.644   0.093   8.489  1.00  0.00     0.000 A 
ENDBRANCH  46  60
BRANCH  47  66
ATOM     66  C   UNL     1      -8.239  -5.735  11.086  1.00  0.00    -0.014 A 
ATOM     67  C   UNL     1      -9.099  -6.802  11.400  1.00  0.00     0.009 A 
ATOM     68  C   UNL     1      -7.372  -5.900   9.992  1.00  0.00     0.009 A 
ATOM     69  C   UNL     1      -9.126  -7.965  10.618  1.00  0.00     0.001 A 
ATOM     70  C   UNL     1      -7.395  -7.064   9.213  1.00  0.00     0.001 A 
ATOM     71  C   UNL     1      -8.285  -8.089   9.515  1.00  0.00     0.000 A 
ENDBRANCH  47  66
BRANCH  59  72
ATOM     72  C   UNL     1     -10.113  -1.661  15.406  1.00  0.00    -0.014 A 
ATOM     73  C   UNL     1      -8.746  -1.978  15.500  1.00  0.00     0.009 A 
ATOM     74  C   UNL     1     -10.816  -1.399  16.592  1.00  0.00     0.009 A 
ATOM     75  C   UNL     1      -8.114  -2.059  16.747  1.00  0.00     0.001 A 
ATOM     76  C   UNL     1     -10.180  -1.457  17.833  1.00  0.00     0.001 A 
ATOM     77  C   UNL     1      -8.831  -1.794  17.912  1.00  0.00     0.000 A 
ENDBRANCH  59  72
ENDBRANCH  33  34
ENDBRANCH  25  28
ENDBRANCH  23  24
ENDBRANCH   1  23
TORSDOF 12
