REMARK SMILES CS(=O)(=O)c1ccc(/C=C(/C(=O)NCCCNC(=O)c2ccc(-c3c4nc(c(-c5ccccc5)c5ccc([nH]5)c(-c5ccccc5)c5nc(c(-c6ccccc6)c6ccc3[nH]6)C=C5)C=C4)cc2)c2ccccc2)cc1
REMARK SMILES IDX 15 1 14 2 13 3 11 4 12 5 10 7 9 8 8 9 5 10 6 11 75 12 7 13
REMARK SMILES IDX 74 14 2 15 1 16 3 17 4 18 68 19 69 20 73 21 70 22 72 23
REMARK SMILES IDX 71 24 16 25 17 26 18 27 19 29 20 30 21 31 67 32 22 33 66 34
REMARK SMILES IDX 23 35 24 36 25 37 60 38 26 39 65 40 59 41 61 42 27 43 64 44
REMARK SMILES IDX 58 45 57 46 28 48 50 49 35 50 49 51 36 52 39 53 48 54 62 55
REMARK SMILES IDX 37 56 38 57 47 59 63 60 40 61 29 62 30 63 34 64 31 65 33 66
REMARK SMILES IDX 32 67 51 68 52 69 56 70 53 71 55 72 54 73 41 74 42 75 46 76
REMARK SMILES IDX 43 77 45 78 44 79
REMARK H PARENT 13 6 17 28 61 47 39 58
REMARK Flexibility Score: inf
ROOT
ATOM      1  C   UNL     1       2.684  -6.288   7.447  1.00  0.00     0.042 C 
ENDROOT
BRANCH   1   2
ATOM      2  C   UNL     1       3.336  -6.609   6.100  1.00  0.00     0.118 C 
BRANCH   2   3
ATOM      3  N   UNL     1       2.599  -7.647   5.402  1.00  0.00    -0.352 N 
ATOM      4  C   UNL     1       1.718  -7.652   4.367  1.00  0.00     0.251 C 
ATOM      5  O   UNL     1       1.263  -8.755   4.054  1.00  0.00    -0.269 OA
ATOM      6  H   UNL     1       2.778  -8.548   5.757  1.00  0.00     0.163 HD
BRANCH   4   7
ATOM      7  C   UNL     1       1.352  -6.419   3.574  1.00  0.00     0.047 C 
ATOM      8  C   UNL     1       1.204  -5.213   4.168  1.00  0.00     0.022 C 
BRANCH   8   9
ATOM      9  C   UNL     1       0.915  -3.896   3.559  1.00  0.00    -0.025 A 
ATOM     10  C   UNL     1       0.531  -1.352   2.438  1.00  0.00     0.067 A 
ATOM     11  C   UNL     1      -0.264  -2.421   2.022  1.00  0.00     0.021 A 
ATOM     12  C   UNL     1       1.478  -1.524   3.446  1.00  0.00     0.021 A 
ATOM     13  C   UNL     1      -0.079  -3.683   2.595  1.00  0.00     0.009 A 
ATOM     14  C   UNL     1       1.668  -2.794   3.999  1.00  0.00     0.009 A 
BRANCH  10  15
ATOM     15  S   UNL     1       0.296   0.246   1.698  1.00  0.00     0.175 S 
ATOM     16  C   UNL     1       1.054   0.081   0.102  1.00  0.00     0.163 C 
ATOM     17  O   UNL     1       1.071   1.204   2.459  1.00  0.00    -0.224 OA
ATOM     18  O   UNL     1      -1.133   0.423   1.508  1.00  0.00    -0.224 OA
ENDBRANCH  10  15
ENDBRANCH   8   9
BRANCH   7  19
ATOM     19  C   UNL     1       0.988  -6.621   2.149  1.00  0.00    -0.013 A 
ATOM     20  C   UNL     1      -0.181  -7.337   1.840  1.00  0.00     0.009 A 
ATOM     21  C   UNL     1       1.735  -6.064   1.103  1.00  0.00     0.009 A 
ATOM     22  C   UNL     1      -0.608  -7.476   0.520  1.00  0.00     0.001 A 
ATOM     23  C   UNL     1       1.301  -6.197  -0.220  1.00  0.00     0.001 A 
ATOM     24  C   UNL     1       0.130  -6.898  -0.509  1.00  0.00     0.000 A 
ENDBRANCH   7  19
ENDBRANCH   4   7
ENDBRANCH   2   3
ENDBRANCH   1   2
BRANCH   1  25
ATOM     25  C   UNL     1       2.762  -7.430   8.463  1.00  0.00     0.118 C 
BRANCH  25  26
ATOM     26  N   UNL     1       4.117  -7.654   8.943  1.00  0.00    -0.352 N 
ATOM     27  C   UNL     1       4.613  -7.655  10.223  1.00  0.00     0.251 C 
ATOM     28  H   UNL     1       4.783  -7.832   8.239  1.00  0.00     0.163 HD
ATOM     29  O   UNL     1       5.828  -7.670  10.399  1.00  0.00    -0.269 OA
BRANCH  27  30
ATOM     30  C   UNL     1       3.706  -7.627  11.392  1.00  0.00     0.039 A 
ATOM     31  C   UNL     1       4.043  -6.818  12.482  1.00  0.00     0.014 A 
ATOM     32  C   UNL     1       2.566  -8.434  11.451  1.00  0.00     0.014 A 
ATOM     33  C   UNL     1       3.215  -6.778  13.607  1.00  0.00     0.010 A 
ATOM     34  C   UNL     1       1.710  -8.352  12.550  1.00  0.00     0.010 A 
ATOM     35  C   UNL     1       2.029  -7.527  13.640  1.00  0.00    -0.014 A 
BRANCH  35  36
ATOM     36  C   UNL     1       1.112  -7.461  14.807  1.00  0.00     0.031 A 
ATOM     37  C   UNL     1       0.905  -8.666  15.682  1.00  0.00     0.074 A 
ATOM     38  C   UNL     1       0.420  -6.331  15.047  1.00  0.00     0.049 A 
ATOM     39  N   UNL     1       0.100  -8.816  16.704  1.00  0.00    -0.248 NA
ATOM     40  C   UNL     1       1.693  -9.864  15.355  1.00  0.00     0.031 C 
ATOM     41  C   UNL     1       0.509  -5.098  14.261  1.00  0.00     0.029 A 
ATOM     42  N   UNL     1      -0.503  -6.039  16.020  1.00  0.00    -0.354 N 
ATOM     43  C   UNL     1       0.267 -10.129  17.127  1.00  0.00     0.074 A 
ATOM     44  C   UNL     1       1.223 -10.742  16.229  1.00  0.00     0.031 C 
ATOM     45  C   UNL     1      -0.307  -4.176  14.798  1.00  0.00     0.029 A 
ATOM     46  C   UNL     1      -1.002  -4.763  15.940  1.00  0.00     0.049 A 
ATOM     47  H   UNL     1      -0.780  -6.684  16.711  1.00  0.00     0.167 HD
ATOM     48  C   UNL     1      -0.311 -10.764  18.174  1.00  0.00     0.031 A 
ATOM     49  C   UNL     1      -1.921  -4.134  16.697  1.00  0.00     0.031 A 
ATOM     50  C   UNL     1      -1.252 -10.155  19.076  1.00  0.00     0.049 A 
ATOM     51  C   UNL     1      -2.560  -4.865  17.842  1.00  0.00     0.074 A 
ATOM     52  C   UNL     1      -1.850 -10.702  20.199  1.00  0.00     0.029 A 
ATOM     53  N   UNL     1      -1.732  -8.861  18.958  1.00  0.00    -0.354 N 
ATOM     54  N   UNL     1      -2.351  -6.090  18.260  1.00  0.00    -0.248 NA
ATOM     55  C   UNL     1      -3.558  -4.122  18.625  1.00  0.00     0.031 C 
ATOM     56  C   UNL     1      -2.724  -9.751  20.737  1.00  0.00     0.029 A 
ATOM     57  C   UNL     1      -2.635  -8.597  19.975  1.00  0.00     0.049 A 
ATOM     58  H   UNL     1      -1.470  -8.223  18.255  1.00  0.00     0.167 HD
ATOM     59  C   UNL     1      -3.171  -6.255  19.369  1.00  0.00     0.074 A 
ATOM     60  C   UNL     1      -3.872  -5.003  19.565  1.00  0.00     0.031 C 
ATOM     61  C   UNL     1      -3.325  -7.347  20.156  1.00  0.00     0.031 A 
BRANCH  48  62
ATOM     62  C   UNL     1       0.055 -12.206  18.390  1.00  0.00    -0.014 A 
ATOM     63  C   UNL     1       1.323 -12.570  18.870  1.00  0.00     0.009 A 
ATOM     64  C   UNL     1      -0.889 -13.213  18.133  1.00  0.00     0.009 A 
ATOM     65  C   UNL     1       1.652 -13.915  19.048  1.00  0.00     0.001 A 
ATOM     66  C   UNL     1      -0.565 -14.555  18.337  1.00  0.00     0.001 A 
ATOM     67  C   UNL     1       0.708 -14.906  18.784  1.00  0.00     0.000 A 
ENDBRANCH  48  62
BRANCH  49  68
ATOM     68  C   UNL     1      -2.279  -2.722  16.408  1.00  0.00    -0.014 A 
ATOM     69  C   UNL     1      -1.839  -1.695  17.257  1.00  0.00     0.009 A 
ATOM     70  C   UNL     1      -3.057  -2.394  15.288  1.00  0.00     0.009 A 
ATOM     71  C   UNL     1      -2.189  -0.368  17.001  1.00  0.00     0.001 A 
ATOM     72  C   UNL     1      -3.386  -1.063  15.022  1.00  0.00     0.001 A 
ATOM     73  C   UNL     1      -2.958  -0.053  15.882  1.00  0.00     0.000 A 
ENDBRANCH  49  68
BRANCH  61  74
ATOM     74  C   UNL     1      -4.265  -7.223  21.320  1.00  0.00    -0.014 A 
ATOM     75  C   UNL     1      -5.655  -7.224  21.136  1.00  0.00     0.009 A 
ATOM     76  C   UNL     1      -3.749  -7.135  22.623  1.00  0.00     0.009 A 
ATOM     77  C   UNL     1      -6.512  -7.109  22.233  1.00  0.00     0.001 A 
ATOM     78  C   UNL     1      -4.607  -7.044  23.719  1.00  0.00     0.001 A 
ATOM     79  C   UNL     1      -5.987  -7.023  23.522  1.00  0.00     0.000 A 
ENDBRANCH  61  74
ENDBRANCH  35  36
ENDBRANCH  27  30
ENDBRANCH  25  26
ENDBRANCH   1  25
TORSDOF 13
