REMARK SMILES O=C(NCCCNC(=O)c1ccc(O[C@@H]2CCCCNC2=O)cn1)c1ccc(-c2c3nc(c(-c4ccccc4)c4ccc([nH]4)c(-c4ccccc4)c4nc(c(-c5ccccc5)c5ccc2[nH]5)C=C4)C=C3)cc1
REMARK SMILES IDX 7 1 8 2 9 3 6 5 5 6 4 7 3 8 1 9 2 10 25 12 26 13 72 14 27 15
REMARK SMILES IDX 71 16 28 17 29 18 30 19 65 20 31 21 70 22 64 23 66 24 32 25
REMARK SMILES IDX 69 26 63 27 62 28 33 30 55 31 40 32 54 33 41 34 44 35 53 36
REMARK SMILES IDX 67 37 42 38 43 39 52 41 68 42 45 43 34 44 35 45 39 46 36 47
REMARK SMILES IDX 38 48 37 49 56 50 57 51 61 52 58 53 60 54 59 55 46 56 47 57
REMARK SMILES IDX 51 58 48 59 50 60 49 61 10 62 11 63 24 64 12 65 23 66 13 67
REMARK SMILES IDX 14 68 15 69 16 70 17 71 18 72 21 74 20 75 22 76 19 78
REMARK H PARENT 7 4 3 11 66 29 44 40 20 77
REMARK Flexibility Score: 80.00
ROOT
ATOM      1  N   UNL     1       3.559  -5.817 -14.479  1.00  0.00    -0.351 N 
ATOM      2  C   UNL     1       4.823  -6.239 -14.129  1.00  0.00     0.269 C 
ATOM      3  O   UNL     1       5.306  -7.250 -14.627  1.00  0.00    -0.268 OA
ATOM      4  H   UNL     1       3.036  -6.428 -15.046  1.00  0.00     0.163 HD
ENDROOT
BRANCH   1   5
ATOM      5  C   UNL     1       2.911  -4.571 -14.104  1.00  0.00     0.118 C 
BRANCH   5   6
ATOM      6  C   UNL     1       3.063  -3.520 -15.191  1.00  0.00     0.042 C 
BRANCH   6   7
ATOM      7  C   UNL     1       2.338  -3.887 -16.477  1.00  0.00     0.118 C 
BRANCH   7   8
ATOM      8  N   UNL     1       0.886  -3.816 -16.356  1.00  0.00    -0.352 N 
ATOM      9  O   UNL     1      -1.203  -3.113 -16.840  1.00  0.00    -0.269 OA
ATOM     10  C   UNL     1      -0.022  -3.182 -17.171  1.00  0.00     0.251 C 
ATOM     11  H   UNL     1       0.503  -4.288 -15.582  1.00  0.00     0.163 HD
BRANCH  10  12
ATOM     12  C   UNL     1       0.432  -2.553 -18.431  1.00  0.00     0.039 A 
ATOM     13  C   UNL     1       1.359  -3.199 -19.249  1.00  0.00     0.014 A 
ATOM     14  C   UNL     1      -0.057  -1.293 -18.789  1.00  0.00     0.014 A 
ATOM     15  C   UNL     1       1.931  -2.516 -20.312  1.00  0.00     0.010 A 
ATOM     16  C   UNL     1       0.439  -0.651 -19.929  1.00  0.00     0.010 A 
ATOM     17  C   UNL     1       1.468  -1.241 -20.678  1.00  0.00    -0.014 A 
BRANCH  17  18
ATOM     18  C   UNL     1       2.049  -0.599 -21.886  1.00  0.00     0.031 A 
ATOM     19  C   UNL     1       2.834   0.681 -21.801  1.00  0.00     0.074 A 
ATOM     20  C   UNL     1       1.928  -1.238 -23.066  1.00  0.00     0.049 A 
ATOM     21  N   UNL     1       3.489   1.304 -22.750  1.00  0.00    -0.248 NA
ATOM     22  C   UNL     1       2.889   1.356 -20.495  1.00  0.00     0.031 C 
ATOM     23  C   UNL     1       1.175  -2.479 -23.278  1.00  0.00     0.029 A 
ATOM     24  N   UNL     1       2.469  -0.966 -24.295  1.00  0.00    -0.354 N 
ATOM     25  C   UNL     1       4.023   2.444 -22.162  1.00  0.00     0.074 A 
ATOM     26  C   UNL     1       3.591   2.445 -20.781  1.00  0.00     0.031 C 
ATOM     27  C   UNL     1       1.367  -2.901 -24.535  1.00  0.00     0.029 A 
ATOM     28  C   UNL     1       2.197  -1.929 -25.236  1.00  0.00     0.049 A 
ATOM     29  H   UNL     1       3.000  -0.159 -24.485  1.00  0.00     0.167 HD
ATOM     30  C   UNL     1       4.808   3.397 -22.720  1.00  0.00     0.031 A 
ATOM     31  C   UNL     1       2.569  -2.025 -26.525  1.00  0.00     0.031 A 
ATOM     32  C   UNL     1       5.237   3.397 -24.095  1.00  0.00     0.049 A 
ATOM     33  C   UNL     1       3.435  -0.954 -27.114  1.00  0.00     0.074 A 
ATOM     34  C   UNL     1       6.036   4.320 -24.750  1.00  0.00     0.029 A 
ATOM     35  N   UNL     1       4.907   2.425 -25.026  1.00  0.00    -0.354 N 
ATOM     36  N   UNL     1       3.941   0.107 -26.536  1.00  0.00    -0.248 NA
ATOM     37  C   UNL     1       3.781  -1.095 -28.534  1.00  0.00     0.031 C 
ATOM     38  C   UNL     1       6.156   3.926 -26.088  1.00  0.00     0.029 A 
ATOM     39  C   UNL     1       5.473   2.733 -26.253  1.00  0.00     0.049 A 
ATOM     40  H   UNL     1       4.351   1.633 -24.843  1.00  0.00     0.167 HD
ATOM     41  C   UNL     1       4.668   0.761 -27.520  1.00  0.00     0.074 A 
ATOM     42  C   UNL     1       4.567  -0.044 -28.721  1.00  0.00     0.031 C 
ATOM     43  C   UNL     1       5.348   1.930 -27.441  1.00  0.00     0.031 A 
BRANCH  30  44
ATOM     44  C   UNL     1       5.246   4.539 -21.844  1.00  0.00    -0.014 A 
ATOM     45  C   UNL     1       6.227   4.360 -20.856  1.00  0.00     0.009 A 
ATOM     46  C   UNL     1       4.715   5.822 -22.049  1.00  0.00     0.009 A 
ATOM     47  C   UNL     1       6.650   5.439 -20.075  1.00  0.00     0.001 A 
ATOM     48  C   UNL     1       5.157   6.904 -21.284  1.00  0.00     0.001 A 
ATOM     49  C   UNL     1       6.119   6.710 -20.293  1.00  0.00     0.000 A 
ENDBRANCH  30  44
BRANCH  31  50
ATOM     50  C   UNL     1       2.103  -3.173 -27.344  1.00  0.00    -0.014 A 
ATOM     51  C   UNL     1       3.001  -4.157 -27.782  1.00  0.00     0.009 A 
ATOM     52  C   UNL     1       0.745  -3.292 -27.681  1.00  0.00     0.009 A 
ATOM     53  C   UNL     1       2.550  -5.225 -28.562  1.00  0.00     0.001 A 
ATOM     54  C   UNL     1       0.293  -4.378 -28.432  1.00  0.00     0.001 A 
ATOM     55  C   UNL     1       1.198  -5.338 -28.881  1.00  0.00     0.000 A 
ENDBRANCH  31  50
BRANCH  43  56
ATOM     56  C   UNL     1       6.039   2.392 -28.691  1.00  0.00    -0.014 A 
ATOM     57  C   UNL     1       5.306   2.892 -29.779  1.00  0.00     0.009 A 
ATOM     58  C   UNL     1       7.437   2.327 -28.781  1.00  0.00     0.009 A 
ATOM     59  C   UNL     1       5.960   3.277 -30.951  1.00  0.00     0.001 A 
ATOM     60  C   UNL     1       8.089   2.739 -29.944  1.00  0.00     0.001 A 
ATOM     61  C   UNL     1       7.350   3.202 -31.032  1.00  0.00     0.000 A 
ENDBRANCH  43  56
ENDBRANCH  17  18
ENDBRANCH  10  12
ENDBRANCH   7   8
ENDBRANCH   6   7
ENDBRANCH   5   6
ENDBRANCH   1   5
BRANCH   2  62
ATOM     62  C   UNL     1       5.520  -5.503 -13.047  1.00  0.00     0.128 A 
ATOM     63  C   UNL     1       5.099  -5.748 -11.749  1.00  0.00     0.038 A 
ATOM     64  N   UNL     1       6.445  -4.573 -13.391  1.00  0.00    -0.247 NA
ATOM     65  C   UNL     1       5.655  -4.984 -10.735  1.00  0.00     0.050 A 
ATOM     66  C   UNL     1       6.964  -3.847 -12.367  1.00  0.00     0.158 A 
ATOM     67  C   UNL     1       6.550  -3.969 -11.044  1.00  0.00     0.138 A 
BRANCH  67  68
ATOM     68  O   UNL     1       7.140  -3.272 -10.043  1.00  0.00    -0.479 OA
BRANCH  68  69
ATOM     69  C   UNL     1       6.465  -2.119  -9.543  1.00  0.00     0.262 C 
BRANCH  69  70
ATOM     70  C   UNL     1       5.736  -2.358  -8.204  1.00  0.00     0.055 C 
BRANCH  70  71
ATOM     71  C   UNL     1       4.365  -3.031  -8.170  1.00  0.00     0.006 C 
BRANCH  71  72
ATOM     72  C   UNL     1       3.235  -2.409  -8.981  1.00  0.00     0.021 CG0
ATOM     73  G   UNL     1       3.533  -2.111 -10.437  1.00  0.00     0.000 G0
ENDBRANCH  71  72
ENDBRANCH  70  71
ENDBRANCH  69  70
BRANCH  69  74
ATOM     74  C   UNL     1       5.802  -1.030 -10.421  1.00  0.00     0.261 C 
ATOM     75  N   UNL     1       4.460  -1.030 -10.636  1.00  0.00    -0.353 N 
ATOM     76  O   UNL     1       6.463  -0.111 -10.912  1.00  0.00    -0.271 OA
ATOM     77  H   UNL     1       4.077  -0.188 -10.970  1.00  0.00     0.163 HD
BRANCH  75  78
ATOM     78  C   UNL     1       3.533  -2.111 -10.437  1.00  0.00     0.116 CG0
ATOM     79  G   UNL     1       3.235  -2.409  -8.981  1.00  0.00     0.000 G0
ENDBRANCH  75  78
ENDBRANCH  69  74
ENDBRANCH  68  69
ENDBRANCH  67  68
ENDBRANCH   2  62
TORSDOF 12
