REMARK SMILES C=CCN(CC(=O)NCCCNC(=O)c1ccc(-c2c3nc(c(-c4ccccc4)c4ccc([nH]4)c(-c4ccccc4)c4nc(c(-c5ccccc5)c5ccc2[nH]5)C=C4)C=C3)cc1)C(=O)NC
REMARK SMILES IDX 9 1 8 2 6 3 7 4 5 6 4 7 3 8 2 9 1 10 63 11 64 12 65 13 66 14
REMARK SMILES IDX 10 16 11 17 12 18 13 19 14 21 15 22 16 23 62 24 17 25 61 26
REMARK SMILES IDX 18 27 19 28 20 29 55 30 21 31 60 32 54 33 56 34 22 35 59 36
REMARK SMILES IDX 53 37 52 38 23 40 45 41 30 42 44 43 31 44 34 45 43 46 57 47
REMARK SMILES IDX 32 48 33 49 42 51 58 52 35 53 24 54 25 55 29 56 26 57 28 58
REMARK SMILES IDX 27 59 46 60 47 61 51 62 48 63 50 64 49 65 36 66 37 67 41 68
REMARK SMILES IDX 38 69 40 70 39 71
REMARK H PARENT 8 5 65 15 12 20 56 39 34 50
REMARK Flexibility Score: inf
ROOT
ATOM      1  C   UNL     1      -4.419  -0.527   0.959  1.00  0.00     0.117 C 
ENDROOT
BRANCH   1   2
ATOM      2  N   UNL     1      -4.685  -1.944   1.080  1.00  0.00    -0.354 N 
ATOM      3  C   UNL     1      -3.883  -2.939   1.554  1.00  0.00     0.239 C 
ATOM      4  O   UNL     1      -4.423  -4.016   1.825  1.00  0.00    -0.273 OA
ATOM      5  H   UNL     1      -5.576  -2.232   0.774  1.00  0.00     0.163 HD
BRANCH   3   6
ATOM      6  C   UNL     1      -2.398  -2.698   1.871  1.00  0.00     0.221 C 
BRANCH   6   7
ATOM      7  N   UNL     1      -1.604  -2.190   0.750  1.00  0.00    -0.312 N 
BRANCH   7   8
ATOM      8  C   UNL     1      -1.038  -0.848   0.900  1.00  0.00     0.149 C 
BRANCH   8   9
ATOM      9  C   UNL     1       0.457  -0.892   1.011  1.00  0.00    -0.013 C 
ATOM     10  C   UNL     1       1.267  -0.176   0.218  1.00  0.00     0.006 C 
ENDBRANCH   8   9
ENDBRANCH   7   8
BRANCH   7  11
ATOM     11  C   UNL     1      -1.369  -2.831  -0.435  1.00  0.00     0.317 C 
ATOM     12  O   UNL     1      -0.859  -2.245  -1.397  1.00  0.00    -0.249 OA
ATOM     13  N   UNL     1      -1.687  -4.115  -0.669  1.00  0.00    -0.341 N 
ATOM     14  C   UNL     1      -2.230  -5.235   0.067  1.00  0.00     0.144 C 
ATOM     15  H   UNL     1      -1.496  -4.362  -1.602  1.00  0.00     0.165 HD
ENDBRANCH   7  11
ENDBRANCH   6   7
ENDBRANCH   3   6
ENDBRANCH   1   2
BRANCH   1  16
ATOM     16  C   UNL     1      -4.247  -0.072  -0.484  1.00  0.00     0.042 C 
BRANCH  16  17
ATOM     17  C   UNL     1      -5.512  -0.196  -1.327  1.00  0.00     0.118 C 
BRANCH  17  18
ATOM     18  N   UNL     1      -6.615   0.606  -0.810  1.00  0.00    -0.352 N 
ATOM     19  C   UNL     1      -7.284   1.665  -1.371  1.00  0.00     0.251 C 
ATOM     20  H   UNL     1      -6.930   0.346   0.086  1.00  0.00     0.163 HD
ATOM     21  O   UNL     1      -8.054   2.333  -0.684  1.00  0.00    -0.269 OA
BRANCH  19  22
ATOM     22  C   UNL     1      -7.073   2.015  -2.789  1.00  0.00     0.039 A 
ATOM     23  C   UNL     1      -6.945   3.361  -3.145  1.00  0.00     0.014 A 
ATOM     24  C   UNL     1      -7.018   1.023  -3.770  1.00  0.00     0.014 A 
ATOM     25  C   UNL     1      -6.681   3.704  -4.473  1.00  0.00     0.010 A 
ATOM     26  C   UNL     1      -6.674   1.359  -5.075  1.00  0.00     0.010 A 
ATOM     27  C   UNL     1      -6.499   2.703  -5.440  1.00  0.00    -0.014 A 
BRANCH  27  28
ATOM     28  C   UNL     1      -6.112   3.029  -6.835  1.00  0.00     0.031 A 
ATOM     29  C   UNL     1      -7.024   2.672  -7.976  1.00  0.00     0.074 A 
ATOM     30  C   UNL     1      -4.901   3.567  -7.081  1.00  0.00     0.049 A 
ATOM     31  N   UNL     1      -6.816   2.779  -9.264  1.00  0.00    -0.248 NA
ATOM     32  C   UNL     1      -8.332   2.095  -7.624  1.00  0.00     0.031 C 
ATOM     33  C   UNL     1      -3.909   3.927  -6.064  1.00  0.00     0.029 A 
ATOM     34  N   UNL     1      -4.290   3.889  -8.267  1.00  0.00    -0.354 N 
ATOM     35  C   UNL     1      -7.953   2.264  -9.873  1.00  0.00     0.074 A 
ATOM     36  C   UNL     1      -8.827   1.803  -8.817  1.00  0.00     0.031 C 
ATOM     37  C   UNL     1      -2.826   4.439  -6.669  1.00  0.00     0.029 A 
ATOM     38  C   UNL     1      -3.022   4.395  -8.114  1.00  0.00     0.049 A 
ATOM     39  H   UNL     1      -4.721   3.769  -9.145  1.00  0.00     0.167 HD
ATOM     40  C   UNL     1      -8.249   2.196 -11.193  1.00  0.00     0.031 A 
ATOM     41  C   UNL     1      -2.110   4.764  -9.034  1.00  0.00     0.031 A 
ATOM     42  C   UNL     1      -7.380   2.659 -12.241  1.00  0.00     0.049 A 
ATOM     43  C   UNL     1      -2.452   4.648 -10.493  1.00  0.00     0.074 A 
ATOM     44  C   UNL     1      -7.614   2.685 -13.605  1.00  0.00     0.029 A 
ATOM     45  N   UNL     1      -6.107   3.171 -12.043  1.00  0.00    -0.354 N 
ATOM     46  N   UNL     1      -3.560   4.224 -11.052  1.00  0.00    -0.248 NA
ATOM     47  C   UNL     1      -1.419   5.069 -11.450  1.00  0.00     0.031 C 
ATOM     48  C   UNL     1      -6.459   3.155 -14.236  1.00  0.00     0.029 A 
ATOM     49  C   UNL     1      -5.532   3.488 -13.262  1.00  0.00     0.049 A 
ATOM     50  H   UNL     1      -5.677   3.293 -11.166  1.00  0.00     0.167 HD
ATOM     51  C   UNL     1      -3.369   4.357 -12.421  1.00  0.00     0.074 A 
ATOM     52  C   UNL     1      -2.046   4.916 -12.608  1.00  0.00     0.031 C 
ATOM     53  C   UNL     1      -4.216   4.047 -13.433  1.00  0.00     0.031 A 
BRANCH  40  54
ATOM     54  C   UNL     1      -9.568   1.582 -11.578  1.00  0.00    -0.014 A 
ATOM     55  C   UNL     1     -10.783   2.226 -11.297  1.00  0.00     0.009 A 
ATOM     56  C   UNL     1      -9.592   0.361 -12.271  1.00  0.00     0.009 A 
ATOM     57  C   UNL     1     -11.997   1.642 -11.668  1.00  0.00     0.001 A 
ATOM     58  C   UNL     1     -10.805  -0.205 -12.669  1.00  0.00     0.001 A 
ATOM     59  C   UNL     1     -12.006   0.430 -12.358  1.00  0.00     0.000 A 
ENDBRANCH  40  54
BRANCH  41  60
ATOM     60  C   UNL     1      -0.783   5.280  -8.605  1.00  0.00    -0.014 A 
ATOM     61  C   UNL     1      -0.440   6.625  -8.809  1.00  0.00     0.009 A 
ATOM     62  C   UNL     1       0.154   4.428  -7.999  1.00  0.00     0.009 A 
ATOM     63  C   UNL     1       0.823   7.098  -8.446  1.00  0.00     0.001 A 
ATOM     64  C   UNL     1       1.404   4.911  -7.607  1.00  0.00     0.001 A 
ATOM     65  C   UNL     1       1.742   6.242  -7.841  1.00  0.00     0.000 A 
ENDBRANCH  41  60
BRANCH  53  66
ATOM     66  C   UNL     1      -3.759   4.345 -14.834  1.00  0.00    -0.014 A 
ATOM     67  C   UNL     1      -2.752   3.588 -15.453  1.00  0.00     0.009 A 
ATOM     68  C   UNL     1      -4.386   5.368 -15.562  1.00  0.00     0.009 A 
ATOM     69  C   UNL     1      -2.364   3.871 -16.765  1.00  0.00     0.001 A 
ATOM     70  C   UNL     1      -4.019   5.626 -16.883  1.00  0.00     0.001 A 
ATOM     71  C   UNL     1      -3.002   4.884 -17.480  1.00  0.00     0.000 A 
ENDBRANCH  53  66
ENDBRANCH  27  28
ENDBRANCH  19  22
ENDBRANCH  17  18
ENDBRANCH  16  17
ENDBRANCH   1  16
TORSDOF 14
