REMARK SMILES CC(C)C[C@H](NC(=O)CNC(=O)[C@@H]([NH3+])C(C)C)C(=O)NCCCNC(=O)c1ccc(-c2c3nc(c(-c4ccccc4)c4ccc([nH]4)c(-c4ccccc4)c4nc(c(-c5ccccc5)c5ccc2[nH]5)C=C4)C=C3)cc1
REMARK SMILES IDX 18 1 19 2 20 3 5 5 4 6 2 7 1 8 3 9 6 10 7 11 8 13 9 14 10 15
REMARK SMILES IDX 11 16 12 18 13 19 14 20 15 24 16 25 17 26 21 27 22 28 23 29
REMARK SMILES IDX 24 30 25 31 26 33 27 34 28 35 74 36 29 37 73 38 30 39 31 40
REMARK SMILES IDX 32 41 67 42 33 43 72 44 66 45 68 46 34 47 71 48 65 49 64 50
REMARK SMILES IDX 35 52 57 53 42 54 56 55 43 56 46 57 55 58 69 59 44 60 45 61
REMARK SMILES IDX 54 63 70 64 47 65 36 66 37 67 41 68 38 69 40 70 39 71 58 72
REMARK SMILES IDX 59 73 63 74 60 75 62 76 61 77 48 78 49 79 53 80 50 81 52 82
REMARK SMILES IDX 51 83
REMARK H PARENT 20 4 6 12 10 17 14 21 14 22 14 23 24 32 68 51 46 62
REMARK Flexibility Score: inf
ROOT
ATOM      1  C   UNL     1      -3.649   1.023   0.569  1.00  0.00     0.242 C 
ATOM      2  O   UNL     1      -4.309  -0.017   0.627  1.00  0.00    -0.273 OA
ATOM      3  N   UNL     1      -4.165   2.077  -0.118  1.00  0.00    -0.354 N 
ATOM      4  H   UNL     1      -5.045   1.934  -0.535  1.00  0.00     0.163 HD
ENDROOT
BRANCH   1   5
ATOM      5  C   UNL     1      -2.248   1.109   1.194  1.00  0.00     0.171 C 
BRANCH   5   6
ATOM      6  C   UNL     1      -2.061   2.059   2.385  1.00  0.00     0.038 C 
BRANCH   6   7
ATOM      7  C   UNL     1      -3.227   2.882   2.990  1.00  0.00    -0.015 C 
ATOM      8  C   UNL     1      -4.430   2.080   3.473  1.00  0.00     0.007 C 
ATOM      9  C   UNL     1      -2.724   3.748   4.155  1.00  0.00     0.007 C 
ENDBRANCH   6   7
ENDBRANCH   5   6
BRANCH   5  10
ATOM     10  N   UNL     1      -1.284   1.074   0.053  1.00  0.00    -0.343 N 
ATOM     11  C   UNL     1      -0.387   1.796  -0.650  1.00  0.00     0.240 C 
ATOM     12  H   UNL     1      -1.316   0.172  -0.338  1.00  0.00     0.164 HD
ATOM     13  O   UNL     1      -0.143   1.318  -1.772  1.00  0.00    -0.273 OA
BRANCH  11  14
ATOM     14  C   UNL     1       0.500   2.958  -0.179  1.00  0.00     0.216 C 
BRANCH  14  15
ATOM     15  N   UNL     1      -0.073   4.076   0.533  1.00  0.00    -0.342 N 
ATOM     16  C   UNL     1       0.146   4.605   1.764  1.00  0.00     0.278 C 
ATOM     17  H   UNL     1      -0.766   4.553   0.020  1.00  0.00     0.164 HD
ATOM     18  O   UNL     1      -0.453   5.670   1.966  1.00  0.00    -0.268 OA
BRANCH  16  19
ATOM     19  C   UNL     1       0.940   3.908   2.918  1.00  0.00     0.273 C 
BRANCH  19  20
ATOM     20  N   UNL     1       1.440   2.563   2.564  1.00  0.00    -0.347 N 
ATOM     21  H   UNL     1       2.134   2.643   1.821  1.00  0.00     0.345 HD
ATOM     22  H   UNL     1       0.663   1.985   2.243  1.00  0.00     0.345 HD
ATOM     23  H   UNL     1       1.868   2.133   3.384  1.00  0.00     0.345 HD
ENDBRANCH  19  20
BRANCH  19  24
ATOM     24  C   UNL     1       2.063   4.806   3.501  1.00  0.00     0.051 C 
ATOM     25  C   UNL     1       1.517   6.133   4.053  1.00  0.00     0.014 C 
ATOM     26  C   UNL     1       2.814   4.106   4.646  1.00  0.00     0.014 C 
ENDBRANCH  19  24
ENDBRANCH  16  19
ENDBRANCH  14  15
ENDBRANCH  11  14
ENDBRANCH   5  10
ENDBRANCH   1   5
BRANCH   3  27
ATOM     27  C   UNL     1      -3.574   3.380  -0.308  1.00  0.00     0.117 C 
BRANCH  27  28
ATOM     28  C   UNL     1      -3.746   3.903  -1.713  1.00  0.00     0.042 C 
BRANCH  28  29
ATOM     29  C   UNL     1      -5.183   4.306  -1.991  1.00  0.00     0.118 C 
BRANCH  29  30
ATOM     30  N   UNL     1      -5.671   5.362  -1.106  1.00  0.00    -0.352 N 
ATOM     31  C   UNL     1      -6.359   6.507  -1.432  1.00  0.00     0.251 C 
ATOM     32  H   UNL     1      -5.483   5.236  -0.148  1.00  0.00     0.163 HD
ATOM     33  O   UNL     1      -6.601   7.362  -0.589  1.00  0.00    -0.269 OA
BRANCH  31  34
ATOM     34  C   UNL     1      -6.767   6.691  -2.832  1.00  0.00     0.039 A 
ATOM     35  C   UNL     1      -6.434   7.876  -3.487  1.00  0.00     0.014 A 
ATOM     36  C   UNL     1      -7.373   5.633  -3.511  1.00  0.00     0.014 A 
ATOM     37  C   UNL     1      -6.640   7.967  -4.862  1.00  0.00     0.010 A 
ATOM     38  C   UNL     1      -7.464   5.682  -4.890  1.00  0.00     0.010 A 
ATOM     39  C   UNL     1      -7.112   6.853  -5.577  1.00  0.00    -0.014 A 
BRANCH  39  40
ATOM     40  C   UNL     1      -7.278   6.887  -7.046  1.00  0.00     0.031 A 
ATOM     41  C   UNL     1      -8.644   6.668  -7.634  1.00  0.00     0.074 A 
ATOM     42  C   UNL     1      -6.199   7.021  -7.840  1.00  0.00     0.049 A 
ATOM     43  N   UNL     1      -8.993   6.548  -8.888  1.00  0.00    -0.248 NA
ATOM     44  C   UNL     1      -9.759   6.515  -6.682  1.00  0.00     0.031 C 
ATOM     45  C   UNL     1      -4.816   7.177  -7.383  1.00  0.00     0.029 A 
ATOM     46  N   UNL     1      -6.101   7.041  -9.207  1.00  0.00    -0.354 N 
ATOM     47  C   UNL     1     -10.353   6.268  -8.870  1.00  0.00     0.074 A 
ATOM     48  C   UNL     1     -10.754   6.175  -7.485  1.00  0.00     0.031 C 
ATOM     49  C   UNL     1      -4.013   7.316  -8.451  1.00  0.00     0.029 A 
ATOM     50  C   UNL     1      -4.818   7.219  -9.664  1.00  0.00     0.049 A 
ATOM     51  H   UNL     1      -6.876   6.937  -9.805  1.00  0.00     0.167 HD
ATOM     52  C   UNL     1     -11.201   6.129  -9.915  1.00  0.00     0.031 A 
ATOM     53  C   UNL     1      -4.348   7.298 -10.922  1.00  0.00     0.031 A 
ATOM     54  C   UNL     1     -10.804   6.269 -11.287  1.00  0.00     0.049 A 
ATOM     55  C   UNL     1      -5.316   7.183 -12.066  1.00  0.00     0.074 A 
ATOM     56  C   UNL     1     -11.593   6.227 -12.422  1.00  0.00     0.029 A 
ATOM     57  N   UNL     1      -9.502   6.494 -11.707  1.00  0.00    -0.354 N 
ATOM     58  N   UNL     1      -6.612   6.987 -12.034  1.00  0.00    -0.248 NA
ATOM     59  C   UNL     1      -4.757   7.314 -13.418  1.00  0.00     0.031 C 
ATOM     60  C   UNL     1     -10.761   6.392 -13.534  1.00  0.00     0.029 A 
ATOM     61  C   UNL     1      -9.462   6.581 -13.086  1.00  0.00     0.049 A 
ATOM     62  H   UNL     1      -8.723   6.578 -11.112  1.00  0.00     0.167 HD
ATOM     63  C   UNL     1      -7.028   6.995 -13.358  1.00  0.00     0.074 A 
ATOM     64  C   UNL     1      -5.849   7.232 -14.166  1.00  0.00     0.031 C 
ATOM     65  C   UNL     1      -8.274   6.822 -13.862  1.00  0.00     0.031 A 
BRANCH  52  66
ATOM     66  C   UNL     1     -12.636   5.819  -9.598  1.00  0.00    -0.014 A 
ATOM     67  C   UNL     1     -13.470   6.774  -8.992  1.00  0.00     0.009 A 
ATOM     68  C   UNL     1     -13.164   4.558  -9.912  1.00  0.00     0.009 A 
ATOM     69  C   UNL     1     -14.790   6.456  -8.667  1.00  0.00     0.001 A 
ATOM     70  C   UNL     1     -14.493   4.254  -9.613  1.00  0.00     0.001 A 
ATOM     71  C   UNL     1     -15.301   5.198  -8.981  1.00  0.00     0.000 A 
ENDBRANCH  52  66
BRANCH  53  72
ATOM     72  C   UNL     1      -2.902   7.532 -11.166  1.00  0.00    -0.014 A 
ATOM     73  C   UNL     1      -2.456   8.779 -11.633  1.00  0.00     0.009 A 
ATOM     74  C   UNL     1      -1.960   6.519 -10.932  1.00  0.00     0.009 A 
ATOM     75  C   UNL     1      -1.100   8.997 -11.886  1.00  0.00     0.001 A 
ATOM     76  C   UNL     1      -0.601   6.749 -11.162  1.00  0.00     0.001 A 
ATOM     77  C   UNL     1      -0.174   7.984 -11.647  1.00  0.00     0.000 A 
ENDBRANCH  53  72
BRANCH  65  78
ATOM     78  C   UNL     1      -8.426   6.917 -15.352  1.00  0.00    -0.014 A 
ATOM     79  C   UNL     1      -7.992   5.881 -16.192  1.00  0.00     0.009 A 
ATOM     80  C   UNL     1      -9.057   8.037 -15.914  1.00  0.00     0.009 A 
ATOM     81  C   UNL     1      -8.162   5.980 -17.574  1.00  0.00     0.001 A 
ATOM     82  C   UNL     1      -9.248   8.121 -17.293  1.00  0.00     0.001 A 
ATOM     83  C   UNL     1      -8.794   7.096 -18.122  1.00  0.00     0.000 A 
ENDBRANCH  65  78
ENDBRANCH  39  40
ENDBRANCH  31  34
ENDBRANCH  29  30
ENDBRANCH  28  29
ENDBRANCH  27  28
ENDBRANCH   3  27
TORSDOF 18
