REMARK SMILES Cc1c(C(=O)Nc2ccc(C(=O)Nc3ccccc3C(=O)NCCCNC(=O)c3ccc(-c4c5nc(c(-c6ccccc6)c6ccc([nH]6)c(-c6ccccc6)c6nc(c(-c7ccccc7)c7ccc4[nH]7)C=C6)C=C5)cc3)cc2)cccc1[N+](=O)[O-]
REMARK SMILES IDX 20 1 21 2 22 3 19 5 14 6 15 7 16 8 18 9 17 10 13 11 11 12
REMARK SMILES IDX 12 13 10 15 7 16 8 17 78 18 9 19 77 20 6 21 4 22 5 23 3 25
REMARK SMILES IDX 1 26 2 27 82 28 79 29 81 30 80 31 83 32 84 33 85 34 23 35
REMARK SMILES IDX 24 36 25 37 26 38 27 39 28 41 29 42 30 43 76 44 31 45 75 46
REMARK SMILES IDX 32 47 33 48 34 49 69 50 35 51 74 52 68 53 70 54 36 55 73 56
REMARK SMILES IDX 67 57 66 58 37 60 59 61 44 62 58 63 45 64 48 65 57 66 71 67
REMARK SMILES IDX 46 68 47 69 56 71 72 72 49 73 38 74 39 75 43 76 40 77 42 78
REMARK SMILES IDX 41 79 60 80 61 81 65 82 62 83 64 84 63 85 50 86 51 87 55 88
REMARK SMILES IDX 52 89 54 90 53 91
REMARK H PARENT 22 4 13 14 6 24 26 40 70 59 48 70
REMARK Flexibility Score: inf
ROOT
ATOM      1  C   UNL     1       4.983   1.650   3.657  1.00  0.00     0.253 C 
ATOM      2  O   UNL     1       6.150   1.676   3.268  1.00  0.00    -0.269 OA
ATOM      3  N   UNL     1       4.587   0.524   4.353  1.00  0.00    -0.352 N 
ATOM      4  H   UNL     1       5.277  -0.178   4.357  1.00  0.00     0.163 HD
ENDROOT
BRANCH   1   5
ATOM      5  C   UNL     1       4.077   2.793   3.336  1.00  0.00     0.063 A 
ATOM      6  C   UNL     1       4.170   3.525   2.126  1.00  0.00     0.054 A 
ATOM      7  C   UNL     1       3.297   4.609   1.903  1.00  0.00     0.027 A 
ATOM      8  C   UNL     1       2.312   4.945   2.827  1.00  0.00     0.002 A 
ATOM      9  C   UNL     1       3.171   3.250   4.307  1.00  0.00     0.016 A 
ATOM     10  C   UNL     1       2.260   4.275   4.039  1.00  0.00     0.001 A 
BRANCH   6  11
ATOM     11  N   UNL     1       5.064   3.301   1.060  1.00  0.00    -0.321 N 
ATOM     12  C   UNL     1       5.524   2.167   0.432  1.00  0.00     0.255 C 
ATOM     13  O   UNL     1       6.493   2.271  -0.323  1.00  0.00    -0.269 OA
ATOM     14  H   UNL     1       5.439   4.131   0.686  1.00  0.00     0.170 HD
BRANCH  12  15
ATOM     15  C   UNL     1       4.764   0.882   0.436  1.00  0.00     0.040 A 
ATOM     16  C   UNL     1       3.217  -1.416  -0.080  1.00  0.00     0.041 A 
ATOM     17  C   UNL     1       2.715  -0.382   0.694  1.00  0.00     0.027 A 
ATOM     18  C   UNL     1       4.564  -1.384  -0.448  1.00  0.00     0.027 A 
ATOM     19  C   UNL     1       3.446   0.786   0.873  1.00  0.00     0.016 A 
ATOM     20  C   UNL     1       5.333  -0.238  -0.189  1.00  0.00     0.016 A 
BRANCH  16  21
ATOM     21  N   UNL     1       2.397  -2.433  -0.597  1.00  0.00    -0.322 N 
ATOM     22  C   UNL     1       1.029  -2.472  -0.815  1.00  0.00     0.256 C 
ATOM     23  O   UNL     1       0.502  -3.533  -1.146  1.00  0.00    -0.269 OA
ATOM     24  H   UNL     1       2.875  -3.257  -0.847  1.00  0.00     0.170 HD
BRANCH  22  25
ATOM     25  C   UNL     1       0.153  -1.271  -0.655  1.00  0.00     0.049 A 
ATOM     26  C   UNL     1       1.435   0.164  -2.330  1.00  0.00     0.053 C 
ATOM     27  C   UNL     1       0.412  -0.007  -1.236  1.00  0.00     0.039 A 
ATOM     28  C   UNL     1      -0.329   1.091  -0.739  1.00  0.00     0.273 A 
ATOM     29  C   UNL     1      -0.963  -1.448   0.184  1.00  0.00     0.014 A 
ATOM     30  C   UNL     1      -1.423   0.913   0.124  1.00  0.00     0.086 A 
ATOM     31  C   UNL     1      -1.767  -0.368   0.544  1.00  0.00     0.008 A 
BRANCH  28  32
ATOM     32  N   UNL     1       0.088   2.474  -0.997  1.00  0.00     0.063 N 
ATOM     33  O   UNL     1      -0.804   3.322  -1.137  1.00  0.00    -0.258 OA
ATOM     34  O   UNL     1       1.302   2.719  -0.983  1.00  0.00    -0.258 OA
ENDBRANCH  28  32
ENDBRANCH  22  25
ENDBRANCH  16  21
ENDBRANCH  12  15
ENDBRANCH   6  11
ENDBRANCH   1   5
BRANCH   3  35
ATOM     35  C   UNL     1       3.385   0.133   5.085  1.00  0.00     0.118 C 
BRANCH  35  36
ATOM     36  C   UNL     1       2.490  -0.851   4.349  1.00  0.00     0.042 C 
BRANCH  36  37
ATOM     37  C   UNL     1       2.949  -2.300   4.437  1.00  0.00     0.118 C 
BRANCH  37  38
ATOM     38  N   UNL     1       2.364  -3.003   5.579  1.00  0.00    -0.352 N 
ATOM     39  C   UNL     1       2.369  -4.352   5.898  1.00  0.00     0.251 C 
ATOM     40  H   UNL     1       1.891  -2.427   6.222  1.00  0.00     0.163 HD
ATOM     41  O   UNL     1       1.853  -4.739   6.934  1.00  0.00    -0.269 OA
BRANCH  39  42
ATOM     42  C   UNL     1       3.140  -5.288   5.052  1.00  0.00     0.039 A 
ATOM     43  C   UNL     1       4.086  -6.094   5.694  1.00  0.00     0.014 A 
ATOM     44  C   UNL     1       3.114  -5.193   3.664  1.00  0.00     0.014 A 
ATOM     45  C   UNL     1       5.171  -6.568   4.967  1.00  0.00     0.010 A 
ATOM     46  C   UNL     1       4.234  -5.579   2.957  1.00  0.00     0.010 A 
ATOM     47  C   UNL     1       5.295  -6.193   3.630  1.00  0.00    -0.014 A 
BRANCH  47  48
ATOM     48  C   UNL     1       6.559  -6.290   2.916  1.00  0.00     0.031 A 
ATOM     49  C   UNL     1       6.803  -7.402   1.986  1.00  0.00     0.074 A 
ATOM     50  C   UNL     1       7.521  -5.367   3.130  1.00  0.00     0.049 A 
ATOM     51  N   UNL     1       7.969  -7.897   1.742  1.00  0.00    -0.248 NA
ATOM     52  C   UNL     1       5.719  -8.089   1.297  1.00  0.00     0.031 C 
ATOM     53  C   UNL     1       8.762  -5.180   2.385  1.00  0.00     0.029 A 
ATOM     54  N   UNL     1       7.661  -4.551   4.255  1.00  0.00    -0.354 N 
ATOM     55  C   UNL     1       7.832  -8.746   0.671  1.00  0.00     0.074 A 
ATOM     56  C   UNL     1       6.406  -8.906   0.494  1.00  0.00     0.031 C 
ATOM     57  C   UNL     1       9.638  -4.527   3.165  1.00  0.00     0.029 A 
ATOM     58  C   UNL     1       9.040  -4.409   4.485  1.00  0.00     0.049 A 
ATOM     59  H   UNL     1       6.933  -4.153   4.784  1.00  0.00     0.167 HD
ATOM     60  C   UNL     1       8.930  -9.099  -0.054  1.00  0.00     0.031 A 
ATOM     61  C   UNL     1       9.613  -4.846   5.643  1.00  0.00     0.031 A 
ATOM     62  C   UNL     1      10.163  -8.555   0.513  1.00  0.00     0.049 A 
ATOM     63  C   UNL     1      10.690  -5.888   5.442  1.00  0.00     0.074 A 
ATOM     64  C   UNL     1      10.953  -7.465   0.180  1.00  0.00     0.029 A 
ATOM     65  N   UNL     1      10.583  -8.973   1.770  1.00  0.00    -0.354 N 
ATOM     66  N   UNL     1      10.837  -6.593   4.355  1.00  0.00    -0.248 NA
ATOM     67  C   UNL     1      11.650  -6.256   6.479  1.00  0.00     0.031 C 
ATOM     68  C   UNL     1      11.825  -7.203   1.268  1.00  0.00     0.029 A 
ATOM     69  C   UNL     1      11.581  -8.146   2.250  1.00  0.00     0.049 A 
ATOM     70  H   UNL     1      10.220  -9.751   2.252  1.00  0.00     0.167 HD
ATOM     71  C   UNL     1      11.856  -7.497   4.527  1.00  0.00     0.074 A 
ATOM     72  C   UNL     1      12.347  -7.230   5.867  1.00  0.00     0.031 C 
ATOM     73  C   UNL     1      12.184  -8.398   3.554  1.00  0.00     0.031 A 
BRANCH  60  74
ATOM     74  C   UNL     1       8.826  -9.658  -1.453  1.00  0.00    -0.014 A 
ATOM     75  C   UNL     1       9.824  -9.359  -2.399  1.00  0.00     0.009 A 
ATOM     76  C   UNL     1       7.743 -10.419  -1.923  1.00  0.00     0.009 A 
ATOM     77  C   UNL     1       9.688  -9.692  -3.753  1.00  0.00     0.001 A 
ATOM     78  C   UNL     1       7.576 -10.716  -3.282  1.00  0.00     0.001 A 
ATOM     79  C   UNL     1       8.544 -10.338  -4.202  1.00  0.00     0.000 A 
ENDBRANCH  60  74
BRANCH  61  80
ATOM     80  C   UNL     1       8.709  -4.805   6.826  1.00  0.00    -0.014 A 
ATOM     81  C   UNL     1       8.250  -3.555   7.287  1.00  0.00     0.009 A 
ATOM     82  C   UNL     1       8.056  -5.963   7.272  1.00  0.00     0.009 A 
ATOM     83  C   UNL     1       7.106  -3.460   8.084  1.00  0.00     0.001 A 
ATOM     84  C   UNL     1       6.918  -5.864   8.081  1.00  0.00     0.001 A 
ATOM     85  C   UNL     1       6.424  -4.615   8.458  1.00  0.00     0.000 A 
ENDBRANCH  61  80
BRANCH  73  86
ATOM     86  C   UNL     1      13.135  -9.570   3.679  1.00  0.00    -0.014 A 
ATOM     87  C   UNL     1      13.611 -10.098   4.886  1.00  0.00     0.009 A 
ATOM     88  C   UNL     1      13.502 -10.274   2.506  1.00  0.00     0.009 A 
ATOM     89  C   UNL     1      14.434 -11.235   4.917  1.00  0.00     0.001 A 
ATOM     90  C   UNL     1      14.283 -11.432   2.535  1.00  0.00     0.001 A 
ATOM     91  C   UNL     1      14.760 -11.908   3.745  1.00  0.00     0.000 A 
ENDBRANCH  73  86
ENDBRANCH  47  48
ENDBRANCH  39  42
ENDBRANCH  37  38
ENDBRANCH  36  37
ENDBRANCH  35  36
ENDBRANCH   3  35
TORSDOF 15
