REMARK SMILES CCOC(=O)c1c(-c2cccc3ccccc23)csc1NC(=O)[C@H]1CC=CC[C@H]1C(=O)NCCCNC(=O)c1ccc(-c2c3nc(c(-c4ccccc4)c4ccc([nH]4)c(-c4ccccc4)c4nc(c(-c5ccccc5)c5ccc2[nH]5)C=C4)C=C3)cc1
REMARK SMILES IDX 30 1 31 2 32 3 29 5 24 6 25 7 26 8 28 9 27 10 22 11 21 12
REMARK SMILES IDX 23 14 20 15 6 16 7 17 18 18 19 19 4 20 5 21 3 22 2 23 1 24
REMARK SMILES IDX 8 25 9 26 17 27 10 28 12 29 16 30 11 31 13 32 15 33 14 34
REMARK SMILES IDX 33 35 34 36 35 37 36 38 37 39 38 41 39 42 40 43 86 44 41 45
REMARK SMILES IDX 85 46 42 47 43 48 44 49 79 50 45 51 84 52 78 53 80 54 46 55
REMARK SMILES IDX 83 56 77 57 76 58 47 60 69 61 54 62 68 63 55 64 58 65 67 66
REMARK SMILES IDX 81 67 56 68 57 69 66 71 82 72 59 73 48 74 49 75 53 76 50 77
REMARK SMILES IDX 52 78 51 79 70 80 71 81 75 82 72 83 74 84 73 85 60 86 61 87
REMARK SMILES IDX 65 88 62 89 64 90 63 91
REMARK H PARENT 32 4 21 13 36 40 80 59 58 70
REMARK Flexibility Score: inf
ROOT
ATOM      1  C   UNL     1       4.905   0.945   6.747  1.00  0.00     0.224 C 
ATOM      2  O   UNL     1       4.198   0.811   7.756  1.00  0.00    -0.275 OA
ATOM      3  N   UNL     1       4.429   1.809   5.821  1.00  0.00    -0.356 N 
ATOM      4  H   UNL     1       3.592   2.249   6.095  1.00  0.00     0.163 HD
ENDROOT
BRANCH   1   5
ATOM      5  C   UNL     1       6.176   0.107   6.624  1.00  0.00     0.095 C 
ATOM      6  C   UNL     1       5.964  -1.223   5.872  1.00  0.00     0.095 C 
ATOM      7  C   UNL     1       7.183  -2.146   6.068  1.00  0.00     0.041 C 
ATOM      8  C   UNL     1       8.506  -1.430   6.014  1.00  0.00    -0.030 C 
ATOM      9  C   UNL     1       7.484   0.842   6.328  1.00  0.00     0.041 C 
ATOM     10  C   UNL     1       8.638  -0.099   6.116  1.00  0.00    -0.030 C 
BRANCH   6  11
ATOM     11  C   UNL     1       5.739  -1.077   4.380  1.00  0.00     0.229 C 
ATOM     12  N   UNL     1       4.801  -1.771   3.684  1.00  0.00    -0.317 N 
ATOM     13  H   UNL     1       4.713  -1.448   2.758  1.00  0.00     0.170 HD
ATOM     14  O   UNL     1       6.423  -0.292   3.712  1.00  0.00    -0.274 OA
BRANCH  12  15
ATOM     15  C   UNL     1       3.939  -2.818   3.953  1.00  0.00     0.110 A 
ATOM     16  C   UNL     1       2.917  -3.228   3.110  1.00  0.00     0.102 A 
ATOM     17  C   UNL     1       2.288  -4.442   3.582  1.00  0.00     0.010 A 
ATOM     18  C   UNL     1       2.794  -4.833   4.802  1.00  0.00     0.076 A 
ATOM     19  S   UNL     1       4.065  -3.814   5.316  1.00  0.00    -0.125 S 
BRANCH  16  20
ATOM     20  C   UNL     1       2.569  -2.513   1.888  1.00  0.00     0.341 C 
ATOM     21  O   UNL     1       3.363  -1.789   1.290  1.00  0.00    -0.246 OA
BRANCH  20  22
ATOM     22  O   UNL     1       1.271  -2.697   1.548  1.00  0.00    -0.462 OA
BRANCH  22  23
ATOM     23  C   UNL     1       0.804  -2.049   0.369  1.00  0.00     0.230 C 
ATOM     24  C   UNL     1       0.748  -0.555   0.581  1.00  0.00     0.049 C 
ENDBRANCH  22  23
ENDBRANCH  20  22
ENDBRANCH  16  20
BRANCH  17  25
ATOM     25  C   UNL     1       1.285  -5.239   2.869  1.00  0.00    -0.009 A 
ATOM     26  C   UNL     1      -0.012  -5.313   3.399  1.00  0.00     0.009 A 
ATOM     27  C   UNL     1       1.584  -5.826   1.601  1.00  0.00    -0.010 A 
ATOM     28  C   UNL     1      -1.025  -5.948   2.686  1.00  0.00     0.001 A 
ATOM     29  C   UNL     1       0.534  -6.455   0.886  1.00  0.00    -0.018 A 
ATOM     30  C   UNL     1       2.866  -5.808   0.993  1.00  0.00     0.009 A 
ATOM     31  C   UNL     1      -0.754  -6.507   1.439  1.00  0.00     0.009 A 
ATOM     32  C   UNL     1       0.783  -7.017  -0.377  1.00  0.00     0.009 A 
ATOM     33  C   UNL     1       3.095  -6.362  -0.267  1.00  0.00     0.001 A 
ATOM     34  C   UNL     1       2.054  -6.975  -0.946  1.00  0.00     0.001 A 
ENDBRANCH  17  25
ENDBRANCH  12  15
ENDBRANCH   6  11
ENDBRANCH   1   5
BRANCH   3  35
ATOM     35  C   UNL     1       4.891   2.226   4.508  1.00  0.00     0.117 C 
BRANCH  35  36
ATOM     36  C   UNL     1       3.984   1.710   3.391  1.00  0.00     0.042 C 
BRANCH  36  37
ATOM     37  C   UNL     1       2.761   2.583   3.128  1.00  0.00     0.118 C 
BRANCH  37  38
ATOM     38  N   UNL     1       3.109   3.849   2.494  1.00  0.00    -0.352 N 
ATOM     39  C   UNL     1       2.846   4.327   1.232  1.00  0.00     0.251 C 
ATOM     40  H   UNL     1       3.619   4.466   3.066  1.00  0.00     0.163 HD
ATOM     41  O   UNL     1       3.428   5.334   0.837  1.00  0.00    -0.269 OA
BRANCH  39  42
ATOM     42  C   UNL     1       1.873   3.657   0.339  1.00  0.00     0.039 A 
ATOM     43  C   UNL     1       2.151   3.560  -1.031  1.00  0.00     0.014 A 
ATOM     44  C   UNL     1       0.657   3.183   0.824  1.00  0.00     0.014 A 
ATOM     45  C   UNL     1       1.254   2.913  -1.895  1.00  0.00     0.010 A 
ATOM     46  C   UNL     1      -0.201   2.487  -0.025  1.00  0.00     0.010 A 
ATOM     47  C   UNL     1       0.088   2.318  -1.394  1.00  0.00    -0.014 A 
BRANCH  47  48
ATOM     48  C   UNL     1      -0.832   1.482  -2.231  1.00  0.00     0.031 A 
ATOM     49  C   UNL     1      -2.313   1.774  -2.240  1.00  0.00     0.074 A 
ATOM     50  C   UNL     1      -0.391   0.362  -2.847  1.00  0.00     0.049 A 
ATOM     51  N   UNL     1      -3.304   1.043  -2.689  1.00  0.00    -0.248 NA
ATOM     52  C   UNL     1      -2.736   3.038  -1.617  1.00  0.00     0.031 C 
ATOM     53  C   UNL     1       0.999  -0.097  -2.907  1.00  0.00     0.029 A 
ATOM     54  N   UNL     1      -1.088  -0.630  -3.503  1.00  0.00    -0.354 N 
ATOM     55  C   UNL     1      -4.462   1.741  -2.369  1.00  0.00     0.074 A 
ATOM     56  C   UNL     1      -4.054   2.913  -1.625  1.00  0.00     0.031 C 
ATOM     57  C   UNL     1       1.052  -1.268  -3.562  1.00  0.00     0.029 A 
ATOM     58  C   UNL     1      -0.299  -1.673  -3.934  1.00  0.00     0.049 A 
ATOM     59  H   UNL     1      -2.061  -0.596  -3.649  1.00  0.00     0.167 HD
ATOM     60  C   UNL     1      -5.748   1.464  -2.694  1.00  0.00     0.031 A 
ATOM     61  C   UNL     1      -0.619  -2.830  -4.547  1.00  0.00     0.031 A 
ATOM     62  C   UNL     1      -6.167   0.339  -3.483  1.00  0.00     0.049 A 
ATOM     63  C   UNL     1      -2.057  -3.137  -4.869  1.00  0.00     0.074 A 
ATOM     64  C   UNL     1      -7.434   0.042  -3.955  1.00  0.00     0.029 A 
ATOM     65  N   UNL     1      -5.327  -0.668  -3.928  1.00  0.00    -0.354 N 
ATOM     66  N   UNL     1      -3.127  -2.421  -4.631  1.00  0.00    -0.248 NA
ATOM     67  C   UNL     1      -2.326  -4.407  -5.562  1.00  0.00     0.031 C 
ATOM     68  C   UNL     1      -7.367  -1.164  -4.661  1.00  0.00     0.029 A 
ATOM     69  C   UNL     1      -6.050  -1.594  -4.660  1.00  0.00     0.049 A 
ATOM     70  H   UNL     1      -4.360  -0.718  -3.749  1.00  0.00     0.167 HD
ATOM     71  C   UNL     1      -4.183  -3.116  -5.210  1.00  0.00     0.074 A 
ATOM     72  C   UNL     1      -3.630  -4.321  -5.789  1.00  0.00     0.031 C 
ATOM     73  C   UNL     1      -5.490  -2.769  -5.272  1.00  0.00     0.031 A 
BRANCH  60  74
ATOM     74  C   UNL     1      -6.798   2.429  -2.215  1.00  0.00    -0.014 A 
ATOM     75  C   UNL     1      -6.883   3.726  -2.747  1.00  0.00     0.009 A 
ATOM     76  C   UNL     1      -7.723   2.034  -1.237  1.00  0.00     0.009 A 
ATOM     77  C   UNL     1      -7.836   4.626  -2.269  1.00  0.00     0.001 A 
ATOM     78  C   UNL     1      -8.698   2.926  -0.785  1.00  0.00     0.001 A 
ATOM     79  C   UNL     1      -8.744   4.224  -1.291  1.00  0.00     0.000 A 
ENDBRANCH  60  74
BRANCH  61  80
ATOM     80  C   UNL     1       0.452  -3.778  -4.963  1.00  0.00    -0.014 A 
ATOM     81  C   UNL     1       0.754  -3.935  -6.326  1.00  0.00     0.009 A 
ATOM     82  C   UNL     1       1.165  -4.533  -4.021  1.00  0.00     0.009 A 
ATOM     83  C   UNL     1       1.722  -4.851  -6.740  1.00  0.00     0.001 A 
ATOM     84  C   UNL     1       2.161  -5.421  -4.439  1.00  0.00     0.001 A 
ATOM     85  C   UNL     1       2.428  -5.591  -5.796  1.00  0.00     0.000 A 
ENDBRANCH  61  80
BRANCH  73  86
ATOM     86  C   UNL     1      -6.407  -3.644  -6.078  1.00  0.00    -0.014 A 
ATOM     87  C   UNL     1      -6.851  -4.886  -5.602  1.00  0.00     0.009 A 
ATOM     88  C   UNL     1      -6.878  -3.180  -7.318  1.00  0.00     0.009 A 
ATOM     89  C   UNL     1      -7.733  -5.656  -6.364  1.00  0.00     0.001 A 
ATOM     90  C   UNL     1      -7.778  -3.941  -8.065  1.00  0.00     0.001 A 
ATOM     91  C   UNL     1      -8.200  -5.181  -7.590  1.00  0.00     0.000 A 
ENDBRANCH  73  86
ENDBRANCH  47  48
ENDBRANCH  39  42
ENDBRANCH  37  38
ENDBRANCH  36  37
ENDBRANCH  35  36
ENDBRANCH   3  35
TORSDOF 16
