REMARK SMILES O=C(NCCCNC(=O)c1cc2ccccc2cc1NS(=O)(=O)c1ccccc1Br)c1ccc(-c2c3nc(c(-c4ccccc4)c4ccc([nH]4)c(-c4ccccc4)c4nc(c(-c5ccccc5)c5ccc2[nH]5)C=C4)C=C3)cc1
REMARK SMILES IDX 5 1 4 2 3 3 1 4 2 5 31 7 32 8 78 9 33 10 77 11 34 12 35 13
REMARK SMILES IDX 36 14 71 15 37 16 76 17 70 18 72 19 38 20 75 21 69 22 68 23
REMARK SMILES IDX 39 25 61 26 46 27 60 28 47 29 50 30 59 31 73 32 48 33 49 34
REMARK SMILES IDX 58 36 74 37 51 38 40 39 41 40 45 41 42 42 44 43 43 44 62 45
REMARK SMILES IDX 63 46 67 47 64 48 66 49 65 50 52 51 53 52 57 53 54 54 56 55
REMARK SMILES IDX 55 56 6 57 7 58 8 59 9 61 10 62 11 63 19 64 12 65 18 66
REMARK SMILES IDX 13 67 17 68 14 69 16 70 15 71 20 72 21 74 22 75 23 76 24 77
REMARK SMILES IDX 25 78 29 79 26 80 28 81 30 82 27 83
REMARK H PARENT 3 6 72 24 50 35 7 60 20 73
REMARK Flexibility Score: inf
ROOT
ATOM      1  C   UNL     1       5.085  -1.021   2.074  1.00  0.00     0.042 C 
ENDROOT
BRANCH   1   2
ATOM      2  C   UNL     1       4.674  -1.351   0.645  1.00  0.00     0.118 C 
BRANCH   2   3
ATOM      3  N   UNL     1       3.240  -1.239   0.424  1.00  0.00    -0.352 N 
ATOM      4  O   UNL     1       1.261  -0.318  -0.098  1.00  0.00    -0.269 OA
ATOM      5  C   UNL     1       2.486  -0.270  -0.189  1.00  0.00     0.251 C 
ATOM      6  H   UNL     1       2.717  -1.994   0.777  1.00  0.00     0.163 HD
BRANCH   5   7
ATOM      7  C   UNL     1       3.108   0.843  -0.941  1.00  0.00     0.039 A 
ATOM      8  C   UNL     1       4.193   0.642  -1.798  1.00  0.00     0.014 A 
ATOM      9  C   UNL     1       2.527   2.113  -0.850  1.00  0.00     0.014 A 
ATOM     10  C   UNL     1       4.775   1.724  -2.456  1.00  0.00     0.010 A 
ATOM     11  C   UNL     1       3.062   3.184  -1.571  1.00  0.00     0.010 A 
ATOM     12  C   UNL     1       4.209   3.004  -2.358  1.00  0.00    -0.014 A 
BRANCH  12  13
ATOM     13  C   UNL     1       4.789   4.139  -3.118  1.00  0.00     0.031 A 
ATOM     14  C   UNL     1       5.411   5.305  -2.404  1.00  0.00     0.074 A 
ATOM     15  C   UNL     1       4.738   4.126  -4.464  1.00  0.00     0.049 A 
ATOM     16  N   UNL     1       5.913   6.405  -2.905  1.00  0.00    -0.248 NA
ATOM     17  C   UNL     1       5.470   5.230  -0.936  1.00  0.00     0.031 C 
ATOM     18  C   UNL     1       4.155   3.057  -5.277  1.00  0.00     0.029 A 
ATOM     19  N   UNL     1       5.181   5.042  -5.383  1.00  0.00    -0.354 N 
ATOM     20  C   UNL     1       6.319   7.166  -1.817  1.00  0.00     0.074 A 
ATOM     21  C   UNL     1       5.995   6.407  -0.627  1.00  0.00     0.031 C 
ATOM     22  C   UNL     1       4.297   3.368  -6.575  1.00  0.00     0.029 A 
ATOM     23  C   UNL     1       4.931   4.677  -6.683  1.00  0.00     0.049 A 
ATOM     24  H   UNL     1       5.635   5.880  -5.135  1.00  0.00     0.167 HD
ATOM     25  C   UNL     1       6.909   8.385  -1.808  1.00  0.00     0.031 A 
ATOM     26  C   UNL     1       5.161   5.331  -7.836  1.00  0.00     0.031 A 
ATOM     27  C   UNL     1       7.243   9.137  -2.988  1.00  0.00     0.049 A 
ATOM     28  C   UNL     1       5.800   6.686  -7.801  1.00  0.00     0.074 A 
ATOM     29  C   UNL     1       7.879  10.364  -3.079  1.00  0.00     0.029 A 
ATOM     30  N   UNL     1       6.965   8.734  -4.285  1.00  0.00    -0.354 N 
ATOM     31  N   UNL     1       6.201   7.379  -6.764  1.00  0.00    -0.248 NA
ATOM     32  C   UNL     1       6.015   7.350  -9.095  1.00  0.00     0.031 C 
ATOM     33  C   UNL     1       7.953  10.719  -4.430  1.00  0.00     0.029 A 
ATOM     34  C   UNL     1       7.398   9.696  -5.181  1.00  0.00     0.049 A 
ATOM     35  H   UNL     1       6.524   7.888  -4.531  1.00  0.00     0.167 HD
ATOM     36  C   UNL     1       6.728   8.556  -7.278  1.00  0.00     0.074 A 
ATOM     37  C   UNL     1       6.605   8.478  -8.720  1.00  0.00     0.031 C 
ATOM     38  C   UNL     1       7.266   9.605  -6.612  1.00  0.00     0.031 A 
BRANCH  25  39
ATOM     39  C   UNL     1       7.204   8.996  -0.469  1.00  0.00    -0.014 A 
ATOM     40  C   UNL     1       8.272   8.541   0.320  1.00  0.00     0.009 A 
ATOM     41  C   UNL     1       6.415  10.058  -0.001  1.00  0.00     0.009 A 
ATOM     42  C   UNL     1       8.523   9.119   1.567  1.00  0.00     0.001 A 
ATOM     43  C   UNL     1       6.682  10.647   1.236  1.00  0.00     0.001 A 
ATOM     44  C   UNL     1       7.730  10.171   2.023  1.00  0.00     0.000 A 
ENDBRANCH  25  39
BRANCH  26  45
ATOM     45  C   UNL     1       4.762   4.701  -9.118  1.00  0.00    -0.014 A 
ATOM     46  C   UNL     1       5.726   4.129  -9.960  1.00  0.00     0.009 A 
ATOM     47  C   UNL     1       3.407   4.624  -9.478  1.00  0.00     0.009 A 
ATOM     48  C   UNL     1       5.339   3.495 -11.143  1.00  0.00     0.001 A 
ATOM     49  C   UNL     1       3.023   3.971 -10.650  1.00  0.00     0.001 A 
ATOM     50  C   UNL     1       3.989   3.411 -11.483  1.00  0.00     0.000 A 
ENDBRANCH  26  45
BRANCH  38  51
ATOM     51  C   UNL     1       7.785  10.744  -7.437  1.00  0.00    -0.014 A 
ATOM     52  C   UNL     1       6.911  11.690  -7.993  1.00  0.00     0.009 A 
ATOM     53  C   UNL     1       9.168  10.897  -7.619  1.00  0.00     0.009 A 
ATOM     54  C   UNL     1       7.414  12.760  -8.735  1.00  0.00     0.001 A 
ATOM     55  C   UNL     1       9.668  11.978  -8.347  1.00  0.00     0.001 A 
ATOM     56  C   UNL     1       8.791  12.905  -8.908  1.00  0.00     0.000 A 
ENDBRANCH  38  51
ENDBRANCH  12  13
ENDBRANCH   5   7
ENDBRANCH   2   3
ENDBRANCH   1   2
BRANCH   1  57
ATOM     57  C   UNL     1       4.512  -1.956   3.130  1.00  0.00     0.118 C 
BRANCH  57  58
ATOM     58  N   UNL     1       4.924  -3.343   2.963  1.00  0.00    -0.352 N 
ATOM     59  C   UNL     1       5.702  -4.130   3.775  1.00  0.00     0.253 C 
ATOM     60  H   UNL     1       4.595  -3.782   2.146  1.00  0.00     0.163 HD
ATOM     61  O   UNL     1       5.991  -5.272   3.429  1.00  0.00    -0.269 OA
BRANCH  59  62
ATOM     62  C   UNL     1       6.237  -3.605   5.047  1.00  0.00     0.064 A 
ATOM     63  C   UNL     1       7.631  -3.669   5.213  1.00  0.00     0.024 A 
ATOM     64  C   UNL     1       5.414  -3.108   6.069  1.00  0.00     0.062 A 
ATOM     65  C   UNL     1       8.233  -3.193   6.386  1.00  0.00    -0.017 A 
ATOM     66  C   UNL     1       6.032  -2.544   7.187  1.00  0.00     0.036 A 
ATOM     67  C   UNL     1       9.613  -3.316   6.621  1.00  0.00     0.009 A 
ATOM     68  C   UNL     1       7.423  -2.589   7.368  1.00  0.00    -0.016 A 
ATOM     69  C   UNL     1      10.179  -2.841   7.807  1.00  0.00     0.001 A 
ATOM     70  C   UNL     1       8.010  -2.090   8.542  1.00  0.00     0.009 A 
ATOM     71  C   UNL     1       9.379  -2.220   8.762  1.00  0.00     0.001 A 
BRANCH  64  72
ATOM     72  N   UNL     1       4.008  -3.378   6.055  1.00  0.00    -0.279 N 
ATOM     73  H   UNL     1       3.736  -4.279   5.766  1.00  0.00     0.180 HD
BRANCH  72  74
ATOM     74  S   UNL     1       2.779  -2.329   6.476  1.00  0.00     0.263 S 
ATOM     75  O   UNL     1       2.997  -1.100   5.741  1.00  0.00    -0.201 OA
ATOM     76  O   UNL     1       1.536  -3.056   6.333  1.00  0.00    -0.201 OA
BRANCH  74  77
ATOM     77  C   UNL     1       2.984  -1.968   8.197  1.00  0.00     0.101 A 
ATOM     78  C   UNL     1       3.084  -0.610   8.552  1.00  0.00     0.023 A 
ATOM     79  C   UNL     1       3.186  -2.959   9.162  1.00  0.00     0.038 A 
ATOM     80  C   UNL     1       3.448  -0.244   9.846  1.00  0.00     0.001 A 
ATOM     81  C   UNL     1       3.565  -2.578  10.457  1.00  0.00     0.017 A 
ATOM     82  Br  UNL     1       3.035  -4.823   8.841  1.00  0.00    -0.049 Br
ATOM     83  C   UNL     1       3.708  -1.229  10.792  1.00  0.00     0.001 A 
ENDBRANCH  74  77
ENDBRANCH  72  74
ENDBRANCH  64  72
ENDBRANCH  59  62
ENDBRANCH  57  58
ENDBRANCH   1  57
TORSDOF 13
