REMARK SMILES O=C(NCCCNC(=O)c1ccc(-c2c3nc(c(-c4ccccc4)c4ccc([nH]4)c(-c4ccccc4)c4nc(c(-c5ccccc5)c5ccc2[nH]5)C=C4)C=C3)cc1)C1=Cc2cc(S(F)(F)(F)(F)F)ccc2O[C@H]1C(F)(F)F
REMARK SMILES IDX 5 1 4 2 3 3 1 4 2 5 58 7 59 8 73 9 60 10 72 11 61 12 71 13
REMARK SMILES IDX 62 14 70 15 69 16 74 17 75 18 76 19 77 20 63 21 64 22 65 23
REMARK SMILES IDX 66 24 67 25 68 26 6 27 7 28 8 29 9 31 10 32 11 33 57 34
REMARK SMILES IDX 12 35 56 36 13 37 14 38 15 39 50 40 16 41 55 42 49 43 51 44
REMARK SMILES IDX 17 45 54 46 48 47 47 48 18 50 40 51 25 52 39 53 26 54 29 55
REMARK SMILES IDX 38 56 52 57 27 58 28 59 37 61 53 62 30 63 19 64 20 65 24 66
REMARK SMILES IDX 21 67 23 68 22 69 41 70 42 71 46 72 43 73 45 74 44 75 31 76
REMARK SMILES IDX 32 77 36 78 33 79 35 80 34 81
REMARK H PARENT 3 6 7 30 51 49 29 60
REMARK Flexibility Score: inf
ROOT
ATOM      1  C   UNL     1       5.005   2.295   0.152  1.00  0.00     0.042 C 
ENDROOT
BRANCH   1   2
ATOM      2  C   UNL     1       4.498   1.011   0.789  1.00  0.00     0.118 C 
BRANCH   2   3
ATOM      3  N   UNL     1       3.028   1.011   0.789  1.00  0.00    -0.352 N 
ATOM      4  O   UNL     1       1.022  -0.049   0.084  1.00  0.00    -0.270 OA
ATOM      5  C   UNL     1       2.293  -0.049   0.084  1.00  0.00     0.251 C 
ATOM      6  H   UNL     1       2.536   1.721   1.261  1.00  0.00     0.163 HD
BRANCH   5   7
ATOM      7  C   UNL     1       3.053  -1.146  -0.644  1.00  0.00     0.067 C 
ATOM      8  C   UNL     1       4.413  -1.146  -0.644  1.00  0.00     0.025 C 
ATOM      9  C   UNL     1       2.293  -2.242  -1.373  1.00  0.00     0.314 C 
ATOM     10  C   UNL     1       5.173  -0.049   0.084  1.00  0.00     0.019 A 
ATOM     11  O   UNL     1       3.478  -0.221   1.741  1.00  0.00    -0.475 OA
ATOM     12  C   UNL     1       6.321   0.525  -0.437  1.00  0.00     0.036 A 
ATOM     13  C   UNL     1       4.739   0.260   1.300  1.00  0.00     0.128 A 
ATOM     14  C   UNL     1       7.109   1.205   0.523  1.00  0.00     0.107 A 
ATOM     15  C   UNL     1       5.499   1.042   2.136  1.00  0.00     0.048 A 
ATOM     16  C   UNL     1       6.674   1.595   1.707  1.00  0.00     0.028 A 
BRANCH   9  17
ATOM     17  C   UNL     1       0.799  -2.011  -1.219  1.00  0.00     0.429 C 
ATOM     18  F   UNL     1       0.522  -1.662   0.034  1.00  0.00    -0.167 F 
ATOM     19  F   UNL     1       0.410  -1.043  -2.044  1.00  0.00    -0.167 F 
ATOM     20  F   UNL     1       0.154  -3.135  -1.520  1.00  0.00    -0.167 F 
ENDBRANCH   9  17
BRANCH  14  21
ATOM     21  S   UNL     1       8.830   1.565   0.096  1.00  0.00     0.310 S 
ATOM     22  F   UNL     1       9.272   1.590   1.619  1.00  0.00    -0.094 F 
ATOM     23  F   UNL     1       8.510   3.101   0.236  1.00  0.00    -0.094 F 
ATOM     24  F   UNL     1      10.308   1.878  -0.274  1.00  0.00    -0.094 F 
ATOM     25  F   UNL     1       9.166   0.022   0.099  1.00  0.00    -0.094 F 
ATOM     26  F   UNL     1       7.363   1.232   0.581  1.00  0.00    -0.094 F 
ENDBRANCH  14  21
ENDBRANCH   5   7
ENDBRANCH   2   3
ENDBRANCH   1   2
BRANCH   1  27
ATOM     27  C   UNL     1       4.498   3.488   0.945  1.00  0.00     0.118 C 
BRANCH  27  28
ATOM     28  N   UNL     1       4.988   3.401   2.328  1.00  0.00    -0.352 N 
ATOM     29  C   UNL     1       5.833   4.471   2.877  1.00  0.00     0.251 C 
ATOM     30  H   UNL     1       4.750   2.626   2.887  1.00  0.00     0.163 HD
ATOM     31  O   UNL     1       6.257   4.396   4.073  1.00  0.00    -0.269 OA
BRANCH  29  32
ATOM     32  C   UNL     1       6.200   5.668   2.015  1.00  0.00     0.039 A 
ATOM     33  C   UNL     1       7.498   6.122   1.842  1.00  0.00     0.014 A 
ATOM     34  C   UNL     1       5.192   6.186   1.325  1.00  0.00     0.014 A 
ATOM     35  C   UNL     1       7.589   7.335   1.121  1.00  0.00     0.010 A 
ATOM     36  C   UNL     1       5.382   7.293   0.532  1.00  0.00     0.010 A 
ATOM     37  C   UNL     1       6.628   7.830   0.362  1.00  0.00    -0.014 A 
BRANCH  37  38
ATOM     38  C   UNL     1       6.891   8.938  -0.644  1.00  0.00     0.031 A 
ATOM     39  C   UNL     1       6.175  10.120  -0.453  1.00  0.00     0.074 A 
ATOM     40  C   UNL     1       7.690   8.687  -1.747  1.00  0.00     0.049 A 
ATOM     41  N   UNL     1       6.152  11.195  -1.242  1.00  0.00    -0.248 NA
ATOM     42  C   UNL     1       5.299  10.376   0.701  1.00  0.00     0.031 C 
ATOM     43  C   UNL     1       8.423   7.500  -1.944  1.00  0.00     0.029 A 
ATOM     44  N   UNL     1       7.919   9.508  -2.829  1.00  0.00    -0.354 N 
ATOM     45  C   UNL     1       5.364  12.136  -0.718  1.00  0.00     0.074 A 
ATOM     46  C   UNL     1       4.800  11.620   0.537  1.00  0.00     0.031 C 
ATOM     47  C   UNL     1       9.075   7.600  -3.132  1.00  0.00     0.029 A 
ATOM     48  C   UNL     1       8.762   8.850  -3.698  1.00  0.00     0.049 A 
ATOM     49  H   UNL     1       7.545  10.409  -2.959  1.00  0.00     0.167 HD
ATOM     50  C   UNL     1       5.096  13.405  -1.235  1.00  0.00     0.031 A 
ATOM     51  C   UNL     1       9.239   9.298  -4.919  1.00  0.00     0.031 A 
ATOM     52  C   UNL     1       5.609  13.869  -2.436  1.00  0.00     0.049 A 
ATOM     53  C   UNL     1       8.924  10.544  -5.465  1.00  0.00     0.074 A 
ATOM     54  C   UNL     1       5.354  15.148  -2.967  1.00  0.00     0.029 A 
ATOM     55  N   UNL     1       6.431  13.201  -3.316  1.00  0.00    -0.354 N 
ATOM     56  N   UNL     1       8.169  11.500  -4.921  1.00  0.00    -0.248 NA
ATOM     57  C   UNL     1       9.398  11.016  -6.773  1.00  0.00     0.031 C 
ATOM     58  C   UNL     1       6.007  15.247  -4.156  1.00  0.00     0.029 A 
ATOM     59  C   UNL     1       6.679  14.031  -4.387  1.00  0.00     0.049 A 
ATOM     60  H   UNL     1       6.782  12.289  -3.200  1.00  0.00     0.167 HD
ATOM     61  C   UNL     1       8.113  12.559  -5.732  1.00  0.00     0.074 A 
ATOM     62  C   UNL     1       8.897  12.260  -6.938  1.00  0.00     0.031 C 
ATOM     63  C   UNL     1       7.443  13.763  -5.512  1.00  0.00     0.031 A 
BRANCH  50  64
ATOM     64  C   UNL     1       4.192  14.329  -0.436  1.00  0.00    -0.014 A 
ATOM     65  C   UNL     1       4.560  14.586   0.875  1.00  0.00     0.009 A 
ATOM     66  C   UNL     1       3.053  14.795  -0.936  1.00  0.00     0.009 A 
ATOM     67  C   UNL     1       3.514  15.109   1.672  1.00  0.00     0.001 A 
ATOM     68  C   UNL     1       2.135  15.416  -0.124  1.00  0.00     0.001 A 
ATOM     69  C   UNL     1       2.408  15.651   1.195  1.00  0.00     0.000 A 
ENDBRANCH  50  64
BRANCH  51  70
ATOM     70  C   UNL     1      10.157   8.380  -5.710  1.00  0.00    -0.014 A 
ATOM     71  C   UNL     1      11.446   8.842  -5.918  1.00  0.00     0.009 A 
ATOM     72  C   UNL     1       9.783   7.174  -6.122  1.00  0.00     0.009 A 
ATOM     73  C   UNL     1      12.194   8.064  -6.833  1.00  0.00     0.001 A 
ATOM     74  C   UNL     1      10.618   6.411  -6.902  1.00  0.00     0.001 A 
ATOM     75  C   UNL     1      11.885   6.832  -7.196  1.00  0.00     0.000 A 
ENDBRANCH  51  70
BRANCH  63  76
ATOM     76  C   UNL     1       7.558  14.848  -6.571  1.00  0.00    -0.014 A 
ATOM     77  C   UNL     1       7.089  14.665  -7.862  1.00  0.00     0.009 A 
ATOM     78  C   UNL     1       8.087  16.003  -6.188  1.00  0.00     0.009 A 
ATOM     79  C   UNL     1       7.488  15.678  -8.766  1.00  0.00     0.001 A 
ATOM     80  C   UNL     1       8.325  17.001  -7.102  1.00  0.00     0.001 A 
ATOM     81  C   UNL     1       7.941  16.865  -8.407  1.00  0.00     0.000 A 
ENDBRANCH  63  76
ENDBRANCH  37  38
ENDBRANCH  29  32
ENDBRANCH  27  28
ENDBRANCH   1  27
TORSDOF 12
