REMARK SMILES O=C(NCCCNC(=O)c1cc(NC(=S)NC(=O)c2ccccc2F)ccc1Cl)c1ccc(-c2c3nc(c(-c4ccccc4)c4ccc([nH]4)c(-c4ccccc4)c4nc(c(-c5ccccc5)c5ccc2[nH]5)C=C4)C=C3)cc1
REMARK SMILES IDX 6 1 5 2 4 3 3 4 1 5 2 6 30 8 31 9 77 10 32 11 76 12 33 13
REMARK SMILES IDX 34 14 35 15 70 16 36 17 75 18 69 19 71 20 37 21 74 22 68 23
REMARK SMILES IDX 67 24 38 26 60 27 45 28 59 29 46 30 49 31 58 32 72 33 47 34
REMARK SMILES IDX 48 35 57 37 73 38 50 39 39 40 40 41 44 42 41 43 43 44 42 45
REMARK SMILES IDX 61 46 62 47 66 48 63 49 65 50 64 51 51 52 52 53 56 54 53 55
REMARK SMILES IDX 55 56 54 57 7 58 8 59 9 61 10 62 11 63 28 64 12 65 27 66
REMARK SMILES IDX 29 67 26 68 13 69 14 71 15 72 16 73 17 74 18 76 19 77 20 78
REMARK SMILES IDX 24 79 21 80 23 81 25 82 22 83
REMARK H PARENT 3 7 71 25 49 36 7 60 13 70 16 75
REMARK Flexibility Score: inf
ROOT
ATOM      1  C   UNL     1       5.015  -1.427   3.178  1.00  0.00     0.118 C 
ENDROOT
BRANCH   1   2
ATOM      2  C   UNL     1       5.569  -0.890   1.861  1.00  0.00     0.042 C 
BRANCH   2   3
ATOM      3  C   UNL     1       4.900  -1.413   0.593  1.00  0.00     0.118 C 
BRANCH   3   4
ATOM      4  N   UNL     1       3.466  -1.176   0.540  1.00  0.00    -0.352 N 
ATOM      5  O   UNL     1       1.486  -0.204   0.195  1.00  0.00    -0.269 OA
ATOM      6  C   UNL     1       2.693  -0.204  -0.042  1.00  0.00     0.251 C 
ATOM      7  H   UNL     1       2.941  -1.855   1.023  1.00  0.00     0.163 HD
BRANCH   6   8
ATOM      8  C   UNL     1       3.247   0.864  -0.910  1.00  0.00     0.039 A 
ATOM      9  C   UNL     1       4.263   0.647  -1.841  1.00  0.00     0.014 A 
ATOM     10  C   UNL     1       2.638   2.128  -0.855  1.00  0.00     0.014 A 
ATOM     11  C   UNL     1       4.755   1.707  -2.609  1.00  0.00     0.010 A 
ATOM     12  C   UNL     1       3.082   3.171  -1.675  1.00  0.00     0.010 A 
ATOM     13  C   UNL     1       4.170   2.981  -2.536  1.00  0.00    -0.014 A 
BRANCH  13  14
ATOM     14  C   UNL     1       4.686   4.096  -3.372  1.00  0.00     0.031 A 
ATOM     15  C   UNL     1       5.341   5.293  -2.737  1.00  0.00     0.074 A 
ATOM     16  C   UNL     1       4.575   4.038  -4.713  1.00  0.00     0.049 A 
ATOM     17  N   UNL     1       5.829   6.366  -3.310  1.00  0.00    -0.248 NA
ATOM     18  C   UNL     1       5.455   5.292  -1.270  1.00  0.00     0.031 C 
ATOM     19  C   UNL     1       3.947   2.951  -5.466  1.00  0.00     0.029 A 
ATOM     20  N   UNL     1       5.000   4.913  -5.681  1.00  0.00    -0.354 N 
ATOM     21  C   UNL     1       6.271   7.180  -2.277  1.00  0.00     0.074 A 
ATOM     22  C   UNL     1       5.995   6.481  -1.040  1.00  0.00     0.031 C 
ATOM     23  C   UNL     1       4.067   3.202  -6.779  1.00  0.00     0.029 A 
ATOM     24  C   UNL     1       4.745   4.482  -6.959  1.00  0.00     0.049 A 
ATOM     25  H   UNL     1       5.446   5.767  -5.479  1.00  0.00     0.167 HD
ATOM     26  C   UNL     1       6.857   8.399  -2.345  1.00  0.00     0.031 A 
ATOM     27  C   UNL     1       5.019   5.051  -8.147  1.00  0.00     0.031 A 
ATOM     28  C   UNL     1       7.175   9.093  -3.562  1.00  0.00     0.049 A 
ATOM     29  C   UNL     1       5.700   6.385  -8.200  1.00  0.00     0.074 A 
ATOM     30  C   UNL     1       7.804  10.317  -3.719  1.00  0.00     0.029 A 
ATOM     31  N   UNL     1       6.897   8.620  -4.833  1.00  0.00    -0.354 N 
ATOM     32  N   UNL     1       6.115   7.136  -7.210  1.00  0.00    -0.248 NA
ATOM     33  C   UNL     1       5.942   6.954  -9.534  1.00  0.00     0.031 C 
ATOM     34  C   UNL     1       7.894  10.591  -5.090  1.00  0.00     0.029 A 
ATOM     35  C   UNL     1       7.335   9.530  -5.781  1.00  0.00     0.049 A 
ATOM     36  H   UNL     1       6.454   7.764  -5.033  1.00  0.00     0.167 HD
ATOM     37  C   UNL     1       6.660   8.267  -7.799  1.00  0.00     0.074 A 
ATOM     38  C   UNL     1       6.541   8.098  -9.233  1.00  0.00     0.031 C 
ATOM     39  C   UNL     1       7.203   9.354  -7.201  1.00  0.00     0.031 A 
BRANCH  26  40
ATOM     40  C   UNL     1       7.179   9.073  -1.046  1.00  0.00    -0.014 A 
ATOM     41  C   UNL     1       8.341   8.747  -0.332  1.00  0.00     0.009 A 
ATOM     42  C   UNL     1       6.322  10.065  -0.545  1.00  0.00     0.009 A 
ATOM     43  C   UNL     1       8.629   9.388   0.874  1.00  0.00     0.001 A 
ATOM     44  C   UNL     1       6.619  10.713   0.655  1.00  0.00     0.001 A 
ATOM     45  C   UNL     1       7.768  10.371   1.366  1.00  0.00     0.000 A 
ENDBRANCH  26  40
BRANCH  27  46
ATOM     46  C   UNL     1       4.639   4.348  -9.395  1.00  0.00    -0.014 A 
ATOM     47  C   UNL     1       5.597   3.619 -10.114  1.00  0.00     0.009 A 
ATOM     48  C   UNL     1       3.313   4.377  -9.851  1.00  0.00     0.009 A 
ATOM     49  C   UNL     1       5.233   2.933 -11.274  1.00  0.00     0.001 A 
ATOM     50  C   UNL     1       2.950   3.680 -11.004  1.00  0.00     0.001 A 
ATOM     51  C   UNL     1       3.910   2.960 -11.715  1.00  0.00     0.000 A 
ENDBRANCH  27  46
BRANCH  39  52
ATOM     52  C   UNL     1       7.703  10.444  -8.097  1.00  0.00    -0.014 A 
ATOM     53  C   UNL     1       6.819  11.408  -8.604  1.00  0.00     0.009 A 
ATOM     54  C   UNL     1       9.067  10.528  -8.412  1.00  0.00     0.009 A 
ATOM     55  C   UNL     1       7.292  12.431  -9.428  1.00  0.00     0.001 A 
ATOM     56  C   UNL     1       9.537  11.557  -9.229  1.00  0.00     0.001 A 
ATOM     57  C   UNL     1       8.650  12.505  -9.739  1.00  0.00     0.000 A 
ENDBRANCH  39  52
ENDBRANCH  13  14
ENDBRANCH   6   8
ENDBRANCH   3   4
ENDBRANCH   2   3
ENDBRANCH   1   2
BRANCH   1  58
ATOM     58  N   UNL     1       4.967  -2.879   3.263  1.00  0.00    -0.352 N 
ATOM     59  C   UNL     1       4.949  -3.741   4.356  1.00  0.00     0.252 C 
ATOM     60  H   UNL     1       4.942  -3.334   2.391  1.00  0.00     0.163 HD
ATOM     61  O   UNL     1       4.528  -4.876   4.135  1.00  0.00    -0.269 OA
BRANCH  59  62
ATOM     62  C   UNL     1       5.480  -3.135   5.964  1.00  0.00     0.060 A 
ATOM     63  C   UNL     1       7.183  -3.720   6.973  1.00  0.00     0.041 A 
ATOM     64  C   UNL     1       4.502  -2.312   5.945  1.00  0.00     0.053 A 
ATOM     65  C   UNL     1       8.132  -3.767   7.864  1.00  0.00     0.041 A 
ATOM     66  C   UNL     1       5.370  -2.366   6.880  1.00  0.00     0.023 A 
ATOM     67  Cl  UNL     1       2.824  -2.468   6.098  1.00  0.00    -0.083 Cl
ATOM     68  C   UNL     1       7.095  -3.021   7.763  1.00  0.00     0.028 A 
BRANCH  65  69
ATOM     69  N   UNL     1       9.467  -3.621   7.446  1.00  0.00    -0.332 N 
ATOM     70  H   UNL     1      10.086  -3.614   8.212  1.00  0.00     0.169 HD
BRANCH  69  71
ATOM     71  C   UNL     1      10.133  -3.488   6.271  1.00  0.00     0.177 C 
ATOM     72  S   UNL     1      11.799  -3.300   6.375  1.00  0.00    -0.040 S 
BRANCH  71  73
ATOM     73  N   UNL     1       9.603  -3.595   5.004  1.00  0.00    -0.299 N 
ATOM     74  C   UNL     1       8.369  -3.753   4.357  1.00  0.00     0.260 C 
ATOM     75  H   UNL     1      10.324  -3.542   4.336  1.00  0.00     0.172 HD
ATOM     76  O   UNL     1       8.268  -4.141   3.202  1.00  0.00    -0.269 OA
BRANCH  74  77
ATOM     77  C   UNL     1       7.179  -3.444   5.148  1.00  0.00     0.075 A 
ATOM     78  C   UNL     1       6.116  -4.903   6.040  1.00  0.00     0.017 A 
ATOM     79  C   UNL     1       7.280  -1.723   6.096  1.00  0.00     0.135 A 
ATOM     80  C   UNL     1       5.345  -4.395   7.781  1.00  0.00     0.001 A 
ATOM     81  C   UNL     1       6.524  -1.229   7.843  1.00  0.00     0.040 A 
ATOM     82  F   UNL     1       8.109  -0.807   5.556  1.00  0.00    -0.206 F 
ATOM     83  C   UNL     1       5.497  -2.689   8.746  1.00  0.00     0.003 A 
ENDBRANCH  74  77
ENDBRANCH  71  73
ENDBRANCH  69  71
ENDBRANCH  65  69
ENDBRANCH  59  62
ENDBRANCH   1  58
TORSDOF 14
