REMARK SMILES CS(=O)(=O)c1ccc(/C=C(/C(=O)NCCCNC(=O)c2ccc(-c3c4nc(c(-c5ccccc5)c5ccc([nH]5)c(-c5ccccc5)c5nc(c(-c6ccccc6)c6ccc3[nH]6)C=C5)C=C4)cc2)c2ccc(O)cc2)cc1
REMARK SMILES IDX 15 1 14 2 13 3 11 4 12 5 10 7 9 8 8 9 5 10 6 11 76 12 7 13
REMARK SMILES IDX 75 14 2 15 1 16 3 17 4 18 68 19 69 20 74 21 70 22 73 23
REMARK SMILES IDX 71 24 72 25 16 27 17 28 18 29 19 31 20 32 21 33 67 34 22 35
REMARK SMILES IDX 66 36 23 37 24 38 25 39 60 40 26 41 65 42 59 43 61 44 27 45
REMARK SMILES IDX 64 46 58 47 57 48 28 50 50 51 35 52 49 53 36 54 39 55 48 56
REMARK SMILES IDX 62 57 37 58 38 59 47 61 63 62 40 63 29 64 30 65 34 66 31 67
REMARK SMILES IDX 33 68 32 69 51 70 52 71 56 72 53 73 55 74 54 75 41 76 42 77
REMARK SMILES IDX 46 78 43 79 45 80 44 81
REMARK H PARENT 13 6 72 26 17 30 61 49 39 60
REMARK Flexibility Score: inf
ROOT
ATOM      1  C   UNL     1       2.480   3.563   9.324  1.00  0.00     0.042 C 
ENDROOT
BRANCH   1   2
ATOM      2  C   UNL     1       3.484   2.549   8.770  1.00  0.00     0.118 C 
BRANCH   2   3
ATOM      3  N   UNL     1       3.196   1.211   9.257  1.00  0.00    -0.352 N 
ATOM      4  C   UNL     1       2.624   0.108   8.704  1.00  0.00     0.251 C 
ATOM      5  O   UNL     1       2.541  -0.882   9.434  1.00  0.00    -0.269 OA
ATOM      6  H   UNL     1       3.477   1.073  10.190  1.00  0.00     0.163 HD
BRANCH   4   7
ATOM      7  C   UNL     1       2.174   0.037   7.265  1.00  0.00     0.047 C 
ATOM      8  C   UNL     1       1.595   1.093   6.650  1.00  0.00     0.022 C 
BRANCH   8   9
ATOM      9  C   UNL     1       1.162   1.220   5.241  1.00  0.00    -0.025 A 
ATOM     10  C   UNL     1       0.529   1.528   2.526  1.00  0.00     0.067 A 
ATOM     11  C   UNL     1       0.068   0.411   3.222  1.00  0.00     0.021 A 
ATOM     12  C   UNL     1       1.252   2.524   3.183  1.00  0.00     0.021 A 
ATOM     13  C   UNL     1       0.371   0.271   4.580  1.00  0.00     0.009 A 
ATOM     14  C   UNL     1       1.565   2.366   4.536  1.00  0.00     0.009 A 
BRANCH  10  15
ATOM     15  S   UNL     1       0.181   1.683   0.791  1.00  0.00     0.175 S 
ATOM     16  C   UNL     1       0.985   0.281   0.059  1.00  0.00     0.163 C 
ATOM     17  O   UNL     1       0.857   2.870   0.310  1.00  0.00    -0.224 OA
ATOM     18  O   UNL     1      -1.254   1.522   0.633  1.00  0.00    -0.224 OA
ENDBRANCH  10  15
ENDBRANCH   8   9
BRANCH   7  19
ATOM     19  C   UNL     1       2.206  -1.292   6.604  1.00  0.00    -0.013 A 
ATOM     20  C   UNL     1       1.324  -2.291   7.052  1.00  0.00     0.013 A 
ATOM     21  C   UNL     1       3.002  -1.546   5.478  1.00  0.00     0.013 A 
ATOM     22  C   UNL     1       1.198  -3.494   6.359  1.00  0.00     0.047 A 
ATOM     23  C   UNL     1       2.869  -2.751   4.777  1.00  0.00     0.047 A 
ATOM     24  C   UNL     1       1.954  -3.704   5.215  1.00  0.00     0.115 A 
BRANCH  24  25
ATOM     25  O   UNL     1       1.750  -4.866   4.532  1.00  0.00    -0.508 OA
ATOM     26  H   UNL     1       1.128  -5.492   4.847  1.00  0.00     0.293 HD
ENDBRANCH  24  25
ENDBRANCH   7  19
ENDBRANCH   4   7
ENDBRANCH   2   3
ENDBRANCH   1   2
BRANCH   1  27
ATOM     27  C   UNL     1       2.601   3.800  10.831  1.00  0.00     0.118 C 
BRANCH  27  28
ATOM     28  N   UNL     1       3.830   4.494  11.185  1.00  0.00    -0.352 N 
ATOM     29  C   UNL     1       4.022   5.668  11.869  1.00  0.00     0.251 C 
ATOM     30  H   UNL     1       4.656   4.050  10.886  1.00  0.00     0.163 HD
ATOM     31  O   UNL     1       5.140   6.178  11.882  1.00  0.00    -0.269 OA
BRANCH  29  32
ATOM     32  C   UNL     1       2.908   6.337  12.579  1.00  0.00     0.039 A 
ATOM     33  C   UNL     1       2.828   7.732  12.527  1.00  0.00     0.014 A 
ATOM     34  C   UNL     1       1.987   5.617  13.345  1.00  0.00     0.014 A 
ATOM     35  C   UNL     1       1.801   8.400  13.200  1.00  0.00     0.010 A 
ATOM     36  C   UNL     1       0.928   6.279  13.968  1.00  0.00     0.010 A 
ATOM     37  C   UNL     1       0.827   7.677  13.905  1.00  0.00    -0.014 A 
BRANCH  37  38
ATOM     38  C   UNL     1      -0.304   8.372  14.570  1.00  0.00     0.031 A 
ATOM     39  C   UNL     1      -0.433   8.373  16.068  1.00  0.00     0.074 A 
ATOM     40  C   UNL     1      -1.248   8.970  13.817  1.00  0.00     0.049 A 
ATOM     41  N   UNL     1      -1.364   8.912  16.816  1.00  0.00    -0.248 NA
ATOM     42  C   UNL     1       0.608   7.660  16.823  1.00  0.00     0.031 C 
ATOM     43  C   UNL     1      -1.262   9.012  12.354  1.00  0.00     0.029 A 
ATOM     44  N   UNL     1      -2.379   9.656  14.181  1.00  0.00    -0.354 N 
ATOM     45  C   UNL     1      -1.031   8.589  18.125  1.00  0.00     0.074 A 
ATOM     46  C   UNL     1       0.164   7.774  18.067  1.00  0.00     0.031 C 
ATOM     47  C   UNL     1      -2.331   9.714  11.946  1.00  0.00     0.029 A 
ATOM     48  C   UNL     1      -3.094  10.142  13.114  1.00  0.00     0.049 A 
ATOM     49  H   UNL     1      -2.652   9.788  15.118  1.00  0.00     0.167 HD
ATOM     50  C   UNL     1      -1.653   8.950  19.275  1.00  0.00     0.031 A 
ATOM     51  C   UNL     1      -4.235  10.854  13.078  1.00  0.00     0.031 A 
ATOM     52  C   UNL     1      -2.837   9.765  19.338  1.00  0.00     0.049 A 
ATOM     53  C   UNL     1      -4.910  11.236  14.363  1.00  0.00     0.074 A 
ATOM     54  C   UNL     1      -3.505  10.231  20.457  1.00  0.00     0.029 A 
ATOM     55  N   UNL     1      -3.532  10.233  18.234  1.00  0.00    -0.354 N 
ATOM     56  N   UNL     1      -4.546  10.977  15.595  1.00  0.00    -0.248 NA
ATOM     57  C   UNL     1      -6.148  12.020  14.250  1.00  0.00     0.031 C 
ATOM     58  C   UNL     1      -4.631  10.945  20.030  1.00  0.00     0.029 A 
ATOM     59  C   UNL     1      -4.636  10.962  18.645  1.00  0.00     0.049 A 
ATOM     60  H   UNL     1      -3.279  10.070  17.297  1.00  0.00     0.167 HD
ATOM     61  C   UNL     1      -5.498  11.581  16.405  1.00  0.00     0.074 A 
ATOM     62  C   UNL     1      -6.446  12.233  15.525  1.00  0.00     0.031 C 
ATOM     63  C   UNL     1      -5.578  11.594  17.758  1.00  0.00     0.031 A 
BRANCH  50  64
ATOM     64  C   UNL     1      -1.061   8.446  20.562  1.00  0.00    -0.014 A 
ATOM     65  C   UNL     1       0.158   8.948  21.048  1.00  0.00     0.009 A 
ATOM     66  C   UNL     1      -1.739   7.471  21.309  1.00  0.00     0.009 A 
ATOM     67  C   UNL     1       0.705   8.452  22.233  1.00  0.00     0.001 A 
ATOM     68  C   UNL     1      -1.203   6.997  22.508  1.00  0.00     0.001 A 
ATOM     69  C   UNL     1       0.024   7.479  22.963  1.00  0.00     0.000 A 
ENDBRANCH  50  64
BRANCH  51  70
ATOM     70  C   UNL     1      -4.797  11.278  11.771  1.00  0.00    -0.014 A 
ATOM     71  C   UNL     1      -4.707  12.618  11.364  1.00  0.00     0.009 A 
ATOM     72  C   UNL     1      -5.411  10.348  10.919  1.00  0.00     0.009 A 
ATOM     73  C   UNL     1      -5.235  13.021  10.136  1.00  0.00     0.001 A 
ATOM     74  C   UNL     1      -5.918  10.750   9.681  1.00  0.00     0.001 A 
ATOM     75  C   UNL     1      -5.835  12.086   9.294  1.00  0.00     0.000 A 
ENDBRANCH  51  70
BRANCH  63  76
ATOM     76  C   UNL     1      -6.722  12.356  18.365  1.00  0.00    -0.014 A 
ATOM     77  C   UNL     1      -8.032  11.855  18.320  1.00  0.00     0.009 A 
ATOM     78  C   UNL     1      -6.481  13.580  19.008  1.00  0.00     0.009 A 
ATOM     79  C   UNL     1      -9.084  12.584  18.880  1.00  0.00     0.001 A 
ATOM     80  C   UNL     1      -7.531  14.293  19.588  1.00  0.00     0.001 A 
ATOM     81  C   UNL     1      -8.832  13.799  19.515  1.00  0.00     0.000 A 
ENDBRANCH  63  76
ENDBRANCH  37  38
ENDBRANCH  29  32
ENDBRANCH  27  28
ENDBRANCH   1  27
TORSDOF 14
