REMARK SMILES COc1ccc(-c2cc(C[C@H]3CCCC3=O)ccc2[C@@H](C)C(=O)NCCCNC(=O)c2ccc(-c3c4nc(c(-c5ccccc5)c5ccc([nH]5)c(-c5ccccc5)c5nc(c(-c6ccccc6)c6ccc3[nH]6)C=C5)C=C4)cc2)cc1
REMARK SMILES IDX 25 1 24 2 22 3 23 4 20 6 21 7 19 8 7 9 8 10 9 11 18 12 17 13
REMARK SMILES IDX 6 14 3 15 4 16 80 17 5 18 79 19 2 20 1 21 10 22 11 23 12 24
REMARK SMILES IDX 15 25 13 26 14 27 16 28 26 29 27 30 28 31 29 32 30 34 31 35
REMARK SMILES IDX 32 36 78 37 33 38 77 39 34 40 35 41 36 42 71 43 37 44 76 45
REMARK SMILES IDX 70 46 72 47 38 48 75 49 69 50 68 51 39 53 61 54 46 55 60 56
REMARK SMILES IDX 47 57 50 58 59 59 73 60 48 61 49 62 58 64 74 65 51 66 40 67
REMARK SMILES IDX 41 68 45 69 42 70 44 71 43 72 62 73 63 74 67 75 64 76 66 77
REMARK SMILES IDX 65 78 52 79 53 80 57 81 54 82 56 83 55 84
REMARK H PARENT 24 5 28 33 72 52 50 63
REMARK Flexibility Score: inf
ROOT
ATOM      1  C   UNL     1       6.016   7.440  -4.603  1.00  0.00     0.117 C 
ENDROOT
BRANCH   1   2
ATOM      2  N   UNL     1       6.113   6.292  -3.724  1.00  0.00    -0.356 N 
ATOM      3  C   UNL     1       5.196   5.386  -3.288  1.00  0.00     0.227 C 
ATOM      4  O   UNL     1       5.610   4.572  -2.451  1.00  0.00    -0.274 OA
ATOM      5  H   UNL     1       7.020   6.136  -3.375  1.00  0.00     0.163 HD
BRANCH   3   6
ATOM      6  C   UNL     1       3.728   5.332  -3.752  1.00  0.00     0.106 C 
ATOM      7  C   UNL     1       3.517   5.259  -5.264  1.00  0.00     0.023 C 
BRANCH   6   8
ATOM      8  C   UNL     1       2.838   6.334  -3.019  1.00  0.00    -0.028 A 
ATOM      9  C   UNL     1       2.041   5.967  -1.908  1.00  0.00    -0.014 A 
ATOM     10  C   UNL     1       1.332   6.968  -1.208  1.00  0.00     0.012 A 
ATOM     11  C   UNL     1       1.333   8.302  -1.631  1.00  0.00    -0.047 A 
ATOM     12  C   UNL     1       2.798   7.672  -3.443  1.00  0.00     0.005 A 
ATOM     13  C   UNL     1       2.083   8.647  -2.751  1.00  0.00     0.004 A 
BRANCH   9  14
ATOM     14  C   UNL     1       1.739   4.565  -1.578  1.00  0.00    -0.018 A 
ATOM     15  C   UNL     1       1.063   1.877  -1.057  1.00  0.00     0.118 A 
ATOM     16  C   UNL     1       0.198   2.687  -1.786  1.00  0.00     0.047 A 
ATOM     17  C   UNL     1       2.274   2.401  -0.599  1.00  0.00     0.047 A 
ATOM     18  C   UNL     1       0.529   4.016  -2.039  1.00  0.00     0.012 A 
ATOM     19  C   UNL     1       2.607   3.742  -0.853  1.00  0.00     0.012 A 
BRANCH  15  20
ATOM     20  O   UNL     1       0.634   0.589  -0.895  1.00  0.00    -0.497 OA
ATOM     21  C   UNL     1       1.171  -0.108   0.221  1.00  0.00     0.278 C 
ENDBRANCH  15  20
ENDBRANCH   9  14
BRANCH  11  22
ATOM     22  C   UNL     1       0.421   9.322  -0.995  1.00  0.00     0.047 C 
BRANCH  22  23
ATOM     23  C   UNL     1      -1.017   9.323  -1.535  1.00  0.00     0.060 C 
ATOM     24  C   UNL     1      -1.195   9.320  -3.060  1.00  0.00     0.012 C 
ATOM     25  C   UNL     1      -1.768   8.073  -1.135  1.00  0.00     0.136 C 
ATOM     26  C   UNL     1      -1.408   7.863  -3.460  1.00  0.00     0.009 C 
ATOM     27  C   UNL     1      -2.212   7.257  -2.320  1.00  0.00     0.076 C 
ATOM     28  O   UNL     1      -2.014   7.771   0.027  1.00  0.00    -0.299 OA
ENDBRANCH  22  23
ENDBRANCH  11  22
ENDBRANCH   6   8
ENDBRANCH   3   6
ENDBRANCH   1   2
BRANCH   1  29
ATOM     29  C   UNL     1       5.868   8.748  -3.826  1.00  0.00     0.042 C 
BRANCH  29  30
ATOM     30  C   UNL     1       7.182   9.334  -3.332  1.00  0.00     0.118 C 
BRANCH  30  31
ATOM     31  N   UNL     1       7.990   9.859  -4.422  1.00  0.00    -0.352 N 
ATOM     32  C   UNL     1       8.424  11.134  -4.682  1.00  0.00     0.251 C 
ATOM     33  H   UNL     1       8.273   9.187  -5.083  1.00  0.00     0.163 HD
ATOM     34  O   UNL     1       8.914  11.382  -5.782  1.00  0.00    -0.269 OA
BRANCH  32  35
ATOM     35  C   UNL     1       8.311  12.216  -3.675  1.00  0.00     0.039 A 
ATOM     36  C   UNL     1       8.076  13.522  -4.121  1.00  0.00     0.014 A 
ATOM     37  C   UNL     1       8.507  11.980  -2.312  1.00  0.00     0.014 A 
ATOM     38  C   UNL     1       8.002  14.575  -3.205  1.00  0.00     0.010 A 
ATOM     39  C   UNL     1       8.348  13.015  -1.391  1.00  0.00     0.010 A 
ATOM     40  C   UNL     1       8.117  14.327  -1.829  1.00  0.00    -0.014 A 
BRANCH  40  41
ATOM     41  C   UNL     1       8.041  15.429  -0.837  1.00  0.00     0.031 A 
ATOM     42  C   UNL     1       9.238  15.761   0.015  1.00  0.00     0.074 A 
ATOM     43  C   UNL     1       6.884  16.096  -0.662  1.00  0.00     0.049 A 
ATOM     44  N   UNL     1       9.348  16.642   0.978  1.00  0.00    -0.248 NA
ATOM     45  C   UNL     1      10.463  14.982  -0.229  1.00  0.00     0.031 C 
ATOM     46  C   UNL     1       5.642  15.850  -1.397  1.00  0.00     0.029 A 
ATOM     47  N   UNL     1       6.565  17.118   0.197  1.00  0.00    -0.354 N 
ATOM     48  C   UNL     1      10.641  16.503   1.469  1.00  0.00     0.074 A 
ATOM     49  C   UNL     1      11.261  15.425   0.731  1.00  0.00     0.031 C 
ATOM     50  C   UNL     1       4.705  16.715  -0.977  1.00  0.00     0.029 A 
ATOM     51  C   UNL     1       5.267  17.549   0.080  1.00  0.00     0.049 A 
ATOM     52  H   UNL     1       7.207  17.505   0.836  1.00  0.00     0.167 HD
ATOM     53  C   UNL     1      11.265  17.220   2.435  1.00  0.00     0.031 A 
ATOM     54  C   UNL     1       4.601  18.508   0.751  1.00  0.00     0.031 A 
ATOM     55  C   UNL     1      10.659  18.308   3.152  1.00  0.00     0.049 A 
ATOM     56  C   UNL     1       5.317  19.295   1.813  1.00  0.00     0.074 A 
ATOM     57  C   UNL     1      11.226  19.136   4.106  1.00  0.00     0.029 A 
ATOM     58  N   UNL     1       9.347  18.724   2.990  1.00  0.00    -0.354 N 
ATOM     59  N   UNL     1       6.557  19.190   2.224  1.00  0.00    -0.248 NA
ATOM     60  C   UNL     1       4.542  20.342   2.494  1.00  0.00     0.031 C 
ATOM     61  C   UNL     1      10.244  20.027   4.550  1.00  0.00     0.029 A 
ATOM     62  C   UNL     1       9.081  19.785   3.838  1.00  0.00     0.049 A 
ATOM     63  H   UNL     1       8.700  18.324   2.365  1.00  0.00     0.167 HD
ATOM     64  C   UNL     1       6.719  20.173   3.191  1.00  0.00     0.074 A 
ATOM     65  C   UNL     1       5.455  20.872   3.295  1.00  0.00     0.031 C 
ATOM     66  C   UNL     1       7.818  20.470   3.926  1.00  0.00     0.031 A 
BRANCH  53  67
ATOM     67  C   UNL     1      12.680  16.840   2.772  1.00  0.00    -0.014 A 
ATOM     68  C   UNL     1      13.734  17.094   1.879  1.00  0.00     0.009 A 
ATOM     69  C   UNL     1      12.968  16.244   4.009  1.00  0.00     0.009 A 
ATOM     70  C   UNL     1      15.041  16.723   2.203  1.00  0.00     0.001 A 
ATOM     71  C   UNL     1      14.280  15.901   4.343  1.00  0.00     0.001 A 
ATOM     72  C   UNL     1      15.313  16.131   3.435  1.00  0.00     0.000 A 
ENDBRANCH  53  67
BRANCH  54  73
ATOM     73  C   UNL     1       3.182  18.795   0.422  1.00  0.00    -0.014 A 
ATOM     74  C   UNL     1       2.835  19.974  -0.257  1.00  0.00     0.009 A 
ATOM     75  C   UNL     1       2.167  17.895   0.781  1.00  0.00     0.009 A 
ATOM     76  C   UNL     1       1.499  20.256  -0.548  1.00  0.00     0.001 A 
ATOM     77  C   UNL     1       0.834  18.167   0.465  1.00  0.00     0.001 A 
ATOM     78  C   UNL     1       0.500  19.351  -0.192  1.00  0.00     0.000 A 
ENDBRANCH  54  73
BRANCH  66  79
ATOM     79  C   UNL     1       7.711  21.623   4.882  1.00  0.00    -0.014 A 
ATOM     80  C   UNL     1       6.989  21.512   6.079  1.00  0.00     0.009 A 
ATOM     81  C   UNL     1       8.379  22.825   4.596  1.00  0.00     0.009 A 
ATOM     82  C   UNL     1       6.912  22.594   6.959  1.00  0.00     0.001 A 
ATOM     83  C   UNL     1       8.323  23.895   5.490  1.00  0.00     0.001 A 
ATOM     84  C   UNL     1       7.583  23.782   6.665  1.00  0.00     0.000 A 
ENDBRANCH  66  79
ENDBRANCH  40  41
ENDBRANCH  32  35
ENDBRANCH  30  31
ENDBRANCH  29  30
ENDBRANCH   1  29
TORSDOF 15
