REMARK SMILES COC(=O)[C@H]1CCN(C(=O)N[C@H](C(=O)NCCCNC(=O)c2ccc(-c3c4nc(c(-c5ccccc5)c5ccc([nH]5)c(-c5ccccc5)c5nc(c(-c6ccccc6)c6ccc3[nH]6)C=C5)C=C4)cc2)C2CC2)C1
REMARK SMILES IDX 16 1 15 2 13 3 14 4 12 6 11 7 9 8 10 9 8 11 5 12 6 13 73 14
REMARK SMILES IDX 7 15 3 16 4 17 2 18 1 19 70 20 71 21 72 22 17 23 18 24 19 25
REMARK SMILES IDX 20 26 21 28 22 29 23 30 69 31 24 32 68 33 25 34 26 35 27 36
REMARK SMILES IDX 62 37 28 38 67 39 61 40 63 41 29 42 66 43 60 44 59 45 30 47
REMARK SMILES IDX 52 48 37 49 51 50 38 51 41 52 50 53 64 54 39 55 40 56 49 58
REMARK SMILES IDX 65 59 42 60 31 61 32 62 36 63 33 64 35 65 34 66 53 67 54 68
REMARK SMILES IDX 58 69 55 70 57 71 56 72 43 73 44 74 48 75 45 76 47 77 46 78
REMARK H PARENT 15 5 11 10 19 27 63 46 41 57
REMARK Flexibility Score: inf
ROOT
ATOM      1  C   UNL     1      -3.420   3.099   6.126  1.00  0.00     0.117 C 
ENDROOT
BRANCH   1   2
ATOM      2  N   UNL     1      -2.779   3.478   4.878  1.00  0.00    -0.354 N 
ATOM      3  C   UNL     1      -3.074   3.167   3.584  1.00  0.00     0.242 C 
ATOM      4  O   UNL     1      -2.151   3.341   2.780  1.00  0.00    -0.273 OA
ATOM      5  H   UNL     1      -1.994   4.061   4.986  1.00  0.00     0.163 HD
BRANCH   3   6
ATOM      6  C   UNL     1      -4.439   2.545   3.166  1.00  0.00     0.176 C 
BRANCH   6   7
ATOM      7  N   UNL     1      -5.563   2.767   4.073  1.00  0.00    -0.326 N 
ATOM      8  C   UNL     1      -6.193   3.833   4.588  1.00  0.00     0.318 C 
ATOM      9  O   UNL     1      -7.060   3.578   5.430  1.00  0.00    -0.249 OA
ATOM     10  H   UNL     1      -5.956   1.921   4.386  1.00  0.00     0.166 HD
BRANCH   8  11
ATOM     11  N   UNL     1      -5.856   5.111   4.297  1.00  0.00    -0.324 N 
ATOM     12  C   UNL     1      -5.784   7.476   4.583  1.00  0.00     0.120 C 
ATOM     13  C   UNL     1      -4.574   6.991   3.791  1.00  0.00     0.039 C 
ATOM     14  C   UNL     1      -6.391   6.188   5.128  1.00  0.00     0.136 C 
ATOM     15  C   UNL     1      -5.064   5.677   3.225  1.00  0.00     0.122 C 
BRANCH  12  16
ATOM     16  C   UNL     1      -5.401   8.427   5.686  1.00  0.00     0.310 C 
ATOM     17  O   UNL     1      -4.256   8.685   6.024  1.00  0.00    -0.252 OA
BRANCH  16  18
ATOM     18  O   UNL     1      -6.520   8.993   6.217  1.00  0.00    -0.469 OA
ATOM     19  C   UNL     1      -6.241  10.001   7.191  1.00  0.00     0.282 C 
ENDBRANCH  16  18
ENDBRANCH  12  16
ENDBRANCH   8  11
ENDBRANCH   6   7
BRANCH   6  20
ATOM     20  C   UNL     1      -4.930   2.735   1.742  1.00  0.00     0.021 C 
ATOM     21  C   UNL     1      -4.314   3.642   0.697  1.00  0.00     0.006 C 
ATOM     22  C   UNL     1      -4.152   2.155   0.582  1.00  0.00     0.006 C 
ENDBRANCH   6  20
ENDBRANCH   3   6
ENDBRANCH   1   2
BRANCH   1  23
ATOM     23  C   UNL     1      -2.463   2.322   7.016  1.00  0.00     0.042 C 
BRANCH  23  24
ATOM     24  C   UNL     1      -1.260   3.126   7.482  1.00  0.00     0.118 C 
BRANCH  24  25
ATOM     25  N   UNL     1      -1.610   4.176   8.425  1.00  0.00    -0.352 N 
ATOM     26  C   UNL     1      -1.194   4.362   9.721  1.00  0.00     0.251 C 
ATOM     27  H   UNL     1      -2.239   4.853   8.085  1.00  0.00     0.163 HD
ATOM     28  O   UNL     1      -1.737   5.209  10.424  1.00  0.00    -0.269 OA
BRANCH  26  29
ATOM     29  C   UNL     1      -0.109   3.528  10.283  1.00  0.00     0.039 A 
ATOM     30  C   UNL     1      -0.221   3.074  11.599  1.00  0.00     0.014 A 
ATOM     31  C   UNL     1       1.020   3.200   9.527  1.00  0.00     0.014 A 
ATOM     32  C   UNL     1       0.771   2.251  12.134  1.00  0.00     0.010 A 
ATOM     33  C   UNL     1       1.949   2.291  10.022  1.00  0.00     0.010 A 
ATOM     34  C   UNL     1       1.850   1.827  11.340  1.00  0.00    -0.014 A 
BRANCH  34  35
ATOM     35  C   UNL     1       2.896   0.928  11.890  1.00  0.00     0.031 A 
ATOM     36  C   UNL     1       4.326   1.393  11.980  1.00  0.00     0.074 A 
ATOM     37  C   UNL     1       2.566  -0.318  12.283  1.00  0.00     0.049 A 
ATOM     38  N   UNL     1       5.373   0.758  12.444  1.00  0.00    -0.248 NA
ATOM     39  C   UNL     1       4.626   2.735  11.454  1.00  0.00     0.031 C 
ATOM     40  C   UNL     1       1.229  -0.909  12.200  1.00  0.00     0.029 A 
ATOM     41  N   UNL     1       3.333  -1.310  12.841  1.00  0.00    -0.354 N 
ATOM     42  C   UNL     1       6.449   1.616  12.254  1.00  0.00     0.074 A 
ATOM     43  C   UNL     1       5.944   2.785  11.572  1.00  0.00     0.031 C 
ATOM     44  C   UNL     1       1.259  -2.142  12.732  1.00  0.00     0.029 A 
ATOM     45  C   UNL     1       2.622  -2.442  13.157  1.00  0.00     0.049 A 
ATOM     46  H   UNL     1       4.300  -1.220  13.000  1.00  0.00     0.167 HD
ATOM     47  C   UNL     1       7.739   1.460  12.636  1.00  0.00     0.031 A 
ATOM     48  C   UNL     1       3.021  -3.592  13.732  1.00  0.00     0.031 A 
ATOM     49  C   UNL     1       8.243   0.300  13.322  1.00  0.00     0.049 A 
ATOM     50  C   UNL     1       4.459  -3.741  14.146  1.00  0.00     0.074 A 
ATOM     51  C   UNL     1       9.520   0.068  13.800  1.00  0.00     0.029 A 
ATOM     52  N   UNL     1       7.490  -0.825  13.622  1.00  0.00    -0.354 N 
ATOM     53  N   UNL     1       5.448  -2.888  14.029  1.00  0.00    -0.248 NA
ATOM     54  C   UNL     1       4.829  -5.010  14.789  1.00  0.00     0.031 C 
ATOM     55  C   UNL     1       9.555  -1.223  14.340  1.00  0.00     0.029 A 
ATOM     56  C   UNL     1       8.283  -1.766  14.258  1.00  0.00     0.049 A 
ATOM     57  H   UNL     1       6.535  -0.937  13.415  1.00  0.00     0.167 HD
ATOM     58  C   UNL     1       6.549  -3.504  14.609  1.00  0.00     0.074 A 
ATOM     59  C   UNL     1       6.098  -4.791  15.099  1.00  0.00     0.031 C 
ATOM     60  C   UNL     1       7.821  -3.048  14.727  1.00  0.00     0.031 A 
BRANCH  47  61
ATOM     61  C   UNL     1       8.696   2.576  12.309  1.00  0.00    -0.014 A 
ATOM     62  C   UNL     1       8.596   3.831  12.935  1.00  0.00     0.009 A 
ATOM     63  C   UNL     1       9.724   2.366  11.378  1.00  0.00     0.009 A 
ATOM     64  C   UNL     1       9.478   4.862  12.602  1.00  0.00     0.001 A 
ATOM     65  C   UNL     1      10.626   3.388  11.072  1.00  0.00     0.001 A 
ATOM     66  C   UNL     1      10.495   4.638  11.675  1.00  0.00     0.000 A 
ENDBRANCH  47  61
BRANCH  48  67
ATOM     67  C   UNL     1       2.042  -4.684  13.979  1.00  0.00    -0.014 A 
ATOM     68  C   UNL     1       1.660  -5.020  15.287  1.00  0.00     0.009 A 
ATOM     69  C   UNL     1       1.494  -5.406  12.907  1.00  0.00     0.009 A 
ATOM     70  C   UNL     1       0.775  -6.075  15.518  1.00  0.00     0.001 A 
ATOM     71  C   UNL     1       0.584  -6.440  13.139  1.00  0.00     0.001 A 
ATOM     72  C   UNL     1       0.234  -6.781  14.444  1.00  0.00     0.000 A 
ENDBRANCH  48  67
BRANCH  60  73
ATOM     73  C   UNL     1       8.801  -3.937  15.442  1.00  0.00    -0.014 A 
ATOM     74  C   UNL     1       9.238  -5.148  14.880  1.00  0.00     0.009 A 
ATOM     75  C   UNL     1       9.300  -3.552  16.696  1.00  0.00     0.009 A 
ATOM     76  C   UNL     1      10.113  -5.978  15.584  1.00  0.00     0.001 A 
ATOM     77  C   UNL     1      10.203  -4.366  17.380  1.00  0.00     0.001 A 
ATOM     78  C   UNL     1      10.597  -5.585  16.831  1.00  0.00     0.000 A 
ENDBRANCH  60  73
ENDBRANCH  34  35
ENDBRANCH  26  29
ENDBRANCH  24  25
ENDBRANCH  23  24
ENDBRANCH   1  23
TORSDOF 15
