REMARK SMILES O=C(NCCCNC(=O)[C@@H]1CCCN(c2ccc3cc(S(=O)(=O)N4CCCCC4)ccc3n2)C1)c1ccc(-c2c3nc(c(-c4ccccc4)c4ccc([nH]4)c(-c4ccccc4)c4nc(c(-c5ccccc5)c5ccc2[nH]5)C=C4)C=C3)cc1
REMARK SMILES IDX 5 1 4 2 3 3 1 4 2 5 35 7 36 8 82 9 37 10 81 11 38 12 39 13
REMARK SMILES IDX 40 14 75 15 41 16 80 17 74 18 76 19 42 20 79 21 73 22 72 23
REMARK SMILES IDX 43 25 65 26 50 27 64 28 51 29 54 30 63 31 77 32 52 33 53 34
REMARK SMILES IDX 62 36 78 37 55 38 44 39 45 40 49 41 46 42 48 43 47 44 66 45
REMARK SMILES IDX 67 46 71 47 68 48 70 49 69 50 56 51 57 52 61 53 58 54 60 55
REMARK SMILES IDX 59 56 6 57 7 58 8 59 9 61 10 62 11 63 34 64 12 65 14 66
REMARK SMILES IDX 13 67 15 68 16 69 33 70 17 71 32 72 18 73 31 74 19 75 30 76
REMARK SMILES IDX 20 77 21 78 22 79 23 80 24 81 25 82 29 83 26 84 28 85 27 86
REMARK H PARENT 3 6 76 24 54 35 7 60
REMARK Flexibility Score: inf
ROOT
ATOM      1  C   UNL     1       5.468  -1.594   1.005  1.00  0.00     0.042 C 
ENDROOT
BRANCH   1   2
ATOM      2  C   UNL     1       4.793  -1.089  -0.262  1.00  0.00     0.118 C 
BRANCH   2   3
ATOM      3  N   UNL     1       3.341  -1.009  -0.174  1.00  0.00    -0.352 N 
ATOM      4  O   UNL     1       1.299  -0.080   0.067  1.00  0.00    -0.269 OA
ATOM      5  C   UNL     1       2.508   0.082  -0.064  1.00  0.00     0.251 C 
ATOM      6  H   UNL     1       2.879  -1.878  -0.196  1.00  0.00     0.163 HD
BRANCH   5   7
ATOM      7  C   UNL     1       3.079   1.447  -0.050  1.00  0.00     0.039 A 
ATOM      8  C   UNL     1       4.081   1.804  -0.947  1.00  0.00     0.014 A 
ATOM      9  C   UNL     1       2.637   2.369   0.903  1.00  0.00     0.014 A 
ATOM     10  C   UNL     1       4.809   2.964  -0.734  1.00  0.00     0.010 A 
ATOM     11  C   UNL     1       3.277   3.609   1.018  1.00  0.00     0.010 A 
ATOM     12  C   UNL     1       4.405   3.896   0.236  1.00  0.00    -0.014 A 
BRANCH  12  13
ATOM     13  C   UNL     1       5.151   5.176   0.350  1.00  0.00     0.031 A 
ATOM     14  C   UNL     1       5.845   5.575   1.624  1.00  0.00     0.074 A 
ATOM     15  C   UNL     1       5.247   5.960  -0.743  1.00  0.00     0.049 A 
ATOM     16  N   UNL     1       6.564   6.644   1.866  1.00  0.00    -0.248 NA
ATOM     17  C   UNL     1       5.714   4.671   2.777  1.00  0.00     0.031 C 
ATOM     18  C   UNL     1       4.620   5.679  -2.039  1.00  0.00     0.029 A 
ATOM     19  N   UNL     1       5.935   7.125  -0.957  1.00  0.00    -0.354 N 
ATOM     20  C   UNL     1       6.941   6.559   3.201  1.00  0.00     0.074 A 
ATOM     21  C   UNL     1       6.359   5.341   3.724  1.00  0.00     0.031 C 
ATOM     22  C   UNL     1       5.018   6.595  -2.929  1.00  0.00     0.029 A 
ATOM     23  C   UNL     1       5.847   7.581  -2.250  1.00  0.00     0.049 A 
ATOM     24  H   UNL     1       6.442   7.591  -0.253  1.00  0.00     0.167 HD
ATOM     25  C   UNL     1       7.700   7.418   3.924  1.00  0.00     0.031 A 
ATOM     26  C   UNL     1       6.355   8.682  -2.829  1.00  0.00     0.031 A 
ATOM     27  C   UNL     1       8.283   8.626   3.398  1.00  0.00     0.049 A 
ATOM     28  C   UNL     1       7.161   9.631  -1.997  1.00  0.00     0.074 A 
ATOM     29  C   UNL     1       9.089   9.548   4.044  1.00  0.00     0.029 A 
ATOM     30  N   UNL     1       8.117   9.084   2.099  1.00  0.00    -0.354 N 
ATOM     31  N   UNL     1       7.516   9.526  -0.740  1.00  0.00    -0.248 NA
ATOM     32  C   UNL     1       7.627  10.854  -2.661  1.00  0.00     0.031 C 
ATOM     33  C   UNL     1       9.367  10.589   3.151  1.00  0.00     0.029 A 
ATOM     34  C   UNL     1       8.782  10.288   1.932  1.00  0.00     0.049 A 
ATOM     35  H   UNL     1       7.602   8.621   1.399  1.00  0.00     0.167 HD
ATOM     36  C   UNL     1       8.254  10.666  -0.462  1.00  0.00     0.074 A 
ATOM     37  C   UNL     1       8.318  11.434  -1.690  1.00  0.00     0.031 C 
ATOM     38  C   UNL     1       8.822  11.046   0.708  1.00  0.00     0.031 A 
BRANCH  25  39
ATOM     39  C   UNL     1       7.914   7.103   5.380  1.00  0.00    -0.014 A 
ATOM     40  C   UNL     1       8.745   6.049   5.791  1.00  0.00     0.009 A 
ATOM     41  C   UNL     1       7.304   7.904   6.360  1.00  0.00     0.009 A 
ATOM     42  C   UNL     1       8.932   5.783   7.151  1.00  0.00     0.001 A 
ATOM     43  C   UNL     1       7.513   7.652   7.717  1.00  0.00     0.001 A 
ATOM     44  C   UNL     1       8.320   6.587   8.112  1.00  0.00     0.000 A 
ENDBRANCH  25  39
BRANCH  26  45
ATOM     45  C   UNL     1       6.081   8.950  -4.264  1.00  0.00    -0.014 A 
ATOM     46  C   UNL     1       7.106   8.861  -5.217  1.00  0.00     0.009 A 
ATOM     47  C   UNL     1       4.779   9.258  -4.692  1.00  0.00     0.009 A 
ATOM     48  C   UNL     1       6.833   9.088  -6.568  1.00  0.00     0.001 A 
ATOM     49  C   UNL     1       4.504   9.452  -6.046  1.00  0.00     0.001 A 
ATOM     50  C   UNL     1       5.533   9.374  -6.982  1.00  0.00     0.000 A 
ENDBRANCH  26  45
BRANCH  38  51
ATOM     51  C   UNL     1       9.579  12.343   0.701  1.00  0.00    -0.014 A 
ATOM     52  C   UNL     1       8.908  13.574   0.640  1.00  0.00     0.009 A 
ATOM     53  C   UNL     1      10.980  12.331   0.770  1.00  0.00     0.009 A 
ATOM     54  C   UNL     1       9.630  14.769   0.612  1.00  0.00     0.001 A 
ATOM     55  C   UNL     1      11.697  13.528   0.771  1.00  0.00     0.001 A 
ATOM     56  C   UNL     1      11.022  14.744   0.681  1.00  0.00     0.000 A 
ENDBRANCH  38  51
ENDBRANCH  12  13
ENDBRANCH   5   7
ENDBRANCH   2   3
ENDBRANCH   1   2
BRANCH   1  57
ATOM     57  C   UNL     1       5.260  -3.074   1.265  1.00  0.00     0.117 C 
BRANCH  57  58
ATOM     58  N   UNL     1       5.718  -3.913   0.176  1.00  0.00    -0.356 N 
ATOM     59  C   UNL     1       5.970  -5.247   0.140  1.00  0.00     0.224 C 
ATOM     60  H   UNL     1       5.872  -3.441  -0.673  1.00  0.00     0.163 HD
ATOM     61  O   UNL     1       6.222  -5.712  -0.975  1.00  0.00    -0.275 OA
BRANCH  59  62
ATOM     62  C   UNL     1       6.035  -6.088   1.414  1.00  0.00     0.098 C 
ATOM     63  C   UNL     1       6.309  -7.574   1.065  1.00  0.00     0.017 C 
ATOM     64  C   UNL     1       4.792  -6.024   2.301  1.00  0.00     0.131 C 
ATOM     65  C   UNL     1       5.072  -8.298   0.496  1.00  0.00     0.022 C 
ATOM     66  N   UNL     1       3.692  -6.690   1.641  1.00  0.00    -0.356 N 
ATOM     67  C   UNL     1       3.824  -8.101   1.359  1.00  0.00     0.118 C 
BRANCH  66  68
ATOM     68  C   UNL     1       2.553  -6.003   1.322  1.00  0.00     0.129 A 
ATOM     69  C   UNL     1       2.479  -5.263   0.146  1.00  0.00     0.047 A 
ATOM     70  N   UNL     1       1.540  -6.026   2.204  1.00  0.00    -0.231 NA
ATOM     71  C   UNL     1       1.355  -4.484  -0.110  1.00  0.00     0.014 A 
ATOM     72  C   UNL     1       0.440  -5.304   1.945  1.00  0.00     0.073 A 
ATOM     73  C   UNL     1       0.302  -4.490   0.803  1.00  0.00     0.002 A 
ATOM     74  C   UNL     1      -0.616  -5.367   2.835  1.00  0.00     0.030 A 
ATOM     75  C   UNL     1      -0.867  -3.735   0.600  1.00  0.00     0.032 A 
ATOM     76  C   UNL     1      -1.796  -4.646   2.627  1.00  0.00     0.024 A 
ATOM     77  C   UNL     1      -1.920  -3.814   1.517  1.00  0.00     0.083 A 
BRANCH  77  78
ATOM     78  S   UNL     1      -3.388  -2.861   1.155  1.00  0.00     0.243 S 
ATOM     79  O   UNL     1      -3.070  -1.486   1.479  1.00  0.00    -0.207 OA
ATOM     80  O   UNL     1      -3.795  -3.251  -0.178  1.00  0.00    -0.207 OA
BRANCH  78  81
ATOM     81  N   UNL     1      -4.613  -3.379   2.232  1.00  0.00    -0.198 NA
ATOM     82  C   UNL     1      -5.126  -4.752   2.006  1.00  0.00     0.102 C 
ATOM     83  C   UNL     1      -4.517  -2.864   3.620  1.00  0.00     0.102 C 
ATOM     84  C   UNL     1      -6.298  -5.090   2.914  1.00  0.00     0.017 C 
ATOM     85  C   UNL     1      -5.683  -3.297   4.497  1.00  0.00     0.017 C 
ATOM     86  C   UNL     1      -5.969  -4.783   4.365  1.00  0.00     0.003 C 
ENDBRANCH  78  81
ENDBRANCH  77  78
ENDBRANCH  66  68
ENDBRANCH  59  62
ENDBRANCH  57  58
ENDBRANCH   1  57
TORSDOF 13
