REMARK SMILES Cc1ccc(S(=O)(=O)N2CCCC2)cc1C(=O)N[C@H](CC1=c2ccccc2=NC1)C(=O)NCCCNC(=O)c1ccc(-c2c3nc(c(-c4ccccc4)c4ccc([nH]4)c(-c4ccccc4)c4nc(c(-c5ccccc5)c5ccc2[nH]5)C=C4)C=C3)cc1
REMARK SMILES IDX 33 1 32 2 30 3 31 4 19 6 18 7 16 8 17 9 15 11 1 12 2 13 3 14
REMARK SMILES IDX 4 15 14 16 5 17 6 18 7 19 8 20 9 21 10 22 13 23 11 24 12 25
REMARK SMILES IDX 20 26 21 27 22 28 29 29 23 30 27 31 28 32 24 33 26 34 25 35
REMARK SMILES IDX 34 36 35 37 36 38 37 39 38 41 39 42 40 43 86 44 41 45 85 46
REMARK SMILES IDX 42 47 43 48 44 49 79 50 45 51 84 52 78 53 80 54 46 55 83 56
REMARK SMILES IDX 77 57 76 58 47 60 69 61 54 62 68 63 55 64 58 65 67 66 81 67
REMARK SMILES IDX 56 68 57 69 66 71 82 72 59 73 48 74 49 75 53 76 50 77 52 78
REMARK SMILES IDX 51 79 70 80 71 81 75 82 72 83 74 84 73 85 60 86 61 87 65 88
REMARK SMILES IDX 62 89 64 90 63 91
REMARK H PARENT 32 5 18 10 36 40 80 59 58 70
REMARK Flexibility Score: inf
ROOT
ATOM      1  C   UNL     1       6.260   2.375   0.428  1.00  0.00     0.117 C 
ENDROOT
BRANCH   1   2
ATOM      2  N   UNL     1       5.433   1.528   1.261  1.00  0.00    -0.354 N 
ATOM      3  C   UNL     1       4.172   1.044   1.140  1.00  0.00     0.242 C 
ATOM      4  O   UNL     1       3.846   0.292   2.065  1.00  0.00    -0.273 OA
ATOM      5  H   UNL     1       5.880   1.244   2.090  1.00  0.00     0.163 HD
BRANCH   3   6
ATOM      6  C   UNL     1       3.211   1.279  -0.074  1.00  0.00     0.175 C 
BRANCH   6   7
ATOM      7  N   UNL     1       3.668   1.997  -1.311  1.00  0.00    -0.340 N 
ATOM      8  C   UNL     1       3.927   3.190  -1.929  1.00  0.00     0.252 C 
ATOM      9  O   UNL     1       4.400   3.021  -3.066  1.00  0.00    -0.269 OA
ATOM     10  H   UNL     1       3.871   1.297  -1.973  1.00  0.00     0.164 HD
BRANCH   8  11
ATOM     11  C   UNL     1       3.804   4.628  -1.488  1.00  0.00     0.044 A 
ATOM     12  C   UNL     1       2.405   4.359   0.624  1.00  0.00     0.045 C 
ATOM     13  C   UNL     1       3.111   5.154  -0.393  1.00  0.00    -0.038 A 
ATOM     14  C   UNL     1       3.014   6.545  -0.186  1.00  0.00     0.005 A 
ATOM     15  C   UNL     1       3.647   7.441  -1.018  1.00  0.00     0.022 A 
ATOM     16  C   UNL     1       4.484   5.575  -2.310  1.00  0.00     0.035 A 
ATOM     17  C   UNL     1       4.397   6.958  -2.080  1.00  0.00     0.083 A 
BRANCH  17  18
ATOM     18  S   UNL     1       5.124   8.217  -3.105  1.00  0.00     0.243 S 
ATOM     19  O   UNL     1       4.033   8.755  -3.884  1.00  0.00    -0.207 OA
ATOM     20  O   UNL     1       5.898   9.054  -2.208  1.00  0.00    -0.207 OA
BRANCH  18  21
ATOM     21  N   UNL     1       6.182   7.493  -4.146  1.00  0.00    -0.198 NA
ATOM     22  C   UNL     1       5.764   6.692  -5.297  1.00  0.00     0.102 C 
ATOM     23  C   UNL     1       7.599   7.295  -3.828  1.00  0.00     0.102 C 
ATOM     24  C   UNL     1       6.930   5.728  -5.490  1.00  0.00     0.018 C 
ATOM     25  C   UNL     1       8.127   6.560  -5.056  1.00  0.00     0.018 C 
ENDBRANCH  18  21
ENDBRANCH  17  18
ENDBRANCH   8  11
ENDBRANCH   6   7
BRANCH   6  26
ATOM     26  C   UNL     1       1.651   1.325   0.211  1.00  0.00     0.068 C 
BRANCH  26  27
ATOM     27  C   UNL     1       1.081   1.378   1.620  1.00  0.00    -0.037 C 
ATOM     28  C   UNL     1       0.947   0.387   2.505  1.00  0.00     0.001 A 
ATOM     29  C   UNL     1       0.433   2.612   2.196  1.00  0.00     0.174 C 
ATOM     30  C   UNL     1       1.258  -1.005   2.528  1.00  0.00     0.010 A 
ATOM     31  C   UNL     1       0.353   1.045   3.683  1.00  0.00     0.065 A 
ATOM     32  N   UNL     1      -0.025   2.278   3.560  1.00  0.00    -0.280 NA
ATOM     33  C   UNL     1       1.104  -1.683   3.678  1.00  0.00     0.001 A 
ATOM     34  C   UNL     1       0.259   0.255   4.923  1.00  0.00     0.028 A 
ATOM     35  C   UNL     1       0.642  -1.031   4.893  1.00  0.00     0.002 A 
ENDBRANCH  26  27
ENDBRANCH   6  26
ENDBRANCH   3   6
ENDBRANCH   1   2
BRANCH   1  36
ATOM     36  C   UNL     1       6.031   3.842   0.739  1.00  0.00     0.042 C 
BRANCH  36  37
ATOM     37  C   UNL     1       6.984   4.449   1.756  1.00  0.00     0.118 C 
BRANCH  37  38
ATOM     38  N   UNL     1       7.933   5.350   1.093  1.00  0.00    -0.352 N 
ATOM     39  C   UNL     1       8.564   6.504   1.518  1.00  0.00     0.251 C 
ATOM     40  H   UNL     1       8.164   5.083   0.174  1.00  0.00     0.163 HD
ATOM     41  O   UNL     1       9.346   7.084   0.772  1.00  0.00    -0.269 OA
BRANCH  39  42
ATOM     42  C   UNL     1       8.455   6.905   2.936  1.00  0.00     0.039 A 
ATOM     43  C   UNL     1       9.654   6.819   3.652  1.00  0.00     0.014 A 
ATOM     44  C   UNL     1       7.227   6.809   3.576  1.00  0.00     0.014 A 
ATOM     45  C   UNL     1       9.632   6.234   4.905  1.00  0.00     0.010 A 
ATOM     46  C   UNL     1       7.207   6.125   4.772  1.00  0.00     0.010 A 
ATOM     47  C   UNL     1       8.415   5.750   5.374  1.00  0.00    -0.014 A 
BRANCH  47  48
ATOM     48  C   UNL     1       8.311   4.801   6.466  1.00  0.00     0.031 A 
ATOM     49  C   UNL     1       7.922   5.317   7.785  1.00  0.00     0.074 A 
ATOM     50  C   UNL     1       8.539   3.483   6.262  1.00  0.00     0.049 A 
ATOM     51  N   UNL     1       8.151   4.706   8.893  1.00  0.00    -0.248 NA
ATOM     52  C   UNL     1       7.322   6.638   7.966  1.00  0.00     0.031 C 
ATOM     53  C   UNL     1       8.235   2.373   7.161  1.00  0.00     0.029 A 
ATOM     54  N   UNL     1       9.308   2.902   5.257  1.00  0.00    -0.354 N 
ATOM     55  C   UNL     1       7.478   5.385   9.877  1.00  0.00     0.074 A 
ATOM     56  C   UNL     1       7.095   6.639   9.282  1.00  0.00     0.031 C 
ATOM     57  C   UNL     1       8.984   1.312   6.820  1.00  0.00     0.029 A 
ATOM     58  C   UNL     1       9.909   1.747   5.787  1.00  0.00     0.049 A 
ATOM     59  H   UNL     1       9.414   3.241   4.339  1.00  0.00     0.167 HD
ATOM     60  C   UNL     1       7.198   4.732  11.036  1.00  0.00     0.031 A 
ATOM     61  C   UNL     1      11.268   1.644   5.878  1.00  0.00     0.031 A 
ATOM     62  C   UNL     1       7.930   3.468  11.111  1.00  0.00     0.049 A 
ATOM     63  C   UNL     1      11.762   1.569   7.308  1.00  0.00     0.074 A 
ATOM     64  C   UNL     1       7.564   2.151  10.895  1.00  0.00     0.029 A 
ATOM     65  N   UNL     1       9.321   3.501  11.111  1.00  0.00    -0.354 N 
ATOM     66  N   UNL     1      11.063   1.958   8.340  1.00  0.00    -0.248 NA
ATOM     67  C   UNL     1      13.075   1.054   7.691  1.00  0.00     0.031 C 
ATOM     68  C   UNL     1       8.754   1.406  10.663  1.00  0.00     0.029 A 
ATOM     69  C   UNL     1       9.836   2.261  10.791  1.00  0.00     0.049 A 
ATOM     70  H   UNL     1       9.862   4.298  11.311  1.00  0.00     0.167 HD
ATOM     71  C   UNL     1      11.780   1.749   9.489  1.00  0.00     0.074 A 
ATOM     72  C   UNL     1      13.035   1.183   9.030  1.00  0.00     0.031 C 
ATOM     73  C   UNL     1      11.279   2.059  10.722  1.00  0.00     0.031 A 
BRANCH  60  74
ATOM     74  C   UNL     1       6.082   5.113  11.979  1.00  0.00    -0.014 A 
ATOM     75  C   UNL     1       5.736   4.229  13.018  1.00  0.00     0.009 A 
ATOM     76  C   UNL     1       5.260   6.246  11.843  1.00  0.00     0.009 A 
ATOM     77  C   UNL     1       4.622   4.449  13.841  1.00  0.00     0.001 A 
ATOM     78  C   UNL     1       4.154   6.481  12.670  1.00  0.00     0.001 A 
ATOM     79  C   UNL     1       3.828   5.575  13.665  1.00  0.00     0.000 A 
ENDBRANCH  60  74
BRANCH  61  80
ATOM     80  C   UNL     1      11.974   2.318   4.749  1.00  0.00    -0.014 A 
ATOM     81  C   UNL     1      11.842   1.750   3.464  1.00  0.00     0.009 A 
ATOM     82  C   UNL     1      12.355   3.663   4.849  1.00  0.00     0.009 A 
ATOM     83  C   UNL     1      11.931   2.546   2.317  1.00  0.00     0.001 A 
ATOM     84  C   UNL     1      12.457   4.452   3.695  1.00  0.00     0.001 A 
ATOM     85  C   UNL     1      12.197   3.906   2.437  1.00  0.00     0.000 A 
ENDBRANCH  61  80
BRANCH  73  86
ATOM     86  C   UNL     1      12.069   2.143  12.009  1.00  0.00    -0.014 A 
ATOM     87  C   UNL     1      13.462   2.269  12.079  1.00  0.00     0.009 A 
ATOM     88  C   UNL     1      11.368   2.249  13.234  1.00  0.00     0.009 A 
ATOM     89  C   UNL     1      14.120   2.445  13.306  1.00  0.00     0.001 A 
ATOM     90  C   UNL     1      12.014   2.479  14.451  1.00  0.00     0.001 A 
ATOM     91  C   UNL     1      13.396   2.564  14.488  1.00  0.00     0.000 A 
ENDBRANCH  73  86
ENDBRANCH  47  48
ENDBRANCH  39  42
ENDBRANCH  37  38
ENDBRANCH  36  37
ENDBRANCH   1  36
TORSDOF 16
