REMARK SMILES COc1cc([C@H]2c3c(-c4ccccc4)n[nH]c3C(=O)N2c2ccc(C(=O)NCCCNC(=O)c3ccc(-c4c5nc(c(-c6ccccc6)c6ccc([nH]6)c(-c6ccccc6)c6nc(c(-c7ccccc7)c7ccc4[nH]7)C=C6)C=C5)cc3)cc2)ccc1O
REMARK SMILES IDX 28 1 27 2 25 3 26 4 24 6 21 7 22 8 83 9 23 10 82 11 20 12
REMARK SMILES IDX 6 13 7 14 8 15 17 16 18 17 15 18 16 19 19 20 5 22 3 23 4 24
REMARK SMILES IDX 86 25 85 26 84 27 2 28 1 29 87 30 9 32 10 33 14 34 11 35
REMARK SMILES IDX 13 36 12 37 29 38 30 39 31 40 32 41 33 43 34 44 35 45 81 46
REMARK SMILES IDX 36 47 80 48 37 49 38 50 39 51 74 52 40 53 79 54 73 55 75 56
REMARK SMILES IDX 41 57 78 58 72 59 71 60 42 62 64 63 49 64 63 65 50 66 53 67
REMARK SMILES IDX 62 68 76 69 51 70 52 71 61 73 77 74 54 75 43 76 44 77 48 78
REMARK SMILES IDX 45 79 47 80 46 81 65 82 66 83 70 84 67 85 69 86 68 87 55 88
REMARK SMILES IDX 56 89 60 90 57 91 59 92 58 93
REMARK H PARENT 27 5 16 21 87 31 31 42 75 61 53 72
REMARK Flexibility Score: inf
ROOT
ATOM      1  C   UNL     1      -6.359   4.058  -3.024  1.00  0.00     0.118 C 
ENDROOT
BRANCH   1   2
ATOM      2  N   UNL     1      -7.260   2.921  -3.124  1.00  0.00    -0.352 N 
ATOM      3  C   UNL     1      -7.136   1.687  -3.712  1.00  0.00     0.251 C 
ATOM      4  O   UNL     1      -8.084   0.910  -3.591  1.00  0.00    -0.269 OA
ATOM      5  H   UNL     1      -8.130   3.066  -2.685  1.00  0.00     0.163 HD
BRANCH   3   6
ATOM      6  C   UNL     1      -5.912   1.236  -4.435  1.00  0.00     0.039 A 
ATOM      7  C   UNL     1      -3.603   0.227  -5.682  1.00  0.00     0.045 A 
ATOM      8  C   UNL     1      -4.601  -0.648  -5.259  1.00  0.00     0.027 A 
ATOM      9  C   UNL     1      -3.775   1.599  -5.534  1.00  0.00     0.027 A 
ATOM     10  C   UNL     1      -5.734  -0.146  -4.609  1.00  0.00     0.016 A 
ATOM     11  C   UNL     1      -4.948   2.094  -4.968  1.00  0.00     0.016 A 
BRANCH   7  12
ATOM     12  N   UNL     1      -2.443  -0.254  -6.297  1.00  0.00    -0.295 N 
ATOM     13  C   UNL     1      -1.081   0.090  -5.796  1.00  0.00     0.156 C 
ATOM     14  C   UNL     1      -0.265  -0.507  -6.880  1.00  0.00     0.038 A 
ATOM     15  C   UNL     1       1.042  -0.696  -7.358  1.00  0.00     0.099 A 
ATOM     16  C   UNL     1      -1.077  -1.081  -7.817  1.00  0.00     0.129 A 
ATOM     17  C   UNL     1      -2.449  -0.989  -7.490  1.00  0.00     0.277 C 
ATOM     18  N   UNL     1       1.006  -1.295  -8.572  1.00  0.00    -0.174 NA
ATOM     19  N   UNL     1      -0.305  -1.534  -8.815  1.00  0.00    -0.272 N 
ATOM     20  O   UNL     1      -3.392  -1.411  -8.144  1.00  0.00    -0.267 OA
ATOM     21  H   UNL     1      -0.647  -1.984  -9.621  1.00  0.00     0.190 HD
BRANCH  13  22
ATOM     22  C   UNL     1      -0.744  -0.609  -4.495  1.00  0.00    -0.016 A 
ATOM     23  C   UNL     1      -0.009  -0.440  -2.147  1.00  0.00     0.160 A 
ATOM     24  C   UNL     1      -0.344   0.151  -3.379  1.00  0.00     0.056 A 
ATOM     25  C   UNL     1      -0.062  -1.831  -2.046  1.00  0.00     0.157 A 
ATOM     26  C   UNL     1      -0.481  -2.604  -3.130  1.00  0.00     0.050 A 
ATOM     27  C   UNL     1      -0.842  -2.000  -4.335  1.00  0.00     0.010 A 
BRANCH  23  28
ATOM     28  O   UNL     1       0.291   0.480  -1.183  1.00  0.00    -0.493 OA
ATOM     29  C   UNL     1       1.048   0.096  -0.047  1.00  0.00     0.278 C 
ENDBRANCH  23  28
BRANCH  25  30
ATOM     30  O   UNL     1       0.245  -2.536  -0.919  1.00  0.00    -0.504 OA
ATOM     31  H   UNL     1       0.534  -2.087  -0.149  1.00  0.00     0.293 HD
ENDBRANCH  25  30
ENDBRANCH  13  22
BRANCH  15  32
ATOM     32  C   UNL     1       2.310  -0.349  -6.732  1.00  0.00     0.002 A 
ATOM     33  C   UNL     1       3.252   0.424  -7.421  1.00  0.00     0.010 A 
ATOM     34  C   UNL     1       2.626  -0.832  -5.457  1.00  0.00     0.010 A 
ATOM     35  C   UNL     1       4.485   0.721  -6.833  1.00  0.00     0.001 A 
ATOM     36  C   UNL     1       3.855  -0.532  -4.868  1.00  0.00     0.001 A 
ATOM     37  C   UNL     1       4.784   0.245  -5.556  1.00  0.00     0.000 A 
ENDBRANCH  15  32
ENDBRANCH   7  12
ENDBRANCH   3   6
ENDBRANCH   1   2
BRANCH   1  38
ATOM     38  C   UNL     1      -6.595   5.061  -4.162  1.00  0.00     0.042 C 
BRANCH  38  39
ATOM     39  C   UNL     1      -7.744   5.997  -3.839  1.00  0.00     0.118 C 
BRANCH  39  40
ATOM     40  N   UNL     1      -7.393   6.953  -2.788  1.00  0.00    -0.352 N 
ATOM     41  C   UNL     1      -8.140   8.001  -2.294  1.00  0.00     0.251 C 
ATOM     42  H   UNL     1      -6.506   6.831  -2.379  1.00  0.00     0.163 HD
ATOM     43  O   UNL     1      -7.607   8.907  -1.664  1.00  0.00    -0.269 OA
BRANCH  41  44
ATOM     44  C   UNL     1      -9.593   8.011  -2.530  1.00  0.00     0.039 A 
ATOM     45  C   UNL     1     -10.281   9.198  -2.792  1.00  0.00     0.014 A 
ATOM     46  C   UNL     1     -10.268   6.793  -2.495  1.00  0.00     0.014 A 
ATOM     47  C   UNL     1     -11.641   9.132  -3.083  1.00  0.00     0.010 A 
ATOM     48  C   UNL     1     -11.554   6.707  -2.952  1.00  0.00     0.010 A 
ATOM     49  C   UNL     1     -12.264   7.876  -3.177  1.00  0.00    -0.014 A 
BRANCH  49  50
ATOM     50  C   UNL     1     -13.630   7.741  -3.662  1.00  0.00     0.031 A 
ATOM     51  C   UNL     1     -13.835   8.345  -5.003  1.00  0.00     0.074 A 
ATOM     52  C   UNL     1     -14.553   6.955  -3.062  1.00  0.00     0.049 A 
ATOM     53  N   UNL     1     -14.535   9.392  -5.279  1.00  0.00    -0.248 NA
ATOM     54  C   UNL     1     -13.041   7.842  -6.139  1.00  0.00     0.031 C 
ATOM     55  C   UNL     1     -14.384   6.071  -1.901  1.00  0.00     0.029 A 
ATOM     56  N   UNL     1     -15.831   6.688  -3.442  1.00  0.00    -0.354 N 
ATOM     57  C   UNL     1     -14.456   9.552  -6.657  1.00  0.00     0.074 A 
ATOM     58  C   UNL     1     -13.381   8.703  -7.102  1.00  0.00     0.031 C 
ATOM     59  C   UNL     1     -15.420   5.201  -1.834  1.00  0.00     0.029 A 
ATOM     60  C   UNL     1     -16.401   5.569  -2.839  1.00  0.00     0.049 A 
ATOM     61  H   UNL     1     -16.316   7.243  -4.094  1.00  0.00     0.167 HD
ATOM     62  C   UNL     1     -15.465  10.157  -7.343  1.00  0.00     0.031 A 
ATOM     63  C   UNL     1     -17.583   4.980  -3.158  1.00  0.00     0.031 A 
ATOM     64  C   UNL     1     -16.355  10.860  -6.450  1.00  0.00     0.049 A 
ATOM     65  C   UNL     1     -18.374   5.971  -3.922  1.00  0.00     0.074 A 
ATOM     66  C   UNL     1     -16.205  11.886  -5.539  1.00  0.00     0.029 A 
ATOM     67  N   UNL     1     -17.520  10.214  -6.106  1.00  0.00    -0.354 N 
ATOM     68  N   UNL     1     -18.852   7.057  -3.388  1.00  0.00    -0.248 NA
ATOM     69  C   UNL     1     -18.212   6.001  -5.367  1.00  0.00     0.031 C 
ATOM     70  C   UNL     1     -17.007  11.504  -4.423  1.00  0.00     0.029 A 
ATOM     71  C   UNL     1     -17.681  10.326  -4.750  1.00  0.00     0.049 A 
ATOM     72  H   UNL     1     -18.131   9.753  -6.726  1.00  0.00     0.167 HD
ATOM     73  C   UNL     1     -18.590   8.045  -4.325  1.00  0.00     0.074 A 
ATOM     74  C   UNL     1     -18.287   7.322  -5.563  1.00  0.00     0.031 C 
ATOM     75  C   UNL     1     -18.345   9.332  -3.937  1.00  0.00     0.031 A 
BRANCH  62  76
ATOM     76  C   UNL     1     -15.899   9.736  -8.724  1.00  0.00    -0.014 A 
ATOM     77  C   UNL     1     -16.951  10.440  -9.338  1.00  0.00     0.009 A 
ATOM     78  C   UNL     1     -15.529   8.512  -9.313  1.00  0.00     0.009 A 
ATOM     79  C   UNL     1     -17.647   9.905 -10.428  1.00  0.00     0.001 A 
ATOM     80  C   UNL     1     -16.196   7.993 -10.425  1.00  0.00     0.001 A 
ATOM     81  C   UNL     1     -17.276   8.676 -10.964  1.00  0.00     0.000 A 
ENDBRANCH  62  76
BRANCH  63  82
ATOM     82  C   UNL     1     -17.999   3.560  -3.085  1.00  0.00    -0.014 A 
ATOM     83  C   UNL     1     -19.357   3.201  -3.148  1.00  0.00     0.009 A 
ATOM     84  C   UNL     1     -17.048   2.540  -3.261  1.00  0.00     0.009 A 
ATOM     85  C   UNL     1     -19.746   1.882  -3.425  1.00  0.00     0.001 A 
ATOM     86  C   UNL     1     -17.436   1.223  -3.538  1.00  0.00     0.001 A 
ATOM     87  C   UNL     1     -18.785   0.897  -3.637  1.00  0.00     0.000 A 
ENDBRANCH  63  82
BRANCH  75  88
ATOM     88  C   UNL     1     -18.592   9.686  -2.487  1.00  0.00    -0.014 A 
ATOM     89  C   UNL     1     -17.949   9.056  -1.404  1.00  0.00     0.009 A 
ATOM     90  C   UNL     1     -19.425  10.778  -2.212  1.00  0.00     0.009 A 
ATOM     91  C   UNL     1     -18.176   9.476  -0.088  1.00  0.00     0.001 A 
ATOM     92  C   UNL     1     -19.634  11.214  -0.902  1.00  0.00     0.001 A 
ATOM     93  C   UNL     1     -19.020  10.556   0.161  1.00  0.00     0.000 A 
ENDBRANCH  75  88
ENDBRANCH  49  50
ENDBRANCH  41  44
ENDBRANCH  39  40
ENDBRANCH  38  39
ENDBRANCH   1  38
TORSDOF 15
