REMARK SMILES CC(C)CN(C)S(=O)(=O)c1ccc(C(=O)NCCCNC(=O)c2ccc(-c3c4nc(c(-c5ccccc5)c5ccc([nH]5)c(-c5ccccc5)c5nc(c(-c6ccccc6)c6ccc3[nH]6)C=C5)C=C4)cc2)cc1
REMARK SMILES IDX 17 1 16 2 14 3 15 4 13 6 10 7 11 8 72 9 12 10 71 11 7 12
REMARK SMILES IDX 8 13 9 14 5 15 6 16 4 17 2 18 1 19 3 20 18 21 19 22 20 23
REMARK SMILES IDX 21 24 22 26 23 27 24 28 70 29 25 30 69 31 26 32 27 33 28 34
REMARK SMILES IDX 63 35 29 36 68 37 62 38 64 39 30 40 67 41 61 42 60 43 31 45
REMARK SMILES IDX 53 46 38 47 52 48 39 49 42 50 51 51 65 52 40 53 41 54 50 56
REMARK SMILES IDX 66 57 43 58 32 59 33 60 37 61 34 62 36 63 35 64 54 65 55 66
REMARK SMILES IDX 59 67 56 68 58 69 57 70 44 71 45 72 49 73 46 74 48 75 47 76
REMARK H PARENT 16 5 20 25 64 44 42 55
REMARK Flexibility Score: inf
ROOT
ATOM      1  C   UNL     1      -2.643  -2.021  -7.863  1.00  0.00     0.118 C 
ENDROOT
BRANCH   1   2
ATOM      2  N   UNL     1      -3.198  -0.691  -8.010  1.00  0.00    -0.352 N 
ATOM      3  C   UNL     1      -3.306   0.373  -7.154  1.00  0.00     0.251 C 
ATOM      4  O   UNL     1      -3.838   1.392  -7.596  1.00  0.00    -0.269 OA
ATOM      5  H   UNL     1      -3.571  -0.517  -8.904  1.00  0.00     0.163 HD
BRANCH   3   6
ATOM      6  C   UNL     1      -2.784   0.379  -5.757  1.00  0.00     0.039 A 
ATOM      7  C   UNL     1      -1.791   0.614  -3.137  1.00  0.00     0.082 A 
ATOM      8  C   UNL     1      -2.001   1.759  -3.909  1.00  0.00     0.022 A 
ATOM      9  C   UNL     1      -2.069  -0.646  -3.662  1.00  0.00     0.022 A 
ATOM     10  C   UNL     1      -2.483   1.638  -5.213  1.00  0.00     0.015 A 
ATOM     11  C   UNL     1      -2.607  -0.753  -4.951  1.00  0.00     0.015 A 
BRANCH   7  12
ATOM     12  S   UNL     1      -1.159   0.855  -1.494  1.00  0.00     0.242 S 
ATOM     13  O   UNL     1      -2.006   1.842  -0.856  1.00  0.00    -0.207 OA
ATOM     14  O   UNL     1       0.255   1.083  -1.667  1.00  0.00    -0.207 OA
BRANCH  12  15
ATOM     15  N   UNL     1      -1.394  -0.628  -0.628  1.00  0.00    -0.201 NA
ATOM     16  C   UNL     1      -2.845  -0.977  -0.471  1.00  0.00     0.124 C 
BRANCH  15  17
ATOM     17  C   UNL     1      -0.766  -0.602   0.752  1.00  0.00     0.105 C 
BRANCH  17  18
ATOM     18  C   UNL     1       0.647  -1.208   0.833  1.00  0.00    -0.002 C 
ATOM     19  C   UNL     1       1.755  -0.238   0.417  1.00  0.00     0.009 C 
ATOM     20  C   UNL     1       0.914  -1.639   2.284  1.00  0.00     0.009 C 
ENDBRANCH  17  18
ENDBRANCH  15  17
ENDBRANCH  12  15
ENDBRANCH   7  12
ENDBRANCH   3   6
ENDBRANCH   1   2
BRANCH   1  21
ATOM     21  C   UNL     1      -3.737  -3.032  -7.520  1.00  0.00     0.042 C 
BRANCH  21  22
ATOM     22  C   UNL     1      -4.653  -3.351  -8.699  1.00  0.00     0.118 C 
BRANCH  22  23
ATOM     23  N   UNL     1      -3.969  -4.131  -9.719  1.00  0.00    -0.352 N 
ATOM     24  C   UNL     1      -4.311  -5.334 -10.281  1.00  0.00     0.251 C 
ATOM     25  H   UNL     1      -3.134  -3.734 -10.059  1.00  0.00     0.163 HD
ATOM     26  O   UNL     1      -3.489  -5.936 -10.966  1.00  0.00    -0.269 OA
BRANCH  24  27
ATOM     27  C   UNL     1      -5.652  -5.917 -10.063  1.00  0.00     0.039 A 
ATOM     28  C   UNL     1      -5.757  -7.297  -9.860  1.00  0.00     0.014 A 
ATOM     29  C   UNL     1      -6.806  -5.130 -10.118  1.00  0.00     0.014 A 
ATOM     30  C   UNL     1      -7.011  -7.880  -9.673  1.00  0.00     0.010 A 
ATOM     31  C   UNL     1      -8.052  -5.703  -9.872  1.00  0.00     0.010 A 
ATOM     32  C   UNL     1      -8.167  -7.085  -9.657  1.00  0.00    -0.014 A 
BRANCH  32  33
ATOM     33  C   UNL     1      -9.506  -7.684  -9.435  1.00  0.00     0.031 A 
ATOM     34  C   UNL     1     -10.530  -7.676 -10.537  1.00  0.00     0.074 A 
ATOM     35  C   UNL     1      -9.818  -8.187  -8.226  1.00  0.00     0.049 A 
ATOM     36  N   UNL     1     -11.773  -8.088 -10.511  1.00  0.00    -0.248 NA
ATOM     37  C   UNL     1     -10.110  -7.113 -11.830  1.00  0.00     0.031 C 
ATOM     38  C   UNL     1      -8.923  -8.229  -7.067  1.00  0.00     0.029 A 
ATOM     39  N   UNL     1     -10.981  -8.754  -7.768  1.00  0.00    -0.354 N 
ATOM     40  C   UNL     1     -12.285  -7.818 -11.774  1.00  0.00     0.074 A 
ATOM     41  C   UNL     1     -11.234  -7.172 -12.529  1.00  0.00     0.031 C 
ATOM     42  C   UNL     1      -9.564  -8.809  -6.039  1.00  0.00     0.029 A 
ATOM     43  C   UNL     1     -10.922  -9.144  -6.453  1.00  0.00     0.049 A 
ATOM     44  H   UNL     1     -11.781  -8.870  -8.330  1.00  0.00     0.167 HD
ATOM     45  C   UNL     1     -13.515  -8.097 -12.267  1.00  0.00     0.031 A 
ATOM     46  C   UNL     1     -11.861  -9.703  -5.666  1.00  0.00     0.031 A 
ATOM     47  C   UNL     1     -14.557  -8.754 -11.523  1.00  0.00     0.049 A 
ATOM     48  C   UNL     1     -13.220  -9.995  -6.236  1.00  0.00     0.074 A 
ATOM     49  C   UNL     1     -15.822  -9.120 -11.950  1.00  0.00     0.029 A 
ATOM     50  N   UNL     1     -14.451  -9.145 -10.198  1.00  0.00    -0.354 N 
ATOM     51  N   UNL     1     -13.671  -9.779  -7.447  1.00  0.00    -0.248 NA
ATOM     52  C   UNL     1     -14.195 -10.619  -5.330  1.00  0.00     0.031 C 
ATOM     53  C   UNL     1     -16.496  -9.700 -10.870  1.00  0.00     0.029 A 
ATOM     54  C   UNL     1     -15.634  -9.736  -9.786  1.00  0.00     0.049 A 
ATOM     55  H   UNL     1     -13.655  -9.021  -9.634  1.00  0.00     0.167 HD
ATOM     56  C   UNL     1     -14.972 -10.264  -7.457  1.00  0.00     0.074 A 
ATOM     57  C   UNL     1     -15.232 -10.799  -6.137  1.00  0.00     0.031 C 
ATOM     58  C   UNL     1     -15.872 -10.267  -8.470  1.00  0.00     0.031 A 
BRANCH  45  59
ATOM     59  C   UNL     1     -13.803  -7.690 -13.684  1.00  0.00    -0.014 A 
ATOM     60  C   UNL     1     -13.227  -8.375 -14.766  1.00  0.00     0.009 A 
ATOM     61  C   UNL     1     -14.694  -6.638 -13.943  1.00  0.00     0.009 A 
ATOM     62  C   UNL     1     -13.514  -7.994 -16.078  1.00  0.00     0.001 A 
ATOM     63  C   UNL     1     -14.999  -6.275 -15.257  1.00  0.00     0.001 A 
ATOM     64  C   UNL     1     -14.403  -6.948 -16.322  1.00  0.00     0.000 A 
ENDBRANCH  45  59
BRANCH  46  65
ATOM     65  C   UNL     1     -11.547 -10.035  -4.252  1.00  0.00    -0.014 A 
ATOM     66  C   UNL     1     -11.408 -11.373  -3.851  1.00  0.00     0.009 A 
ATOM     67  C   UNL     1     -11.402  -9.020  -3.295  1.00  0.00     0.009 A 
ATOM     68  C   UNL     1     -11.158 -11.687  -2.513  1.00  0.00     0.001 A 
ATOM     69  C   UNL     1     -11.125  -9.336  -1.964  1.00  0.00     0.001 A 
ATOM     70  C   UNL     1     -11.014 -10.669  -1.572  1.00  0.00     0.000 A 
ENDBRANCH  46  65
BRANCH  58  71
ATOM     71  C   UNL     1     -17.205 -10.900  -8.199  1.00  0.00    -0.014 A 
ATOM     72  C   UNL     1     -18.168 -10.258  -7.405  1.00  0.00     0.009 A 
ATOM     73  C   UNL     1     -17.514 -12.141  -8.778  1.00  0.00     0.009 A 
ATOM     74  C   UNL     1     -19.404 -10.863  -7.171  1.00  0.00     0.001 A 
ATOM     75  C   UNL     1     -18.760 -12.731  -8.562  1.00  0.00     0.001 A 
ATOM     76  C   UNL     1     -19.700 -12.096  -7.752  1.00  0.00     0.000 A 
ENDBRANCH  58  71
ENDBRANCH  32  33
ENDBRANCH  24  27
ENDBRANCH  22  23
ENDBRANCH  21  22
ENDBRANCH   1  21
TORSDOF 14
