REMARK SMILES Cc1cccc(CC(=O)N2CCC3(CCC(=O)N([C@H](C)C(=O)NCCCNC(=O)c4ccc(-c5c6nc(c(-c7ccccc7)c7ccc([nH]7)c(-c7ccccc7)c7nc(c(-c8ccccc8)c8ccc5[nH]8)C=C7)C=C6)cc4)C3)CC2)c1
REMARK SMILES IDX 24 1 23 2 21 3 22 4 19 6 20 7 18 8 8 9 9 10 10 11 11 12
REMARK SMILES IDX 80 13 12 14 79 15 13 16 14 17 78 18 15 19 16 20 17 21 7 22
REMARK SMILES IDX 6 23 1 24 2 25 3 26 81 27 4 28 5 29 25 30 26 31 27 32 28 33
REMARK SMILES IDX 29 35 30 36 31 37 77 38 32 39 76 40 33 41 34 42 35 43 70 44
REMARK SMILES IDX 36 45 75 46 69 47 71 48 37 49 74 50 68 51 67 52 38 54 60 55
REMARK SMILES IDX 45 56 59 57 46 58 49 59 58 60 72 61 47 62 48 63 57 65 73 66
REMARK SMILES IDX 50 67 39 68 40 69 44 70 41 71 43 72 42 73 61 74 62 75 66 76
REMARK SMILES IDX 63 77 65 78 64 79 51 80 52 81 56 82 53 83 55 84 54 85
REMARK H PARENT 23 5 27 34 71 53 49 64
REMARK Flexibility Score: inf
ROOT
ATOM      1  C   UNL     1      -1.046   5.716  -8.749  1.00  0.00     0.117 C 
ENDROOT
BRANCH   1   2
ATOM      2  N   UNL     1      -1.479   6.581  -7.666  1.00  0.00    -0.354 N 
ATOM      3  C   UNL     1      -0.717   7.261  -6.752  1.00  0.00     0.242 C 
ATOM      4  O   UNL     1      -1.282   8.100  -6.043  1.00  0.00    -0.273 OA
ATOM      5  H   UNL     1      -2.453   6.694  -7.575  1.00  0.00     0.163 HD
BRANCH   3   6
ATOM      6  C   UNL     1       0.783   6.926  -6.532  1.00  0.00     0.171 C 
ATOM      7  C   UNL     1       0.961   5.456  -6.131  1.00  0.00     0.042 C 
BRANCH   6   8
ATOM      8  N   UNL     1       1.774   7.348  -7.544  1.00  0.00    -0.330 N 
ATOM      9  C   UNL     1       7.940   5.241  -6.960  1.00  0.00     0.226 C 
ATOM     10  O   UNL     1       8.113   4.043  -6.702  1.00  0.00    -0.275 OA
ATOM     11  N   UNL     1       6.839   5.645  -7.701  1.00  0.00    -0.342 N 
ATOM     12  C   UNL     1       5.685   4.757  -7.830  1.00  0.00     0.120 C 
ATOM     13  C   UNL     1       6.689   6.896  -8.423  1.00  0.00     0.120 C 
ATOM     14  C   UNL     1       4.410   5.477  -7.352  1.00  0.00     0.030 C 
ATOM     15  C   UNL     1       5.547   7.687  -7.811  1.00  0.00     0.030 C 
ATOM     16  C   UNL     1       4.217   6.905  -7.946  1.00  0.00    -0.008 C 
ATOM     17  C   UNL     1       3.843   6.867  -9.453  1.00  0.00     0.019 C 
ATOM     18  C   UNL     1       3.133   7.668  -7.145  1.00  0.00     0.127 C 
ATOM     19  C   UNL     1       2.395   6.528  -9.709  1.00  0.00     0.101 C 
ATOM     20  C   UNL     1       1.490   7.413  -8.893  1.00  0.00     0.223 C 
ATOM     21  O   UNL     1       0.519   7.980  -9.377  1.00  0.00    -0.275 OA
BRANCH   9  22
ATOM     22  C   UNL     1       8.827   6.267  -6.249  1.00  0.00     0.135 C 
BRANCH  22  23
ATOM     23  C   UNL     1       9.388   7.425  -7.031  1.00  0.00    -0.038 A 
ATOM     24  C   UNL     1       8.861  11.202  -7.239  1.00  0.00     0.044 C 
ATOM     25  C   UNL     1       9.369   9.818  -7.519  1.00  0.00    -0.051 A 
ATOM     26  C   UNL     1      10.194   9.583  -8.624  1.00  0.00     0.003 A 
ATOM     27  C   UNL     1       8.992   8.738  -6.713  1.00  0.00     0.007 A 
ATOM     28  C   UNL     1      10.637   8.291  -8.916  1.00  0.00     0.001 A 
ATOM     29  C   UNL     1      10.240   7.214  -8.123  1.00  0.00     0.004 A 
ENDBRANCH  22  23
ENDBRANCH   9  22
ENDBRANCH   6   8
ENDBRANCH   3   6
ENDBRANCH   1   2
BRANCH   1  30
ATOM     30  C   UNL     1      -1.661   4.336  -8.716  1.00  0.00     0.042 C 
BRANCH  30  31
ATOM     31  C   UNL     1      -2.907   4.257  -9.573  1.00  0.00     0.118 C 
BRANCH  31  32
ATOM     32  N   UNL     1      -2.648   4.094 -11.007  1.00  0.00    -0.352 N 
ATOM     33  C   UNL     1      -3.576   4.029 -12.039  1.00  0.00     0.251 C 
ATOM     34  H   UNL     1      -1.703   4.022 -11.271  1.00  0.00     0.163 HD
ATOM     35  O   UNL     1      -3.227   3.959 -13.206  1.00  0.00    -0.269 OA
BRANCH  33  36
ATOM     36  C   UNL     1      -5.006   4.184 -11.685  1.00  0.00     0.039 A 
ATOM     37  C   UNL     1      -5.681   5.287 -12.211  1.00  0.00     0.014 A 
ATOM     38  C   UNL     1      -5.508   3.491 -10.588  1.00  0.00     0.014 A 
ATOM     39  C   UNL     1      -6.695   5.866 -11.458  1.00  0.00     0.010 A 
ATOM     40  C   UNL     1      -6.414   4.143  -9.777  1.00  0.00     0.010 A 
ATOM     41  C   UNL     1      -6.952   5.372 -10.180  1.00  0.00    -0.014 A 
BRANCH  41  42
ATOM     42  C   UNL     1      -7.656   6.147  -9.163  1.00  0.00     0.031 A 
ATOM     43  C   UNL     1      -8.971   5.700  -8.668  1.00  0.00     0.074 A 
ATOM     44  C   UNL     1      -7.119   7.284  -8.661  1.00  0.00     0.049 A 
ATOM     45  N   UNL     1      -9.831   6.495  -8.124  1.00  0.00    -0.248 NA
ATOM     46  C   UNL     1      -9.477   4.338  -8.832  1.00  0.00     0.031 C 
ATOM     47  C   UNL     1      -7.561   8.034  -7.486  1.00  0.00     0.029 A 
ATOM     48  N   UNL     1      -6.202   8.133  -9.283  1.00  0.00    -0.354 N 
ATOM     49  C   UNL     1     -10.813   5.714  -7.577  1.00  0.00     0.074 A 
ATOM     50  C   UNL     1     -10.640   4.416  -8.178  1.00  0.00     0.031 C 
ATOM     51  C   UNL     1      -7.141   9.303  -7.597  1.00  0.00     0.029 A 
ATOM     52  C   UNL     1      -6.528   9.451  -8.904  1.00  0.00     0.049 A 
ATOM     53  H   UNL     1      -5.465   7.862  -9.876  1.00  0.00     0.167 HD
ATOM     54  C   UNL     1     -11.563   6.215  -6.560  1.00  0.00     0.031 A 
ATOM     55  C   UNL     1      -6.874  10.385  -9.837  1.00  0.00     0.031 A 
ATOM     56  C   UNL     1     -11.416   7.665  -6.413  1.00  0.00     0.049 A 
ATOM     57  C   UNL     1      -8.288  10.922  -9.699  1.00  0.00     0.074 A 
ATOM     58  C   UNL     1     -10.937   8.513  -5.430  1.00  0.00     0.029 A 
ATOM     59  N   UNL     1     -11.624   8.462  -7.531  1.00  0.00    -0.354 N 
ATOM     60  N   UNL     1      -9.137  10.561  -8.777  1.00  0.00    -0.248 NA
ATOM     61  C   UNL     1      -8.891  11.829 -10.679  1.00  0.00     0.031 C 
ATOM     62  C   UNL     1     -10.858   9.830  -5.979  1.00  0.00     0.029 A 
ATOM     63  C   UNL     1     -11.315   9.783  -7.282  1.00  0.00     0.049 A 
ATOM     64  H   UNL     1     -11.952   8.125  -8.396  1.00  0.00     0.167 HD
ATOM     65  C   UNL     1     -10.374  11.073  -9.070  1.00  0.00     0.074 A 
ATOM     66  C   UNL     1     -10.167  11.875 -10.261  1.00  0.00     0.031 C 
ATOM     67  C   UNL     1     -11.491  10.748  -8.356  1.00  0.00     0.031 A 
BRANCH  54  68
ATOM     68  C   UNL     1     -12.319   5.349  -5.578  1.00  0.00    -0.014 A 
ATOM     69  C   UNL     1     -13.078   5.953  -4.561  1.00  0.00     0.009 A 
ATOM     70  C   UNL     1     -12.235   3.943  -5.526  1.00  0.00     0.009 A 
ATOM     71  C   UNL     1     -13.703   5.200  -3.555  1.00  0.00     0.001 A 
ATOM     72  C   UNL     1     -12.889   3.182  -4.550  1.00  0.00     0.001 A 
ATOM     73  C   UNL     1     -13.617   3.812  -3.555  1.00  0.00     0.000 A 
ENDBRANCH  54  68
BRANCH  55  74
ATOM     74  C   UNL     1      -6.153  10.216 -11.129  1.00  0.00    -0.014 A 
ATOM     75  C   UNL     1      -4.758  10.418 -11.145  1.00  0.00     0.009 A 
ATOM     76  C   UNL     1      -6.744   9.538 -12.204  1.00  0.00     0.009 A 
ATOM     77  C   UNL     1      -3.964   9.854 -12.147  1.00  0.00     0.001 A 
ATOM     78  C   UNL     1      -5.946   8.987 -13.214  1.00  0.00     0.001 A 
ATOM     79  C   UNL     1      -4.558   9.114 -13.166  1.00  0.00     0.000 A 
ENDBRANCH  55  74
BRANCH  67  80
ATOM     80  C   UNL     1     -12.877  11.262  -8.657  1.00  0.00    -0.014 A 
ATOM     81  C   UNL     1     -13.136  12.570  -9.086  1.00  0.00     0.009 A 
ATOM     82  C   UNL     1     -14.000  10.445  -8.398  1.00  0.00     0.009 A 
ATOM     83  C   UNL     1     -14.448  13.018  -9.306  1.00  0.00     0.001 A 
ATOM     84  C   UNL     1     -15.309  10.894  -8.592  1.00  0.00     0.001 A 
ATOM     85  C   UNL     1     -15.533  12.180  -9.059  1.00  0.00     0.000 A 
ENDBRANCH  67  80
ENDBRANCH  41  42
ENDBRANCH  33  36
ENDBRANCH  31  32
ENDBRANCH  30  31
ENDBRANCH   1  30
TORSDOF 13
