REMARK SMILES CC[C@]1(C(=O)NCCCNC(=O)c2ccc(-c3c4nc(c(-c5ccccc5)c5ccc([nH]5)c(-c5ccccc5)c5nc(c(-c6ccccc6)c6ccc3[nH]6)C=C5)C=C4)cc2)CCC[N@@H+](Cc2cc(OC)ccc2F)C1
REMARK SMILES IDX 7 1 6 2 4 3 5 4 3 6 61 7 75 8 62 9 64 10 63 11 2 13 1 14
REMARK SMILES IDX 65 15 66 16 67 17 73 18 68 19 72 20 74 21 71 22 69 23 70 24
REMARK SMILES IDX 8 25 9 26 10 27 11 28 12 30 13 31 14 32 60 33 15 34 59 35
REMARK SMILES IDX 16 36 17 37 18 38 53 39 19 40 58 41 52 42 54 43 20 44 57 45
REMARK SMILES IDX 51 46 50 47 21 49 43 50 28 51 42 52 29 53 32 54 41 55 55 56
REMARK SMILES IDX 30 57 31 58 40 60 56 61 33 62 22 63 23 64 27 65 24 66 26 67
REMARK SMILES IDX 25 68 44 69 45 70 49 71 46 72 48 73 47 74 34 75 35 76 39 77
REMARK SMILES IDX 36 78 38 79 37 80
REMARK H PARENT 6 5 64 12 10 29 54 48 32 59
REMARK Flexibility Score: inf
ROOT
ATOM      1  C   UNL     1       2.077   1.318   5.006  1.00  0.00     0.117 C 
ENDROOT
BRANCH   1   2
ATOM      2  N   UNL     1       1.643  -0.036   4.690  1.00  0.00    -0.355 N 
ATOM      3  C   UNL     1       1.129  -0.611   3.565  1.00  0.00     0.231 C 
ATOM      4  O   UNL     1       0.834  -1.805   3.680  1.00  0.00    -0.274 OA
ATOM      5  H   UNL     1       1.741  -0.665   5.441  1.00  0.00     0.163 HD
BRANCH   3   6
ATOM      6  C   UNL     1       0.907   0.168   2.237  1.00  0.00     0.098 C 
ATOM      7  C   UNL     1      -0.166   1.257   2.490  1.00  0.00     0.028 C 
ATOM      8  C   UNL     1       2.272   0.750   1.792  1.00  0.00     0.279 C 
ATOM      9  C   UNL     1      -0.091   2.450   1.545  1.00  0.00     0.063 C 
ATOM     10  N   UNL     1       2.212   1.901   0.883  1.00  0.00    -0.330 N 
ATOM     11  C   UNL     1       1.335   2.965   1.365  1.00  0.00     0.262 C 
ATOM     12  H   UNL     1       1.773   1.563   0.027  1.00  0.00     0.348 HD
BRANCH   6  13
ATOM     13  C   UNL     1       0.386  -0.864   1.174  1.00  0.00     0.019 C 
ATOM     14  C   UNL     1       0.485  -0.491  -0.299  1.00  0.00     0.005 C 
ENDBRANCH   6  13
BRANCH  10  15
ATOM     15  C   UNL     1       3.551   2.378   0.479  1.00  0.00     0.302 C 
BRANCH  15  16
ATOM     16  C   UNL     1       4.412   3.043   1.534  1.00  0.00     0.046 A 
ATOM     17  C   UNL     1       4.561   4.440   1.565  1.00  0.00     0.059 A 
ATOM     18  C   UNL     1       5.126   2.294   2.476  1.00  0.00     0.132 A 
ATOM     19  C   UNL     1       5.396   5.055   2.507  1.00  0.00     0.119 A 
ATOM     20  C   UNL     1       5.888   2.901   3.469  1.00  0.00     0.043 A 
ATOM     21  F   UNL     1       5.092   0.954   2.442  1.00  0.00    -0.206 F 
ATOM     22  C   UNL     1       6.020   4.287   3.490  1.00  0.00     0.049 A 
BRANCH  19  23
ATOM     23  O   UNL     1       5.532   6.412   2.384  1.00  0.00    -0.497 OA
ATOM     24  C   UNL     1       6.775   6.936   2.850  1.00  0.00     0.278 C 
ENDBRANCH  19  23
ENDBRANCH  15  16
ENDBRANCH  10  15
ENDBRANCH   3   6
ENDBRANCH   1   2
BRANCH   1  25
ATOM     25  C   UNL     1       1.292   1.921   6.161  1.00  0.00     0.042 C 
BRANCH  25  26
ATOM     26  C   UNL     1       1.502   1.214   7.491  1.00  0.00     0.118 C 
BRANCH  26  27
ATOM     27  N   UNL     1       2.853   1.380   8.014  1.00  0.00    -0.352 N 
ATOM     28  C   UNL     1       3.295   2.012   9.148  1.00  0.00     0.251 C 
ATOM     29  H   UNL     1       3.561   0.973   7.464  1.00  0.00     0.163 HD
ATOM     30  O   UNL     1       4.505   2.191   9.307  1.00  0.00    -0.269 OA
BRANCH  28  31
ATOM     31  C   UNL     1       2.344   2.507  10.167  1.00  0.00     0.039 A 
ATOM     32  C   UNL     1       2.594   3.736  10.784  1.00  0.00     0.014 A 
ATOM     33  C   UNL     1       1.221   1.762  10.539  1.00  0.00     0.014 A 
ATOM     34  C   UNL     1       1.686   4.248  11.714  1.00  0.00     0.010 A 
ATOM     35  C   UNL     1       0.271   2.314  11.394  1.00  0.00     0.010 A 
ATOM     36  C   UNL     1       0.496   3.559  11.998  1.00  0.00    -0.014 A 
BRANCH  36  37
ATOM     37  C   UNL     1      -0.519   4.121  12.924  1.00  0.00     0.031 A 
ATOM     38  C   UNL     1      -0.869   3.402  14.198  1.00  0.00     0.074 A 
ATOM     39  C   UNL     1      -1.177   5.248  12.588  1.00  0.00     0.049 A 
ATOM     40  N   UNL     1      -1.756   3.719  15.109  1.00  0.00    -0.248 NA
ATOM     41  C   UNL     1      -0.150   2.148  14.473  1.00  0.00     0.031 C 
ATOM     42  C   UNL     1      -0.970   6.020  11.361  1.00  0.00     0.029 A 
ATOM     43  N   UNL     1      -2.156   5.941  13.255  1.00  0.00    -0.354 N 
ATOM     44  C   UNL     1      -1.721   2.691  16.043  1.00  0.00     0.074 A 
ATOM     45  C   UNL     1      -0.760   1.720  15.568  1.00  0.00     0.031 C 
ATOM     46  C   UNL     1      -1.764   7.103  11.384  1.00  0.00     0.029 A 
ATOM     47  C   UNL     1      -2.562   7.081  12.605  1.00  0.00     0.049 A 
ATOM     48  H   UNL     1      -2.532   5.649  14.117  1.00  0.00     0.167 HD
ATOM     49  C   UNL     1      -2.413   2.571  17.202  1.00  0.00     0.031 A 
ATOM     50  C   UNL     1      -3.472   8.009  12.955  1.00  0.00     0.031 A 
ATOM     51  C   UNL     1      -3.348   3.547  17.693  1.00  0.00     0.049 A 
ATOM     52  C   UNL     1      -4.220   7.859  14.248  1.00  0.00     0.074 A 
ATOM     53  C   UNL     1      -4.034   3.557  18.895  1.00  0.00     0.029 A 
ATOM     54  N   UNL     1      -3.732   4.686  17.003  1.00  0.00    -0.354 N 
ATOM     55  N   UNL     1      -4.119   6.920  15.157  1.00  0.00    -0.248 NA
ATOM     56  C   UNL     1      -5.202   8.905  14.565  1.00  0.00     0.031 C 
ATOM     57  C   UNL     1      -4.867   4.681  18.913  1.00  0.00     0.029 A 
ATOM     58  C   UNL     1      -4.665   5.394  17.742  1.00  0.00     0.049 A 
ATOM     59  H   UNL     1      -3.391   4.953  16.119  1.00  0.00     0.167 HD
ATOM     60  C   UNL     1      -5.006   7.274  16.165  1.00  0.00     0.074 A 
ATOM     61  C   UNL     1      -5.625   8.520  15.761  1.00  0.00     0.031 C 
ATOM     62  C   UNL     1      -5.279   6.627  17.324  1.00  0.00     0.031 A 
BRANCH  49  63
ATOM     63  C   UNL     1      -2.183   1.326  18.012  1.00  0.00    -0.014 A 
ATOM     64  C   UNL     1      -0.971   1.106  18.686  1.00  0.00     0.009 A 
ATOM     65  C   UNL     1      -3.199   0.362  18.109  1.00  0.00     0.009 A 
ATOM     66  C   UNL     1      -0.765  -0.075  19.402  1.00  0.00     0.001 A 
ATOM     67  C   UNL     1      -3.000  -0.805  18.849  1.00  0.00     0.001 A 
ATOM     68  C   UNL     1      -1.779  -1.028  19.485  1.00  0.00     0.000 A 
ENDBRANCH  49  63
BRANCH  50  69
ATOM     69  C   UNL     1      -3.694   9.192  12.086  1.00  0.00    -0.014 A 
ATOM     70  C   UNL     1      -3.207  10.450  12.473  1.00  0.00     0.009 A 
ATOM     71  C   UNL     1      -4.383   9.073  10.869  1.00  0.00     0.009 A 
ATOM     72  C   UNL     1      -3.422  11.570  11.667  1.00  0.00     0.001 A 
ATOM     73  C   UNL     1      -4.576  10.191  10.055  1.00  0.00     0.001 A 
ATOM     74  C   UNL     1      -4.101  11.439  10.457  1.00  0.00     0.000 A 
ENDBRANCH  50  69
BRANCH  62  75
ATOM     75  C   UNL     1      -6.272   7.272  18.247  1.00  0.00    -0.014 A 
ATOM     76  C   UNL     1      -7.645   7.265  17.956  1.00  0.00     0.009 A 
ATOM     77  C   UNL     1      -5.829   7.874  19.434  1.00  0.00     0.009 A 
ATOM     78  C   UNL     1      -8.552   7.880  18.822  1.00  0.00     0.001 A 
ATOM     79  C   UNL     1      -6.740   8.465  20.310  1.00  0.00     0.001 A 
ATOM     80  C   UNL     1      -8.099   8.476  19.999  1.00  0.00     0.000 A 
ENDBRANCH  62  75
ENDBRANCH  36  37
ENDBRANCH  28  31
ENDBRANCH  26  27
ENDBRANCH  25  26
ENDBRANCH   1  25
TORSDOF 14
