REMARK SMILES NC(=O)c1c(-c2ccc(Cl)cc2)csc1NC(=O)[C@H]1[C@@H](C(=O)NCCCNC(=O)c2ccc(-c3c4nc(c(-c5ccccc5)c5ccc([nH]5)c(-c5ccccc5)c5nc(c(-c6ccccc6)c6ccc3[nH]6)C=C5)C=C4)cc2)[C@@H]2CC[C@H]1O2
REMARK SMILES IDX 24 1 23 2 21 3 22 4 20 6 19 7 81 8 78 9 80 10 82 11 79 12
REMARK SMILES IDX 17 13 16 14 18 16 15 17 4 18 5 19 13 20 14 21 2 22 1 23 3 26
REMARK SMILES IDX 6 27 7 28 12 29 8 30 11 31 9 32 10 33 25 34 26 35 27 36
REMARK SMILES IDX 28 37 29 39 30 40 31 41 77 42 32 43 76 44 33 45 34 46 35 47
REMARK SMILES IDX 70 48 36 49 75 50 69 51 71 52 37 53 74 54 68 55 67 56 38 58
REMARK SMILES IDX 60 59 45 60 59 61 46 62 49 63 58 64 72 65 47 66 48 67 57 69
REMARK SMILES IDX 73 70 50 71 39 72 40 73 44 74 41 75 43 76 42 77 61 78 62 79
REMARK SMILES IDX 66 80 63 81 65 82 64 83 51 84 52 85 56 86 53 87 55 88 54 89
REMARK H PARENT 23 5 16 15 1 24 1 25 27 38 71 57 49 68
REMARK Flexibility Score: inf
ROOT
ATOM      1  C   UNL     1       2.027   7.593  -3.920  1.00  0.00     0.117 C 
ENDROOT
BRANCH   1   2
ATOM      2  N   UNL     1       2.475   7.446  -2.562  1.00  0.00    -0.356 N 
ATOM      3  C   UNL     1       1.764   7.126  -1.456  1.00  0.00     0.226 C 
ATOM      4  O   UNL     1       2.410   6.978  -0.413  1.00  0.00    -0.275 OA
ATOM      5  H   UNL     1       3.437   7.598  -2.417  1.00  0.00     0.163 HD
BRANCH   3   6
ATOM      6  C   UNL     1       0.248   7.031  -1.415  1.00  0.00     0.122 C 
ATOM      7  C   UNL     1      -0.559   5.932  -2.140  1.00  0.00     0.123 C 
ATOM      8  C   UNL     1      -1.767   6.734  -2.583  1.00  0.00     0.132 C 
ATOM      9  C   UNL     1      -0.474   8.320  -1.849  1.00  0.00     0.132 C 
ATOM     10  C   UNL     1      -2.574   7.331  -1.418  1.00  0.00     0.035 C 
ATOM     11  O   UNL     1      -1.128   7.930  -3.083  1.00  0.00    -0.373 OA
ATOM     12  C   UNL     1      -1.722   8.532  -0.999  1.00  0.00     0.035 C 
BRANCH   7  13
ATOM     13  C   UNL     1       0.211   4.989  -3.083  1.00  0.00     0.231 C 
ATOM     14  N   UNL     1       0.388   4.983  -4.432  1.00  0.00    -0.317 N 
ATOM     15  H   UNL     1       1.005   4.266  -4.704  1.00  0.00     0.170 HD
ATOM     16  O   UNL     1       0.889   4.118  -2.501  1.00  0.00    -0.274 OA
BRANCH  14  17
ATOM     17  C   UNL     1      -0.056   5.703  -5.532  1.00  0.00     0.108 A 
ATOM     18  C   UNL     1       0.613   5.868  -6.753  1.00  0.00     0.082 A 
ATOM     19  C   UNL     1      -0.058   6.881  -7.551  1.00  0.00     0.007 A 
ATOM     20  C   UNL     1      -1.241   7.286  -6.967  1.00  0.00     0.076 A 
ATOM     21  S   UNL     1      -1.607   6.351  -5.612  1.00  0.00    -0.125 S 
BRANCH  18  22
ATOM     22  C   UNL     1       1.837   5.123  -7.052  1.00  0.00     0.252 C 
ATOM     23  N   UNL     1       2.634   5.583  -8.052  1.00  0.00    -0.365 N 
ATOM     24  H   UNL     1       3.465   5.106  -8.278  1.00  0.00     0.159 HD
ATOM     25  H   UNL     1       2.380   6.393  -8.550  1.00  0.00     0.159 HD
ATOM     26  O   UNL     1       2.179   4.137  -6.404  1.00  0.00    -0.269 OA
ENDBRANCH  18  22
BRANCH  19  27
ATOM     27  C   UNL     1       0.223   7.405  -8.877  1.00  0.00    -0.017 A 
ATOM     28  C   UNL     1       0.586   8.748  -9.057  1.00  0.00     0.010 A 
ATOM     29  C   UNL     1      -0.032   6.596  -9.990  1.00  0.00     0.010 A 
ATOM     30  C   UNL     1       0.664   9.281 -10.347  1.00  0.00     0.021 A 
ATOM     31  C   UNL     1       0.044   7.132 -11.276  1.00  0.00     0.021 A 
ATOM     32  C   UNL     1       0.381   8.473 -11.448  1.00  0.00     0.041 A 
ATOM     33  Cl  UNL     1       0.418   9.144 -13.032  1.00  0.00    -0.084 Cl
ENDBRANCH  19  27
ENDBRANCH  14  17
ENDBRANCH   7  13
ENDBRANCH   3   6
ENDBRANCH   1   2
BRANCH   1  34
ATOM     34  C   UNL     1       2.319   8.946  -4.530  1.00  0.00     0.042 C 
BRANCH  34  35
ATOM     35  C   UNL     1       3.773   9.120  -4.930  1.00  0.00     0.118 C 
BRANCH  35  36
ATOM     36  N   UNL     1       4.184   8.200  -5.989  1.00  0.00    -0.352 N 
ATOM     37  C   UNL     1       4.629   8.450  -7.263  1.00  0.00     0.251 C 
ATOM     38  H   UNL     1       4.133   7.246  -5.750  1.00  0.00     0.163 HD
ATOM     39  O   UNL     1       4.732   7.529  -8.070  1.00  0.00    -0.269 OA
BRANCH  37  40
ATOM     40  C   UNL     1       4.948   9.826  -7.688  1.00  0.00     0.039 A 
ATOM     41  C   UNL     1       4.615  10.226  -8.986  1.00  0.00     0.014 A 
ATOM     42  C   UNL     1       5.580  10.719  -6.822  1.00  0.00     0.014 A 
ATOM     43  C   UNL     1       4.848  11.542  -9.384  1.00  0.00     0.010 A 
ATOM     44  C   UNL     1       5.708  12.053  -7.178  1.00  0.00     0.010 A 
ATOM     45  C   UNL     1       5.355  12.476  -8.467  1.00  0.00    -0.014 A 
BRANCH  45  46
ATOM     46  C   UNL     1       5.544  13.898  -8.836  1.00  0.00     0.031 A 
ATOM     47  C   UNL     1       6.920  14.503  -8.804  1.00  0.00     0.074 A 
ATOM     48  C   UNL     1       4.470  14.657  -9.124  1.00  0.00     0.049 A 
ATOM     49  N   UNL     1       7.280  15.744  -9.013  1.00  0.00    -0.248 NA
ATOM     50  C   UNL     1       8.034  13.604  -8.459  1.00  0.00     0.031 C 
ATOM     51  C   UNL     1       3.080  14.192  -9.140  1.00  0.00     0.029 A 
ATOM     52  N   UNL     1       4.379  15.985  -9.452  1.00  0.00    -0.354 N 
ATOM     53  C   UNL     1       8.653  15.776  -8.802  1.00  0.00     0.074 A 
ATOM     54  C   UNL     1       9.052  14.448  -8.393  1.00  0.00     0.031 C 
ATOM     55  C   UNL     1       2.281  15.210  -9.495  1.00  0.00     0.029 A 
ATOM     56  C   UNL     1       3.093  16.407  -9.685  1.00  0.00     0.049 A 
ATOM     57  H   UNL     1       5.162  16.579  -9.515  1.00  0.00     0.167 HD
ATOM     58  C   UNL     1       9.510  16.812  -8.959  1.00  0.00     0.031 A 
ATOM     59  C   UNL     1       2.622  17.625 -10.008  1.00  0.00     0.031 A 
ATOM     60  C   UNL     1       9.109  18.127  -9.381  1.00  0.00     0.049 A 
ATOM     61  C   UNL     1       3.591  18.761 -10.171  1.00  0.00     0.074 A 
ATOM     62  C   UNL     1       9.903  19.233  -9.626  1.00  0.00     0.029 A 
ATOM     63  N   UNL     1       7.798  18.510  -9.620  1.00  0.00    -0.354 N 
ATOM     64  N   UNL     1       4.895  18.760 -10.032  1.00  0.00    -0.248 NA
ATOM     65  C   UNL     1       3.024  20.064 -10.545  1.00  0.00     0.031 C 
ATOM     66  C   UNL     1       9.066  20.301  -9.964  1.00  0.00     0.029 A 
ATOM     67  C   UNL     1       7.758  19.844  -9.988  1.00  0.00     0.049 A 
ATOM     68  H   UNL     1       7.013  17.922  -9.540  1.00  0.00     0.167 HD
ATOM     69  C   UNL     1       5.308  20.052 -10.329  1.00  0.00     0.074 A 
ATOM     70  C   UNL     1       4.117  20.804 -10.671  1.00  0.00     0.031 C 
ATOM     71  C   UNL     1       6.560  20.572 -10.321  1.00  0.00     0.031 A 
BRANCH  58  72
ATOM     72  C   UNL     1      10.962  16.558  -8.663  1.00  0.00    -0.014 A 
ATOM     73  C   UNL     1      11.739  15.722  -9.483  1.00  0.00     0.009 A 
ATOM     74  C   UNL     1      11.569  17.175  -7.559  1.00  0.00     0.009 A 
ATOM     75  C   UNL     1      13.079  15.476  -9.178  1.00  0.00     0.001 A 
ATOM     76  C   UNL     1      12.918  16.953  -7.275  1.00  0.00     0.001 A 
ATOM     77  C   UNL     1      13.668  16.095  -8.077  1.00  0.00     0.000 A 
ENDBRANCH  58  72
BRANCH  59  78
ATOM     78  C   UNL     1       1.164  17.826 -10.219  1.00  0.00    -0.014 A 
ATOM     79  C   UNL     1       0.659  18.064 -11.507  1.00  0.00     0.009 A 
ATOM     80  C   UNL     1       0.270  17.776  -9.138  1.00  0.00     0.009 A 
ATOM     81  C   UNL     1      -0.708  18.273 -11.703  1.00  0.00     0.001 A 
ATOM     82  C   UNL     1      -1.099  17.956  -9.342  1.00  0.00     0.001 A 
ATOM     83  C   UNL     1      -1.587  18.214 -10.622  1.00  0.00     0.000 A 
ENDBRANCH  59  78
BRANCH  71  84
ATOM     84  C   UNL     1       6.707  22.011 -10.727  1.00  0.00    -0.014 A 
ATOM     85  C   UNL     1       6.280  23.053  -9.891  1.00  0.00     0.009 A 
ATOM     86  C   UNL     1       7.324  22.326 -11.948  1.00  0.00     0.009 A 
ATOM     87  C   UNL     1       6.436  24.383 -10.286  1.00  0.00     0.001 A 
ATOM     88  C   UNL     1       7.508  23.656 -12.326  1.00  0.00     0.001 A 
ATOM     89  C   UNL     1       7.055  24.683 -11.499  1.00  0.00     0.000 A 
ENDBRANCH  71  84
ENDBRANCH  45  46
ENDBRANCH  37  40
ENDBRANCH  35  36
ENDBRANCH  34  35
ENDBRANCH   1  34
TORSDOF 14
