REMARK SMILES CC(=O)N/C(=C/c1c[nH]c(-c2ccccc2)n1)C(=O)NCCCNC(=O)c1ccc(-c2c3nc(c(-c4ccccc4)c4ccc([nH]4)c(-c4ccccc4)c4nc(c(-c5ccccc5)c5ccc2[nH]5)C=C4)C=C3)cc1
REMARK SMILES IDX 22 1 21 2 20 3 18 4 19 5 5 7 6 8 4 9 1 10 2 11 3 12 7 14
REMARK SMILES IDX 8 15 17 16 9 17 10 18 11 20 12 21 16 22 13 23 15 24 14 25
REMARK SMILES IDX 23 26 24 27 25 28 26 30 27 31 28 32 74 33 29 34 73 35 30 36
REMARK SMILES IDX 31 37 32 38 67 39 33 40 72 41 66 42 68 43 34 44 71 45 65 46
REMARK SMILES IDX 64 47 35 49 57 50 42 51 56 52 43 53 46 54 55 55 69 56 44 57
REMARK SMILES IDX 45 58 54 60 70 61 47 62 36 63 37 64 41 65 38 66 40 67 39 68
REMARK SMILES IDX 58 69 59 70 63 71 60 72 62 73 61 74 48 75 49 76 53 77 50 78
REMARK SMILES IDX 52 79 51 80
REMARK H PARENT 20 6 4 13 9 19 24 29 68 48 46 59
REMARK Flexibility Score: inf
ROOT
ATOM      1  C   UNL     1       2.308   5.404   1.590  1.00  0.00     0.042 C 
ENDROOT
BRANCH   1   2
ATOM      2  C   UNL     1       2.760   4.614   0.369  1.00  0.00     0.118 C 
BRANCH   2   3
ATOM      3  N   UNL     1       2.832   3.174   0.517  1.00  0.00    -0.351 N 
ATOM      4  C   UNL     1       2.873   2.211  -0.460  1.00  0.00     0.267 C 
ATOM      5  O   UNL     1       3.380   1.127  -0.169  1.00  0.00    -0.268 OA
ATOM      6  H   UNL     1       2.855   2.841   1.444  1.00  0.00     0.163 HD
BRANCH   4   7
ATOM      7  C   UNL     1       2.180   2.391  -1.787  1.00  0.00     0.109 C 
ATOM      8  C   UNL     1       2.557   3.325  -2.689  1.00  0.00     0.062 C 
BRANCH   7   9
ATOM      9  N   UNL     1       1.167   1.523  -2.180  1.00  0.00    -0.322 N 
ATOM     10  C   UNL     1       0.798  -0.026  -0.228  1.00  0.00     0.114 C 
ATOM     11  C   UNL     1       0.526   0.462  -1.618  1.00  0.00     0.221 C 
ATOM     12  O   UNL     1      -0.326  -0.105  -2.313  1.00  0.00    -0.275 OA
ATOM     13  H   UNL     1       0.833   1.725  -3.084  1.00  0.00     0.170 HD
ENDBRANCH   7   9
BRANCH   8  14
ATOM     14  C   UNL     1       3.600   4.278  -2.598  1.00  0.00     0.084 A 
ATOM     15  C   UNL     1       3.527   5.603  -2.952  1.00  0.00     0.112 A 
ATOM     16  N   UNL     1       4.801   3.979  -2.035  1.00  0.00    -0.229 NA
ATOM     17  N   UNL     1       4.714   6.135  -2.522  1.00  0.00    -0.344 N 
ATOM     18  C   UNL     1       5.449   5.126  -1.941  1.00  0.00     0.138 A 
ATOM     19  H   UNL     1       4.993   7.075  -2.614  1.00  0.00     0.168 HD
BRANCH  18  20
ATOM     20  C   UNL     1       6.708   5.329  -1.237  1.00  0.00     0.017 A 
ATOM     21  C   UNL     1       6.867   6.378  -0.323  1.00  0.00     0.012 A 
ATOM     22  C   UNL     1       7.744   4.401  -1.398  1.00  0.00     0.012 A 
ATOM     23  C   UNL     1       8.045   6.491   0.418  1.00  0.00     0.001 A 
ATOM     24  C   UNL     1       8.924   4.522  -0.664  1.00  0.00     0.001 A 
ATOM     25  C   UNL     1       9.071   5.564   0.248  1.00  0.00     0.000 A 
ENDBRANCH  18  20
ENDBRANCH   8  14
ENDBRANCH   4   7
ENDBRANCH   2   3
ENDBRANCH   1   2
BRANCH   1  26
ATOM     26  C   UNL     1       3.047   5.096   2.885  1.00  0.00     0.118 C 
BRANCH  26  27
ATOM     27  N   UNL     1       4.476   5.375   2.865  1.00  0.00    -0.352 N 
ATOM     28  C   UNL     1       5.236   6.451   3.244  1.00  0.00     0.251 C 
ATOM     29  H   UNL     1       5.010   4.632   2.503  1.00  0.00     0.163 HD
ATOM     30  O   UNL     1       6.460   6.370   3.158  1.00  0.00    -0.269 OA
BRANCH  28  31
ATOM     31  C   UNL     1       4.662   7.733   3.711  1.00  0.00     0.039 A 
ATOM     32  C   UNL     1       5.330   8.914   3.344  1.00  0.00     0.014 A 
ATOM     33  C   UNL     1       3.574   7.812   4.575  1.00  0.00     0.014 A 
ATOM     34  C   UNL     1       4.893  10.155   3.814  1.00  0.00     0.010 A 
ATOM     35  C   UNL     1       3.082   9.054   4.974  1.00  0.00     0.010 A 
ATOM     36  C   UNL     1       3.753  10.234   4.622  1.00  0.00    -0.014 A 
BRANCH  36  37
ATOM     37  C   UNL     1       3.289  11.523   5.191  1.00  0.00     0.031 A 
ATOM     38  C   UNL     1       3.303  11.720   6.683  1.00  0.00     0.074 A 
ATOM     39  C   UNL     1       2.799  12.480   4.383  1.00  0.00     0.049 A 
ATOM     40  N   UNL     1       2.800  12.695   7.398  1.00  0.00    -0.248 NA
ATOM     41  C   UNL     1       3.933  10.654   7.480  1.00  0.00     0.031 C 
ATOM     42  C   UNL     1       2.724  12.402   2.923  1.00  0.00     0.029 A 
ATOM     43  N   UNL     1       2.264  13.707   4.680  1.00  0.00    -0.354 N 
ATOM     44  C   UNL     1       3.001  12.330   8.724  1.00  0.00     0.074 A 
ATOM     45  C   UNL     1       3.645  11.035   8.715  1.00  0.00     0.031 C 
ATOM     46  C   UNL     1       2.205  13.546   2.449  1.00  0.00     0.029 A 
ATOM     47  C   UNL     1       1.869  14.415   3.572  1.00  0.00     0.049 A 
ATOM     48  H   UNL     1       2.172  14.048   5.599  1.00  0.00     0.167 HD
ATOM     49  C   UNL     1       2.684  13.015   9.850  1.00  0.00     0.031 A 
ATOM     50  C   UNL     1       1.294  15.629   3.475  1.00  0.00     0.031 A 
ATOM     51  C   UNL     1       2.082  14.321   9.848  1.00  0.00     0.049 A 
ATOM     52  C   UNL     1       0.995  16.393   4.733  1.00  0.00     0.074 A 
ATOM     53  C   UNL     1       1.759  15.129  10.924  1.00  0.00     0.029 A 
ATOM     54  N   UNL     1       1.725  15.017   8.702  1.00  0.00    -0.354 N 
ATOM     55  N   UNL     1       1.193  16.039   5.980  1.00  0.00    -0.248 NA
ATOM     56  C   UNL     1       0.399  17.725   4.568  1.00  0.00     0.031 C 
ATOM     57  C   UNL     1       1.179  16.304  10.427  1.00  0.00     0.029 A 
ATOM     58  C   UNL     1       1.181  16.243   9.042  1.00  0.00     0.049 A 
ATOM     59  H   UNL     1       1.843  14.688   7.782  1.00  0.00     0.167 HD
ATOM     60  C   UNL     1       0.757  17.108   6.750  1.00  0.00     0.074 A 
ATOM     61  C   UNL     1       0.307  18.131   5.827  1.00  0.00     0.031 C 
ATOM     62  C   UNL     1       0.727  17.234   8.100  1.00  0.00     0.031 A 
BRANCH  49  63
ATOM     63  C   UNL     1       2.961  12.338  11.165  1.00  0.00    -0.014 A 
ATOM     64  C   UNL     1       4.273  12.118  11.618  1.00  0.00     0.009 A 
ATOM     65  C   UNL     1       1.890  11.891  11.955  1.00  0.00     0.009 A 
ATOM     66  C   UNL     1       4.506  11.416  12.803  1.00  0.00     0.001 A 
ATOM     67  C   UNL     1       2.126  11.217  13.156  1.00  0.00     0.001 A 
ATOM     68  C   UNL     1       3.432  10.967  13.571  1.00  0.00     0.000 A 
ENDBRANCH  49  63
BRANCH  50  69
ATOM     69  C   UNL     1       1.005  16.201   2.136  1.00  0.00    -0.014 A 
ATOM     70  C   UNL     1       1.806  17.233   1.624  1.00  0.00     0.009 A 
ATOM     71  C   UNL     1      -0.039  15.695   1.345  1.00  0.00     0.009 A 
ATOM     72  C   UNL     1       1.564  17.753   0.351  1.00  0.00     0.001 A 
ATOM     73  C   UNL     1      -0.263  16.201   0.062  1.00  0.00     0.001 A 
ATOM     74  C   UNL     1       0.535  17.232  -0.432  1.00  0.00     0.000 A 
ENDBRANCH  50  69
BRANCH  62  75
ATOM     75  C   UNL     1       0.200  18.530   8.642  1.00  0.00    -0.014 A 
ATOM     76  C   UNL     1      -1.173  18.819   8.618  1.00  0.00     0.009 A 
ATOM     77  C   UNL     1       1.087  19.467   9.192  1.00  0.00     0.009 A 
ATOM     78  C   UNL     1      -1.643  20.042   9.100  1.00  0.00     0.001 A 
ATOM     79  C   UNL     1       0.612  20.678   9.695  1.00  0.00     0.001 A 
ATOM     80  C   UNL     1      -0.751  20.969   9.639  1.00  0.00     0.000 A 
ENDBRANCH  62  75
ENDBRANCH  36  37
ENDBRANCH  28  31
ENDBRANCH  26  27
ENDBRANCH   1  26
TORSDOF 13
