REMARK SMILES COCC[C@H](NC(=O)c1ccc(C)cc1F)C(=O)NCCCNC(=O)c1ccc(-c2c3nc(c(-c4ccccc4)c4ccc([nH]4)c(-c4ccccc4)c4nc(c(-c5ccccc5)c5ccc2[nH]5)C=C4)C=C3)cc1
REMARK SMILES IDX 20 1 19 2 17 3 18 4 5 6 4 7 3 8 2 9 1 10 6 11 7 12 8 14 9 15
REMARK SMILES IDX 10 16 15 17 11 18 14 19 16 20 12 21 13 22 21 23 22 24 23 25
REMARK SMILES IDX 24 26 25 28 26 29 27 30 73 31 28 32 72 33 29 34 30 35 31 36
REMARK SMILES IDX 66 37 32 38 71 39 65 40 67 41 33 42 70 43 64 44 63 45 34 47
REMARK SMILES IDX 56 48 41 49 55 50 42 51 45 52 54 53 68 54 43 55 44 56 53 58
REMARK SMILES IDX 69 59 46 60 35 61 36 62 40 63 37 64 39 65 38 66 57 67 58 68
REMARK SMILES IDX 62 69 59 70 61 71 60 72 47 73 48 74 52 75 49 76 51 77 50 78
REMARK H PARENT 19 5 6 13 23 27 67 46 45 57
REMARK Flexibility Score: inf
ROOT
ATOM      1  C   UNL     1       2.471   3.520   4.235  1.00  0.00     0.117 C 
ENDROOT
BRANCH   1   2
ATOM      2  N   UNL     1       1.948   2.262   4.743  1.00  0.00    -0.354 N 
ATOM      3  C   UNL     1       1.365   1.208   4.103  1.00  0.00     0.242 C 
ATOM      4  O   UNL     1       1.130   0.202   4.780  1.00  0.00    -0.273 OA
ATOM      5  H   UNL     1       2.029   2.152   5.718  1.00  0.00     0.163 HD
BRANCH   3   6
ATOM      6  C   UNL     1       1.146   1.191   2.580  1.00  0.00     0.173 C 
BRANCH   6   7
ATOM      7  C   UNL     1       2.522   0.857   1.958  1.00  0.00     0.063 C 
BRANCH   7   8
ATOM      8  C   UNL     1       2.449   0.460   0.492  1.00  0.00     0.162 C 
BRANCH   8   9
ATOM      9  O   UNL     1       2.023   1.586  -0.270  1.00  0.00    -0.385 OA
ATOM     10  C   UNL     1       1.023   1.236  -1.220  1.00  0.00     0.194 C 
ENDBRANCH   8   9
ENDBRANCH   7   8
ENDBRANCH   6   7
BRANCH   6  11
ATOM     11  N   UNL     1       0.558   2.414   2.023  1.00  0.00    -0.340 N 
ATOM     12  C   UNL     1      -0.748   2.853   2.017  1.00  0.00     0.254 C 
ATOM     13  H   UNL     1       1.199   3.018   1.583  1.00  0.00     0.164 HD
ATOM     14  O   UNL     1      -1.062   3.764   1.255  1.00  0.00    -0.269 OA
BRANCH  12  15
ATOM     15  C   UNL     1      -1.770   2.305   2.936  1.00  0.00     0.075 A 
ATOM     16  C   UNL     1      -1.550   2.261   4.313  1.00  0.00     0.017 A 
ATOM     17  C   UNL     1      -3.034   1.969   2.456  1.00  0.00     0.136 A 
ATOM     18  C   UNL     1      -2.537   1.801   5.188  1.00  0.00     0.004 A 
ATOM     19  C   UNL     1      -4.038   1.530   3.327  1.00  0.00     0.043 A 
ATOM     20  F   UNL     1      -3.321   2.050   1.149  1.00  0.00    -0.206 F 
ATOM     21  C   UNL     1      -3.786   1.413   4.700  1.00  0.00    -0.048 A 
ATOM     22  C   UNL     1      -4.852   0.942   5.644  1.00  0.00     0.044 C 
ENDBRANCH  12  15
ENDBRANCH   6  11
ENDBRANCH   3   6
ENDBRANCH   1   2
BRANCH   1  23
ATOM     23  C   UNL     1       1.504   4.693   4.351  1.00  0.00     0.042 C 
BRANCH  23  24
ATOM     24  C   UNL     1       0.906   4.905   5.735  1.00  0.00     0.118 C 
BRANCH  24  25
ATOM     25  N   UNL     1       1.903   5.191   6.751  1.00  0.00    -0.352 N 
ATOM     26  C   UNL     1       2.131   6.330   7.479  1.00  0.00     0.251 C 
ATOM     27  H   UNL     1       2.515   4.446   6.949  1.00  0.00     0.163 HD
ATOM     28  O   UNL     1       3.135   6.404   8.181  1.00  0.00    -0.269 OA
BRANCH  26  29
ATOM     29  C   UNL     1       1.198   7.476   7.413  1.00  0.00     0.039 A 
ATOM     30  C   UNL     1       1.735   8.765   7.355  1.00  0.00     0.014 A 
ATOM     31  C   UNL     1      -0.188   7.301   7.452  1.00  0.00     0.014 A 
ATOM     32  C   UNL     1       0.886   9.871   7.281  1.00  0.00     0.010 A 
ATOM     33  C   UNL     1      -1.033   8.398   7.297  1.00  0.00     0.010 A 
ATOM     34  C   UNL     1      -0.505   9.695   7.223  1.00  0.00    -0.014 A 
BRANCH  34  35
ATOM     35  C   UNL     1      -1.419  10.858   7.100  1.00  0.00     0.031 A 
ATOM     36  C   UNL     1      -2.384  11.184   8.207  1.00  0.00     0.074 A 
ATOM     37  C   UNL     1      -1.419  11.591   5.970  1.00  0.00     0.049 A 
ATOM     38  N   UNL     1      -3.290  12.128   8.261  1.00  0.00    -0.248 NA
ATOM     39  C   UNL     1      -2.342  10.322   9.399  1.00  0.00     0.031 C 
ATOM     40  C   UNL     1      -0.562  11.356   4.806  1.00  0.00     0.029 A 
ATOM     41  N   UNL     1      -2.172  12.681   5.615  1.00  0.00    -0.354 N 
ATOM     42  C   UNL     1      -3.939  11.958   9.478  1.00  0.00     0.074 A 
ATOM     43  C   UNL     1      -3.354  10.796  10.111  1.00  0.00     0.031 C 
ATOM     44  C   UNL     1      -0.820  12.290   3.877  1.00  0.00     0.029 A 
ATOM     45  C   UNL     1      -1.882  13.165   4.362  1.00  0.00     0.049 A 
ATOM     46  H   UNL     1      -2.856  13.079   6.201  1.00  0.00     0.167 HD
ATOM     47  C   UNL     1      -4.921  12.710  10.028  1.00  0.00     0.031 A 
ATOM     48  C   UNL     1      -2.414  14.194   3.678  1.00  0.00     0.031 A 
ATOM     49  C   UNL     1      -5.493  13.876   9.409  1.00  0.00     0.049 A 
ATOM     50  C   UNL     1      -3.502  15.015   4.310  1.00  0.00     0.074 A 
ATOM     51  C   UNL     1      -6.447  14.741   9.915  1.00  0.00     0.029 A 
ATOM     52  N   UNL     1      -5.162  14.339   8.145  1.00  0.00    -0.354 N 
ATOM     53  N   UNL     1      -4.058  14.882   5.489  1.00  0.00    -0.248 NA
ATOM     54  C   UNL     1      -4.027  16.137   3.518  1.00  0.00     0.031 C 
ATOM     55  C   UNL     1      -6.726  15.703   8.938  1.00  0.00     0.029 A 
ATOM     56  C   UNL     1      -5.910  15.465   7.845  1.00  0.00     0.049 A 
ATOM     57  H   UNL     1      -4.495  13.928   7.549  1.00  0.00     0.167 HD
ATOM     58  C   UNL     1      -4.981  15.914   5.591  1.00  0.00     0.074 A 
ATOM     59  C   UNL     1      -4.899  16.674   4.360  1.00  0.00     0.031 C 
ATOM     60  C   UNL     1      -5.819  16.207   6.614  1.00  0.00     0.031 A 
BRANCH  47  61
ATOM     61  C   UNL     1      -5.447  12.282  11.370  1.00  0.00    -0.014 A 
ATOM     62  C   UNL     1      -4.670  12.414  12.532  1.00  0.00     0.009 A 
ATOM     63  C   UNL     1      -6.744  11.757  11.476  1.00  0.00     0.009 A 
ATOM     64  C   UNL     1      -5.167  11.992  13.767  1.00  0.00     0.001 A 
ATOM     65  C   UNL     1      -7.249  11.362  12.717  1.00  0.00     0.001 A 
ATOM     66  C   UNL     1      -6.456  11.469  13.859  1.00  0.00     0.000 A 
ENDBRANCH  47  61
BRANCH  48  67
ATOM     67  C   UNL     1      -1.907  14.519   2.321  1.00  0.00    -0.014 A 
ATOM     68  C   UNL     1      -1.110  15.655   2.114  1.00  0.00     0.009 A 
ATOM     69  C   UNL     1      -2.207  13.689   1.229  1.00  0.00     0.009 A 
ATOM     70  C   UNL     1      -0.639  15.964   0.836  1.00  0.00     0.001 A 
ATOM     71  C   UNL     1      -1.713  13.988  -0.043  1.00  0.00     0.001 A 
ATOM     72  C   UNL     1      -0.936  15.128  -0.240  1.00  0.00     0.000 A 
ENDBRANCH  48  67
BRANCH  60  73
ATOM     73  C   UNL     1      -6.695  17.417   6.458  1.00  0.00    -0.014 A 
ATOM     74  C   UNL     1      -7.807  17.405   5.602  1.00  0.00     0.009 A 
ATOM     75  C   UNL     1      -6.425  18.572   7.209  1.00  0.00     0.009 A 
ATOM     76  C   UNL     1      -8.614  18.537   5.479  1.00  0.00     0.001 A 
ATOM     77  C   UNL     1      -7.249  19.693   7.103  1.00  0.00     0.001 A 
ATOM     78  C   UNL     1      -8.337  19.678   6.233  1.00  0.00     0.000 A 
ENDBRANCH  60  73
ENDBRANCH  34  35
ENDBRANCH  26  29
ENDBRANCH  24  25
ENDBRANCH  23  24
ENDBRANCH   1  23
TORSDOF 15
