REMARK SMILES O=C(NCCCNC(=O)c1ccc2nc(-c3c[nH]nc3-c3ccc(F)cc3F)[nH]c2c1)c1ccc(-c2c3nc(c(-c4ccccc4)c4ccc([nH]4)c(-c4ccccc4)c4nc(c(-c5ccccc5)c5ccc2[nH]5)C=C4)C=C3)cc1
REMARK SMILES IDX 5 1 4 2 3 3 1 4 2 5 32 7 33 8 79 9 34 10 78 11 35 12 36 13
REMARK SMILES IDX 37 14 72 15 38 16 77 17 71 18 73 19 39 20 76 21 70 22 69 23
REMARK SMILES IDX 40 25 62 26 47 27 61 28 48 29 51 30 60 31 74 32 49 33 50 34
REMARK SMILES IDX 59 36 75 37 52 38 41 39 42 40 46 41 43 42 45 43 44 44 63 45
REMARK SMILES IDX 64 46 68 47 65 48 67 49 66 50 53 51 54 52 58 53 55 54 57 55
REMARK SMILES IDX 56 56 6 57 7 58 8 59 9 61 10 62 11 63 31 64 12 65 30 66
REMARK SMILES IDX 13 67 29 68 14 69 15 70 16 72 17 73 20 74 18 75 19 76 21 78
REMARK SMILES IDX 22 79 27 80 23 81 26 82 28 83 24 84 25 85
REMARK H PARENT 3 6 73 24 51 35 7 60 29 71 18 77
REMARK Flexibility Score: inf
ROOT
ATOM      1  C   UNL     1       4.880   1.028  -2.409  1.00  0.00     0.042 C 
ENDROOT
BRANCH   1   2
ATOM      2  C   UNL     1       4.570   1.144  -0.925  1.00  0.00     0.118 C 
BRANCH   2   3
ATOM      3  N   UNL     1       3.150   0.996  -0.629  1.00  0.00    -0.352 N 
ATOM      4  O   UNL     1       1.257  -0.018   0.056  1.00  0.00    -0.269 OA
ATOM      5  C   UNL     1       2.485   0.014   0.066  1.00  0.00     0.251 C 
ATOM      6  H   UNL     1       2.576   1.714  -0.983  1.00  0.00     0.163 HD
BRANCH   5   7
ATOM      7  C   UNL     1       3.243  -1.016   0.808  1.00  0.00     0.039 A 
ATOM      8  C   UNL     1       4.380  -0.670   1.536  1.00  0.00     0.014 A 
ATOM      9  C   UNL     1       2.805  -2.344   0.789  1.00  0.00     0.014 A 
ATOM     10  C   UNL     1       5.178  -1.665   2.080  1.00  0.00     0.010 A 
ATOM     11  C   UNL     1       3.546  -3.333   1.445  1.00  0.00     0.010 A 
ATOM     12  C   UNL     1       4.759  -3.006   2.068  1.00  0.00    -0.014 A 
BRANCH  12  13
ATOM     13  C   UNL     1       5.587  -4.006   2.789  1.00  0.00     0.031 A 
ATOM     14  C   UNL     1       6.262  -5.141   2.072  1.00  0.00     0.074 A 
ATOM     15  C   UNL     1       5.791  -3.823   4.110  1.00  0.00     0.049 A 
ATOM     16  N   UNL     1       7.099  -6.028   2.550  1.00  0.00    -0.248 NA
ATOM     17  C   UNL     1       5.961  -5.313   0.642  1.00  0.00     0.031 C 
ATOM     18  C   UNL     1       5.174  -2.766   4.918  1.00  0.00     0.029 A 
ATOM     19  N   UNL     1       6.606  -4.480   4.993  1.00  0.00    -0.354 N 
ATOM     20  C   UNL     1       7.412  -6.869   1.490  1.00  0.00     0.074 A 
ATOM     21  C   UNL     1       6.657  -6.403   0.347  1.00  0.00     0.031 C 
ATOM     22  C   UNL     1       5.695  -2.794   6.152  1.00  0.00     0.029 A 
ATOM     23  C   UNL     1       6.624  -3.912   6.244  1.00  0.00     0.049 A 
ATOM     24  H   UNL     1       7.127  -5.281   4.755  1.00  0.00     0.167 HD
ATOM     25  C   UNL     1       8.257  -7.929   1.472  1.00  0.00     0.031 A 
ATOM     26  C   UNL     1       7.307  -4.253   7.351  1.00  0.00     0.031 A 
ATOM     27  C   UNL     1       9.006  -8.393   2.612  1.00  0.00     0.049 A 
ATOM     28  C   UNL     1       8.230  -5.432   7.299  1.00  0.00     0.074 A 
ATOM     29  C   UNL     1       9.890  -9.456   2.689  1.00  0.00     0.029 A 
ATOM     30  N   UNL     1       8.961  -7.819   3.873  1.00  0.00    -0.354 N 
ATOM     31  N   UNL     1       8.524  -6.203   6.281  1.00  0.00    -0.248 NA
ATOM     32  C   UNL     1       8.912  -5.789   8.549  1.00  0.00     0.031 C 
ATOM     33  C   UNL     1      10.349  -9.550   4.007  1.00  0.00     0.029 A 
ATOM     34  C   UNL     1       9.790  -8.515   4.738  1.00  0.00     0.049 A 
ATOM     35  H   UNL     1       8.421  -7.034   4.118  1.00  0.00     0.167 HD
ATOM     36  C   UNL     1       9.424  -7.139   6.767  1.00  0.00     0.074 A 
ATOM     37  C   UNL     1       9.659  -6.812   8.160  1.00  0.00     0.031 C 
ATOM     38  C   UNL     1       9.996  -8.185   6.124  1.00  0.00     0.031 A 
BRANCH  25  39
ATOM     39  C   UNL     1       8.407  -8.679   0.177  1.00  0.00    -0.014 A 
ATOM     40  C   UNL     1       9.139  -8.141  -0.893  1.00  0.00     0.009 A 
ATOM     41  C   UNL     1       7.866  -9.969   0.050  1.00  0.00     0.009 A 
ATOM     42  C   UNL     1       9.308  -8.872  -2.072  1.00  0.00     0.001 A 
ATOM     43  C   UNL     1       8.056 -10.705  -1.121  1.00  0.00     0.001 A 
ATOM     44  C   UNL     1       8.773 -10.155  -2.183  1.00  0.00     0.000 A 
ENDBRANCH  25  39
BRANCH  26  45
ATOM     45  C   UNL     1       7.119  -3.479   8.605  1.00  0.00    -0.014 A 
ATOM     46  C   UNL     1       8.152  -2.686   9.124  1.00  0.00     0.009 A 
ATOM     47  C   UNL     1       5.892  -3.529   9.287  1.00  0.00     0.009 A 
ATOM     48  C   UNL     1       7.968  -1.977  10.314  1.00  0.00     0.001 A 
ATOM     49  C   UNL     1       5.700  -2.794  10.457  1.00  0.00     0.001 A 
ATOM     50  C   UNL     1       6.741  -2.027  10.975  1.00  0.00     0.000 A 
ENDBRANCH  26  45
BRANCH  38  51
ATOM     51  C   UNL     1      10.931  -9.038   6.930  1.00  0.00    -0.014 A 
ATOM     52  C   UNL     1      10.444  -9.910   7.917  1.00  0.00     0.009 A 
ATOM     53  C   UNL     1      12.314  -8.966   6.703  1.00  0.00     0.009 A 
ATOM     54  C   UNL     1      11.329 -10.661   8.692  1.00  0.00     0.001 A 
ATOM     55  C   UNL     1      13.194  -9.739   7.461  1.00  0.00     0.001 A 
ATOM     56  C   UNL     1      12.702 -10.576   8.462  1.00  0.00     0.000 A 
ENDBRANCH  38  51
ENDBRANCH  12  13
ENDBRANCH   5   7
ENDBRANCH   2   3
ENDBRANCH   1   2
BRANCH   1  57
ATOM     57  C   UNL     1       4.304   2.166  -3.239  1.00  0.00     0.118 C 
BRANCH  57  58
ATOM     58  N   UNL     1       4.866   3.449  -2.845  1.00  0.00    -0.352 N 
ATOM     59  C   UNL     1       5.826   4.199  -3.472  1.00  0.00     0.251 C 
ATOM     60  H   UNL     1       4.506   3.832  -2.012  1.00  0.00     0.163 HD
ATOM     61  O   UNL     1       6.396   5.105  -2.873  1.00  0.00    -0.269 OA
BRANCH  59  62
ATOM     62  C   UNL     1       6.168   3.921  -4.880  1.00  0.00     0.042 A 
ATOM     63  C   UNL     1       5.145   3.850  -5.837  1.00  0.00     0.016 A 
ATOM     64  C   UNL     1       7.523   3.806  -5.231  1.00  0.00     0.042 A 
ATOM     65  C   UNL     1       5.446   3.639  -7.183  1.00  0.00     0.031 A 
ATOM     66  C   UNL     1       7.790   3.593  -6.584  1.00  0.00     0.067 A 
ATOM     67  C   UNL     1       6.793   3.540  -7.553  1.00  0.00     0.089 A 
ATOM     68  N   UNL     1       8.954   3.417  -7.293  1.00  0.00    -0.338 N 
ATOM     69  N   UNL     1       7.332   3.436  -8.800  1.00  0.00    -0.228 NA
ATOM     70  C   UNL     1       8.634   3.393  -8.626  1.00  0.00     0.142 A 
ATOM     71  H   UNL     1       9.857   3.325  -6.911  1.00  0.00     0.168 HD
BRANCH  70  72
ATOM     72  C   UNL     1       9.596   3.388  -9.749  1.00  0.00     0.063 A 
ATOM     73  C   UNL     1      10.867   2.870  -9.755  1.00  0.00     0.117 A 
ATOM     74  C   UNL     1       9.395   3.948 -11.043  1.00  0.00     0.106 A 
ATOM     75  N   UNL     1      11.317   3.049 -11.033  1.00  0.00    -0.284 N 
ATOM     76  N   UNL     1      10.473   3.739 -11.816  1.00  0.00    -0.175 NA
ATOM     77  H   UNL     1      12.182   2.702 -11.350  1.00  0.00     0.189 HD
BRANCH  74  78
ATOM     78  C   UNL     1       8.287   4.789 -11.479  1.00  0.00     0.039 A 
ATOM     79  C   UNL     1       7.995   5.966 -10.763  1.00  0.00     0.016 A 
ATOM     80  C   UNL     1       7.490   4.451 -12.574  1.00  0.00     0.135 A 
ATOM     81  C   UNL     1       6.920   6.774 -11.135  1.00  0.00     0.040 A 
ATOM     82  C   UNL     1       6.419   5.258 -12.954  1.00  0.00     0.079 A 
ATOM     83  F   UNL     1       7.718   3.329 -13.273  1.00  0.00    -0.206 F 
ATOM     84  C   UNL     1       6.143   6.411 -12.228  1.00  0.00     0.126 A 
ATOM     85  F   UNL     1       5.110   7.185 -12.583  1.00  0.00    -0.207 F 
ENDBRANCH  74  78
ENDBRANCH  70  72
ENDBRANCH  59  62
ENDBRANCH  57  58
ENDBRANCH   1  57
TORSDOF 12
