REMARK SMILES CC(C)C[C@H](NC(=O)[C@H](C)NC(=O)[C@@H](NC(=O)CNC(=O)OCc1ccccc1)C(C)C)C(=O)NCCCNC(=O)c1ccc(-c2c3nc(c(-c4ccccc4)c4ccc([nH]4)c(-c4ccccc4)c4nc(c(-c5ccccc5)c5ccc2[nH]5)C=C4)C=C3)cc1
REMARK SMILES IDX 6 1 7 2 8 3 5 5 4 6 2 7 1 8 3 9 33 10 34 11 35 12 36 14
REMARK SMILES IDX 37 15 38 16 39 17 40 18 41 20 42 21 43 22 89 23 44 24 88 25
REMARK SMILES IDX 45 26 46 27 47 28 82 29 48 30 87 31 81 32 83 33 49 34 86 35
REMARK SMILES IDX 80 36 79 37 50 39 72 40 57 41 71 42 58 43 61 44 70 45 84 46
REMARK SMILES IDX 59 47 60 48 69 50 85 51 62 52 51 53 52 54 56 55 53 56 55 57
REMARK SMILES IDX 54 58 73 59 74 60 78 61 75 62 77 63 76 64 63 65 64 66 68 67
REMARK SMILES IDX 65 68 67 69 66 70 9 71 10 72 11 73 12 74 13 76 14 77 15 78
REMARK SMILES IDX 16 79 17 81 18 82 19 83 20 84 21 86 22 87 23 88 24 89 25 90
REMARK SMILES IDX 29 91 26 92 28 93 27 94 30 95 31 96 32 97
REMARK H PARENT 6 4 35 13 39 19 83 38 61 49 11 75 15 80 19 85
REMARK Flexibility Score: inf
ROOT
ATOM      1  N   UNL     1      -0.798   1.936   1.893  1.00  0.00    -0.343 N 
ATOM      2  C   UNL     1      -0.315   3.171   1.585  1.00  0.00     0.242 C 
ATOM      3  O   UNL     1      -0.239   3.441   0.382  1.00  0.00    -0.273 OA
ATOM      4  H   UNL     1      -0.521   1.207   1.293  1.00  0.00     0.164 HD
ENDROOT
BRANCH   1   5
ATOM      5  C   UNL     1      -1.676   1.548   3.000  1.00  0.00     0.171 C 
BRANCH   5   6
ATOM      6  C   UNL     1      -3.140   1.971   2.729  1.00  0.00     0.038 C 
BRANCH   6   7
ATOM      7  C   UNL     1      -4.076   1.010   1.979  1.00  0.00    -0.015 C 
ATOM      8  C   UNL     1      -4.653  -0.067   2.905  1.00  0.00     0.007 C 
ATOM      9  C   UNL     1      -5.243   1.766   1.335  1.00  0.00     0.007 C 
ENDBRANCH   6   7
ENDBRANCH   5   6
BRANCH   5  10
ATOM     10  C   UNL     1      -1.400   0.138   3.542  1.00  0.00     0.242 C 
ATOM     11  O   UNL     1      -1.312  -0.053   4.760  1.00  0.00    -0.273 OA
ATOM     12  N   UNL     1      -1.301  -0.960   2.751  1.00  0.00    -0.354 N 
ATOM     13  H   UNL     1      -0.879  -1.739   3.180  1.00  0.00     0.163 HD
BRANCH  12  14
ATOM     14  C   UNL     1      -1.716  -1.173   1.381  1.00  0.00     0.117 C 
BRANCH  14  15
ATOM     15  C   UNL     1      -0.995  -2.323   0.718  1.00  0.00     0.042 C 
BRANCH  15  16
ATOM     16  C   UNL     1      -1.282  -3.651   1.398  1.00  0.00     0.118 C 
BRANCH  16  17
ATOM     17  N   UNL     1      -2.698  -4.020   1.378  1.00  0.00    -0.352 N 
ATOM     18  C   UNL     1      -3.348  -4.994   0.655  1.00  0.00     0.251 C 
ATOM     19  H   UNL     1      -3.275  -3.490   1.973  1.00  0.00     0.163 HD
ATOM     20  O   UNL     1      -4.572  -5.050   0.636  1.00  0.00    -0.269 OA
BRANCH  18  21
ATOM     21  C   UNL     1      -2.543  -5.943  -0.134  1.00  0.00     0.039 A 
ATOM     22  C   UNL     1      -2.868  -6.177  -1.470  1.00  0.00     0.014 A 
ATOM     23  C   UNL     1      -1.399  -6.505   0.428  1.00  0.00     0.014 A 
ATOM     24  C   UNL     1      -1.966  -6.872  -2.276  1.00  0.00     0.010 A 
ATOM     25  C   UNL     1      -0.441  -7.060  -0.404  1.00  0.00     0.010 A 
ATOM     26  C   UNL     1      -0.713  -7.250  -1.766  1.00  0.00    -0.014 A 
BRANCH  26  27
ATOM     27  C   UNL     1       0.340  -7.841  -2.628  1.00  0.00     0.031 A 
ATOM     28  C   UNL     1       0.912  -9.189  -2.288  1.00  0.00     0.074 A 
ATOM     29  C   UNL     1       0.843  -7.128  -3.656  1.00  0.00     0.049 A 
ATOM     30  N   UNL     1       1.901  -9.832  -2.853  1.00  0.00    -0.248 NA
ATOM     31  C   UNL     1       0.322  -9.892  -1.135  1.00  0.00     0.031 C 
ATOM     32  C   UNL     1       0.412  -5.785  -4.056  1.00  0.00     0.029 A 
ATOM     33  N   UNL     1       1.836  -7.434  -4.552  1.00  0.00    -0.354 N 
ATOM     34  C   UNL     1       2.063 -10.996  -2.112  1.00  0.00     0.074 A 
ATOM     35  C   UNL     1       1.123 -10.939  -1.017  1.00  0.00     0.031 C 
ATOM     36  C   UNL     1       1.106  -5.404  -5.141  1.00  0.00     0.029 A 
ATOM     37  C   UNL     1       2.067  -6.447  -5.480  1.00  0.00     0.049 A 
ATOM     38  H   UNL     1       2.336  -8.282  -4.533  1.00  0.00     0.167 HD
ATOM     39  C   UNL     1       2.898 -12.036  -2.338  1.00  0.00     0.031 A 
ATOM     40  C   UNL     1       2.961  -6.384  -6.485  1.00  0.00     0.031 A 
ATOM     41  C   UNL     1       3.822 -12.097  -3.437  1.00  0.00     0.049 A 
ATOM     42  C   UNL     1       3.895  -7.542  -6.701  1.00  0.00     0.074 A 
ATOM     43  C   UNL     1       4.669 -13.131  -3.793  1.00  0.00     0.029 A 
ATOM     44  N   UNL     1       4.021 -11.078  -4.356  1.00  0.00    -0.354 N 
ATOM     45  N   UNL     1       3.980  -8.671  -6.040  1.00  0.00    -0.248 NA
ATOM     46  C   UNL     1       4.853  -7.419  -7.809  1.00  0.00     0.031 C 
ATOM     47  C   UNL     1       5.429 -12.712  -4.889  1.00  0.00     0.029 A 
ATOM     48  C   UNL     1       5.005 -11.445  -5.258  1.00  0.00     0.049 A 
ATOM     49  H   UNL     1       3.536 -10.222  -4.365  1.00  0.00     0.167 HD
ATOM     50  C   UNL     1       4.982  -9.402  -6.665  1.00  0.00     0.074 A 
ATOM     51  C   UNL     1       5.457  -8.598  -7.772  1.00  0.00     0.031 C 
ATOM     52  C   UNL     1       5.468 -10.628  -6.350  1.00  0.00     0.031 A 
BRANCH  39  53
ATOM     53  C   UNL     1       2.850 -13.186  -1.370  1.00  0.00    -0.014 A 
ATOM     54  C   UNL     1       1.724 -14.022  -1.285  1.00  0.00     0.009 A 
ATOM     55  C   UNL     1       3.954 -13.451  -0.547  1.00  0.00     0.009 A 
ATOM     56  C   UNL     1       1.690 -15.073  -0.366  1.00  0.00     0.001 A 
ATOM     57  C   UNL     1       3.931 -14.524   0.345  1.00  0.00     0.001 A 
ATOM     58  C   UNL     1       2.796 -15.327   0.443  1.00  0.00     0.000 A 
ENDBRANCH  39  53
BRANCH  40  59
ATOM     59  C   UNL     1       3.014  -5.188  -7.369  1.00  0.00    -0.014 A 
ATOM     60  C   UNL     1       2.639  -5.281  -8.718  1.00  0.00     0.009 A 
ATOM     61  C   UNL     1       3.455  -3.950  -6.874  1.00  0.00     0.009 A 
ATOM     62  C   UNL     1       2.734  -4.170  -9.560  1.00  0.00     0.001 A 
ATOM     63  C   UNL     1       3.516  -2.832  -7.710  1.00  0.00     0.001 A 
ATOM     64  C   UNL     1       3.167  -2.946  -9.054  1.00  0.00     0.000 A 
ENDBRANCH  40  59
BRANCH  52  65
ATOM     65  C   UNL     1       6.551 -11.185  -7.232  1.00  0.00    -0.014 A 
ATOM     66  C   UNL     1       7.848 -10.651  -7.220  1.00  0.00     0.009 A 
ATOM     67  C   UNL     1       6.277 -12.292  -8.051  1.00  0.00     0.009 A 
ATOM     68  C   UNL     1       8.841 -11.192  -8.040  1.00  0.00     0.001 A 
ATOM     69  C   UNL     1       7.280 -12.853  -8.842  1.00  0.00     0.001 A 
ATOM     70  C   UNL     1       8.558 -12.296  -8.844  1.00  0.00     0.000 A 
ENDBRANCH  52  65
ENDBRANCH  26  27
ENDBRANCH  18  21
ENDBRANCH  16  17
ENDBRANCH  15  16
ENDBRANCH  14  15
ENDBRANCH  12  14
ENDBRANCH   5  10
ENDBRANCH   1   5
BRANCH   2  71
ATOM     71  C   UNL     1       0.322   4.099   2.648  1.00  0.00     0.168 C 
ATOM     72  C   UNL     1      -0.335   4.243   4.009  1.00  0.00     0.041 C 
BRANCH  71  73
ATOM     73  N   UNL     1       0.493   5.426   2.078  1.00  0.00    -0.343 N 
ATOM     74  C   UNL     1       1.501   6.317   2.257  1.00  0.00     0.243 C 
ATOM     75  H   UNL     1      -0.227   5.720   1.475  1.00  0.00     0.164 HD
ATOM     76  O   UNL     1       1.355   7.430   1.739  1.00  0.00    -0.273 OA
BRANCH  74  77
ATOM     77  C   UNL     1       2.866   5.935   2.919  1.00  0.00     0.174 C 
BRANCH  77  78
ATOM     78  N   UNL     1       2.766   5.126   4.165  1.00  0.00    -0.343 N 
ATOM     79  C   UNL     1       3.074   3.876   4.608  1.00  0.00     0.240 C 
ATOM     80  H   UNL     1       2.353   5.654   4.886  1.00  0.00     0.164 HD
ATOM     81  O   UNL     1       2.633   3.594   5.731  1.00  0.00    -0.273 OA
BRANCH  79  82
ATOM     82  C   UNL     1       3.876   2.807   3.836  1.00  0.00     0.219 C 
BRANCH  82  83
ATOM     83  N   UNL     1       3.132   2.121   2.794  1.00  0.00    -0.312 N 
ATOM     84  C   UNL     1       3.490   2.004   1.482  1.00  0.00     0.407 C 
ATOM     85  H   UNL     1       2.285   1.697   3.061  1.00  0.00     0.167 HD
ATOM     86  O   UNL     1       2.673   1.671   0.640  1.00  0.00    -0.225 OA
BRANCH  84  87
ATOM     87  O   UNL     1       4.789   2.323   1.254  1.00  0.00    -0.445 OA
BRANCH  87  88
ATOM     88  C   UNL     1       5.160   2.576  -0.113  1.00  0.00     0.270 C 
BRANCH  88  89
ATOM     89  C   UNL     1       5.304   1.369  -1.008  1.00  0.00    -0.011 A 
ATOM     90  C   UNL     1       5.077   0.064  -0.556  1.00  0.00     0.007 A 
ATOM     91  C   UNL     1       5.625   1.566  -2.361  1.00  0.00     0.007 A 
ATOM     92  C   UNL     1       5.096  -1.009  -1.445  1.00  0.00     0.000 A 
ATOM     93  C   UNL     1       5.664   0.489  -3.247  1.00  0.00     0.000 A 
ATOM     94  C   UNL     1       5.381  -0.796  -2.791  1.00  0.00     0.000 A 
ENDBRANCH  88  89
ENDBRANCH  87  88
ENDBRANCH  84  87
ENDBRANCH  82  83
ENDBRANCH  79  82
ENDBRANCH  77  78
BRANCH  77  95
ATOM     95  C   UNL     1       3.900   5.442   1.897  1.00  0.00     0.015 C 
ATOM     96  C   UNL     1       3.785   6.032   0.489  1.00  0.00     0.010 C 
ATOM     97  C   UNL     1       5.326   5.636   2.421  1.00  0.00     0.010 C 
ENDBRANCH  77  95
ENDBRANCH  74  77
ENDBRANCH  71  73
ENDBRANCH   2  71
TORSDOF 23
