REMARK SMILES CC(=O)O[C@@H]1[C@H](O)C(C)=C(CC[C@@H](C)CC(=O)NCCCNC(=O)c2ccc(-c3c4nc(c(-c5ccccc5)c5ccc([nH]5)c(-c5ccccc5)c5nc(c(-c6ccccc6)c6ccc3[nH]6)C=C5)C=C4)cc2)[C@@]2(C)CCCC(C)(C)[C@H]12
REMARK SMILES IDX 16 1 17 2 18 3 15 5 13 6 14 7 12 8 11 9 10 10 5 11 6 12
REMARK SMILES IDX 81 13 8 14 73 15 78 16 9 17 75 18 74 19 77 20 79 21 80 22
REMARK SMILES IDX 76 23 4 24 2 25 1 26 3 27 7 28 19 30 20 31 21 32 22 33 23 34
REMARK SMILES IDX 24 36 25 37 26 38 72 39 27 40 71 41 28 42 29 43 30 44 65 45
REMARK SMILES IDX 31 46 70 47 64 48 66 49 32 50 69 51 63 52 62 53 33 55 55 56
REMARK SMILES IDX 40 57 54 58 41 59 44 60 53 61 67 62 42 63 43 64 52 66 68 67
REMARK SMILES IDX 45 68 34 69 35 70 39 71 36 72 38 73 37 74 56 75 57 76 61 77
REMARK SMILES IDX 58 78 60 79 59 80 46 81 47 82 51 83 48 84 50 85 49 86
REMARK H PARENT 18 4 7 29 22 35 66 54 44 65
REMARK Flexibility Score: inf
ROOT
ATOM      1  C   UNL     1       0.415  -9.180  -0.450  1.00  0.00     0.220 C 
ATOM      2  O   UNL     1       0.994  -9.786   0.455  1.00  0.00    -0.275 OA
ATOM      3  N   UNL     1       0.895  -9.344  -1.720  1.00  0.00    -0.356 N 
ATOM      4  H   UNL     1       1.633  -9.992  -1.789  1.00  0.00     0.163 HD
ENDROOT
BRANCH   1   5
ATOM      5  C   UNL     1      -0.786  -8.288  -0.141  1.00  0.00     0.103 C 
BRANCH   5   6
ATOM      6  C   UNL     1      -0.392  -6.847   0.250  1.00  0.00    -0.005 C 
ATOM      7  C   UNL     1      -1.558  -6.099   0.899  1.00  0.00     0.008 C 
BRANCH   6   8
ATOM      8  C   UNL     1       0.054  -6.096  -1.000  1.00  0.00     0.008 C 
BRANCH   8   9
ATOM      9  C   UNL     1       0.941  -4.879  -0.831  1.00  0.00     0.032 C 
BRANCH   9  10
ATOM     10  C   UNL     1       2.396  -5.222  -0.377  1.00  0.00    -0.062 C 
ATOM     11  C   UNL     1       3.037  -2.908   1.306  1.00  0.00     0.213 C 
ATOM     12  C   UNL     1       2.254  -4.151   1.820  1.00  0.00     0.181 C 
ATOM     13  C   UNL     1       3.212  -2.865  -0.268  1.00  0.00     0.049 C 
ATOM     14  C   UNL     1       2.567  -5.362   0.976  1.00  0.00    -0.042 C 
ATOM     15  C   UNL     1       3.463  -4.248  -1.061  1.00  0.00    -0.004 C 
ATOM     16  C   UNL     1       3.600  -1.521  -0.963  1.00  0.00    -0.028 C 
ATOM     17  C   UNL     1       3.426  -6.407   1.641  1.00  0.00     0.042 C 
ATOM     18  C   UNL     1       3.299  -4.081  -2.631  1.00  0.00     0.011 C 
ATOM     19  C   UNL     1       4.848  -4.948  -0.981  1.00  0.00     0.016 C 
ATOM     20  C   UNL     1       2.891  -1.554  -2.345  1.00  0.00     0.007 C 
ATOM     21  C   UNL     1       5.096  -1.262  -1.167  1.00  0.00     0.011 C 
ATOM     22  C   UNL     1       3.021  -0.317  -0.183  1.00  0.00     0.011 C 
ATOM     23  C   UNL     1       3.401  -2.677  -3.228  1.00  0.00     0.001 C 
BRANCH  11  24
ATOM     24  O   UNL     1       4.017  -2.372   2.233  1.00  0.00    -0.459 OA
BRANCH  24  25
ATOM     25  C   UNL     1       5.212  -2.844   2.629  1.00  0.00     0.303 C 
ATOM     26  C   UNL     1       6.125  -3.310   1.562  1.00  0.00     0.139 C 
ATOM     27  O   UNL     1       5.572  -2.757   3.795  1.00  0.00    -0.253 OA
ENDBRANCH  24  25
ENDBRANCH  11  24
BRANCH  12  28
ATOM     28  O   UNL     1       2.409  -4.401   3.206  1.00  0.00    -0.385 OA
ATOM     29  H   UNL     1       3.335  -4.620   3.394  1.00  0.00     0.211 HD
ENDBRANCH  12  28
ENDBRANCH   9  10
ENDBRANCH   8   9
ENDBRANCH   6   8
ENDBRANCH   5   6
ENDBRANCH   1   5
BRANCH   3  30
ATOM     30  C   UNL     1       0.516  -8.736  -2.991  1.00  0.00     0.117 C 
BRANCH  30  31
ATOM     31  C   UNL     1       1.593  -7.769  -3.512  1.00  0.00     0.042 C 
BRANCH  31  32
ATOM     32  C   UNL     1       2.740  -8.422  -4.259  1.00  0.00     0.118 C 
BRANCH  32  33
ATOM     33  N   UNL     1       2.372  -8.773  -5.616  1.00  0.00    -0.352 N 
ATOM     34  C   UNL     1       2.833  -8.283  -6.814  1.00  0.00     0.251 C 
ATOM     35  H   UNL     1       1.683  -9.472  -5.691  1.00  0.00     0.163 HD
ATOM     36  O   UNL     1       2.211  -8.543  -7.838  1.00  0.00    -0.269 OA
BRANCH  34  37
ATOM     37  C   UNL     1       4.058  -7.445  -6.894  1.00  0.00     0.039 A 
ATOM     38  C   UNL     1       4.120  -6.452  -7.879  1.00  0.00     0.014 A 
ATOM     39  C   UNL     1       5.170  -7.669  -6.079  1.00  0.00     0.014 A 
ATOM     40  C   UNL     1       5.273  -5.675  -8.026  1.00  0.00     0.010 A 
ATOM     41  C   UNL     1       6.286  -6.836  -6.165  1.00  0.00     0.010 A 
ATOM     42  C   UNL     1       6.361  -5.847  -7.157  1.00  0.00    -0.014 A 
BRANCH  42  43
ATOM     43  C   UNL     1       7.601  -5.039  -7.297  1.00  0.00     0.031 A 
ATOM     44  C   UNL     1       8.906  -5.711  -7.636  1.00  0.00     0.074 A 
ATOM     45  C   UNL     1       7.568  -3.711  -7.075  1.00  0.00     0.049 A 
ATOM     46  N   UNL     1      10.104  -5.191  -7.734  1.00  0.00    -0.248 NA
ATOM     47  C   UNL     1       8.864  -7.163  -7.873  1.00  0.00     0.031 C 
ATOM     48  C   UNL     1       6.375  -2.939  -6.721  1.00  0.00     0.029 A 
ATOM     49  N   UNL     1       8.571  -2.774  -7.111  1.00  0.00    -0.354 N 
ATOM     50  C   UNL     1      10.956  -6.252  -8.020  1.00  0.00     0.074 A 
ATOM     51  C   UNL     1      10.148  -7.451  -8.031  1.00  0.00     0.031 C 
ATOM     52  C   UNL     1       6.710  -1.644  -6.599  1.00  0.00     0.029 A 
ATOM     53  C   UNL     1       8.146  -1.501  -6.819  1.00  0.00     0.049 A 
ATOM     54  H   UNL     1       9.506  -2.994  -7.325  1.00  0.00     0.167 HD
ATOM     55  C   UNL     1      12.287  -6.231  -8.269  1.00  0.00     0.031 A 
ATOM     56  C   UNL     1       8.836  -0.347  -6.729  1.00  0.00     0.031 A 
ATOM     57  C   UNL     1      13.091  -5.038  -8.271  1.00  0.00     0.049 A 
ATOM     58  C   UNL     1      10.319  -0.354  -6.983  1.00  0.00     0.074 A 
ATOM     59  C   UNL     1      14.438  -4.907  -8.559  1.00  0.00     0.029 A 
ATOM     60  N   UNL     1      12.620  -3.770  -7.969  1.00  0.00    -0.354 N 
ATOM     61  N   UNL     1      11.098  -1.358  -7.306  1.00  0.00    -0.248 NA
ATOM     62  C   UNL     1      11.015   0.936  -6.870  1.00  0.00     0.031 C 
ATOM     63  C   UNL     1      14.795  -3.568  -8.376  1.00  0.00     0.029 A 
ATOM     64  C   UNL     1      13.656  -2.854  -8.038  1.00  0.00     0.049 A 
ATOM     65  H   UNL     1      11.688  -3.553  -7.739  1.00  0.00     0.167 HD
ATOM     66  C   UNL     1      12.367  -0.817  -7.467  1.00  0.00     0.074 A 
ATOM     67  C   UNL     1      12.251   0.605  -7.218  1.00  0.00     0.031 C 
ATOM     68  C   UNL     1      13.525  -1.441  -7.794  1.00  0.00     0.031 A 
BRANCH  55  69
ATOM     69  C   UNL     1      12.964  -7.547  -8.547  1.00  0.00    -0.014 A 
ATOM     70  C   UNL     1      12.716  -8.261  -9.731  1.00  0.00     0.009 A 
ATOM     71  C   UNL     1      13.891  -8.063  -7.627  1.00  0.00     0.009 A 
ATOM     72  C   UNL     1      13.352  -9.482  -9.968  1.00  0.00     0.001 A 
ATOM     73  C   UNL     1      14.549  -9.268  -7.882  1.00  0.00     0.001 A 
ATOM     74  C   UNL     1      14.271  -9.982  -9.046  1.00  0.00     0.000 A 
ENDBRANCH  55  69
BRANCH  56  75
ATOM     75  C   UNL     1       8.131   0.917  -6.388  1.00  0.00    -0.014 A 
ATOM     76  C   UNL     1       7.987   1.933  -7.345  1.00  0.00     0.009 A 
ATOM     77  C   UNL     1       7.606   1.118  -5.101  1.00  0.00     0.009 A 
ATOM     78  C   UNL     1       7.358   3.135  -7.012  1.00  0.00     0.001 A 
ATOM     79  C   UNL     1       6.949   2.308  -4.782  1.00  0.00     0.001 A 
ATOM     80  C   UNL     1       6.835   3.319  -5.734  1.00  0.00     0.000 A 
ENDBRANCH  56  75
BRANCH  68  81
ATOM     81  C   UNL     1      14.753  -0.588  -7.948  1.00  0.00    -0.014 A 
ATOM     82  C   UNL     1      15.393  -0.015  -6.838  1.00  0.00     0.009 A 
ATOM     83  C   UNL     1      15.307  -0.400  -9.225  1.00  0.00     0.009 A 
ATOM     84  C   UNL     1      16.546   0.754  -7.008  1.00  0.00     0.001 A 
ATOM     85  C   UNL     1      16.477   0.343  -9.387  1.00  0.00     0.001 A 
ATOM     86  C   UNL     1      17.091   0.926  -8.280  1.00  0.00     0.000 A 
ENDBRANCH  68  81
ENDBRANCH  42  43
ENDBRANCH  34  37
ENDBRANCH  32  33
ENDBRANCH  31  32
ENDBRANCH  30  31
ENDBRANCH   3  30
TORSDOF 17
