REMARK SMILES O=C(CNC(=O)[C@@H](CC1=c2ccccc2=NC1)N1C(=O)N=C2C=CC=C[C@H]2C1=O)NCCCNC(=O)c1ccc(-c2c3nc(c(-c4ccccc4)c4ccc([nH]4)c(-c4ccccc4)c4nc(c(-c5ccccc5)c5ccc2[nH]5)C=C4)C=C3)cc1
REMARK SMILES IDX 31 1 30 2 1 3 2 4 3 6 4 7 5 8 6 10 7 11 8 12 9 13 10 14
REMARK SMILES IDX 17 15 11 16 15 17 16 18 12 19 14 20 13 21 18 22 19 23 28 24
REMARK SMILES IDX 21 25 20 26 27 27 29 28 22 29 26 30 23 31 25 32 24 33 32 34
REMARK SMILES IDX 33 35 34 36 35 37 36 39 37 40 38 41 84 42 39 43 83 44 40 45
REMARK SMILES IDX 41 46 42 47 77 48 43 49 82 50 76 51 78 52 44 53 81 54 75 55
REMARK SMILES IDX 74 56 45 58 67 59 52 60 66 61 53 62 56 63 65 64 79 65 54 66
REMARK SMILES IDX 55 67 64 69 80 70 57 71 46 72 47 73 51 74 48 75 50 76 49 77
REMARK SMILES IDX 68 78 69 79 73 80 70 81 72 82 71 83 58 84 59 85 63 86 60 87
REMARK SMILES IDX 62 88 61 89
REMARK H PARENT 30 5 4 9 34 38 78 57 56 68
REMARK Flexibility Score: inf
ROOT
ATOM      1  C   UNL     1       2.320  -1.446   2.263  1.00  0.00     0.117 C 
ENDROOT
BRANCH   1   2
ATOM      2  N   UNL     1       2.813  -0.374   1.418  1.00  0.00    -0.355 N 
ATOM      3  O   UNL     1       0.753   0.478   0.856  1.00  0.00    -0.273 OA
ATOM      4  C   UNL     1       1.978   0.543   0.805  1.00  0.00     0.239 C 
ATOM      5  H   UNL     1       3.784  -0.295   1.275  1.00  0.00     0.163 HD
BRANCH   4   6
ATOM      6  C   UNL     1       2.701   1.748   0.181  1.00  0.00     0.216 C 
BRANCH   6   7
ATOM      7  N   UNL     1       4.142   1.537   0.056  1.00  0.00    -0.345 N 
ATOM      8  C   UNL     1       4.768   1.882  -1.125  1.00  0.00     0.244 C 
ATOM      9  H   UNL     1       4.658   1.155   0.803  1.00  0.00     0.164 HD
ATOM     10  O   UNL     1       4.842   3.065  -1.453  1.00  0.00    -0.273 OA
BRANCH   8  11
ATOM     11  C   UNL     1       5.629   0.772  -1.756  1.00  0.00     0.188 C 
BRANCH  11  12
ATOM     12  C   UNL     1       5.112  -0.690  -1.802  1.00  0.00     0.069 C 
BRANCH  12  13
ATOM     13  C   UNL     1       3.783  -1.184  -2.304  1.00  0.00    -0.037 C 
ATOM     14  C   UNL     1       3.405  -2.465  -2.245  1.00  0.00     0.001 A 
ATOM     15  C   UNL     1       2.655  -0.368  -2.860  1.00  0.00     0.174 C 
ATOM     16  C   UNL     1       4.052  -3.692  -1.901  1.00  0.00     0.010 A 
ATOM     17  C   UNL     1       1.968  -2.418  -2.556  1.00  0.00     0.065 A 
ATOM     18  N   UNL     1       1.473  -1.270  -2.891  1.00  0.00    -0.280 NA
ATOM     19  C   UNL     1       3.316  -4.814  -1.833  1.00  0.00     0.001 A 
ATOM     20  C   UNL     1       1.215  -3.680  -2.398  1.00  0.00     0.028 A 
ATOM     21  C   UNL     1       1.879  -4.793  -2.045  1.00  0.00     0.002 A 
ENDBRANCH  12  13
ENDBRANCH  11  12
BRANCH  11  22
ATOM     22  N   UNL     1       6.329   1.192  -2.981  1.00  0.00    -0.249 N 
ATOM     23  C   UNL     1       7.716   1.097  -2.988  1.00  0.00     0.351 C 
ATOM     24  C   UNL     1       5.591   1.619  -4.068  1.00  0.00     0.244 C 
ATOM     25  N   UNL     1       8.402   1.261  -4.152  1.00  0.00    -0.197 NA
ATOM     26  O   UNL     1       8.336   0.783  -1.968  1.00  0.00    -0.246 OA
ATOM     27  C   UNL     1       6.377   2.150  -5.248  1.00  0.00     0.151 C 
ATOM     28  O   UNL     1       4.361   1.654  -4.057  1.00  0.00    -0.273 OA
ATOM     29  C   UNL     1       7.811   1.683  -5.219  1.00  0.00     0.062 C 
ATOM     30  C   UNL     1       5.743   1.783  -6.571  1.00  0.00    -0.007 C 
ATOM     31  C   UNL     1       8.593   1.714  -6.480  1.00  0.00     0.025 C 
ATOM     32  C   UNL     1       6.476   1.538  -7.668  1.00  0.00    -0.003 C 
ATOM     33  C   UNL     1       7.916   1.635  -7.631  1.00  0.00     0.002 C 
ENDBRANCH  11  22
ENDBRANCH   8  11
ENDBRANCH   6   7
ENDBRANCH   4   6
ENDBRANCH   1   2
BRANCH   1  34
ATOM     34  C   UNL     1       2.499  -2.835   1.662  1.00  0.00     0.042 C 
BRANCH  34  35
ATOM     35  C   UNL     1       3.946  -3.301   1.530  1.00  0.00     0.118 C 
BRANCH  35  36
ATOM     36  N   UNL     1       4.597  -3.596   2.797  1.00  0.00    -0.352 N 
ATOM     37  C   UNL     1       5.193  -4.752   3.247  1.00  0.00     0.251 C 
ATOM     38  H   UNL     1       4.613  -2.847   3.436  1.00  0.00     0.163 HD
ATOM     39  O   UNL     1       5.597  -4.806   4.406  1.00  0.00    -0.269 OA
BRANCH  37  40
ATOM     40  C   UNL     1       5.320  -5.950   2.380  1.00  0.00     0.039 A 
ATOM     41  C   UNL     1       5.761  -5.870   1.057  1.00  0.00     0.014 A 
ATOM     42  C   UNL     1       5.015  -7.201   2.928  1.00  0.00     0.014 A 
ATOM     43  C   UNL     1       5.743  -7.009   0.244  1.00  0.00     0.010 A 
ATOM     44  C   UNL     1       5.053  -8.349   2.128  1.00  0.00     0.010 A 
ATOM     45  C   UNL     1       5.360  -8.256   0.762  1.00  0.00    -0.014 A 
BRANCH  45  46
ATOM     46  C   UNL     1       5.230  -9.446  -0.126  1.00  0.00     0.031 A 
ATOM     47  C   UNL     1       3.877 -10.070  -0.365  1.00  0.00     0.074 A 
ATOM     48  C   UNL     1       6.310  -9.965  -0.742  1.00  0.00     0.049 A 
ATOM     49  N   UNL     1       3.568 -11.125  -1.078  1.00  0.00    -0.248 NA
ATOM     50  C   UNL     1       2.719  -9.426   0.278  1.00  0.00     0.031 C 
ATOM     51  C   UNL     1       7.674  -9.449  -0.632  1.00  0.00     0.029 A 
ATOM     52  N   UNL     1       6.426 -11.039  -1.592  1.00  0.00    -0.354 N 
ATOM     53  C   UNL     1       2.192 -11.280  -0.956  1.00  0.00     0.074 A 
ATOM     54  C   UNL     1       1.726 -10.229  -0.078  1.00  0.00     0.031 C 
ATOM     55  C   UNL     1       8.484 -10.187  -1.408  1.00  0.00     0.029 A 
ATOM     56  C   UNL     1       7.711 -11.263  -2.025  1.00  0.00     0.049 A 
ATOM     57  H   UNL     1       5.661 -11.596  -1.864  1.00  0.00     0.167 HD
ATOM     58  C   UNL     1       1.386 -12.204  -1.530  1.00  0.00     0.031 A 
ATOM     59  C   UNL     1       8.221 -12.232  -2.812  1.00  0.00     0.031 A 
ATOM     60  C   UNL     1       1.835 -13.245  -2.414  1.00  0.00     0.049 A 
ATOM     61  C   UNL     1       7.318 -13.296  -3.370  1.00  0.00     0.074 A 
ATOM     62  C   UNL     1       1.074 -14.199  -3.069  1.00  0.00     0.029 A 
ATOM     63  N   UNL     1       3.155 -13.475  -2.764  1.00  0.00    -0.354 N 
ATOM     64  N   UNL     1       6.018 -13.414  -3.258  1.00  0.00    -0.248 NA
ATOM     65  C   UNL     1       7.952 -14.366  -4.157  1.00  0.00     0.031 C 
ATOM     66  C   UNL     1       1.940 -15.044  -3.767  1.00  0.00     0.029 A 
ATOM     67  C   UNL     1       3.233 -14.579  -3.597  1.00  0.00     0.049 A 
ATOM     68  H   UNL     1       3.922 -12.936  -2.465  1.00  0.00     0.167 HD
ATOM     69  C   UNL     1       5.678 -14.559  -3.969  1.00  0.00     0.074 A 
ATOM     70  C   UNL     1       6.903 -15.093  -4.522  1.00  0.00     0.031 C 
ATOM     71  C   UNL     1       4.454 -15.113  -4.142  1.00  0.00     0.031 A 
BRANCH  58  72
ATOM     72  C   UNL     1      -0.085 -12.147  -1.223  1.00  0.00    -0.014 A 
ATOM     73  C   UNL     1      -0.674 -13.160  -0.449  1.00  0.00     0.009 A 
ATOM     74  C   UNL     1      -0.904 -11.155  -1.782  1.00  0.00     0.009 A 
ATOM     75  C   UNL     1      -2.055 -13.188  -0.251  1.00  0.00     0.001 A 
ATOM     76  C   UNL     1      -2.283 -11.171  -1.560  1.00  0.00     0.001 A 
ATOM     77  C   UNL     1      -2.858 -12.192  -0.803  1.00  0.00     0.000 A 
ENDBRANCH  58  72
BRANCH  59  78
ATOM     78  C   UNL     1       9.678 -12.238  -3.110  1.00  0.00    -0.014 A 
ATOM     79  C   UNL     1      10.612 -12.525  -2.101  1.00  0.00     0.009 A 
ATOM     80  C   UNL     1      10.143 -11.920  -4.394  1.00  0.00     0.009 A 
ATOM     81  C   UNL     1      11.982 -12.467  -2.365  1.00  0.00     0.001 A 
ATOM     82  C   UNL     1      11.514 -11.891  -4.663  1.00  0.00     0.001 A 
ATOM     83  C   UNL     1      12.431 -12.153  -3.646  1.00  0.00     0.000 A 
ENDBRANCH  59  78
BRANCH  71  84
ATOM     84  C   UNL     1       4.349 -16.366  -4.966  1.00  0.00    -0.014 A 
ATOM     85  C   UNL     1       3.726 -16.324  -6.224  1.00  0.00     0.009 A 
ATOM     86  C   UNL     1       4.751 -17.605  -4.447  1.00  0.00     0.009 A 
ATOM     87  C   UNL     1       3.486 -17.501  -6.935  1.00  0.00     0.001 A 
ATOM     88  C   UNL     1       4.532 -18.778  -5.173  1.00  0.00     0.001 A 
ATOM     89  C   UNL     1       3.890 -18.727  -6.410  1.00  0.00     0.000 A 
ENDBRANCH  71  84
ENDBRANCH  45  46
ENDBRANCH  37  40
ENDBRANCH  35  36
ENDBRANCH  34  35
ENDBRANCH   1  34
TORSDOF 15
