REMARK SMILES O=C(NCCCNC(=O)[C@@H]1C[C@@H]1c1cccc(F)c1)c1ccc(-c2c3nc(c(-c4ccccc4)c4ccc([nH]4)c(-c4ccccc4)c4nc(c(-c5ccccc5)c5ccc2[nH]5)C=C4)C=C3)cc1
REMARK SMILES IDX 4 1 3 2 1 3 2 4 20 6 21 7 67 8 22 9 66 10 23 11 24 12 25 13
REMARK SMILES IDX 60 14 26 15 65 16 59 17 61 18 27 19 64 20 58 21 57 22 28 24
REMARK SMILES IDX 50 25 35 26 49 27 36 28 39 29 48 30 62 31 37 32 38 33 47 35
REMARK SMILES IDX 63 36 40 37 29 38 30 39 34 40 31 41 33 42 32 43 51 44 52 45
REMARK SMILES IDX 56 46 53 47 55 48 54 49 41 50 42 51 46 52 43 53 45 54 44 55
REMARK SMILES IDX 5 56 6 57 7 58 8 59 9 61 10 62 11 63 12 64 13 65 14 66 19 67
REMARK SMILES IDX 15 68 17 69 16 70 18 71
REMARK H PARENT 3 5 61 23 39 34 7 60
REMARK Flexibility Score: inf
ROOT
ATOM      1  C   UNL     1       4.399  -1.190  -0.785  1.00  0.00     0.118 C 
ENDROOT
BRANCH   1   2
ATOM      2  N   UNL     1       2.977  -0.869  -0.802  1.00  0.00    -0.352 N 
ATOM      3  O   UNL     1       1.038   0.073  -0.150  1.00  0.00    -0.269 OA
ATOM      4  C   UNL     1       2.264   0.065  -0.088  1.00  0.00     0.251 C 
ATOM      5  H   UNL     1       2.440  -1.408  -1.426  1.00  0.00     0.163 HD
BRANCH   4   6
ATOM      6  C   UNL     1       2.961   1.038   0.783  1.00  0.00     0.039 A 
ATOM      7  C   UNL     1       4.135   1.664   0.367  1.00  0.00     0.014 A 
ATOM      8  C   UNL     1       2.425   1.331   2.041  1.00  0.00     0.014 A 
ATOM      9  C   UNL     1       4.873   2.419   1.272  1.00  0.00     0.010 A 
ATOM     10  C   UNL     1       3.116   2.178   2.913  1.00  0.00     0.010 A 
ATOM     11  C   UNL     1       4.374   2.686   2.557  1.00  0.00    -0.014 A 
BRANCH  11  12
ATOM     12  C   UNL     1       5.184   3.509   3.495  1.00  0.00     0.031 A 
ATOM     13  C   UNL     1       5.699   2.935   4.789  1.00  0.00     0.074 A 
ATOM     14  C   UNL     1       5.503   4.772   3.149  1.00  0.00     0.049 A 
ATOM     15  N   UNL     1       6.478   3.492   5.685  1.00  0.00    -0.248 NA
ATOM     16  C   UNL     1       5.284   1.566   5.130  1.00  0.00     0.031 C 
ATOM     17  C   UNL     1       5.066   5.447   1.924  1.00  0.00     0.029 A 
ATOM     18  N   UNL     1       6.290   5.702   3.777  1.00  0.00    -0.354 N 
ATOM     19  C   UNL     1       6.625   2.554   6.700  1.00  0.00     0.074 A 
ATOM     20  C   UNL     1       5.831   1.404   6.327  1.00  0.00     0.031 C 
ATOM     21  C   UNL     1       5.642   6.656   1.860  1.00  0.00     0.029 A 
ATOM     22  C   UNL     1       6.432   6.869   3.067  1.00  0.00     0.049 A 
ATOM     23  H   UNL     1       6.713   5.549   4.653  1.00  0.00     0.167 HD
ATOM     24  C   UNL     1       7.359   2.639   7.837  1.00  0.00     0.031 A 
ATOM     25  C   UNL     1       7.115   7.993   3.353  1.00  0.00     0.031 A 
ATOM     26  C   UNL     1       8.150   3.783   8.210  1.00  0.00     0.049 A 
ATOM     27  C   UNL     1       7.890   8.071   4.636  1.00  0.00     0.074 A 
ATOM     28  C   UNL     1       8.958   3.947   9.323  1.00  0.00     0.029 A 
ATOM     29  N   UNL     1       8.228   4.962   7.484  1.00  0.00    -0.354 N 
ATOM     30  N   UNL     1       8.055   7.156   5.560  1.00  0.00    -0.248 NA
ATOM     31  C   UNL     1       8.582   9.338   4.909  1.00  0.00     0.031 C 
ATOM     32  C   UNL     1       9.473   5.247   9.303  1.00  0.00     0.029 A 
ATOM     33  C   UNL     1       9.046   5.868   8.140  1.00  0.00     0.049 A 
ATOM     34  H   UNL     1       7.770   5.131   6.629  1.00  0.00     0.167 HD
ATOM     35  C   UNL     1       8.896   7.725   6.508  1.00  0.00     0.074 A 
ATOM     36  C   UNL     1       9.220   9.056   6.035  1.00  0.00     0.031 C 
ATOM     37  C   UNL     1       9.362   7.190   7.663  1.00  0.00     0.031 A 
BRANCH  24  38
ATOM     38  C   UNL     1       7.312   1.470   8.786  1.00  0.00    -0.014 A 
ATOM     39  C   UNL     1       7.910   0.239   8.469  1.00  0.00     0.009 A 
ATOM     40  C   UNL     1       6.694   1.617  10.039  1.00  0.00     0.009 A 
ATOM     41  C   UNL     1       7.856  -0.828   9.370  1.00  0.00     0.001 A 
ATOM     42  C   UNL     1       6.669   0.560  10.950  1.00  0.00     0.001 A 
ATOM     43  C   UNL     1       7.240  -0.665  10.611  1.00  0.00     0.000 A 
ENDBRANCH  24  38
BRANCH  25  44
ATOM     44  C   UNL     1       7.096   9.137   2.404  1.00  0.00    -0.014 A 
ATOM     45  C   UNL     1       8.258   9.514   1.715  1.00  0.00     0.009 A 
ATOM     46  C   UNL     1       5.914   9.863   2.189  1.00  0.00     0.009 A 
ATOM     47  C   UNL     1       8.244  10.613   0.853  1.00  0.00     0.001 A 
ATOM     48  C   UNL     1       5.894  10.939   1.299  1.00  0.00     0.001 A 
ATOM     49  C   UNL     1       7.061  11.320   0.641  1.00  0.00     0.000 A 
ENDBRANCH  25  44
BRANCH  37  50
ATOM     50  C   UNL     1      10.318   8.027   8.468  1.00  0.00    -0.014 A 
ATOM     51  C   UNL     1       9.897   9.186   9.141  1.00  0.00     0.009 A 
ATOM     52  C   UNL     1      11.662   7.636   8.566  1.00  0.00     0.009 A 
ATOM     53  C   UNL     1      10.815   9.960   9.855  1.00  0.00     0.001 A 
ATOM     54  C   UNL     1      12.570   8.392   9.310  1.00  0.00     0.001 A 
ATOM     55  C   UNL     1      12.148   9.560   9.942  1.00  0.00     0.000 A 
ENDBRANCH  37  50
ENDBRANCH  11  12
ENDBRANCH   4   6
ENDBRANCH   1   2
BRANCH   1  56
ATOM     56  C   UNL     1       4.686  -2.631  -0.371  1.00  0.00     0.042 C 
BRANCH  56  57
ATOM     57  C   UNL     1       4.184  -3.667  -1.369  1.00  0.00     0.117 C 
BRANCH  57  58
ATOM     58  N   UNL     1       4.838  -3.521  -2.656  1.00  0.00    -0.356 N 
ATOM     59  C   UNL     1       5.838  -4.278  -3.200  1.00  0.00     0.223 C 
ATOM     60  H   UNL     1       4.517  -2.776  -3.214  1.00  0.00     0.163 HD
ATOM     61  O   UNL     1       6.353  -3.950  -4.264  1.00  0.00    -0.275 OA
BRANCH  59  62
ATOM     62  C   UNL     1       6.259  -5.505  -2.480  1.00  0.00     0.086 C 
ATOM     63  C   UNL     1       7.183  -6.499  -3.134  1.00  0.00     0.023 C 
ATOM     64  C   UNL     1       5.738  -6.873  -2.898  1.00  0.00     0.032 C 
BRANCH  64  65
ATOM     65  C   UNL     1       4.825  -7.068  -4.091  1.00  0.00    -0.041 A 
ATOM     66  C   UNL     1       5.194  -7.903  -5.162  1.00  0.00     0.004 A 
ATOM     67  C   UNL     1       3.567  -6.450  -4.168  1.00  0.00     0.043 A 
ATOM     68  C   UNL     1       4.365  -8.087  -6.275  1.00  0.00     0.003 A 
ATOM     69  C   UNL     1       2.748  -6.626  -5.281  1.00  0.00     0.123 A 
ATOM     70  C   UNL     1       3.137  -7.438  -6.337  1.00  0.00     0.039 A 
ATOM     71  F   UNL     1       1.564  -6.001  -5.330  1.00  0.00    -0.207 F 
ENDBRANCH  64  65
ENDBRANCH  59  62
ENDBRANCH  57  58
ENDBRANCH  56  57
ENDBRANCH   1  56
TORSDOF 11
