REMARK SMILES C[C@@H](C(=O)NCCCNC(=O)c1ccc(-c2c3nc(c(-c4ccccc4)c4ccc([nH]4)c(-c4ccccc4)c4nc(c(-c5ccccc5)c5ccc2[nH]5)C=C4)C=C3)cc1)c1ccccc1-c1ccn(C(F)F)c(=O)c1
REMARK SMILES IDX 6 1 5 2 3 3 4 4 2 6 1 7 60 8 61 9 65 10 62 11 64 12 63 13
REMARK SMILES IDX 66 14 67 15 75 16 68 17 73 18 69 19 74 20 70 21 71 22 72 23
REMARK SMILES IDX 7 24 8 25 9 26 10 27 11 29 12 30 13 31 59 32 14 33 58 34
REMARK SMILES IDX 15 35 16 36 17 37 52 38 18 39 57 40 51 41 53 42 19 43 56 44
REMARK SMILES IDX 50 45 49 46 20 48 42 49 27 50 41 51 28 52 31 53 40 54 54 55
REMARK SMILES IDX 29 56 30 57 39 59 55 60 32 61 21 62 22 63 26 64 23 65 25 66
REMARK SMILES IDX 24 67 43 68 44 69 48 70 45 71 47 72 46 73 33 74 34 75 38 76
REMARK SMILES IDX 35 77 37 78 36 79
REMARK H PARENT 5 5 9 28 53 47 31 58
REMARK Flexibility Score: inf
ROOT
ATOM      1  C   UNL     1       3.399   0.395   1.972  1.00  0.00     0.117 C 
ENDROOT
BRANCH   1   2
ATOM      2  N   UNL     1       2.375   1.347   2.359  1.00  0.00    -0.356 N 
ATOM      3  C   UNL     1       1.038   1.388   2.087  1.00  0.00     0.227 C 
ATOM      4  O   UNL     1       0.443   2.383   2.505  1.00  0.00    -0.274 OA
ATOM      5  H   UNL     1       2.701   2.092   2.914  1.00  0.00     0.163 HD
BRANCH   3   6
ATOM      6  C   UNL     1       0.372   0.230   1.319  1.00  0.00     0.106 C 
ATOM      7  C   UNL     1       0.691   0.284  -0.174  1.00  0.00     0.023 C 
BRANCH   6   8
ATOM      8  C   UNL     1      -1.143   0.084   1.514  1.00  0.00    -0.028 A 
ATOM      9  C   UNL     1      -1.977   1.220   1.486  1.00  0.00     0.005 A 
ATOM     10  C   UNL     1      -1.761  -1.188   1.625  1.00  0.00    -0.014 A 
ATOM     11  C   UNL     1      -3.360   1.117   1.642  1.00  0.00     0.000 A 
ATOM     12  C   UNL     1      -3.157  -1.276   1.787  1.00  0.00     0.009 A 
ATOM     13  C   UNL     1      -3.949  -0.130   1.803  1.00  0.00     0.001 A 
BRANCH  10  14
ATOM     14  C   UNL     1      -1.004  -2.453   1.486  1.00  0.00    -0.011 A 
ATOM     15  C   UNL     1      -0.092  -2.959   2.494  1.00  0.00     0.027 A 
ATOM     16  C   UNL     1      -1.129  -3.119   0.325  1.00  0.00     0.080 A 
ATOM     17  C   UNL     1       0.688  -4.015   2.231  1.00  0.00     0.095 A 
ATOM     18  C   UNL     1      -0.307  -4.325   0.039  1.00  0.00     0.255 A 
ATOM     19  N   UNL     1       0.606  -4.677   1.020  1.00  0.00    -0.258 N 
ATOM     20  O   UNL     1      -0.463  -4.899  -1.034  1.00  0.00    -0.269 OA
BRANCH  19  21
ATOM     21  C   UNL     1       1.483  -5.780   0.723  1.00  0.00     0.451 C 
ATOM     22  F   UNL     1       0.784  -6.920   0.505  1.00  0.00    -0.185 F 
ATOM     23  F   UNL     1       2.225  -5.522  -0.382  1.00  0.00    -0.185 F 
ENDBRANCH  19  21
ENDBRANCH  10  14
ENDBRANCH   6   8
ENDBRANCH   3   6
ENDBRANCH   1   2
BRANCH   1  24
ATOM     24  C   UNL     1       4.293   0.943   0.865  1.00  0.00     0.042 C 
BRANCH  24  25
ATOM     25  C   UNL     1       5.030   2.226   1.234  1.00  0.00     0.118 C 
BRANCH  25  26
ATOM     26  N   UNL     1       6.012   2.031   2.291  1.00  0.00    -0.352 N 
ATOM     27  C   UNL     1       7.370   2.241   2.270  1.00  0.00     0.251 C 
ATOM     28  H   UNL     1       5.650   1.702   3.146  1.00  0.00     0.163 HD
ATOM     29  O   UNL     1       8.067   1.858   3.205  1.00  0.00    -0.269 OA
BRANCH  27  30
ATOM     30  C   UNL     1       7.993   2.906   1.107  1.00  0.00     0.039 A 
ATOM     31  C   UNL     1       9.147   2.353   0.546  1.00  0.00     0.014 A 
ATOM     32  C   UNL     1       7.431   4.063   0.564  1.00  0.00     0.014 A 
ATOM     33  C   UNL     1       9.693   2.916  -0.611  1.00  0.00     0.010 A 
ATOM     34  C   UNL     1       7.926   4.574  -0.630  1.00  0.00     0.010 A 
ATOM     35  C   UNL     1       9.061   4.005  -1.231  1.00  0.00    -0.014 A 
BRANCH  35  36
ATOM     36  C   UNL     1       9.555   4.575  -2.509  1.00  0.00     0.031 A 
ATOM     37  C   UNL     1      10.017   6.004  -2.562  1.00  0.00     0.074 A 
ATOM     38  C   UNL     1       9.482   3.848  -3.641  1.00  0.00     0.049 A 
ATOM     39  N   UNL     1      10.339   6.732  -3.600  1.00  0.00    -0.248 NA
ATOM     40  C   UNL     1      10.095   6.717  -1.277  1.00  0.00     0.031 C 
ATOM     41  C   UNL     1       9.019   2.463  -3.731  1.00  0.00     0.029 A 
ATOM     42  N   UNL     1       9.772   4.188  -4.939  1.00  0.00    -0.354 N 
ATOM     43  C   UNL     1      10.628   7.994  -3.098  1.00  0.00     0.074 A 
ATOM     44  C   UNL     1      10.397   7.944  -1.670  1.00  0.00     0.031 C 
ATOM     45  C   UNL     1       9.057   2.071  -5.014  1.00  0.00     0.029 A 
ATOM     46  C   UNL     1       9.500   3.189  -5.842  1.00  0.00     0.049 A 
ATOM     47  H   UNL     1      10.140   5.064  -5.198  1.00  0.00     0.167 HD
ATOM     48  C   UNL     1      11.059   9.093  -3.762  1.00  0.00     0.031 A 
ATOM     49  C   UNL     1       9.570   3.179  -7.187  1.00  0.00     0.031 A 
ATOM     50  C   UNL     1      11.288   9.138  -5.181  1.00  0.00     0.049 A 
ATOM     51  C   UNL     1      10.030   4.414  -7.910  1.00  0.00     0.074 A 
ATOM     52  C   UNL     1      11.783  10.183  -5.941  1.00  0.00     0.029 A 
ATOM     53  N   UNL     1      11.028   8.093  -6.055  1.00  0.00    -0.354 N 
ATOM     54  N   UNL     1      10.367   5.580  -7.415  1.00  0.00    -0.248 NA
ATOM     55  C   UNL     1      10.127   4.330  -9.374  1.00  0.00     0.031 C 
ATOM     56  C   UNL     1      11.764   9.792  -7.284  1.00  0.00     0.029 A 
ATOM     57  C   UNL     1      11.322   8.480  -7.352  1.00  0.00     0.049 A 
ATOM     58  H   UNL     1      10.685   7.209  -5.793  1.00  0.00     0.167 HD
ATOM     59  C   UNL     1      10.744   6.360  -8.502  1.00  0.00     0.074 A 
ATOM     60  C   UNL     1      10.599   5.531  -9.681  1.00  0.00     0.031 C 
ATOM     61  C   UNL     1      11.176   7.644  -8.517  1.00  0.00     0.031 A 
BRANCH  48  62
ATOM     62  C   UNL     1      11.281  10.342  -2.953  1.00  0.00    -0.014 A 
ATOM     63  C   UNL     1      12.310  10.426  -2.001  1.00  0.00     0.009 A 
ATOM     64  C   UNL     1      10.448  11.455  -3.149  1.00  0.00     0.009 A 
ATOM     65  C   UNL     1      12.464  11.576  -1.223  1.00  0.00     0.001 A 
ATOM     66  C   UNL     1      10.627  12.617  -2.395  1.00  0.00     0.001 A 
ATOM     67  C   UNL     1      11.624  12.670  -1.423  1.00  0.00     0.000 A 
ENDBRANCH  48  62
BRANCH  49  68
ATOM     68  C   UNL     1       9.186   1.951  -7.931  1.00  0.00    -0.014 A 
ATOM     69  C   UNL     1      10.161   1.157  -8.552  1.00  0.00     0.009 A 
ATOM     70  C   UNL     1       7.842   1.549  -7.995  1.00  0.00     0.009 A 
ATOM     71  C   UNL     1       9.797  -0.006  -9.234  1.00  0.00     0.001 A 
ATOM     72  C   UNL     1       7.484   0.370  -8.652  1.00  0.00     0.001 A 
ATOM     73  C   UNL     1       8.461  -0.403  -9.277  1.00  0.00     0.000 A 
ENDBRANCH  49  68
BRANCH  61  74
ATOM     74  C   UNL     1      11.567   8.233  -9.844  1.00  0.00    -0.014 A 
ATOM     75  C   UNL     1      10.603   8.600 -10.794  1.00  0.00     0.009 A 
ATOM     76  C   UNL     1      12.920   8.500 -10.107  1.00  0.00     0.009 A 
ATOM     77  C   UNL     1      10.989   9.210 -11.990  1.00  0.00     0.001 A 
ATOM     78  C   UNL     1      13.300   9.134 -11.290  1.00  0.00     0.001 A 
ATOM     79  C   UNL     1      12.335   9.484 -12.233  1.00  0.00     0.000 A 
ENDBRANCH  61  74
ENDBRANCH  35  36
ENDBRANCH  27  30
ENDBRANCH  25  26
ENDBRANCH  24  25
ENDBRANCH   1  24
TORSDOF 13
