REMARK SMILES O=C(NCCCNC(=O)c1ccc(-c2c3nc(c(-c4ccccc4)c4ccc([nH]4)c(-c4ccccc4)c4nc(c(-c5ccccc5)c5ccc2[nH]5)C=C4)C=C3)cc1)C1=Cc2cc(S(F)(F)(F)(F)F)cc(Br)c2O[C@@H]1C(F)(F)F
REMARK SMILES IDX 5 1 4 2 3 3 1 4 2 5 58 7 59 8 74 9 60 10 73 11 61 12 72 13
REMARK SMILES IDX 62 14 70 15 69 16 71 17 75 18 76 19 77 20 78 21 63 22 64 23
REMARK SMILES IDX 65 24 66 25 67 26 68 27 6 28 7 29 8 30 9 32 10 33 11 34
REMARK SMILES IDX 57 35 12 36 56 37 13 38 14 39 15 40 50 41 16 42 55 43 49 44
REMARK SMILES IDX 51 45 17 46 54 47 48 48 47 49 18 51 40 52 25 53 39 54 26 55
REMARK SMILES IDX 29 56 38 57 52 58 27 59 28 60 37 62 53 63 30 64 19 65 20 66
REMARK SMILES IDX 24 67 21 68 23 69 22 70 41 71 42 72 46 73 43 74 45 75 44 76
REMARK SMILES IDX 31 77 32 78 36 79 33 80 35 81 34 82
REMARK H PARENT 3 6 7 31 51 50 29 61
REMARK Flexibility Score: inf
ROOT
ATOM      1  C   UNL     1       4.921   2.307   0.457  1.00  0.00     0.042 C 
ENDROOT
BRANCH   1   2
ATOM      2  C   UNL     1       4.414   0.950   0.918  1.00  0.00     0.118 C 
BRANCH   2   3
ATOM      3  N   UNL     1       2.944   0.950   0.918  1.00  0.00    -0.352 N 
ATOM      4  O   UNL     1       0.938  -0.007   0.078  1.00  0.00    -0.270 OA
ATOM      5  C   UNL     1       2.209  -0.007   0.078  1.00  0.00     0.251 C 
ATOM      6  H   UNL     1       2.452   1.591   1.480  1.00  0.00     0.163 HD
BRANCH   5   7
ATOM      7  C   UNL     1       2.969  -0.997  -0.789  1.00  0.00     0.067 C 
ATOM      8  C   UNL     1       4.330  -0.997  -0.789  1.00  0.00     0.025 C 
ATOM      9  C   UNL     1       2.209  -1.987  -1.657  1.00  0.00     0.314 C 
ATOM     10  C   UNL     1       5.090  -0.007   0.078  1.00  0.00     0.020 A 
ATOM     11  O   UNL     1       3.386  -0.379   1.693  1.00  0.00    -0.474 OA
ATOM     12  C   UNL     1       6.248   0.615  -0.357  1.00  0.00     0.036 A 
ATOM     13  C   UNL     1       4.656   0.139   1.325  1.00  0.00     0.142 A 
ATOM     14  C   UNL     1       7.042   1.144   0.688  1.00  0.00     0.109 A 
ATOM     15  C   UNL     1       5.425   0.786   2.262  1.00  0.00     0.062 A 
ATOM     16  C   UNL     1       6.610   1.373   1.915  1.00  0.00     0.044 A 
ATOM     17  Br  UNL     1       4.815   0.867   4.123  1.00  0.00    -0.047 Br
BRANCH   9  18
ATOM     18  C   UNL     1       2.576  -3.404  -1.250  1.00  0.00     0.429 C 
ATOM     19  F   UNL     1       2.255  -3.596   0.027  1.00  0.00    -0.167 F 
ATOM     20  F   UNL     1       1.911  -4.270  -2.009  1.00  0.00    -0.167 F 
ATOM     21  F   UNL     1       3.884  -3.587  -1.410  1.00  0.00    -0.167 F 
ENDBRANCH   9  18
BRANCH  14  22
ATOM     22  S   UNL     1       8.771   1.532   0.318  1.00  0.00     0.310 S 
ATOM     23  F   UNL     1       9.164   1.552   1.854  1.00  0.00    -0.094 F 
ATOM     24  F   UNL     1       8.424   3.063   0.458  1.00  0.00    -0.094 F 
ATOM     25  F   UNL     1      10.254   1.869  -0.003  1.00  0.00    -0.094 F 
ATOM     26  F   UNL     1       9.130  -0.006   0.321  1.00  0.00    -0.094 F 
ATOM     27  F   UNL     1       7.294   1.174   0.754  1.00  0.00    -0.094 F 
ENDBRANCH  14  22
ENDBRANCH   5   7
ENDBRANCH   2   3
ENDBRANCH   1   2
BRANCH   1  28
ATOM     28  C   UNL     1       4.414   3.385   1.402  1.00  0.00     0.118 C 
BRANCH  28  29
ATOM     29  N   UNL     1       4.904   3.114   2.761  1.00  0.00    -0.352 N 
ATOM     30  C   UNL     1       5.749   4.102   3.448  1.00  0.00     0.251 C 
ATOM     31  H   UNL     1       4.666   2.272   3.212  1.00  0.00     0.163 HD
ATOM     32  O   UNL     1       6.173   3.868   4.623  1.00  0.00    -0.269 OA
BRANCH  30  33
ATOM     33  C   UNL     1       6.117   5.402   2.752  1.00  0.00     0.039 A 
ATOM     34  C   UNL     1       7.411   5.888   2.662  1.00  0.00     0.014 A 
ATOM     35  C   UNL     1       5.109   6.010   2.136  1.00  0.00     0.014 A 
ATOM     36  C   UNL     1       7.496   7.197   2.130  1.00  0.00     0.010 A 
ATOM     37  C   UNL     1       5.295   7.223   1.519  1.00  0.00     0.010 A 
ATOM     38  C   UNL     1       6.537   7.790   1.444  1.00  0.00    -0.014 A 
BRANCH  38  39
ATOM     39  C   UNL     1       6.798   9.038   0.616  1.00  0.00     0.031 A 
ATOM     40  C   UNL     1       6.066  10.169   0.978  1.00  0.00     0.074 A 
ATOM     41  C   UNL     1       7.614   8.969  -0.500  1.00  0.00     0.049 A 
ATOM     42  N   UNL     1       6.041  11.354   0.365  1.00  0.00    -0.248 NA
ATOM     43  C   UNL     1       5.172  10.234   2.144  1.00  0.00     0.031 C 
ATOM     44  C   UNL     1       8.363   7.834  -0.868  1.00  0.00     0.029 A 
ATOM     45  N   UNL     1       7.848   9.950  -1.438  1.00  0.00    -0.354 N 
ATOM     46  C   UNL     1       5.236  12.194   1.018  1.00  0.00     0.074 A 
ATOM     47  C   UNL     1       4.661  11.485   2.168  1.00  0.00     0.031 C 
ATOM     48  C   UNL     1       9.030   8.122  -2.016  1.00  0.00     0.029 A 
ATOM     49  C   UNL     1       8.710   9.443  -2.385  1.00  0.00     0.049 A 
ATOM     50  H   UNL     1       7.466  10.857  -1.432  1.00  0.00     0.167 HD
ATOM     51  C   UNL     1       4.961  13.525   0.700  1.00  0.00     0.031 A 
ATOM     52  C   UNL     1       9.199  10.079  -3.515  1.00  0.00     0.031 A 
ATOM     53  C   UNL     1       5.484  14.175  -0.407  1.00  0.00     0.049 A 
ATOM     54  C   UNL     1       8.877  11.392  -3.866  1.00  0.00     0.074 A 
ATOM     55  C   UNL     1       5.223  15.519  -0.737  1.00  0.00     0.029 A 
ATOM     56  N   UNL     1       6.326  13.660  -1.368  1.00  0.00    -0.354 N 
ATOM     57  N   UNL     1       8.104  12.245  -3.191  1.00  0.00    -0.248 NA
ATOM     58  C   UNL     1       9.363  12.066  -5.077  1.00  0.00     0.031 C 
ATOM     59  C   UNL     1       5.890  15.808  -1.887  1.00  0.00     0.029 A 
ATOM     60  C   UNL     1       6.579  14.649  -2.293  1.00  0.00     0.049 A 
ATOM     61  H   UNL     1       6.685  12.744  -1.389  1.00  0.00     0.167 HD
ATOM     62  C   UNL     1       8.047  13.416  -3.828  1.00  0.00     0.074 A 
ATOM     63  C   UNL     1       8.851  13.316  -5.054  1.00  0.00     0.031 C 
ATOM     64  C   UNL     1       7.361  14.566  -3.434  1.00  0.00     0.031 A 
BRANCH  51  65
ATOM     65  C   UNL     1       4.035  14.306   1.619  1.00  0.00    -0.014 A 
ATOM     66  C   UNL     1       4.374  14.366   2.961  1.00  0.00     0.009 A 
ATOM     67  C   UNL     1       2.900  14.830   1.171  1.00  0.00     0.009 A 
ATOM     68  C   UNL     1       3.305  14.749   3.805  1.00  0.00     0.001 A 
ATOM     69  C   UNL     1       1.958  15.310   2.048  1.00  0.00     0.001 A 
ATOM     70  C   UNL     1       2.202  15.345   3.393  1.00  0.00     0.000 A 
ENDBRANCH  51  65
BRANCH  52  71
ATOM     71  C   UNL     1      10.138   9.303  -4.425  1.00  0.00    -0.014 A 
ATOM     72  C   UNL     1      11.429   9.791  -4.542  1.00  0.00     0.009 A 
ATOM     73  C   UNL     1       9.771   8.174  -5.020  1.00  0.00     0.009 A 
ATOM     74  C   UNL     1      12.191   9.160  -5.554  1.00  0.00     0.001 A 
ATOM     75  C   UNL     1      10.619   7.537  -5.894  1.00  0.00     0.001 A 
ATOM     76  C   UNL     1      11.889   7.997  -6.103  1.00  0.00     0.000 A 
ENDBRANCH  52  71
BRANCH  64  77
ATOM     77  C   UNL     1       7.478  15.803  -4.311  1.00  0.00    -0.014 A 
ATOM     78  C   UNL     1       7.034  15.819  -5.623  1.00  0.00     0.009 A 
ATOM     79  C   UNL     1       7.989  16.889  -3.743  1.00  0.00     0.009 A 
ATOM     80  C   UNL     1       7.441  16.962  -6.351  1.00  0.00     0.001 A 
ATOM     81  C   UNL     1       8.234  18.017  -4.487  1.00  0.00     0.001 A 
ATOM     82  C   UNL     1       7.876  18.083  -5.804  1.00  0.00     0.000 A 
ENDBRANCH  64  77
ENDBRANCH  38  39
ENDBRANCH  30  33
ENDBRANCH  28  29
ENDBRANCH   1  28
TORSDOF 12
