REMARK SMILES O=C(NCCCNC(=O)[C@H]1Cc2[nH]cnc2CN1C(=O)C[C@]12C[C@H]3C[C@H](C[C@H](C3)C1)C2)c1ccc(-c2c3nc(c(-c4ccccc4)c4ccc([nH]4)c(-c4ccccc4)c4nc(c(-c5ccccc5)c5ccc2[nH]5)C=C4)C=C3)cc1
REMARK SMILES IDX 5 1 4 2 3 3 1 4 2 5 32 7 33 8 79 9 34 10 78 11 35 12 36 13
REMARK SMILES IDX 37 14 72 15 38 16 77 17 71 18 73 19 39 20 76 21 70 22 69 23
REMARK SMILES IDX 40 25 62 26 47 27 61 28 48 29 51 30 60 31 74 32 49 33 50 34
REMARK SMILES IDX 59 36 75 37 52 38 41 39 42 40 46 41 43 42 45 43 44 44 63 45
REMARK SMILES IDX 64 46 68 47 65 48 67 49 66 50 53 51 54 52 58 53 55 54 57 55
REMARK SMILES IDX 56 56 6 57 7 58 8 59 9 61 10 62 11 63 18 64 12 65 17 66
REMARK SMILES IDX 13 67 16 68 14 69 15 71 19 72 20 73 21 74 22 75 23 76 30 77
REMARK SMILES IDX 31 78 24 79 28 80 26 81 25 82 29 83 27 84
REMARK H PARENT 3 6 73 24 51 35 7 60 13 70
REMARK Flexibility Score: inf
ROOT
ATOM      1  C   UNL     1       4.660  -2.232  -0.305  1.00  0.00     0.042 C 
ENDROOT
BRANCH   1   2
ATOM      2  C   UNL     1       4.632  -0.771  -0.767  1.00  0.00     0.118 C 
BRANCH   2   3
ATOM      3  N   UNL     1       3.318  -0.237  -1.072  1.00  0.00    -0.352 N 
ATOM      4  O   UNL     1       1.301   0.664  -0.925  1.00  0.00    -0.269 OA
ATOM      5  C   UNL     1       2.243   0.153  -0.320  1.00  0.00     0.251 C 
ATOM      6  H   UNL     1       3.164  -0.132  -2.038  1.00  0.00     0.163 HD
BRANCH   5   7
ATOM      7  C   UNL     1       2.120  -0.063   1.146  1.00  0.00     0.039 A 
ATOM      8  C   UNL     1       3.178  -0.351   2.007  1.00  0.00     0.014 A 
ATOM      9  C   UNL     1       0.824   0.030   1.684  1.00  0.00     0.014 A 
ATOM     10  C   UNL     1       2.940  -0.666   3.341  1.00  0.00     0.010 A 
ATOM     11  C   UNL     1       0.586  -0.231   3.031  1.00  0.00     0.010 A 
ATOM     12  C   UNL     1       1.642  -0.624   3.851  1.00  0.00    -0.014 A 
BRANCH  12  13
ATOM     13  C   UNL     1       1.470  -0.901   5.276  1.00  0.00     0.031 A 
ATOM     14  C   UNL     1       2.147   0.031   6.224  1.00  0.00     0.074 A 
ATOM     15  C   UNL     1       0.636  -1.837   5.768  1.00  0.00     0.049 A 
ATOM     16  N   UNL     1       2.982  -0.250   7.173  1.00  0.00    -0.248 NA
ATOM     17  C   UNL     1       1.868   1.466   6.072  1.00  0.00     0.031 C 
ATOM     18  C   UNL     1      -0.360  -2.624   5.039  1.00  0.00     0.029 A 
ATOM     19  N   UNL     1       0.425  -2.185   7.072  1.00  0.00    -0.354 N 
ATOM     20  C   UNL     1       3.220   0.949   7.845  1.00  0.00     0.074 A 
ATOM     21  C   UNL     1       2.580   1.985   7.072  1.00  0.00     0.031 C 
ATOM     22  C   UNL     1      -1.219  -3.173   5.926  1.00  0.00     0.029 A 
ATOM     23  C   UNL     1      -0.753  -2.885   7.274  1.00  0.00     0.049 A 
ATOM     24  H   UNL     1       1.050  -1.961   7.798  1.00  0.00     0.167 HD
ATOM     25  C   UNL     1       3.775   1.000   9.087  1.00  0.00     0.031 A 
ATOM     26  C   UNL     1      -1.350  -3.151   8.458  1.00  0.00     0.031 A 
ATOM     27  C   UNL     1       4.462  -0.210   9.443  1.00  0.00     0.049 A 
ATOM     28  C   UNL     1      -0.356  -2.988   9.539  1.00  0.00     0.074 A 
ATOM     29  C   UNL     1       5.518  -0.934   8.928  1.00  0.00     0.029 A 
ATOM     30  N   UNL     1       3.879  -1.025  10.381  1.00  0.00    -0.354 N 
ATOM     31  N   UNL     1       0.638  -3.802   9.747  1.00  0.00    -0.248 NA
ATOM     32  C   UNL     1      -0.270  -1.712  10.231  1.00  0.00     0.031 C 
ATOM     33  C   UNL     1       5.224  -2.295   9.237  1.00  0.00     0.029 A 
ATOM     34  C   UNL     1       4.010  -2.309   9.924  1.00  0.00     0.049 A 
ATOM     35  H   UNL     1       3.450  -0.741  11.220  1.00  0.00     0.167 HD
ATOM     36  C   UNL     1       1.654  -3.002  10.245  1.00  0.00     0.074 A 
ATOM     37  C   UNL     1       0.994  -1.768  10.656  1.00  0.00     0.031 C 
ATOM     38  C   UNL     1       2.966  -3.304  10.015  1.00  0.00     0.031 A 
BRANCH  25  39
ATOM     39  C   UNL     1       3.391   2.024  10.130  1.00  0.00    -0.014 A 
ATOM     40  C   UNL     1       4.083   2.043  11.356  1.00  0.00     0.009 A 
ATOM     41  C   UNL     1       2.196   2.767  10.068  1.00  0.00     0.009 A 
ATOM     42  C   UNL     1       3.566   2.704  12.478  1.00  0.00     0.001 A 
ATOM     43  C   UNL     1       1.703   3.468  11.172  1.00  0.00     0.001 A 
ATOM     44  C   UNL     1       2.373   3.411  12.386  1.00  0.00     0.000 A 
ENDBRANCH  25  39
BRANCH  26  45
ATOM     45  C   UNL     1      -2.787  -3.338   8.733  1.00  0.00    -0.014 A 
ATOM     46  C   UNL     1      -3.219  -3.994   9.894  1.00  0.00     0.009 A 
ATOM     47  C   UNL     1      -3.751  -2.662   7.961  1.00  0.00     0.009 A 
ATOM     48  C   UNL     1      -4.565  -3.956  10.280  1.00  0.00     0.001 A 
ATOM     49  C   UNL     1      -5.095  -2.632   8.340  1.00  0.00     0.001 A 
ATOM     50  C   UNL     1      -5.500  -3.269   9.507  1.00  0.00     0.000 A 
ENDBRANCH  26  45
BRANCH  38  51
ATOM     51  C   UNL     1       3.296  -4.675   9.485  1.00  0.00    -0.014 A 
ATOM     52  C   UNL     1       2.790  -5.154   8.264  1.00  0.00     0.009 A 
ATOM     53  C   UNL     1       4.255  -5.447  10.158  1.00  0.00     0.009 A 
ATOM     54  C   UNL     1       3.199  -6.389   7.754  1.00  0.00     0.001 A 
ATOM     55  C   UNL     1       4.681  -6.670   9.636  1.00  0.00     0.001 A 
ATOM     56  C   UNL     1       4.147  -7.144   8.438  1.00  0.00     0.000 A 
ENDBRANCH  38  51
ENDBRANCH  12  13
ENDBRANCH   5   7
ENDBRANCH   2   3
ENDBRANCH   1   2
BRANCH   1  57
ATOM     57  C   UNL     1       4.014  -3.228  -1.270  1.00  0.00     0.117 C 
BRANCH  57  58
ATOM     58  N   UNL     1       4.572  -3.136  -2.608  1.00  0.00    -0.354 N 
ATOM     59  C   UNL     1       5.904  -3.395  -2.824  1.00  0.00     0.243 C 
ATOM     60  H   UNL     1       3.993  -2.886  -3.364  1.00  0.00     0.163 HD
ATOM     61  O   UNL     1       6.631  -2.415  -2.962  1.00  0.00    -0.273 OA
BRANCH  59  62
ATOM     62  C   UNL     1       6.408  -4.849  -2.676  1.00  0.00     0.180 C 
ATOM     63  C   UNL     1       5.289  -5.929  -2.942  1.00  0.00     0.091 C 
ATOM     64  N   UNL     1       7.766  -5.262  -3.233  1.00  0.00    -0.324 N 
ATOM     65  C   UNL     1       5.891  -7.282  -2.967  1.00  0.00     0.042 A 
ATOM     66  C   UNL     1       8.274  -6.514  -2.606  1.00  0.00     0.178 C 
ATOM     67  N   UNL     1       5.279  -8.477  -3.200  1.00  0.00    -0.348 N 
ATOM     68  C   UNL     1       7.229  -7.564  -2.813  1.00  0.00     0.081 A 
ATOM     69  C   UNL     1       6.259  -9.435  -3.141  1.00  0.00     0.197 A 
ATOM     70  H   UNL     1       4.322  -8.625  -3.376  1.00  0.00     0.167 HD
ATOM     71  N   UNL     1       7.443  -8.914  -2.894  1.00  0.00    -0.240 NA
BRANCH  64  72
ATOM     72  C   UNL     1       8.418  -4.915  -4.417  1.00  0.00     0.224 C 
ATOM     73  O   UNL     1       9.383  -5.577  -4.826  1.00  0.00    -0.275 OA
BRANCH  72  74
ATOM     74  C   UNL     1       8.064  -3.687  -5.248  1.00  0.00     0.107 C 
BRANCH  74  75
ATOM     75  C   UNL     1       7.052  -3.878  -6.398  1.00  0.00    -0.020 C 
ATOM     76  C   UNL     1       5.955  -4.893  -6.044  1.00  0.00     0.011 C 
ATOM     77  C   UNL     1       7.760  -4.351  -7.692  1.00  0.00     0.011 C 
ATOM     78  C   UNL     1       6.354  -2.525  -6.709  1.00  0.00     0.011 C 
ATOM     79  C   UNL     1       4.946  -5.082  -7.177  1.00  0.00    -0.010 C 
ATOM     80  C   UNL     1       6.742  -4.518  -8.838  1.00  0.00    -0.010 C 
ATOM     81  C   UNL     1       5.323  -2.688  -7.842  1.00  0.00    -0.010 C 
ATOM     82  C   UNL     1       4.267  -3.730  -7.438  1.00  0.00     0.007 C 
ATOM     83  C   UNL     1       5.688  -5.558  -8.430  1.00  0.00     0.007 C 
ATOM     84  C   UNL     1       6.044  -3.174  -9.109  1.00  0.00     0.007 C 
ENDBRANCH  74  75
ENDBRANCH  72  74
ENDBRANCH  64  72
ENDBRANCH  59  62
ENDBRANCH  57  58
ENDBRANCH   1  57
TORSDOF 13
