REMARK SMILES C[C@H]1C[N@H+]2CCCC[C@@H]2CN1c1ccc(C(=O)NCCCNC(=O)c2ccc(-c3c4nc(c(-c5ccccc5)c5ccc([nH]5)c(-c5ccccc5)c5nc(c(-c6ccccc6)c6ccc3[nH]6)C=C5)C=C4)cc2)cc1Cl
REMARK SMILES IDX 20 1 19 2 18 3 16 4 17 5 15 7 12 8 13 9 74 10 14 11 73 12
REMARK SMILES IDX 75 13 11 14 1 15 2 16 3 17 4 18 10 19 5 20 9 21 6 23 8 24
REMARK SMILES IDX 7 25 21 26 22 27 23 28 24 30 25 31 26 32 72 33 27 34 71 35
REMARK SMILES IDX 28 36 29 37 30 38 65 39 31 40 70 41 64 42 66 43 32 44 69 45
REMARK SMILES IDX 63 46 62 47 33 49 55 50 40 51 54 52 41 53 44 54 53 55 67 56
REMARK SMILES IDX 42 57 43 58 52 60 68 61 45 62 34 63 35 64 39 65 36 66 38 67
REMARK SMILES IDX 37 68 56 69 57 70 61 71 58 72 60 73 59 74 46 75 47 76 51 77
REMARK SMILES IDX 48 78 50 79 49 80
REMARK H PARENT 18 6 4 22 22 29 66 48 44 59
REMARK Flexibility Score: inf
ROOT
ATOM      1  C   UNL     1       8.028   4.040   1.233  1.00  0.00     0.042 C 
ENDROOT
BRANCH   1   2
ATOM      2  C   UNL     1       7.448   4.774   0.021  1.00  0.00     0.118 C 
BRANCH   2   3
ATOM      3  N   UNL     1       7.463   3.944  -1.172  1.00  0.00    -0.352 N 
ATOM      4  C   UNL     1       6.479   3.238  -1.817  1.00  0.00     0.251 C 
ATOM      5  O   UNL     1       6.764   2.716  -2.895  1.00  0.00    -0.269 OA
ATOM      6  H   UNL     1       8.348   3.875  -1.598  1.00  0.00     0.163 HD
BRANCH   4   7
ATOM      7  C   UNL     1       5.092   3.092  -1.294  1.00  0.00     0.041 A 
ATOM      8  C   UNL     1       2.410   2.694  -0.435  1.00  0.00     0.056 A 
ATOM      9  C   UNL     1       2.742   2.666  -1.794  1.00  0.00     0.028 A 
ATOM     10  C   UNL     1       3.454   2.925   0.482  1.00  0.00     0.065 A 
ATOM     11  C   UNL     1       4.064   2.862  -2.219  1.00  0.00     0.016 A 
ATOM     12  C   UNL     1       4.775   3.092   0.061  1.00  0.00     0.036 A 
ATOM     13  Cl  UNL     1       3.173   2.957   2.195  1.00  0.00    -0.082 Cl
BRANCH   8  14
ATOM     14  N   UNL     1       1.112   2.489  -0.009  1.00  0.00    -0.356 N 
ATOM     15  C   UNL     1       1.161   0.025  -0.427  1.00  0.00     0.037 C 
ATOM     16  C   UNL     1       0.307   1.298  -0.336  1.00  0.00     0.134 C 
ATOM     17  C   UNL     1      -0.767   1.056   0.783  1.00  0.00     0.287 C 
ATOM     18  N   UNL     1      -1.482   2.242   1.324  1.00  0.00    -0.329 N 
ATOM     19  C   UNL     1       0.338   3.679   0.364  1.00  0.00     0.182 C 
ATOM     20  C   UNL     1      -2.179   1.865   2.569  1.00  0.00     0.262 C 
ATOM     21  C   UNL     1      -0.517   3.338   1.603  1.00  0.00     0.203 C 
ATOM     22  H   UNL     1      -2.160   2.568   0.635  1.00  0.00     0.348 HD
ATOM     23  C   UNL     1      -2.924   3.046   3.195  1.00  0.00     0.062 C 
ATOM     24  C   UNL     1      -1.267   4.580   2.101  1.00  0.00     0.067 C 
ATOM     25  C   UNL     1      -2.019   4.258   3.388  1.00  0.00     0.012 C 
ENDBRANCH   8  14
ENDBRANCH   4   7
ENDBRANCH   2   3
ENDBRANCH   1   2
BRANCH   1  26
ATOM     26  C   UNL     1       9.550   3.922   1.221  1.00  0.00     0.118 C 
BRANCH  26  27
ATOM     27  N   UNL     1      10.199   5.210   1.406  1.00  0.00    -0.352 N 
ATOM     28  C   UNL     1      11.108   5.631   2.341  1.00  0.00     0.251 C 
ATOM     29  H   UNL     1       9.942   5.896   0.748  1.00  0.00     0.163 HD
ATOM     30  O   UNL     1      11.351   6.832   2.429  1.00  0.00    -0.269 OA
BRANCH  28  31
ATOM     31  C   UNL     1      11.799   4.682   3.246  1.00  0.00     0.039 A 
ATOM     32  C   UNL     1      12.095   5.112   4.545  1.00  0.00     0.014 A 
ATOM     33  C   UNL     1      12.241   3.426   2.819  1.00  0.00     0.014 A 
ATOM     34  C   UNL     1      12.798   4.278   5.418  1.00  0.00     0.010 A 
ATOM     35  C   UNL     1      12.889   2.568   3.711  1.00  0.00     0.010 A 
ATOM     36  C   UNL     1      13.185   2.990   5.015  1.00  0.00    -0.014 A 
BRANCH  36  37
ATOM     37  C   UNL     1      13.893   2.091   5.961  1.00  0.00     0.031 A 
ATOM     38  C   UNL     1      15.326   1.697   5.728  1.00  0.00     0.074 A 
ATOM     39  C   UNL     1      13.233   1.612   7.033  1.00  0.00     0.049 A 
ATOM     40  N   UNL     1      16.109   0.954   6.471  1.00  0.00    -0.248 NA
ATOM     41  C   UNL     1      15.959   2.185   4.492  1.00  0.00     0.031 C 
ATOM     42  C   UNL     1      11.829   1.881   7.351  1.00  0.00     0.029 A 
ATOM     43  N   UNL     1      13.659   0.806   8.059  1.00  0.00    -0.354 N 
ATOM     44  C   UNL     1      17.317   0.876   5.790  1.00  0.00     0.074 A 
ATOM     45  C   UNL     1      17.152   1.611   4.554  1.00  0.00     0.031 C 
ATOM     46  C   UNL     1      11.521   1.282   8.512  1.00  0.00     0.029 A 
ATOM     47  C   UNL     1      12.693   0.567   9.005  1.00  0.00     0.049 A 
ATOM     48  H   UNL     1      14.570   0.435   8.111  1.00  0.00     0.167 HD
ATOM     49  C   UNL     1      18.467   0.264   6.166  1.00  0.00     0.031 A 
ATOM     50  C   UNL     1      12.746  -0.140  10.149  1.00  0.00     0.031 A 
ATOM     51  C   UNL     1      18.637  -0.462   7.397  1.00  0.00     0.049 A 
ATOM     52  C   UNL     1      14.036  -0.797  10.550  1.00  0.00     0.074 A 
ATOM     53  C   UNL     1      19.779  -1.071   7.890  1.00  0.00     0.029 A 
ATOM     54  N   UNL     1      17.636  -0.679   8.330  1.00  0.00    -0.354 N 
ATOM     55  N   UNL     1      15.190  -0.800   9.928  1.00  0.00    -0.248 NA
ATOM     56  C   UNL     1      14.032  -1.533  11.822  1.00  0.00     0.031 C 
ATOM     57  C   UNL     1      19.456  -1.692   9.102  1.00  0.00     0.029 A 
ATOM     58  C   UNL     1      18.127  -1.429   9.386  1.00  0.00     0.049 A 
ATOM     59  H   UNL     1      16.711  -0.348   8.253  1.00  0.00     0.167 HD
ATOM     60  C   UNL     1      16.054  -1.522  10.740  1.00  0.00     0.074 A 
ATOM     61  C   UNL     1      15.297  -1.920  11.909  1.00  0.00     0.031 C 
ATOM     62  C   UNL     1      17.358  -1.829  10.535  1.00  0.00     0.031 A 
BRANCH  49  63
ATOM     63  C   UNL     1      19.635   0.350   5.222  1.00  0.00    -0.014 A 
ATOM     64  C   UNL     1      20.333   1.554   5.039  1.00  0.00     0.009 A 
ATOM     65  C   UNL     1      20.064  -0.795   4.533  1.00  0.00     0.009 A 
ATOM     66  C   UNL     1      21.415   1.617   4.158  1.00  0.00     0.001 A 
ATOM     67  C   UNL     1      21.162  -0.735   3.673  1.00  0.00     0.001 A 
ATOM     68  C   UNL     1      21.831   0.473   3.479  1.00  0.00     0.000 A 
ENDBRANCH  49  63
BRANCH  50  69
ATOM     69  C   UNL     1      11.545  -0.236  11.016  1.00  0.00    -0.014 A 
ATOM     70  C   UNL     1      11.491   0.460  12.233  1.00  0.00     0.009 A 
ATOM     71  C   UNL     1      10.447  -1.021  10.631  1.00  0.00     0.009 A 
ATOM     72  C   UNL     1      10.369   0.353  13.059  1.00  0.00     0.001 A 
ATOM     73  C   UNL     1       9.317  -1.104  11.446  1.00  0.00     0.001 A 
ATOM     74  C   UNL     1       9.282  -0.424  12.663  1.00  0.00     0.000 A 
ENDBRANCH  50  69
BRANCH  62  75
ATOM     75  C   UNL     1      18.044  -2.622  11.610  1.00  0.00    -0.014 A 
ATOM     76  C   UNL     1      17.760  -3.983  11.802  1.00  0.00     0.009 A 
ATOM     77  C   UNL     1      18.992  -2.000  12.437  1.00  0.00     0.009 A 
ATOM     78  C   UNL     1      18.383  -4.696  12.829  1.00  0.00     0.001 A 
ATOM     79  C   UNL     1      19.633  -2.722  13.446  1.00  0.00     0.001 A 
ATOM     80  C   UNL     1      19.319  -4.065  13.648  1.00  0.00     0.000 A 
ENDBRANCH  62  75
ENDBRANCH  36  37
ENDBRANCH  28  31
ENDBRANCH  26  27
ENDBRANCH   1  26
TORSDOF 11
