REMARK SMILES C[N@H+]1[C@H]2CC[C@@H]1C[N@@H+]([C@H](C(=O)NCCCNC(=O)c1ccc(-c3c4nc(c(-c5ccccc5)c5ccc([nH]5)c(-c5ccccc5)c5nc(c(-c6ccccc6)c6ccc3[nH]6)C=C5)C=C4)cc1)c1ccccc1)CC2
REMARK SMILES IDX 13 1 12 2 10 3 11 4 9 6 8 7 73 9 74 10 3 11 1 12 2 13 6 14
REMARK SMILES IDX 4 16 5 17 7 19 67 21 68 22 72 23 69 24 71 25 70 26 14 27
REMARK SMILES IDX 15 28 16 29 17 30 18 32 19 33 20 34 66 35 21 36 65 37 22 38
REMARK SMILES IDX 23 39 24 40 59 41 25 42 64 43 58 44 60 45 26 46 63 47 57 48
REMARK SMILES IDX 56 49 27 51 49 52 34 53 48 54 35 55 38 56 47 57 61 58 36 59
REMARK SMILES IDX 37 60 46 62 62 63 39 64 28 65 29 66 33 67 30 68 32 69 31 70
REMARK SMILES IDX 50 71 51 72 55 73 52 74 54 75 53 76 40 77 41 78 45 79 42 80
REMARK SMILES IDX 44 81 43 82
REMARK H PARENT 12 5 8 8 2 15 16 31 60 50 38 61
REMARK Flexibility Score: 90.00
ROOT
ATOM      1  C   UNL     1      -1.749   1.078   3.501  1.00  0.00     0.118 C 
ENDROOT
BRANCH   1   2
ATOM      2  N   UNL     1      -1.419  -0.332   3.666  1.00  0.00    -0.351 N 
ATOM      3  C   UNL     1      -0.263  -0.947   4.079  1.00  0.00     0.283 C 
ATOM      4  O   UNL     1      -0.296  -2.184   4.130  1.00  0.00    -0.268 OA
ATOM      5  H   UNL     1      -2.152  -0.950   3.443  1.00  0.00     0.163 HD
BRANCH   3   6
ATOM      6  C   UNL     1       1.045  -0.159   4.452  1.00  0.00     0.305 C 
BRANCH   6   7
ATOM      7  N   UNL     1       1.952  -0.033   3.256  1.00  0.00    -0.316 N 
ATOM      8  H   UNL     1       2.096  -0.988   2.929  1.00  0.00     0.349 HD
BRANCH   7   9
ATOM      9  C   UNL     1       1.354   0.622   2.099  1.00  0.00     0.269 C 
BRANCH   9  10
ATOM     10  C   UNL     1       1.852   0.253   0.693  1.00  0.00     0.126 C 
BRANCH  10  11
ATOM     11  C   UNL     1       3.357   0.114   0.504  1.00  0.00     0.190 C 
ATOM     12  C   UNL     1       5.146   1.780   0.594  1.00  0.00     0.333 C 
ATOM     13  N   UNL     1       4.020   1.164   1.290  1.00  0.00    -0.328 N 
ATOM     14  C   UNL     1       4.426   0.489   2.545  1.00  0.00     0.240 CG0
ATOM     15  H   UNL     1       3.395   1.951   1.463  1.00  0.00     0.348 HD
ATOM     16  C   UNL     1       3.871  -1.244   0.988  1.00  0.00     0.071 C 
ATOM     17  C   UNL     1       4.827  -0.917   2.114  1.00  0.00     0.077 C 
ATOM     18  G   UNL     1       3.293   0.476   3.616  1.00  0.00     0.000 G0
ENDBRANCH  10  11
ENDBRANCH   9  10
ENDBRANCH   7   9
BRANCH   7  19
ATOM     19  C   UNL     1       3.293   0.476   3.616  1.00  0.00     0.328 CG0
ATOM     20  G   UNL     1       4.426   0.489   2.545  1.00  0.00     0.000 G0
ENDBRANCH   7  19
ENDBRANCH   6   7
BRANCH   6  21
ATOM     21  C   UNL     1       0.760   1.020   5.397  1.00  0.00     0.019 A 
ATOM     22  C   UNL     1       1.053   2.366   5.127  1.00  0.00     0.010 A 
ATOM     23  C   UNL     1       0.066   0.739   6.596  1.00  0.00     0.010 A 
ATOM     24  C   UNL     1       0.648   3.385   5.995  1.00  0.00     0.001 A 
ATOM     25  C   UNL     1      -0.353   1.758   7.454  1.00  0.00     0.001 A 
ATOM     26  C   UNL     1      -0.063   3.083   7.151  1.00  0.00     0.000 A 
ENDBRANCH   6  21
ENDBRANCH   3   6
ENDBRANCH   1   2
BRANCH   1  27
ATOM     27  C   UNL     1      -2.122   1.456   2.072  1.00  0.00     0.042 C 
BRANCH  27  28
ATOM     28  C   UNL     1      -3.414   0.821   1.604  1.00  0.00     0.118 C 
BRANCH  28  29
ATOM     29  N   UNL     1      -4.571   1.504   2.163  1.00  0.00    -0.352 N 
ATOM     30  C   UNL     1      -5.350   2.489   1.611  1.00  0.00     0.251 C 
ATOM     31  H   UNL     1      -4.832   1.217   3.068  1.00  0.00     0.163 HD
ATOM     32  O   UNL     1      -6.093   3.157   2.333  1.00  0.00    -0.269 OA
BRANCH  30  33
ATOM     33  C   UNL     1      -5.295   2.765   0.160  1.00  0.00     0.039 A 
ATOM     34  C   UNL     1      -5.364   4.086  -0.292  1.00  0.00     0.014 A 
ATOM     35  C   UNL     1      -5.211   1.720  -0.763  1.00  0.00     0.014 A 
ATOM     36  C   UNL     1      -5.293   4.357  -1.662  1.00  0.00     0.010 A 
ATOM     37  C   UNL     1      -5.030   1.996  -2.113  1.00  0.00     0.010 A 
ATOM     38  C   UNL     1      -5.094   3.315  -2.582  1.00  0.00    -0.014 A 
BRANCH  38  39
ATOM     39  C   UNL     1      -4.997   3.562  -4.044  1.00  0.00     0.031 A 
ATOM     40  C   UNL     1      -6.000   2.929  -4.975  1.00  0.00     0.074 A 
ATOM     41  C   UNL     1      -3.969   4.275  -4.543  1.00  0.00     0.049 A 
ATOM     42  N   UNL     1      -6.017   2.911  -6.283  1.00  0.00    -0.248 NA
ATOM     43  C   UNL     1      -7.110   2.187  -4.352  1.00  0.00     0.031 C 
ATOM     44  C   UNL     1      -2.906   4.905  -3.755  1.00  0.00     0.029 A 
ATOM     45  N   UNL     1      -3.640   4.577  -5.841  1.00  0.00    -0.354 N 
ATOM     46  C   UNL     1      -7.111   2.128  -6.635  1.00  0.00     0.074 A 
ATOM     47  C   UNL     1      -7.705   1.651  -5.407  1.00  0.00     0.031 C 
ATOM     48  C   UNL     1      -2.057   5.534  -4.584  1.00  0.00     0.029 A 
ATOM     49  C   UNL     1      -2.487   5.315  -5.961  1.00  0.00     0.049 A 
ATOM     50  H   UNL     1      -4.180   4.292  -6.614  1.00  0.00     0.167 HD
ATOM     51  C   UNL     1      -7.591   1.847  -7.869  1.00  0.00     0.031 A 
ATOM     52  C   UNL     1      -1.840   5.753  -7.058  1.00  0.00     0.031 A 
ATOM     53  C   UNL     1      -7.026   2.356  -9.088  1.00  0.00     0.049 A 
ATOM     54  C   UNL     1      -2.404   5.439  -8.416  1.00  0.00     0.074 A 
ATOM     55  C   UNL     1      -7.485   2.194 -10.383  1.00  0.00     0.029 A 
ATOM     56  N   UNL     1      -5.880   3.132  -9.160  1.00  0.00    -0.354 N 
ATOM     57  N   UNL     1      -3.479   4.756  -8.727  1.00  0.00    -0.248 NA
ATOM     58  C   UNL     1      -1.669   5.966  -9.576  1.00  0.00     0.031 C 
ATOM     59  C   UNL     1      -6.590   2.834 -11.245  1.00  0.00     0.029 A 
ATOM     60  C   UNL     1      -5.605   3.439 -10.481  1.00  0.00     0.049 A 
ATOM     61  H   UNL     1      -5.343   3.421  -8.388  1.00  0.00     0.167 HD
ATOM     62  C   UNL     1      -3.566   4.798 -10.113  1.00  0.00     0.074 A 
ATOM     63  C   UNL     1      -2.445   5.585 -10.581  1.00  0.00     0.031 C 
ATOM     64  C   UNL     1      -4.492   4.234 -10.926  1.00  0.00     0.031 A 
BRANCH  51  65
ATOM     65  C   UNL     1      -8.791   0.947  -7.964  1.00  0.00    -0.014 A 
ATOM     66  C   UNL     1     -10.063   1.382  -7.558  1.00  0.00     0.009 A 
ATOM     67  C   UNL     1      -8.657  -0.336  -8.516  1.00  0.00     0.009 A 
ATOM     68  C   UNL     1     -11.169   0.538  -7.673  1.00  0.00     0.001 A 
ATOM     69  C   UNL     1      -9.770  -1.167  -8.657  1.00  0.00     0.001 A 
ATOM     70  C   UNL     1     -11.023  -0.732  -8.229  1.00  0.00     0.000 A 
ENDBRANCH  51  65
BRANCH  52  71
ATOM     71  C   UNL     1      -0.586   6.540  -6.924  1.00  0.00    -0.014 A 
ATOM     72  C   UNL     1      -0.561   7.904  -7.255  1.00  0.00     0.009 A 
ATOM     73  C   UNL     1       0.599   5.927  -6.487  1.00  0.00     0.009 A 
ATOM     74  C   UNL     1       0.631   8.629  -7.183  1.00  0.00     0.001 A 
ATOM     75  C   UNL     1       1.783   6.662  -6.387  1.00  0.00     0.001 A 
ATOM     76  C   UNL     1       1.800   8.009  -6.747  1.00  0.00     0.000 A 
ENDBRANCH  52  71
BRANCH  64  77
ATOM     77  C   UNL     1      -4.359   4.484 -12.401  1.00  0.00    -0.014 A 
ATOM     78  C   UNL     1      -3.361   3.855 -13.159  1.00  0.00     0.009 A 
ATOM     79  C   UNL     1      -5.285   5.318 -13.047  1.00  0.00     0.009 A 
ATOM     80  C   UNL     1      -3.276   4.079 -14.535  1.00  0.00     0.001 A 
ATOM     81  C   UNL     1      -5.215   5.518 -14.425  1.00  0.00     0.001 A 
ATOM     82  C   UNL     1      -4.206   4.905 -15.167  1.00  0.00     0.000 A 
ENDBRANCH  64  77
ENDBRANCH  38  39
ENDBRANCH  30  33
ENDBRANCH  28  29
ENDBRANCH  27  28
ENDBRANCH   1  27
TORSDOF 12
