REMARK SMILES C[C@H](NC(=O)NCCc1ccccc1F)C(=O)NCCCNC(=O)c1ccc(-c2c3nc(c(-c4ccccc4)c4ccc([nH]4)c(-c4ccccc4)c4nc(c(-c5ccccc5)c5ccc2[nH]5)C=C4)C=C3)cc1
REMARK SMILES IDX 19 1 18 2 16 3 17 4 2 6 1 7 3 8 4 9 5 11 6 12 7 14 8 15 9 16
REMARK SMILES IDX 10 17 14 18 11 19 13 20 15 21 12 22 20 23 21 24 22 25 23 26
REMARK SMILES IDX 24 28 25 29 26 30 72 31 27 32 71 33 28 34 29 35 30 36 65 37
REMARK SMILES IDX 31 38 70 39 64 40 66 41 32 42 69 43 63 44 62 45 33 47 55 48
REMARK SMILES IDX 40 49 54 50 41 51 44 52 53 53 67 54 42 55 43 56 52 58 68 59
REMARK SMILES IDX 45 60 34 61 35 62 39 63 36 64 38 65 37 66 56 67 57 68 61 69
REMARK SMILES IDX 58 70 60 71 59 72 46 73 47 74 51 75 48 76 50 77 49 78
REMARK H PARENT 18 5 3 10 6 13 22 27 66 46 44 57
REMARK Flexibility Score: inf
ROOT
ATOM      1  C   UNL     1      -1.106  -0.448   2.290  1.00  0.00     0.117 C 
ENDROOT
BRANCH   1   2
ATOM      2  N   UNL     1      -1.770  -0.668   1.016  1.00  0.00    -0.354 N 
ATOM      3  C   UNL     1      -1.303  -1.272  -0.111  1.00  0.00     0.242 C 
ATOM      4  O   UNL     1      -2.096  -1.472  -1.033  1.00  0.00    -0.273 OA
ATOM      5  H   UNL     1      -2.693  -0.330   0.959  1.00  0.00     0.163 HD
BRANCH   3   6
ATOM      6  C   UNL     1       0.147  -1.753  -0.180  1.00  0.00     0.170 C 
ATOM      7  C   UNL     1       0.367  -2.885   0.833  1.00  0.00     0.041 C 
BRANCH   6   8
ATOM      8  N   UNL     1       1.066  -0.631  -0.004  1.00  0.00    -0.327 N 
ATOM      9  C   UNL     1       2.382  -0.491  -0.193  1.00  0.00     0.315 C 
ATOM     10  H   UNL     1       0.626   0.189   0.320  1.00  0.00     0.166 HD
ATOM     11  O   UNL     1       2.888   0.605   0.053  1.00  0.00    -0.249 OA
ATOM     12  N   UNL     1       3.176  -1.477  -0.628  1.00  0.00    -0.338 N 
ATOM     13  H   UNL     1       4.118  -1.203  -0.712  1.00  0.00     0.165 HD
BRANCH  12  14
ATOM     14  C   UNL     1       2.954  -2.864  -1.006  1.00  0.00     0.122 C 
BRANCH  14  15
ATOM     15  C   UNL     1       3.571  -3.216  -2.356  1.00  0.00     0.060 C 
BRANCH  15  16
ATOM     16  C   UNL     1       5.030  -3.527  -2.204  1.00  0.00    -0.010 A 
ATOM     17  C   UNL     1       6.010  -2.639  -2.653  1.00  0.00     0.007 A 
ATOM     18  C   UNL     1       5.421  -4.697  -1.542  1.00  0.00     0.126 A 
ATOM     19  C   UNL     1       7.356  -2.918  -2.420  1.00  0.00     0.000 A 
ATOM     20  C   UNL     1       6.758  -4.975  -1.300  1.00  0.00     0.039 A 
ATOM     21  F   UNL     1       4.487  -5.552  -1.097  1.00  0.00    -0.207 F 
ATOM     22  C   UNL     1       7.729  -4.079  -1.738  1.00  0.00     0.003 A 
ENDBRANCH  15  16
ENDBRANCH  14  15
ENDBRANCH  12  14
ENDBRANCH   6   8
ENDBRANCH   3   6
ENDBRANCH   1   2
BRANCH   1  23
ATOM     23  C   UNL     1      -1.466   0.899   2.879  1.00  0.00     0.042 C 
BRANCH  23  24
ATOM     24  C   UNL     1      -2.956   1.058   3.124  1.00  0.00     0.118 C 
BRANCH  24  25
ATOM     25  N   UNL     1      -3.498   0.040   4.015  1.00  0.00    -0.352 N 
ATOM     26  C   UNL     1      -4.178   0.204   5.201  1.00  0.00     0.251 C 
ATOM     27  H   UNL     1      -3.359  -0.892   3.730  1.00  0.00     0.163 HD
ATOM     28  O   UNL     1      -4.411  -0.750   5.928  1.00  0.00    -0.269 OA
BRANCH  26  29
ATOM     29  C   UNL     1      -4.593   1.565   5.585  1.00  0.00     0.039 A 
ATOM     30  C   UNL     1      -4.316   2.023   6.872  1.00  0.00     0.014 A 
ATOM     31  C   UNL     1      -5.178   2.406   4.635  1.00  0.00     0.014 A 
ATOM     32  C   UNL     1      -4.556   3.362   7.181  1.00  0.00     0.010 A 
ATOM     33  C   UNL     1      -5.302   3.759   4.908  1.00  0.00     0.010 A 
ATOM     34  C   UNL     1      -5.005   4.248   6.187  1.00  0.00    -0.014 A 
BRANCH  34  35
ATOM     35  C   UNL     1      -5.183   5.692   6.466  1.00  0.00     0.031 A 
ATOM     36  C   UNL     1      -6.540   6.322   6.317  1.00  0.00     0.074 A 
ATOM     37  C   UNL     1      -4.113   6.446   6.787  1.00  0.00     0.049 A 
ATOM     38  N   UNL     1      -6.891   7.572   6.479  1.00  0.00    -0.248 NA
ATOM     39  C   UNL     1      -7.643   5.441   5.896  1.00  0.00     0.031 C 
ATOM     40  C   UNL     1      -2.733   5.963   6.898  1.00  0.00     0.029 A 
ATOM     41  N   UNL     1      -4.020   7.782   7.083  1.00  0.00    -0.354 N 
ATOM     42  C   UNL     1      -8.242   7.627   6.160  1.00  0.00     0.074 A 
ATOM     43  C   UNL     1      -8.633   6.304   5.730  1.00  0.00     0.031 C 
ATOM     44  C   UNL     1      -1.942   6.978   7.281  1.00  0.00     0.029 A 
ATOM     45  C   UNL     1      -2.748   8.187   7.404  1.00  0.00     0.049 A 
ATOM     46  H   UNL     1      -4.792   8.392   7.066  1.00  0.00     0.167 HD
ATOM     47  C   UNL     1      -9.091   8.677   6.244  1.00  0.00     0.031 A 
ATOM     48  C   UNL     1      -2.285   9.398   7.764  1.00  0.00     0.031 A 
ATOM     49  C   UNL     1      -8.705   9.986   6.692  1.00  0.00     0.049 A 
ATOM     50  C   UNL     1      -3.250  10.546   7.865  1.00  0.00     0.074 A 
ATOM     51  C   UNL     1      -9.499  11.103   6.878  1.00  0.00     0.029 A 
ATOM     52  N   UNL     1      -7.410  10.351   7.027  1.00  0.00    -0.354 N 
ATOM     53  N   UNL     1      -4.541  10.562   7.637  1.00  0.00    -0.248 NA
ATOM     54  C   UNL     1      -2.695  11.838   8.288  1.00  0.00     0.031 C 
ATOM     55  C   UNL     1      -8.675  12.160   7.280  1.00  0.00     0.029 A 
ATOM     56  C   UNL     1      -7.379  11.684   7.399  1.00  0.00     0.049 A 
ATOM     57  H   UNL     1      -6.629   9.752   7.004  1.00  0.00     0.167 HD
ATOM     58  C   UNL     1      -4.958  11.857   7.916  1.00  0.00     0.074 A 
ATOM     59  C   UNL     1      -3.785  12.589   8.348  1.00  0.00     0.031 C 
ATOM     60  C   UNL     1      -6.199  12.393   7.823  1.00  0.00     0.031 A 
BRANCH  47  61
ATOM     61  C   UNL     1     -10.521   8.441   5.844  1.00  0.00    -0.014 A 
ATOM     62  C   UNL     1     -11.368   7.628   6.615  1.00  0.00     0.009 A 
ATOM     63  C   UNL     1     -11.035   9.056   4.692  1.00  0.00     0.009 A 
ATOM     64  C   UNL     1     -12.688   7.402   6.218  1.00  0.00     0.001 A 
ATOM     65  C   UNL     1     -12.364   8.854   4.315  1.00  0.00     0.001 A 
ATOM     66  C   UNL     1     -13.186   8.020   5.072  1.00  0.00     0.000 A 
ENDBRANCH  47  61
BRANCH  48  67
ATOM     67  C   UNL     1      -0.846   9.582   8.088  1.00  0.00    -0.014 A 
ATOM     68  C   UNL     1      -0.439   9.815   9.411  1.00  0.00     0.009 A 
ATOM     69  C   UNL     1       0.128   9.530   7.079  1.00  0.00     0.009 A 
ATOM     70  C   UNL     1       0.909  10.022   9.712  1.00  0.00     0.001 A 
ATOM     71  C   UNL     1       1.479   9.707   7.387  1.00  0.00     0.001 A 
ATOM     72  C   UNL     1       1.867   9.963   8.701  1.00  0.00     0.000 A 
ENDBRANCH  48  67
BRANCH  60  73
ATOM     73  C   UNL     1      -6.353  13.831   8.229  1.00  0.00    -0.014 A 
ATOM     74  C   UNL     1      -5.841  14.872   7.440  1.00  0.00     0.009 A 
ATOM     75  C   UNL     1      -7.049  14.147   9.407  1.00  0.00     0.009 A 
ATOM     76  C   UNL     1      -5.988  16.200   7.843  1.00  0.00     0.001 A 
ATOM     77  C   UNL     1      -7.222  15.477   9.791  1.00  0.00     0.001 A 
ATOM     78  C   UNL     1      -6.682  16.501   9.015  1.00  0.00     0.000 A 
ENDBRANCH  60  73
ENDBRANCH  34  35
ENDBRANCH  26  29
ENDBRANCH  24  25
ENDBRANCH  23  24
ENDBRANCH   1  23
TORSDOF 14
