REMARK SMILES C[C@@H]1[C@H](C(=O)NCCCNC(=O)c2ccc(-c3c4nc(c(-c5ccccc5)c5ccc([nH]5)c(-c5ccccc5)c5nc(c(-c6ccccc6)c6ccc3[nH]6)C=C5)C=C4)cc2)CCN1c1ccc(C(F)(F)F)cc1
REMARK SMILES IDX 8 1 7 2 6 3 4 4 5 5 3 7 1 8 2 9 63 10 61 11 62 12 64 13
REMARK SMILES IDX 65 14 73 15 66 16 72 17 67 18 68 19 69 20 70 21 71 22 9 23
REMARK SMILES IDX 10 24 11 25 12 27 13 28 14 29 60 30 15 31 59 32 16 33 17 34
REMARK SMILES IDX 18 35 53 36 19 37 58 38 52 39 54 40 20 41 57 42 51 43 50 44
REMARK SMILES IDX 21 46 43 47 28 48 42 49 29 50 32 51 41 52 55 53 30 54 31 55
REMARK SMILES IDX 40 57 56 58 33 59 22 60 23 61 27 62 24 63 26 64 25 65 44 66
REMARK SMILES IDX 45 67 49 68 46 69 48 70 47 71 34 72 35 73 39 74 36 75 38 76
REMARK SMILES IDX 37 77
REMARK H PARENT 6 6 10 26 54 45 32 56
REMARK Flexibility Score: inf
ROOT
ATOM      1  C   UNL     1       2.592   1.325   2.748  1.00  0.00     0.042 C 
ENDROOT
BRANCH   1   2
ATOM      2  C   UNL     1       1.177   1.648   2.273  1.00  0.00     0.117 C 
BRANCH   2   3
ATOM      3  N   UNL     1       1.169   2.459   1.066  1.00  0.00    -0.356 N 
ATOM      4  C   UNL     1       0.673   2.256  -0.178  1.00  0.00     0.225 C 
ATOM      5  O   UNL     1       0.911   3.140  -1.010  1.00  0.00    -0.275 OA
ATOM      6  H   UNL     1       1.613   3.331   1.175  1.00  0.00     0.163 HD
BRANCH   4   7
ATOM      7  C   UNL     1      -0.133   1.041  -0.596  1.00  0.00     0.102 C 
ATOM      8  C   UNL     1       2.060  -0.375  -0.364  1.00  0.00     0.032 C 
ATOM      9  C   UNL     1       0.607  -0.298  -0.802  1.00  0.00     0.091 C 
ATOM     10  N   UNL     1      -0.246  -1.284  -0.102  1.00  0.00    -0.368 N 
ATOM     11  C   UNL     1      -1.366   0.742   0.259  1.00  0.00     0.037 C 
ATOM     12  C   UNL     1      -1.595  -0.749   0.061  1.00  0.00     0.118 C 
BRANCH  10  13
ATOM     13  C   UNL     1      -0.070  -2.633  -0.361  1.00  0.00     0.037 A 
ATOM     14  C   UNL     1      -0.846  -3.336  -1.289  1.00  0.00     0.026 A 
ATOM     15  C   UNL     1       0.931  -3.343   0.315  1.00  0.00     0.026 A 
ATOM     16  C   UNL     1      -0.628  -4.697  -1.536  1.00  0.00     0.015 A 
ATOM     17  C   UNL     1       1.159  -4.702   0.073  1.00  0.00     0.015 A 
ATOM     18  C   UNL     1       0.381  -5.395  -0.860  1.00  0.00     0.056 A 
BRANCH  18  19
ATOM     19  C   UNL     1       0.605  -6.861  -1.132  1.00  0.00     0.416 C 
ATOM     20  F   UNL     1      -0.462  -7.626  -0.769  1.00  0.00    -0.166 F 
ATOM     21  F   UNL     1       0.818  -7.121  -2.452  1.00  0.00    -0.166 F 
ATOM     22  F   UNL     1       1.678  -7.382  -0.473  1.00  0.00    -0.166 F 
ENDBRANCH  18  19
ENDBRANCH  10  13
ENDBRANCH   4   7
ENDBRANCH   2   3
ENDBRANCH   1   2
BRANCH   1  23
ATOM     23  C   UNL     1       3.444   2.534   3.109  1.00  0.00     0.118 C 
BRANCH  23  24
ATOM     24  N   UNL     1       3.152   3.056   4.432  1.00  0.00    -0.352 N 
ATOM     25  C   UNL     1       3.878   2.978   5.597  1.00  0.00     0.251 C 
ATOM     26  H   UNL     1       2.300   3.542   4.507  1.00  0.00     0.163 HD
ATOM     27  O   UNL     1       3.360   3.334   6.652  1.00  0.00    -0.269 OA
BRANCH  25  28
ATOM     28  C   UNL     1       5.264   2.450   5.608  1.00  0.00     0.039 A 
ATOM     29  C   UNL     1       5.661   1.631   6.671  1.00  0.00     0.014 A 
ATOM     30  C   UNL     1       6.192   2.790   4.621  1.00  0.00     0.014 A 
ATOM     31  C   UNL     1       6.959   1.112   6.711  1.00  0.00     0.010 A 
ATOM     32  C   UNL     1       7.457   2.201   4.613  1.00  0.00     0.010 A 
ATOM     33  C   UNL     1       7.861   1.368   5.667  1.00  0.00    -0.014 A 
BRANCH  33  34
ATOM     34  C   UNL     1       9.237   0.804   5.674  1.00  0.00     0.031 A 
ATOM     35  C   UNL     1      10.431   1.722   5.728  1.00  0.00     0.074 A 
ATOM     36  C   UNL     1       9.423  -0.527   5.579  1.00  0.00     0.049 A 
ATOM     37  N   UNL     1      11.705   1.425   5.673  1.00  0.00    -0.248 NA
ATOM     38  C   UNL     1      10.156   3.164   5.831  1.00  0.00     0.031 C 
ATOM     39  C   UNL     1       8.360  -1.529   5.487  1.00  0.00     0.029 A 
ATOM     40  N   UNL     1      10.580  -1.266   5.540  1.00  0.00    -0.354 N 
ATOM     41  C   UNL     1      12.378   2.640   5.708  1.00  0.00     0.074 A 
ATOM     42  C   UNL     1      11.373   3.679   5.744  1.00  0.00     0.031 C 
ATOM     43  C   UNL     1       8.913  -2.752   5.431  1.00  0.00     0.029 A 
ATOM     44  C   UNL     1      10.366  -2.619   5.446  1.00  0.00     0.049 A 
ATOM     45  H   UNL     1      11.477  -0.863   5.576  1.00  0.00     0.167 HD
ATOM     46  C   UNL     1      13.712   2.875   5.729  1.00  0.00     0.031 A 
ATOM     47  C   UNL     1      11.241  -3.641   5.375  1.00  0.00     0.031 A 
ATOM     48  C   UNL     1      14.718   1.848   5.722  1.00  0.00     0.049 A 
ATOM     49  C   UNL     1      12.716  -3.356   5.402  1.00  0.00     0.074 A 
ATOM     50  C   UNL     1      16.093   1.987   5.800  1.00  0.00     0.029 A 
ATOM     51  N   UNL     1      14.457   0.490   5.638  1.00  0.00    -0.354 N 
ATOM     52  N   UNL     1      13.333  -2.203   5.487  1.00  0.00    -0.248 NA
ATOM     53  C   UNL     1      13.615  -4.517   5.332  1.00  0.00     0.031 C 
ATOM     54  C   UNL     1      16.666   0.713   5.724  1.00  0.00     0.029 A 
ATOM     55  C   UNL     1      15.645  -0.220   5.646  1.00  0.00     0.049 A 
ATOM     56  H   UNL     1      13.559   0.089   5.581  1.00  0.00     0.167 HD
ATOM     57  C   UNL     1      14.689  -2.501   5.508  1.00  0.00     0.074 A 
ATOM     58  C   UNL     1      14.805  -3.943   5.439  1.00  0.00     0.031 C 
ATOM     59  C   UNL     1      15.745  -1.654   5.579  1.00  0.00     0.031 A 
BRANCH  46  60
ATOM     60  C   UNL     1      14.160   4.309   5.760  1.00  0.00    -0.014 A 
ATOM     61  C   UNL     1      14.000   5.096   6.912  1.00  0.00     0.009 A 
ATOM     62  C   UNL     1      14.775   4.874   4.632  1.00  0.00     0.009 A 
ATOM     63  C   UNL     1      14.412   6.429   6.921  1.00  0.00     0.001 A 
ATOM     64  C   UNL     1      15.212   6.200   4.653  1.00  0.00     0.001 A 
ATOM     65  C   UNL     1      15.021   6.979   5.794  1.00  0.00     0.000 A 
ENDBRANCH  46  60
BRANCH  47  66
ATOM     66  C   UNL     1      10.745  -5.039   5.294  1.00  0.00    -0.014 A 
ATOM     67  C   UNL     1      10.860  -5.896   6.399  1.00  0.00     0.009 A 
ATOM     68  C   UNL     1      10.161  -5.524   4.114  1.00  0.00     0.009 A 
ATOM     69  C   UNL     1      10.422  -7.219   6.316  1.00  0.00     0.001 A 
ATOM     70  C   UNL     1       9.701  -6.841   4.043  1.00  0.00     0.001 A 
ATOM     71  C   UNL     1       9.839  -7.689   5.140  1.00  0.00     0.000 A 
ENDBRANCH  47  66
BRANCH  59  72
ATOM     72  C   UNL     1      17.115  -2.267   5.620  1.00  0.00    -0.014 A 
ATOM     73  C   UNL     1      17.699  -2.820   4.471  1.00  0.00     0.009 A 
ATOM     74  C   UNL     1      17.845  -2.253   6.819  1.00  0.00     0.009 A 
ATOM     75  C   UNL     1      18.979  -3.375   4.529  1.00  0.00     0.001 A 
ATOM     76  C   UNL     1      19.134  -2.786   6.868  1.00  0.00     0.001 A 
ATOM     77  C   UNL     1      19.696  -3.354   5.725  1.00  0.00     0.000 A 
ENDBRANCH  59  72
ENDBRANCH  33  34
ENDBRANCH  25  28
ENDBRANCH  23  24
ENDBRANCH   1  23
TORSDOF 12
