REMARK SMILES CCCc1cc(OCC(=O)NCCCNC(=O)c2ccc(-c3c4nc(c(-c5ccccc5)c5ccc([nH]5)c(-c5ccccc5)c5nc(c(-c6ccccc6)c6ccc3[nH]6)C=C5)C=C4)cc2)nc(Nc2ccc(C#N)cc2)n1
REMARK SMILES IDX 9 1 10 2 11 3 8 5 7 6 6 7 4 8 5 9 77 10 67 11 66 12 3 13
REMARK SMILES IDX 2 14 1 15 68 16 69 18 70 19 76 20 71 21 75 22 72 23 73 24
REMARK SMILES IDX 74 25 12 26 13 27 14 28 15 29 16 30 17 32 18 33 19 34 65 35
REMARK SMILES IDX 20 36 64 37 21 38 22 39 23 40 58 41 24 42 63 43 57 44 59 45
REMARK SMILES IDX 25 46 62 47 56 48 55 49 26 51 48 52 33 53 47 54 34 55 37 56
REMARK SMILES IDX 46 57 60 58 35 59 36 60 45 62 61 63 38 64 27 65 28 66 32 67
REMARK SMILES IDX 29 68 31 69 30 70 49 71 50 72 54 73 51 74 53 75 52 76 39 77
REMARK SMILES IDX 40 78 44 79 41 80 43 81 42 82
REMARK H PARENT 11 4 68 17 15 31 59 50 37 61
REMARK Flexibility Score: inf
ROOT
ATOM      1  C   UNL     1       0.571  -6.515  -2.794  1.00  0.00     0.258 C 
ATOM      2  O   UNL     1       0.932  -5.841  -3.760  1.00  0.00    -0.271 OA
ATOM      3  N   UNL     1      -0.647  -7.126  -2.837  1.00  0.00    -0.353 N 
ATOM      4  H   UNL     1      -1.181  -6.965  -3.649  1.00  0.00     0.163 HD
ENDROOT
BRANCH   1   5
ATOM      5  C   UNL     1       1.462  -6.684  -1.557  1.00  0.00     0.331 C 
BRANCH   5   6
ATOM      6  O   UNL     1       0.933  -6.222  -0.326  1.00  0.00    -0.467 OA
BRANCH   6   7
ATOM      7  C   UNL     1       0.656  -4.887  -0.210  1.00  0.00     0.218 A 
ATOM      8  C   UNL     1       0.574  -2.651  -0.887  1.00  0.00     0.050 A 
ATOM      9  C   UNL     1       1.021  -3.928  -1.127  1.00  0.00     0.092 A 
ATOM     10  N   UNL     1      -0.169  -2.364   0.189  1.00  0.00    -0.218 NA
ATOM     11  C   UNL     1      -0.394  -3.324   1.094  1.00  0.00     0.230 A 
ATOM     12  N   UNL     1      -0.014  -4.595   0.921  1.00  0.00    -0.177 NA
BRANCH   8  13
ATOM     13  C   UNL     1       0.942  -1.531  -1.828  1.00  0.00     0.056 C 
BRANCH  13  14
ATOM     14  C   UNL     1       0.461  -0.130  -1.425  1.00  0.00     0.003 C 
ATOM     15  C   UNL     1       1.127   0.414  -0.167  1.00  0.00     0.004 C 
ENDBRANCH  13  14
ENDBRANCH   8  13
BRANCH  11  16
ATOM     16  N   UNL     1      -0.942  -2.966   2.326  1.00  0.00    -0.324 N 
ATOM     17  H   UNL     1      -1.006  -3.683   2.998  1.00  0.00     0.170 HD
BRANCH  16  18
ATOM     18  C   UNL     1      -1.411  -1.707   2.718  1.00  0.00     0.041 A 
ATOM     19  C   UNL     1      -0.948  -1.118   3.900  1.00  0.00     0.027 A 
ATOM     20  C   UNL     1      -2.244  -0.948   1.882  1.00  0.00     0.027 A 
ATOM     21  C   UNL     1      -1.308   0.194   4.237  1.00  0.00     0.021 A 
ATOM     22  C   UNL     1      -2.625   0.352   2.221  1.00  0.00     0.021 A 
ATOM     23  C   UNL     1      -2.151   0.931   3.399  1.00  0.00     0.052 A 
BRANCH  23  24
ATOM     24  C   UNL     1      -2.516   2.275   3.734  1.00  0.00     0.099 C 
ATOM     25  N   UNL     1      -2.813   3.366   4.003  1.00  0.00    -0.192 NA
ENDBRANCH  23  24
ENDBRANCH  16  18
ENDBRANCH  11  16
ENDBRANCH   6   7
ENDBRANCH   5   6
ENDBRANCH   1   5
BRANCH   3  26
ATOM     26  C   UNL     1      -1.256  -7.983  -1.838  1.00  0.00     0.117 C 
BRANCH  26  27
ATOM     27  C   UNL     1      -2.438  -7.320  -1.142  1.00  0.00     0.042 C 
BRANCH  27  28
ATOM     28  C   UNL     1      -3.598  -6.962  -2.068  1.00  0.00     0.118 C 
BRANCH  28  29
ATOM     29  N   UNL     1      -4.149  -8.118  -2.762  1.00  0.00    -0.352 N 
ATOM     30  C   UNL     1      -5.412  -8.653  -2.752  1.00  0.00     0.251 C 
ATOM     31  H   UNL     1      -3.507  -8.597  -3.334  1.00  0.00     0.163 HD
ATOM     32  O   UNL     1      -5.603  -9.749  -3.273  1.00  0.00    -0.269 OA
BRANCH  30  33
ATOM     33  C   UNL     1      -6.540  -7.943  -2.109  1.00  0.00     0.039 A 
ATOM     34  C   UNL     1      -7.484  -8.694  -1.403  1.00  0.00     0.014 A 
ATOM     35  C   UNL     1      -6.702  -6.560  -2.225  1.00  0.00     0.014 A 
ATOM     36  C   UNL     1      -8.545  -8.053  -0.761  1.00  0.00     0.010 A 
ATOM     37  C   UNL     1      -7.710  -5.912  -1.512  1.00  0.00     0.010 A 
ATOM     38  C   UNL     1      -8.643  -6.651  -0.771  1.00  0.00    -0.014 A 
BRANCH  38  39
ATOM     39  C   UNL     1      -9.701  -5.960   0.012  1.00  0.00     0.031 A 
ATOM     40  C   UNL     1     -10.745  -5.118  -0.673  1.00  0.00     0.074 A 
ATOM     41  C   UNL     1      -9.706  -6.073   1.356  1.00  0.00     0.049 A 
ATOM     42  N   UNL     1     -11.740  -4.449  -0.144  1.00  0.00    -0.248 NA
ATOM     43  C   UNL     1     -10.654  -4.996  -2.137  1.00  0.00     0.031 C 
ATOM     44  C   UNL     1      -8.731  -6.829   2.146  1.00  0.00     0.029 A 
ATOM     45  N   UNL     1     -10.564  -5.560   2.297  1.00  0.00    -0.354 N 
ATOM     46  C   UNL     1     -12.391  -3.833  -1.206  1.00  0.00     0.074 A 
ATOM     47  C   UNL     1     -11.645  -4.156  -2.402  1.00  0.00     0.031 C 
ATOM     48  C   UNL     1      -9.071  -6.768   3.443  1.00  0.00     0.029 A 
ATOM     49  C   UNL     1     -10.252  -5.925   3.585  1.00  0.00     0.049 A 
ATOM     50  H   UNL     1     -11.331  -4.986   2.070  1.00  0.00     0.167 HD
ATOM     51  C   UNL     1     -13.520  -3.085  -1.191  1.00  0.00     0.031 A 
ATOM     52  C   UNL     1     -10.844  -5.609   4.753  1.00  0.00     0.031 A 
ATOM     53  C   UNL     1     -14.259  -2.754  -0.001  1.00  0.00     0.049 A 
ATOM     54  C   UNL     1     -12.064  -4.728   4.739  1.00  0.00     0.074 A 
ATOM     55  C   UNL     1     -15.434  -2.029   0.109  1.00  0.00     0.029 A 
ATOM     56  N   UNL     1     -13.894  -3.119   1.285  1.00  0.00    -0.354 N 
ATOM     57  N   UNL     1     -12.706  -4.216   3.717  1.00  0.00    -0.248 NA
ATOM     58  C   UNL     1     -12.649  -4.394   6.045  1.00  0.00     0.031 C 
ATOM     59  C   UNL     1     -15.742  -1.897   1.466  1.00  0.00     0.029 A 
ATOM     60  C   UNL     1     -14.804  -2.608   2.197  1.00  0.00     0.049 A 
ATOM     61  H   UNL     1     -13.106  -3.661   1.517  1.00  0.00     0.167 HD
ATOM     62  C   UNL     1     -13.787  -3.530   4.256  1.00  0.00     0.074 A 
ATOM     63  C   UNL     1     -13.731  -3.719   5.690  1.00  0.00     0.031 C 
ATOM     64  C   UNL     1     -14.740  -2.805   3.622  1.00  0.00     0.031 A 
BRANCH  51  65
ATOM     65  C   UNL     1     -14.036  -2.568  -2.508  1.00  0.00    -0.014 A 
ATOM     66  C   UNL     1     -14.582  -3.438  -3.465  1.00  0.00     0.009 A 
ATOM     67  C   UNL     1     -14.045  -1.188  -2.764  1.00  0.00     0.009 A 
ATOM     68  C   UNL     1     -15.102  -2.939  -4.662  1.00  0.00     0.001 A 
ATOM     69  C   UNL     1     -14.595  -0.689  -3.947  1.00  0.00     0.001 A 
ATOM     70  C   UNL     1     -15.117  -1.565  -4.897  1.00  0.00     0.000 A 
ENDBRANCH  51  65
BRANCH  52  71
ATOM     71  C   UNL     1     -10.294  -6.111   6.043  1.00  0.00    -0.014 A 
ATOM     72  C   UNL     1     -11.043  -6.977   6.855  1.00  0.00     0.009 A 
ATOM     73  C   UNL     1      -9.039  -5.677   6.498  1.00  0.00     0.009 A 
ATOM     74  C   UNL     1     -10.572  -7.354   8.115  1.00  0.00     0.001 A 
ATOM     75  C   UNL     1      -8.551  -6.090   7.740  1.00  0.00     0.001 A 
ATOM     76  C   UNL     1      -9.326  -6.912   8.555  1.00  0.00     0.000 A 
ENDBRANCH  52  71
BRANCH  64  77
ATOM     77  C   UNL     1     -15.827  -2.204   4.473  1.00  0.00    -0.014 A 
ATOM     78  C   UNL     1     -15.562  -1.170   5.384  1.00  0.00     0.009 A 
ATOM     79  C   UNL     1     -17.144  -2.675   4.347  1.00  0.00     0.009 A 
ATOM     80  C   UNL     1     -16.582  -0.657   6.189  1.00  0.00     0.001 A 
ATOM     81  C   UNL     1     -18.170  -2.132   5.122  1.00  0.00     0.001 A 
ATOM     82  C   UNL     1     -17.885  -1.135   6.053  1.00  0.00     0.000 A 
ENDBRANCH  64  77
ENDBRANCH  38  39
ENDBRANCH  30  33
ENDBRANCH  28  29
ENDBRANCH  27  28
ENDBRANCH  26  27
ENDBRANCH   3  26
TORSDOF 17
