REMARK SMILES O=C(CCCNC(=O)N1CC[C@@H](C(=O)NCCCNC(=O)c2ccc(-c3c4nc(c(-c5ccccc5)c5ccc([nH]5)c(-c5ccccc5)c5nc(c(-c6ccccc6)c6ccc3[nH]6)C=C5)C=C4)cc2)C1)NC1CC1
REMARK SMILES IDX 13 1 14 2 15 3 12 5 9 6 10 7 70 8 11 9 7 10 6 11 8 13 5 14
REMARK SMILES IDX 4 15 3 16 2 17 1 18 71 19 72 21 73 22 74 23 16 24 17 25
REMARK SMILES IDX 18 26 19 27 20 28 21 30 22 31 23 32 69 33 24 34 68 35 25 36
REMARK SMILES IDX 26 37 27 38 62 39 28 40 67 41 61 42 63 43 29 44 66 45 60 46
REMARK SMILES IDX 59 47 30 49 52 50 37 51 51 52 38 53 41 54 50 55 64 56 39 57
REMARK SMILES IDX 40 58 49 60 65 61 42 62 31 63 32 64 36 65 33 66 35 67 34 68
REMARK SMILES IDX 53 69 54 70 58 71 55 72 57 73 56 74 43 75 44 76 48 77 45 78
REMARK SMILES IDX 47 79 46 80
REMARK H PARENT 15 4 6 12 71 20 19 29 63 48 41 59
REMARK Flexibility Score: inf
ROOT
ATOM      1  C   UNL     1      10.209   3.252   2.746  1.00  0.00     0.224 C 
ATOM      2  O   UNL     1      10.494   2.441   3.626  1.00  0.00    -0.275 OA
ATOM      3  N   UNL     1      11.181   4.093   2.293  1.00  0.00    -0.356 N 
ATOM      4  H   UNL     1      12.087   3.916   2.635  1.00  0.00     0.163 HD
ENDROOT
BRANCH   1   5
ATOM      5  C   UNL     1       8.835   3.326   2.117  1.00  0.00     0.100 C 
ATOM      6  N   UNL     1       7.770   1.520   1.043  1.00  0.00    -0.324 N 
ATOM      7  C   UNL     1       7.583   1.305   2.464  1.00  0.00     0.122 C 
ATOM      8  C   UNL     1       8.823   2.488   0.831  1.00  0.00     0.134 C 
ATOM      9  C   UNL     1       7.747   2.707   3.015  1.00  0.00     0.037 C 
BRANCH   6  10
ATOM     10  C   UNL     1       7.228   0.815   0.018  1.00  0.00     0.317 C 
ATOM     11  N   UNL     1       5.932   0.420   0.126  1.00  0.00    -0.338 N 
ATOM     12  H   UNL     1       5.683  -0.418  -0.325  1.00  0.00     0.165 HD
ATOM     13  O   UNL     1       7.827   0.583  -1.030  1.00  0.00    -0.249 OA
BRANCH  11  14
ATOM     14  C   UNL     1       4.879   1.120   0.845  1.00  0.00     0.118 C 
BRANCH  14  15
ATOM     15  C   UNL     1       3.872   1.776  -0.100  1.00  0.00     0.031 C 
BRANCH  15  16
ATOM     16  C   UNL     1       3.028   0.792  -0.906  1.00  0.00     0.102 C 
BRANCH  16  17
ATOM     17  C   UNL     1       2.138  -0.019   0.009  1.00  0.00     0.220 C 
ATOM     18  O   UNL     1       1.068   0.414   0.424  1.00  0.00    -0.275 OA
ATOM     19  N   UNL     1       2.683  -1.231   0.378  1.00  0.00    -0.353 N 
ATOM     20  H   UNL     1       3.541  -1.506  -0.019  1.00  0.00     0.163 HD
BRANCH  19  21
ATOM     21  C   UNL     1       2.049  -2.100   1.312  1.00  0.00     0.082 C 
ATOM     22  C   UNL     1       0.839  -2.900   0.924  1.00  0.00     0.027 C 
ATOM     23  C   UNL     1       2.152  -3.591   1.146  1.00  0.00     0.027 C 
ENDBRANCH  19  21
ENDBRANCH  16  17
ENDBRANCH  15  16
ENDBRANCH  14  15
ENDBRANCH  11  14
ENDBRANCH   6  10
ENDBRANCH   1   5
BRANCH   3  24
ATOM     24  C   UNL     1      11.069   5.213   1.376  1.00  0.00     0.117 C 
BRANCH  24  25
ATOM     25  C   UNL     1      10.938   6.541   2.119  1.00  0.00     0.042 C 
BRANCH  25  26
ATOM     26  C   UNL     1      12.126   6.871   3.023  1.00  0.00     0.118 C 
BRANCH  26  27
ATOM     27  N   UNL     1      13.383   6.961   2.292  1.00  0.00    -0.352 N 
ATOM     28  C   UNL     1      14.312   7.965   2.243  1.00  0.00     0.251 C 
ATOM     29  H   UNL     1      13.599   6.172   1.745  1.00  0.00     0.163 HD
ATOM     30  O   UNL     1      15.230   7.897   1.423  1.00  0.00    -0.269 OA
BRANCH  28  31
ATOM     31  C   UNL     1      14.222   9.136   3.140  1.00  0.00     0.039 A 
ATOM     32  C   UNL     1      14.509  10.401   2.617  1.00  0.00     0.014 A 
ATOM     33  C   UNL     1      13.903   8.998   4.493  1.00  0.00     0.014 A 
ATOM     34  C   UNL     1      14.416  11.530   3.433  1.00  0.00     0.010 A 
ATOM     35  C   UNL     1      13.745  10.131   5.290  1.00  0.00     0.010 A 
ATOM     36  C   UNL     1      14.000  11.408   4.769  1.00  0.00    -0.014 A 
BRANCH  36  37
ATOM     37  C   UNL     1      13.814  12.607   5.624  1.00  0.00     0.031 A 
ATOM     38  C   UNL     1      14.680  12.826   6.834  1.00  0.00     0.074 A 
ATOM     39  C   UNL     1      12.819  13.473   5.345  1.00  0.00     0.049 A 
ATOM     40  N   UNL     1      14.627  13.786   7.723  1.00  0.00    -0.248 NA
ATOM     41  C   UNL     1      15.726  11.824   7.093  1.00  0.00     0.031 C 
ATOM     42  C   UNL     1      11.884  13.357   4.223  1.00  0.00     0.029 A 
ATOM     43  N   UNL     1      12.426  14.619   5.988  1.00  0.00    -0.354 N 
ATOM     44  C   UNL     1      15.616  13.495   8.654  1.00  0.00     0.074 A 
ATOM     45  C   UNL     1      16.226  12.248   8.245  1.00  0.00     0.031 C 
ATOM     46  C   UNL     1      11.042  14.402   4.244  1.00  0.00     0.029 A 
ATOM     47  C   UNL     1      11.351  15.239   5.399  1.00  0.00     0.049 A 
ATOM     48  H   UNL     1      12.871  14.965   6.795  1.00  0.00     0.167 HD
ATOM     49  C   UNL     1      15.994  14.207   9.743  1.00  0.00     0.031 A 
ATOM     50  C   UNL     1      10.683  16.354   5.750  1.00  0.00     0.031 A 
ATOM     51  C   UNL     1      15.399  15.454  10.143  1.00  0.00     0.049 A 
ATOM     52  C   UNL     1      11.118  17.121   6.967  1.00  0.00     0.074 A 
ATOM     53  C   UNL     1      15.759  16.282  11.193  1.00  0.00     0.029 A 
ATOM     54  N   UNL     1      14.319  16.053   9.514  1.00  0.00    -0.354 N 
ATOM     55  N   UNL     1      12.103  16.869   7.794  1.00  0.00    -0.248 NA
ATOM     56  C   UNL     1      10.353  18.334   7.290  1.00  0.00     0.031 C 
ATOM     57  C   UNL     1      14.864  17.357  11.230  1.00  0.00     0.029 A 
ATOM     58  C   UNL     1      13.982  17.225  10.170  1.00  0.00     0.049 A 
ATOM     59  H   UNL     1      13.860  15.697   8.720  1.00  0.00     0.167 HD
ATOM     60  C   UNL     1      12.094  17.905   8.718  1.00  0.00     0.074 A 
ATOM     61  C   UNL     1      11.016  18.797   8.341  1.00  0.00     0.031 C 
ATOM     62  C   UNL     1      12.907  18.101   9.785  1.00  0.00     0.031 A 
BRANCH  49  63
ATOM     63  C   UNL     1      17.102  13.645  10.589  1.00  0.00    -0.014 A 
ATOM     64  C   UNL     1      18.430  13.626  10.133  1.00  0.00     0.009 A 
ATOM     65  C   UNL     1      16.821  13.167  11.879  1.00  0.00     0.009 A 
ATOM     66  C   UNL     1      19.447  13.107  10.937  1.00  0.00     0.001 A 
ATOM     67  C   UNL     1      17.844  12.675  12.691  1.00  0.00     0.001 A 
ATOM     68  C   UNL     1      19.154  12.637  12.217  1.00  0.00     0.000 A 
ENDBRANCH  49  63
BRANCH  50  69
ATOM     69  C   UNL     1       9.534  16.822   4.933  1.00  0.00    -0.014 A 
ATOM     70  C   UNL     1       9.645  17.981   4.149  1.00  0.00     0.009 A 
ATOM     71  C   UNL     1       8.319  16.121   4.939  1.00  0.00     0.009 A 
ATOM     72  C   UNL     1       8.553  18.444   3.411  1.00  0.00     0.001 A 
ATOM     73  C   UNL     1       7.238  16.570   4.178  1.00  0.00     0.001 A 
ATOM     74  C   UNL     1       7.352  17.736   3.423  1.00  0.00     0.000 A 
ENDBRANCH  50  69
BRANCH  62  75
ATOM     75  C   UNL     1      12.682  19.344  10.599  1.00  0.00    -0.014 A 
ATOM     76  C   UNL     1      11.571  19.470  11.447  1.00  0.00     0.009 A 
ATOM     77  C   UNL     1      13.616  20.391  10.539  1.00  0.00     0.009 A 
ATOM     78  C   UNL     1      11.383  20.634  12.194  1.00  0.00     0.001 A 
ATOM     79  C   UNL     1      13.439  21.541  11.308  1.00  0.00     0.001 A 
ATOM     80  C   UNL     1      12.318  21.666  12.127  1.00  0.00     0.000 A 
ENDBRANCH  62  75
ENDBRANCH  36  37
ENDBRANCH  28  31
ENDBRANCH  26  27
ENDBRANCH  25  26
ENDBRANCH  24  25
ENDBRANCH   3  24
TORSDOF 16
